### 
### Created by X-TOOL on Mon Sep 10 21:13:09 2018
### 

@<TRIPOS>MOLECULE
4erq_ligand
  197   198     1     0     0
SMALL
GAST_HUCK


@<TRIPOS>ATOM
      1 N         -28.8300   19.2070  -32.6600 N.4       1 ILE         0.2381
      2 CA        -28.0010   18.0330  -32.9410 C.3       1 ILE         0.0676
      3 C         -28.1340   16.9820  -31.8400 C.2       1 ILE         0.2271
      4 O         -27.9820   17.2970  -30.6570 O.2       1 ILE        -0.3907
      5 CB        -26.5150   18.4090  -33.0810 C.3       1 ILE         0.0164
      6 CG1       -26.2860   19.2250  -34.3540 C.3       1 ILE        -0.0460
      7 CG2       -25.6380   17.1550  -33.1010 C.3       1 ILE        -0.0551
      8 CD1       -24.8380   19.6040  -34.5780 C.3       1 ILE        -0.0647
      9 N         -28.4230   15.7420  -32.2310 N.am      1 ASN        -0.2589
     10 CA        -28.4840   14.6350  -31.2830 C.3       1 ASN         0.1479
     11 C         -27.1140   13.9730  -31.1650 C.2       1 ASN         0.2088
     12 O         -26.6040   13.4280  -32.1470 O.2       1 ASN        -0.3940
     13 CB        -29.5460   13.6110  -31.7180 C.3       1 ASN         0.0773
     14 CG        -30.9630   14.1650  -31.6260 C.2       1 ASN         0.1780
     15 OD1       -31.3570   14.7180  -30.5980 O.2       1 ASN        -0.3970
     16 ND2       -31.7290   14.0380  -32.7090 N.am      1 ASN        -0.3007
     17 N         -26.5100   14.0320  -29.9620 N.am      1 PRO        -0.2497
     18 CA        -25.1450   13.5400  -29.7210 C.3       1 PRO         0.1338
     19 C         -24.9560   12.0760  -30.0990 C.2       1 PRO         0.2042
     20 O         -23.8720   11.7110  -30.5730 O.2       1 PRO        -0.3944
     21 CB        -24.9760   13.6860  -28.2010 C.3       1 PRO        -0.0104
     22 CG        -25.9770   14.7190  -27.7930 C.3       1 PRO        -0.0281
     23 CD        -27.1320   14.5640  -28.7350 C.3       1 PRO         0.0369
     24 N         -25.9750   11.2450  -29.8820 N.am      1 THR        -0.2613
     25 CA        -25.8650    9.8340  -30.2410 C.3       1 THR         0.1565
     26 C         -25.9190    9.6120  -31.7430 C.2       1 THR         0.2063
     27 O         -25.5030    8.5580  -32.2280 O.2       1 THR        -0.3943
     28 CB        -26.9670    8.9770  -29.5950 C.3       1 THR         0.0924
     29 OG1       -28.2460    9.4070  -30.0830 O.3       1 THR        -0.3874
     30 CG2       -26.9110    9.0900  -28.0760 C.3       1 THR        -0.0346
     31 N         -26.4470   10.5870  -32.4810 N.am      1 GLY        -0.2663
     32 CA        -26.5000   10.4660  -33.9260 C.3       1 GLY         0.1201
     33 C         -27.8950   10.4400  -34.5380 C.2       1 GLY         0.2008
     34 O         -28.0540   10.7240  -35.7260 O.2       1 GLY        -0.3947
     35 N         -28.9050   10.0710  -33.7520 N.am      1 CYS        -0.2632
     36 CA        -30.2920   10.1220  -34.2460 C.3       1 CYS         0.1396
     37 C         -31.2760   10.3240  -33.0980 C.2       1 CYS         0.2047
     38 O         -30.9640   10.0420  -31.9370 O.2       1 CYS        -0.3944
     39 CB        -30.6470    8.8690  -35.0640 C.3       1 CYS         0.0311
     40 SG        -31.0860    7.3950  -34.0660 S.3       1 CYS        -0.1735
     41 N         -32.4620   10.8320  -33.4280 N.am      1 ALA        -0.2640
     42 CA        -33.4690   11.1400  -32.4240 C.3       1 ALA         0.1282
     43 C         -33.8970    9.9190  -31.5880 C.2       1 ALA         0.2036
     44 O         -34.0670   10.0300  -30.3690 O.2       1 ALA        -0.3944
     45 CB        -34.6890   11.7950  -33.0810 C.3       1 ALA        -0.0244
     46 N         -34.0810    8.7660  -32.2280 N.am      1 ARG        -0.2637
     47 CA        -34.6300    7.6150  -31.5030 C.3       1 ARG         0.1311
     48 C         -33.6610    7.1210  -30.4450 C.2       1 ARG         0.2040
     49 O         -34.0830    6.5890  -29.4230 O.2       1 ARG        -0.3944
     50 CB        -35.0200    6.4610  -32.4350 C.3       1 ARG        -0.0092
     51 CG        -35.8950    5.3880  -31.7360 C.3       1 ARG        -0.0156
     52 CD        -36.3330    4.2720  -32.6970 C.3       1 ARG         0.0627
     53 NE        -37.2080    4.7380  -33.7800 N.pl3     1 ARG        -0.2723
     54 CZ        -38.5350    4.7120  -33.7340 C.cat     1 ARG         0.2882
     55 NH1       -39.1470    4.2540  -32.6490 N.pl3     1 ARG        -0.2849
     56 NH2       -39.2490    5.1450  -34.7660 N.pl3     1 ARG        -0.2849
     57 N         -32.3650    7.3100  -30.6680 N.am      1 SER        -0.2616
     58 CA        -31.3890    6.8200  -29.6920 C.3       1 SER         0.1539
     59 C         -31.1050    7.7990  -28.5330 C.2       1 SER         0.2062
     60 O         -30.2670    7.5080  -27.6710 O.2       1 SER        -0.3943
     61 CB        -30.0990    6.3490  -30.3750 C.3       1 SER         0.0843
     62 OG        -29.5330    7.3680  -31.1860 O.3       1 SER        -0.3903
     63 N         -31.8050    8.9390  -28.5010 N.am      1 GLU        -0.2635
     64 CA        -31.7500    9.8560  -27.3450 C.3       1 GLU         0.1327
     65 C         -32.8920    9.5840  -26.3640 C.2       1 GLU         0.2065
     66 O         -34.0210    9.2980  -26.7840 O.2       1 GLU        -0.3942
     67 CB        -31.8610   11.3190  -27.7930 C.3       1 GLU        -0.0008
     68 CG        -30.8350   11.7600  -28.8090 C.3       1 GLU         0.0044
     69 CD        -29.4330   11.8600  -28.2240 C.2       1 GLU         0.0350
     70 OE1       -28.4560   11.7830  -29.0030 O.co2     1 GLU        -0.5690
     71 OE2       -29.3100   12.0230  -26.9890 O.co2     1 GLU        -0.5690
     72 N         -32.6150    9.6920  -25.0500 N.am      1 PRO        -0.2498
     73 CA        -33.6900    9.5340  -24.0620 C.3       1 PRO         0.1338
     74 C         -34.5730   10.7750  -24.0360 C.2       1 PRO         0.2041
     75 O         -34.0800   11.8720  -24.3000 O.2       1 PRO        -0.3944
     76 CB        -32.9270    9.4050  -22.7380 C.3       1 PRO        -0.0104
     77 CG        -31.6730   10.2000  -22.9510 C.3       1 PRO        -0.0281
     78 CD        -31.3130    9.9880  -24.4190 C.3       1 PRO         0.0369
     79 N         -35.8560   10.6060  -23.7450 N.am      1 LYS        -0.2637
     80 CA        -36.7630   11.7380  -23.6390 C.3       1 LYS         0.1309
     81 C         -36.5980   12.3420  -22.2600 C.2       1 LYS         0.2034
     82 O         -36.6730   11.6310  -21.2590 O.2       1 LYS        -0.3944
     83 CB        -38.2120   11.2900  -23.8270 C.3       1 LYS        -0.0122
     84 CG        -39.2460   12.4030  -23.6810 C.3       1 LYS        -0.0440
     85 CD        -40.6670   11.8390  -23.7230 C.3       1 LYS        -0.0124
     86 CE        -41.7320   12.9370  -23.8200 C.3       1 LYS        -0.0354
     87 NZ        -41.7150   13.8510  -22.6470 N.4       1 LYS         0.2185
     88 N         -36.3630   13.6490  -22.2190 N.am      1 ILE        -0.2668
     89 CA        -36.1630   14.3810  -20.9690 C.3       1 ILE         0.1251
     90 C         -37.4240   15.1650  -20.6210 C.2       1 ILE         0.2152
     91 O         -37.8470   16.0220  -21.4030 O.co2     1 ILE        -0.4120
     92 CB        -34.9970   15.3920  -21.1000 C.3       1 ILE        -0.0068
     93 CG1       -33.6610   14.6790  -21.3420 C.3       1 ILE        -0.0496
     94 CG2       -34.9360   16.2910  -19.8850 C.3       1 ILE        -0.0587
     95 CD1       -33.3580   13.5360  -20.3650 C.3       1 ILE        -0.0649
     96 H         -29.7940   18.9250  -32.5748 H         1 ILE         0.2015
     97 H         -28.7394   19.8705  -33.4134 H         1 ILE         0.2015
     98 H         -28.5273   19.6336  -31.7984 H         1 ILE         0.2015
     99 H         -28.3427   17.5938  -33.8899 H         1 ILE         0.1101
    100 H         -26.2283   19.0228  -32.2144 H         1 ILE         0.0378
    101 H         -26.8807   20.1479  -34.2873 H         1 ILE         0.0269
    102 H         -26.6270   18.6304  -35.2144 H         1 ILE         0.0269
    103 H         -25.8083   16.5738  -32.1827 H         1 ILE         0.0236
    104 H         -24.5795   17.4487  -33.1580 H         1 ILE         0.0236
    105 H         -25.8959   16.5411  -33.9766 H         1 ILE         0.0236
    106 H         -24.7509   20.1862  -35.5072 H         1 ILE         0.0230
    107 H         -24.2284   18.6919  -34.6584 H         1 ILE         0.0230
    108 H         -24.4822   20.2094  -33.7313 H         1 ILE         0.0230
    109 H         -28.6027   15.5655  -33.1988 H         1 ASN         0.1886
    110 H         -28.7668   15.0326  -30.2972 H         1 ASN         0.0826
    111 H         -29.4702   12.7265  -31.0684 H         1 ASN         0.0551
    112 H         -29.3485   13.3188  -32.7599 H         1 ASN         0.0551
    113 H         -32.6670   14.3846  -32.7015 H         1 ASN         0.1814
    114 H         -31.3659   13.5961  -33.5293 H         1 ASN         0.1814
    115 H         -24.4137   14.1548  -30.2661 H         1 PRO         0.0802
    116 H         -23.9565   14.0189  -27.9564 H         1 PRO         0.0313
    117 H         -25.1806   12.7302  -27.6965 H         1 PRO         0.0313
    118 H         -25.5446   15.7267  -27.8800 H         1 PRO         0.0287
    119 H         -26.3028   14.5481  -26.7564 H         1 PRO         0.0287
    120 H         -27.8743   13.8586  -28.3334 H         1 PRO         0.0524
    121 H         -27.6143   15.5336  -28.9278 H         1 PRO         0.0524
    122 H         -26.8192   11.5895  -29.4713 H         1 THR         0.1884
    123 H         -24.8913    9.4766  -29.8747 H         1 THR         0.0826
    124 H         -26.8123    7.9249  -29.8762 H         1 THR         0.0639
    125 H         -28.3787   10.3204  -29.8581 H         1 THR         0.2101
    126 H         -27.7052    8.4713  -27.6328 H         1 THR         0.0257
    127 H         -27.0561   10.1396  -27.7808 H         1 THR         0.0257
    128 H         -25.9313    8.7405  -27.7182 H         1 THR         0.0257
    129 H         -26.8088   11.4067  -32.0369 H         1 GLY         0.1881
    130 H         -25.9914    9.5316  -34.2054 H         1 GLY         0.0763
    131 H         -25.9584   11.3212  -34.3565 H         1 GLY         0.0763
    132 H         -28.7206    9.7573  -32.8205 H         1 CYS         0.1884
    133 H         -30.3753   10.9911  -34.9152 H         1 CYS         0.0808
    134 H         -29.7795    8.6121  -35.6896 H         1 CYS         0.0422
    135 H         -31.5044    9.1131  -35.7084 H         1 CYS         0.0422
    136 H         -30.3073    7.1458  -33.4763 H         1 CYS         0.1019
    137 H         -32.6658   11.0064  -34.3914 H         1 ALA         0.1883
    138 H         -33.0263   11.8703  -31.7307 H         1 ALA         0.0797
    139 H         -35.4417   12.0224  -32.3118 H         1 ALA         0.0277
    140 H         -35.1196   11.1067  -33.8231 H         1 ALA         0.0277
    141 H         -34.3814   12.7260  -33.5795 H         1 ALA         0.0277
    142 H         -33.8464    8.6852  -33.1967 H         1 ARG         0.1883
    143 H         -35.5437    7.9538  -30.9928 H         1 ARG         0.0800
    144 H         -34.1010    5.9800  -32.8011 H         1 ARG         0.0313
    145 H         -35.5827    6.8723  -33.2860 H         1 ARG         0.0313
    146 H         -36.7928    5.8753  -31.3281 H         1 ARG         0.0301
    147 H         -35.3159    4.9400  -30.9151 H         1 ARG         0.0301
    148 H         -36.8725    3.5073  -32.1189 H         1 ARG         0.0689
    149 H         -35.4329    3.8258  -33.1450 H         1 ARG         0.0689
    150 H         -36.7634    5.1096  -34.6315 H         1 ARG         0.2642
    151 H         -40.1760    4.2319  -32.6087 H         1 ARG         0.2615
    152 H         -38.5930    3.9206  -31.8472 H         1 ARG         0.2615
    153 H         -38.7740    5.5004  -35.6080 H         1 ARG         0.2615
    154 H         -40.2780    5.1255  -34.7247 H         1 ARG         0.2615
    155 H         -32.0587    7.7824  -31.4945 H         1 SER         0.1884
    156 H         -31.8411    5.9294  -29.2311 H         1 SER         0.0823
    157 H         -30.3271    5.4770  -31.0055 H         1 SER         0.0606
    158 H         -29.3705    6.0623  -29.6023 H         1 SER         0.0606
    159 H         -29.3285    8.1231  -30.6470 H         1 SER         0.2097
    160 H         -32.3819    9.1767  -29.2824 H         1 GLU         0.1883
    161 H         -30.7895    9.7084  -26.8296 H         1 GLU         0.0801
    162 H         -31.7542   11.9565  -26.9029 H         1 GLU         0.0330
    163 H         -32.8590   11.4658  -28.2316 H         1 GLU         0.0330
    164 H         -31.1256   12.7476  -29.1966 H         1 GLU         0.0433
    165 H         -30.8210   11.0321  -29.6335 H         1 GLU         0.0433
    166 H         -34.2983    8.6408  -24.2672 H         1 PRO         0.0802
    167 H         -32.6891    8.3520  -22.5268 H         1 PRO         0.0313
    168 H         -33.5156    9.8217  -21.9074 H         1 PRO         0.0313
    169 H         -30.8671    9.8324  -22.2987 H         1 PRO         0.0287
    170 H         -31.8522   11.2660  -22.7473 H         1 PRO         0.0287
    171 H         -30.8640   10.8953  -24.8493 H         1 PRO         0.0524
    172 H         -30.6176    9.1438  -24.5360 H         1 PRO         0.0524
    173 H         -36.2068    9.6815  -23.5955 H         1 LYS         0.1883
    174 H         -36.5112   12.4849  -24.4063 H         1 LYS         0.0800
    175 H         -38.4321   10.5168  -23.0762 H         1 LYS         0.0312
    176 H         -38.3102   10.8608  -24.8350 H         1 LYS         0.0312
    177 H         -39.1197   13.1218  -24.5041 H         1 LYS         0.0269
    178 H         -39.0904   12.9150  -22.7199 H         1 LYS         0.0269
    179 H         -40.8428   11.2572  -22.8062 H         1 LYS         0.0317
    180 H         -40.7592   11.1800  -24.5989 H         1 LYS         0.0317
    181 H         -42.7226   12.4632  -23.8838 H         1 LYS         0.0813
    182 H         -41.5485   13.5272  -24.7299 H         1 LYS         0.0813
    183 H         -42.4303   14.5526  -22.7573 H         1 LYS         0.1994
    184 H         -40.8137   14.2975  -22.5820 H         1 LYS         0.1994
    185 H         -41.8896   13.3225  -21.8066 H         1 LYS         0.1994
    186 H         -36.3210   14.1544  -23.0809 H         1 ILE         0.1876
    187 H         -35.9383   13.6646  -20.1651 H         1 ILE         0.0754
    188 O1        -38.0315   14.9393  -19.5404 O.co2     1 ILE        -0.4120
    189 H         -35.1987   16.0257  -21.9762 H         1 ILE         0.0339
    190 H         -32.8554   15.4234  -21.2588 H         1 ILE         0.0267
    191 H         -33.6735   14.2645  -22.3608 H         1 ILE         0.0267
    192 H         -35.9094   16.7836  -19.7441 H         1 ILE         0.0234
    193 H         -34.1570   17.0536  -20.0319 H         1 ILE         0.0234
    194 H         -34.6973   15.6896  -18.9955 H         1 ILE         0.0234
    195 H         -32.3853   13.0876  -20.6156 H         1 ILE         0.0230
    196 H         -34.1447   12.7709  -20.4404 H         1 ILE         0.0230
    197 H         -33.3266   13.9297  -19.3384 H         1 ILE         0.0230
@<TRIPOS>BOND
     1    1    2 1  
     2    2    3 1  
     3    2    5 1  
     4    3    4 2  
     5    3    9 am 
     6    5    6 1  
     7    5    7 1  
     8    6    8 1  
     9    9   10 1  
    10   10   11 1  
    11   10   13 1  
    12   11   12 2  
    13   11   17 am 
    14   13   14 1  
    15   14   15 2  
    16   14   16 am 
    17   17   18 1  
    18   17   23 1  
    19   18   19 1  
    20   18   21 1  
    21   19   20 2  
    22   19   24 am 
    23   21   22 1  
    24   22   23 1  
    25   24   25 1  
    26   25   26 1  
    27   25   28 1  
    28   26   27 2  
    29   26   31 am 
    30   28   29 1  
    31   28   30 1  
    32   31   32 1  
    33   32   33 1  
    34   33   34 2  
    35   33   35 am 
    36   35   36 1  
    37   36   37 1  
    38   36   39 1  
    39   37   38 2  
    40   37   41 am 
    41   39   40 1  
    42   41   42 1  
    43   42   43 1  
    44   42   45 1  
    45   43   44 2  
    46   43   46 am 
    47   46   47 1  
    48   47   48 1  
    49   47   50 1  
    50   48   49 2  
    51   48   57 am 
    52   50   51 1  
    53   51   52 1  
    54   52   53 1  
    55   53   54 ar 
    56   54   55 ar 
    57   54   56 ar 
    58   57   58 1  
    59   58   59 1  
    60   58   61 1  
    61   59   60 2  
    62   59   63 am 
    63   61   62 1  
    64   63   64 1  
    65   64   65 1  
    66   64   67 1  
    67   65   66 2  
    68   65   72 am 
    69   67   68 1  
    70   68   69 1  
    71   69   70 ar 
    72   69   71 ar 
    73   72   73 1  
    74   72   78 1  
    75   73   74 1  
    76   73   76 1  
    77   74   75 2  
    78   74   79 am 
    79   76   77 1  
    80   77   78 1  
    81   79   80 1  
    82   80   81 1  
    83   80   83 1  
    84   81   82 2  
    85   81   88 am 
    86   83   84 1  
    87   84   85 1  
    88   85   86 1  
    89   86   87 1  
    90   88   89 1  
    91   89   90 1  
    92   89   92 1  
    93   90   91 ar 
    94   92   93 1  
    95   92   94 1  
    96   93   95 1  
    97    1   96 1  
    98    1   97 1  
    99    1   98 1  
   100    2   99 1  
   101    5  100 1  
   102    6  101 1  
   103    6  102 1  
   104    7  103 1  
   105    7  104 1  
   106    7  105 1  
   107    8  106 1  
   108    8  107 1  
   109    8  108 1  
   110    9  109 1  
   111   10  110 1  
   112   13  111 1  
   113   13  112 1  
   114   16  113 1  
   115   16  114 1  
   116   18  115 1  
   117   21  116 1  
   118   21  117 1  
   119   22  118 1  
   120   22  119 1  
   121   23  120 1  
   122   23  121 1  
   123   24  122 1  
   124   25  123 1  
   125   28  124 1  
   126   29  125 1  
   127   30  126 1  
   128   30  127 1  
   129   30  128 1  
   130   31  129 1  
   131   32  130 1  
   132   32  131 1  
   133   35  132 1  
   134   36  133 1  
   135   39  134 1  
   136   39  135 1  
   137   40  136 1  
   138   41  137 1  
   139   42  138 1  
   140   45  139 1  
   141   45  140 1  
   142   45  141 1  
   143   46  142 1  
   144   47  143 1  
   145   50  144 1  
   146   50  145 1  
   147   51  146 1  
   148   51  147 1  
   149   52  148 1  
   150   52  149 1  
   151   53  150 1  
   152   55  151 1  
   153   55  152 1  
   154   56  153 1  
   155   56  154 1  
   156   57  155 1  
   157   58  156 1  
   158   61  157 1  
   159   61  158 1  
   160   62  159 1  
   161   63  160 1  
   162   64  161 1  
   163   67  162 1  
   164   67  163 1  
   165   68  164 1  
   166   68  165 1  
   167   73  166 1  
   168   76  167 1  
   169   76  168 1  
   170   77  169 1  
   171   77  170 1  
   172   78  171 1  
   173   78  172 1  
   174   79  173 1  
   175   80  174 1  
   176   83  175 1  
   177   83  176 1  
   178   84  177 1  
   179   84  178 1  
   180   85  179 1  
   181   85  180 1  
   182   86  181 1  
   183   86  182 1  
   184   87  183 1  
   185   87  184 1  
   186   87  185 1  
   187   88  186 1  
   188   89  187 1  
   189   90  188 ar 
   190   92  189 1  
   191   93  190 1  
   192   93  191 1  
   193   94  192 1  
   194   94  193 1  
   195   94  194 1  
   196   95  195 1  
   197   95  196 1  
   198   95  197 1  
@<TRIPOS>SUBSTRUCTURE
     1 ILE         1

