4erq_ligand
  -I-interpret- 

198199  0  0  0  0  0  0  0  0999 V2000
  -28.8300   19.2070  -32.6600 N   0  3  0  0  0
  -28.0010   18.0330  -32.9410 C   0  0  0  0  0
  -28.1340   16.9820  -31.8400 C   0  0  0  0  0
  -27.9820   17.2970  -30.6570 O   0  0  0  0  0
  -26.5150   18.4090  -33.0810 C   0  0  0  0  0
  -26.2860   19.2250  -34.3540 C   0  0  0  0  0
  -25.6380   17.1550  -33.1010 C   0  0  0  0  0
  -24.8380   19.6040  -34.5780 C   0  0  0  0  0
  -28.4230   15.7420  -32.2310 N   0  0  0  0  0
  -28.4840   14.6350  -31.2830 C   0  0  0  0  0
  -27.1140   13.9730  -31.1650 C   0  0  0  0  0
  -26.6040   13.4280  -32.1470 O   0  0  0  0  0
  -29.5460   13.6110  -31.7180 C   0  0  0  0  0
  -30.9630   14.1650  -31.6260 C   0  0  0  0  0
  -31.3570   14.7180  -30.5980 O   0  0  0  0  0
  -31.7290   14.0380  -32.7090 N   0  0  0  0  0
  -26.5100   14.0320  -29.9620 N   0  0  0  0  0
  -25.1450   13.5400  -29.7210 C   0  0  0  0  0
  -24.9560   12.0760  -30.0990 C   0  0  0  0  0
  -23.8720   11.7110  -30.5730 O   0  0  0  0  0
  -24.9760   13.6860  -28.2010 C   0  0  0  0  0
  -25.9770   14.7190  -27.7930 C   0  0  0  0  0
  -27.1320   14.5640  -28.7350 C   0  0  0  0  0
  -25.9750   11.2450  -29.8820 N   0  0  0  0  0
  -25.8650    9.8340  -30.2410 C   0  0  0  0  0
  -25.9190    9.6120  -31.7430 C   0  0  0  0  0
  -25.5030    8.5580  -32.2280 O   0  0  0  0  0
  -26.9670    8.9770  -29.5950 C   0  0  0  0  0
  -28.2460    9.4070  -30.0830 O   0  0  0  0  0
  -26.9110    9.0900  -28.0760 C   0  0  0  0  0
  -26.4470   10.5870  -32.4810 N   0  0  0  0  0
  -26.5000   10.4660  -33.9260 C   0  0  0  0  0
  -27.8950   10.4400  -34.5380 C   0  0  0  0  0
  -28.0540   10.7240  -35.7260 O   0  0  0  0  0
  -28.9050   10.0710  -33.7520 N   0  0  0  0  0
  -30.2920   10.1220  -34.2460 C   0  0  0  0  0
  -31.2760   10.3240  -33.0980 C   0  0  0  0  0
  -30.9640   10.0420  -31.9370 O   0  0  0  0  0
  -30.6470    8.8690  -35.0640 C   0  0  0  0  0
  -31.0860    7.3950  -34.0660 S   0  0  0  0  0
  -32.4620   10.8320  -33.4280 N   0  0  0  0  0
  -33.4690   11.1400  -32.4240 C   0  0  0  0  0
  -33.8970    9.9190  -31.5880 C   0  0  0  0  0
  -34.0670   10.0300  -30.3690 O   0  0  0  0  0
  -34.6890   11.7950  -33.0810 C   0  0  0  0  0
  -34.0810    8.7660  -32.2280 N   0  0  0  0  0
  -34.6300    7.6150  -31.5030 C   0  0  0  0  0
  -33.6610    7.1210  -30.4450 C   0  0  0  0  0
  -34.0830    6.5890  -29.4230 O   0  0  0  0  0
  -35.0200    6.4610  -32.4350 C   0  0  0  0  0
  -35.8950    5.3880  -31.7360 C   0  0  0  0  0
  -36.3330    4.2720  -32.6970 C   0  0  0  0  0
  -37.2080    4.7380  -33.7800 N   0  0  0  0  0
  -38.5350    4.7120  -33.7340 C   0  0  0  0  0
  -39.1470    4.2540  -32.6490 N   0  0  0  0  0
  -39.2490    5.1450  -34.7660 N   0  0  0  0  0
  -32.3650    7.3100  -30.6680 N   0  0  0  0  0
  -31.3890    6.8200  -29.6920 C   0  0  0  0  0
  -31.1050    7.7990  -28.5330 C   0  0  0  0  0
  -30.2670    7.5080  -27.6710 O   0  0  0  0  0
  -30.0990    6.3490  -30.3750 C   0  0  0  0  0
  -29.5330    7.3680  -31.1860 O   0  0  0  0  0
  -31.8050    8.9390  -28.5010 N   0  0  0  0  0
  -31.7500    9.8560  -27.3450 C   0  0  0  0  0
  -32.8920    9.5840  -26.3640 C   0  0  0  0  0
  -34.0210    9.2980  -26.7840 O   0  0  0  0  0
  -31.8610   11.3190  -27.7930 C   0  0  0  0  0
  -30.8350   11.7600  -28.8090 C   0  0  0  0  0
  -29.4330   11.8600  -28.2240 C   0  0  0  0  0
  -28.4560   11.7830  -29.0030 O   0  0  0  0  0
  -29.3100   12.0230  -26.9890 O   0  0  0  0  0
  -32.6150    9.6920  -25.0500 N   0  0  0  0  0
  -33.6900    9.5340  -24.0620 C   0  0  0  0  0
  -34.5730   10.7750  -24.0360 C   0  0  0  0  0
  -34.0800   11.8720  -24.3000 O   0  0  0  0  0
  -32.9270    9.4050  -22.7380 C   0  0  0  0  0
  -31.6730   10.2000  -22.9510 C   0  0  0  0  0
  -31.3130    9.9880  -24.4190 C   0  0  0  0  0
  -35.8560   10.6060  -23.7450 N   0  0  0  0  0
  -36.7630   11.7380  -23.6390 C   0  0  0  0  0
  -36.5980   12.3420  -22.2600 C   0  0  0  0  0
  -36.6730   11.6310  -21.2590 O   0  0  0  0  0
  -38.2120   11.2900  -23.8270 C   0  0  0  0  0
  -39.2460   12.4030  -23.6810 C   0  0  0  0  0
  -40.6670   11.8390  -23.7230 C   0  0  0  0  0
  -41.7320   12.9370  -23.8200 C   0  0  0  0  0
  -41.7150   13.8510  -22.6470 N   0  3  0  0  0
  -36.3630   13.6490  -22.2190 N   0  0  0  0  0
  -36.1630   14.3810  -20.9690 C   0  0  0  0  0
  -37.4240   15.1650  -20.6210 C   0  0  0  0  0
  -37.8470   16.0220  -21.4030 O   0  0  0  0  0
  -34.9970   15.3920  -21.1000 C   0  0  0  0  0
  -33.6610   14.6790  -21.3420 C   0  0  0  0  0
  -34.9360   16.2910  -19.8850 C   0  0  0  0  0
  -33.3580   13.5360  -20.3650 C   0  0  0  0  0
  -38.0315   14.9393  -19.5404 O   0  0  0  0  0
  -29.8051   18.9204  -32.5740 H   0  0  0  0  0
  -28.5228   19.6378  -31.7880 H   0  0  0  0  0
  -28.7375   19.8776  -33.4230 H   0  0  0  0  0
  -28.3597   17.6217  -33.8846 H   0  0  0  0  0
  -26.2376   19.0150  -32.2185 H   0  0  0  0  0
  -26.8547   20.1498  -34.2563 H   0  0  0  0  0
  -26.5970   18.6089  -35.1977 H   0  0  0  0  0
  -25.8945   16.5476  -33.9690 H   0  0  0  0  0
  -24.5895   17.4474  -33.1575 H   0  0  0  0  0
  -25.8076   16.5800  -32.1907 H   0  0  0  0  0
  -24.4867   20.2038  -33.7384 H   0  0  0  0  0
  -24.2351   18.6994  -34.6574 H   0  0  0  0  0
  -24.7530   20.1808  -35.4989 H   0  0  0  0  0
  -28.6063   15.5619  -33.2181 H   0  0  0  0  0
  -28.7686   15.0243  -30.3055 H   0  0  0  0  0
  -29.4771   12.7512  -31.0516 H   0  0  0  0  0
  -29.3542   13.3489  -32.7585 H   0  0  0  0  0
  -32.6804   14.4058  -32.7068 H   0  0  0  0  0
  -31.3640   13.5729  -33.5402 H   0  0  0  0  0
  -24.4229   14.0928  -30.3219 H   0  0  0  0  0
  -23.9612   13.9825  -27.9358 H   0  0  0  0  0
  -25.1412   12.7401  -27.6852 H   0  0  0  0  0
  -25.5547   15.7225  -27.8457 H   0  0  0  0  0
  -26.2889   14.5813  -26.7577 H   0  0  0  0  0
  -27.9059   13.9054  -28.3407 H   0  0  0  0  0
  -27.6579   15.5030  -28.9077 H   0  0  0  0  0
  -26.8360   11.5964  -29.4630 H   0  0  0  0  0
  -24.8914    9.5243  -29.8611 H   0  0  0  0  0
  -26.8117    7.9313  -29.8607 H   0  0  0  0  0
  -28.9361    8.8739  -29.6816 H   0  0  0  0  0
  -25.9398    8.7435  -27.7227 H   0  0  0  0  0
  -27.0549   10.1305  -27.7848 H   0  0  0  0  0
  -27.6984    8.4766  -27.6380 H   0  0  0  0  0
  -26.8160   11.4231  -32.0280 H   0  0  0  0  0
  -26.0378    9.5100  -34.1722 H   0  0  0  0  0
  -26.0040   11.3497  -34.3275 H   0  0  0  0  0
  -28.7169    9.7510  -32.8019 H   0  0  0  0  0
  -30.3706   10.9811  -34.9122 H   0  0  0  0  0
  -29.7601    8.6069  -35.6409 H   0  0  0  0  0
  -31.5245    9.1194  -35.6602 H   0  0  0  0  0
  -31.3717    6.3810  -34.8778 H   0  0  0  0  0
  -32.6699   11.0099  -34.4106 H   0  0  0  0  0
  -33.0068   11.8386  -31.7266 H   0  0  0  0  0
  -34.3828   12.7173  -33.5746 H   0  0  0  0  0
  -35.1147   11.1120  -33.8161 H   0  0  0  0  0
  -35.4341   12.0198  -32.3179 H   0  0  0  0  0
  -33.8417    8.6836  -33.2161 H   0  0  0  0  0
  -35.5402    7.9670  -31.0175 H   0  0  0  0  0
  -34.1016    5.9766  -32.7665 H   0  0  0  0  0
  -35.6007    6.8794  -33.2571 H   0  0  0  0  0
  -36.7919    5.8785  -31.3578 H   0  0  0  0  0
  -35.3023    4.9351  -30.9412 H   0  0  0  0  0
  -36.8946    3.5414  -32.1148 H   0  0  0  0  0
  -35.4325    3.8649  -33.1569 H   0  0  0  0  0
  -36.7677    5.1060  -34.6233 H   0  0  0  0  0
  -38.5983    3.9239  -31.8550 H   0  0  0  0  0
  -40.2680    5.1257  -34.7251 H   0  0  0  0  0
  -38.7786    5.4970  -35.5998 H   0  0  0  0  0
  -32.0526    7.7918  -31.5110 H   0  0  0  0  0
  -31.8574    5.9559  -29.2209 H   0  0  0  0  0
  -30.3382    5.4966  -31.0109 H   0  0  0  0  0
  -29.3775    6.0844  -29.6019 H   0  0  0  0  0
  -28.7298    7.0395  -31.5965 H   0  0  0  0  0
  -32.3935    9.1815  -29.2981 H   0  0  0  0  0
  -30.7901    9.6824  -26.8587 H   0  0  0  0  0
  -31.7047   11.9310  -26.9046 H   0  0  0  0  0
  -32.8369   11.4281  -28.2662 H   0  0  0  0  0
  -31.1204   12.7501  -29.1644 H   0  0  0  0  0
  -30.8126   11.0167  -29.6059 H   0  0  0  0  0
  -28.7729   11.6590  -29.9007 H   0  0  0  0  0
  -34.3455    8.6887  -24.2714 H   0  0  0  0  0
  -32.7152    8.3656  -22.4871 H   0  0  0  0  0
  -33.5078    9.7750  -21.8930 H   0  0  0  0  0
  -30.8715    9.8741  -22.2881 H   0  0  0  0  0
  -31.8204   11.2551  -22.7203 H   0  0  0  0  0
  -30.8212   10.8553  -24.8595 H   0  0  0  0  0
  -30.5867    9.1878  -24.5612 H   0  0  0  0  0
  -36.2138    9.6631  -23.5925 H   0  0  0  0  0
  -36.5292   12.4677  -24.4142 H   0  0  0  0  0
  -38.4217   10.5571  -23.0479 H   0  0  0  0  0
  -38.2972   10.9084  -24.8445 H   0  0  0  0  0
  -39.1235   13.1048  -24.5060 H   0  0  0  0  0
  -39.0942   12.8980  -22.7218 H   0  0  0  0  0
  -40.8369   11.2866  -22.7988 H   0  0  0  0  0
  -40.7525   11.2086  -24.6081 H   0  0  0  0  0
  -42.7092   12.4557  -23.8575 H   0  0  0  0  0
  -41.5246   13.5293  -24.7112 H   0  0  0  0  0
  -42.4392   14.5604  -22.7597 H   0  0  0  0  0
  -41.8917   13.3151  -21.7973 H   0  0  0  0  0
  -40.8025   14.3022  -22.5822 H   0  0  0  0  0
  -36.3202   14.1645  -23.0981 H   0  0  0  0  0
  -35.9326   13.6527  -20.1915 H   0  0  0  0  0
  -35.1866   16.0174  -21.9723 H   0  0  0  0  0
  -32.8759   15.4238  -21.2121 H   0  0  0  0  0
  -33.7119   14.2396  -22.3382 H   0  0  0  0  0
  -35.8730   16.8403  -19.7936 H   0  0  0  0  0
  -34.7806   15.6841  -18.9930 H   0  0  0  0  0
  -34.1105   16.9941  -19.9959 H   0  0  0  0  0
  -33.3272   13.9274  -19.3482 H   0  0  0  0  0
  -34.1382   12.7786  -20.4407 H   0  0  0  0  0
  -32.3940   13.0926  -20.6143 H   0  0  0  0  0
  -37.5730   14.2497  -19.0548 H   0  0  0  0  0
  1  2  1  0  0  0
  2  3  1  0  0  0
  2  5  1  0  0  0
  3  4  2  0  0  0
  3  9  1  0  0  0
  5  6  1  0  0  0
  5  7  1  0  0  0
  6  8  1  0  0  0
  9 10  1  0  0  0
 10 11  1  0  0  0
 10 13  1  0  0  0
 11 12  2  0  0  0
 11 17  1  0  0  0
 13 14  1  0  0  0
 14 15  2  0  0  0
 14 16  1  0  0  0
 17 18  1  0  0  0
 17 23  1  0  0  0
 18 19  1  0  0  0
 18 21  1  0  0  0
 19 20  2  0  0  0
 19 24  1  0  0  0
 21 22  1  0  0  0
 22 23  1  0  0  0
 24 25  1  0  0  0
 25 26  1  0  0  0
 25 28  1  0  0  0
 26 27  2  0  0  0
 26 31  1  0  0  0
 28 29  1  0  0  0
 28 30  1  0  0  0
 31 32  1  0  0  0
 32 33  1  0  0  0
 33 34  2  0  0  0
 33 35  1  0  0  0
 35 36  1  0  0  0
 36 37  1  0  0  0
 36 39  1  0  0  0
 37 38  2  0  0  0
 37 41  1  0  0  0
 39 40  1  0  0  0
 41 42  1  0  0  0
 42 43  1  0  0  0
 42 45  1  0  0  0
 43 44  2  0  0  0
 43 46  1  0  0  0
 46 47  1  0  0  0
 47 48  1  0  0  0
 47 50  1  0  0  0
 48 49  2  0  0  0
 48 57  1  0  0  0
 50 51  1  0  0  0
 51 52  1  0  0  0
 52 53  1  0  0  0
 53 54  1  0  0  0
 54 55  2  0  0  0
 54 56  1  0  0  0
 57 58  1  0  0  0
 58 59  1  0  0  0
 58 61  1  0  0  0
 59 60  2  0  0  0
 59 63  1  0  0  0
 61 62  1  0  0  0
 63 64  1  0  0  0
 64 65  1  0  0  0
 64 67  1  0  0  0
 65 66  2  0  0  0
 65 72  1  0  0  0
 67 68  1  0  0  0
 68 69  1  0  0  0
 69 70  1  0  0  0
 69 71  2  0  0  0
 72 73  1  0  0  0
 72 78  1  0  0  0
 73 74  1  0  0  0
 73 76  1  0  0  0
 74 75  2  0  0  0
 74 79  1  0  0  0
 76 77  1  0  0  0
 77 78  1  0  0  0
 79 80  1  0  0  0
 80 81  1  0  0  0
 80 83  1  0  0  0
 81 82  2  0  0  0
 81 88  1  0  0  0
 83 84  1  0  0  0
 84 85  1  0  0  0
 85 86  1  0  0  0
 86 87  1  0  0  0
 88 89  1  0  0  0
 89 90  1  0  0  0
 89 92  1  0  0  0
 90 91  2  0  0  0
 92 93  1  0  0  0
 92 94  1  0  0  0
 93 95  1  0  0  0
 90 96  1  0  0  0
  1 97  1  0  0  0
  1 98  1  0  0  0
  1 99  1  0  0  0
  2100  1  0  0  0
  5101  1  0  0  0
  6102  1  0  0  0
  6103  1  0  0  0
  7104  1  0  0  0
  7105  1  0  0  0
  7106  1  0  0  0
  8107  1  0  0  0
  8108  1  0  0  0
  8109  1  0  0  0
  9110  1  0  0  0
 10111  1  0  0  0
 13112  1  0  0  0
 13113  1  0  0  0
 16114  1  0  0  0
 16115  1  0  0  0
 18116  1  0  0  0
 21117  1  0  0  0
 21118  1  0  0  0
 22119  1  0  0  0
 22120  1  0  0  0
 23121  1  0  0  0
 23122  1  0  0  0
 24123  1  0  0  0
 25124  1  0  0  0
 28125  1  0  0  0
 29126  1  0  0  0
 30127  1  0  0  0
 30128  1  0  0  0
 30129  1  0  0  0
 31130  1  0  0  0
 32131  1  0  0  0
 32132  1  0  0  0
 35133  1  0  0  0
 36134  1  0  0  0
 39135  1  0  0  0
 39136  1  0  0  0
 40137  1  0  0  0
 41138  1  0  0  0
 42139  1  0  0  0
 45140  1  0  0  0
 45141  1  0  0  0
 45142  1  0  0  0
 46143  1  0  0  0
 47144  1  0  0  0
 50145  1  0  0  0
 50146  1  0  0  0
 51147  1  0  0  0
 51148  1  0  0  0
 52149  1  0  0  0
 52150  1  0  0  0
 53151  1  0  0  0
 55152  1  0  0  0
 56153  1  0  0  0
 56154  1  0  0  0
 57155  1  0  0  0
 58156  1  0  0  0
 61157  1  0  0  0
 61158  1  0  0  0
 62159  1  0  0  0
 63160  1  0  0  0
 64161  1  0  0  0
 67162  1  0  0  0
 67163  1  0  0  0
 68164  1  0  0  0
 68165  1  0  0  0
 70166  1  0  0  0
 73167  1  0  0  0
 76168  1  0  0  0
 76169  1  0  0  0
 77170  1  0  0  0
 77171  1  0  0  0
 78172  1  0  0  0
 78173  1  0  0  0
 79174  1  0  0  0
 80175  1  0  0  0
 83176  1  0  0  0
 83177  1  0  0  0
 84178  1  0  0  0
 84179  1  0  0  0
 85180  1  0  0  0
 85181  1  0  0  0
 86182  1  0  0  0
 86183  1  0  0  0
 87184  1  0  0  0
 87185  1  0  0  0
 87186  1  0  0  0
 88187  1  0  0  0
 89188  1  0  0  0
 92189  1  0  0  0
 93190  1  0  0  0
 93191  1  0  0  0
 94192  1  0  0  0
 94193  1  0  0  0
 94194  1  0  0  0
 95195  1  0  0  0
 95196  1  0  0  0
 95197  1  0  0  0
 96198  1  0  0  0
M  END
$$$$
