4uxb_ligand
  -I-interpret- 

 40 42  0  0  0  0  0  0  0  0999 V2000
   14.0910   22.3580   28.5250 C   0  0  0  0  0
   13.6630   21.4210   27.4910 N   0  3  0  0  0
   13.4510   20.0270   27.8500 C   0  0  0  0  0
   13.4510   21.8720   26.1150 C   0  0  0  0  0
   12.1600   22.6600   25.9700 C   0  0  0  0  0
   12.1280   23.6850   25.3010 O   0  0  0  0  0
   11.0820   22.1450   26.5700 N   0  0  0  0  0
   10.3060   22.7750   27.4900 C   0  0  0  0  0
   10.3620   22.3610   28.8280 C   0  0  0  0  0
    9.4810   22.9110   29.7670 C   0  0  0  0  0
    9.5190   22.5700   31.2240 C   0  0  0  0  0
   10.4800   21.7090   31.7640 C   0  0  0  0  0
   10.4430   21.3890   33.1230 C   0  0  0  0  0
    9.4920   21.9810   33.9580 C   0  0  0  0  0
    8.5530   22.8690   33.4320 C   0  0  0  0  0
    8.5630   23.1590   32.0630 C   0  0  0  0  0
    7.5650   24.1150   31.4830 C   0  0  0  0  0
    6.7160   24.6450   32.2300 O   0  0  0  0  0
    7.5590   24.4110   30.1680 N   0  0  0  0  0
    8.4450   23.8910   29.3030 C   0  0  0  0  0
    8.3870   24.2360   27.9530 C   0  0  0  0  0
    9.3000   23.6590   27.0600 C   0  0  0  0  0
   15.0513   22.7915   28.2457 H   0  0  0  0  0
   13.3489   23.1500   28.6255 H   0  0  0  0  0
   14.1913   21.8298   29.4732 H   0  0  0  0  0
   13.5036   21.8930   26.6010 H   0  0  0  0  0
   12.4165   19.7531   27.6430 H   0  0  0  0  0
   14.1194   19.3965   27.2637 H   0  0  0  0  0
   13.6588   19.8908   28.9113 H   0  0  0  0  0
   13.3892   20.9934   25.4729 H   0  0  0  0  0
   14.2810   22.5212   25.8363 H   0  0  0  0  0
   10.8185   21.1935   26.3140 H   0  0  0  0  0
   11.0907   21.6116   29.1371 H   0  0  0  0  0
   11.2566   21.2884   31.1252 H   0  0  0  0  0
   11.1578   20.6756   33.5332 H   0  0  0  0  0
    9.4836   21.7486   35.0229 H   0  0  0  0  0
    7.8147   23.3349   34.0847 H   0  0  0  0  0
    6.8524   25.0566   29.8153 H   0  0  0  0  0
    7.6405   24.9459   27.5967 H   0  0  0  0  0
    9.2284   23.9027   26.0000 H   0  0  0  0  0
  1  2  1  0  0  0
  2  3  1  0  0  0
  2  4  1  0  0  0
  4  5  1  0  0  0
  5  6  2  0  0  0
  5  7  1  0  0  0
  7  8  1  0  0  0
  8  9  4  0  0  0
  8 22  4  0  0  0
  9 10  4  0  0  0
 10 11  1  0  0  0
 10 20  4  0  0  0
 11 12  4  0  0  0
 11 16  4  0  0  0
 12 13  4  0  0  0
 13 14  4  0  0  0
 14 15  4  0  0  0
 15 16  4  0  0  0
 16 17  1  0  0  0
 17 18  2  0  0  0
 17 19  1  0  0  0
 19 20  1  0  0  0
 20 21  4  0  0  0
 21 22  4  0  0  0
  1 23  1  0  0  0
  1 24  1  0  0  0
  1 25  1  0  0  0
  2 26  1  0  0  0
  3 27  1  0  0  0
  3 28  1  0  0  0
  3 29  1  0  0  0
  4 30  1  0  0  0
  4 31  1  0  0  0
  7 32  1  0  0  0
  9 33  1  0  0  0
 12 34  1  0  0  0
 13 35  1  0  0  0
 14 36  1  0  0  0
 15 37  1  0  0  0
 19 38  1  0  0  0
 21 39  1  0  0  0
 22 40  1  0  0  0
M  END
$$$$
