2yde_ligand
  -I-interpret- 

 18 17  0  0  0  0  0  0  0  0999 V2000
  -18.4450   20.8160   -8.4900 C   0  0  0  0  0
  -18.1380   23.2860   -8.1850 C   0  0  0  0  0
  -17.6500   24.3870   -7.2390 C   0  0  0  0  0
  -17.9460   25.7880   -7.7820 C   0  0  0  0  0
  -17.7410   19.7970   -8.6470 O   0  0  0  0  0
  -19.5570   21.0280   -9.0180 O   0  0  0  0  0
  -16.5050   21.6930   -7.3480 O   0  0  0  0  0
  -17.4060   26.7480   -7.1920 O   0  0  0  0  0
  -17.9040   21.9090   -7.5650 C   0  0  0  0  0
  -18.7100   25.8680   -8.7670 O   0  0  0  0  0
  -17.5851   23.3521   -9.1221 H   0  0  0  0  0
  -19.2051   23.4184   -8.3635 H   0  0  0  0  0
  -16.5702   24.2865   -7.1295 H   0  0  0  0  0
  -18.1718   24.2740   -6.2887 H   0  0  0  0  0
  -19.8867   21.8838   -8.7343 H   0  0  0  0  0
  -16.3729   20.8255   -6.9587 H   0  0  0  0  0
  -16.8679   26.4163   -6.4695 H   0  0  0  0  0
  -18.4273   21.8687   -6.6097 H   0  0  0  0  0
  1  5  2  0  0  0
  1  6  1  0  0  0
  9  1  1  0  0  0
  2  3  1  0  0  0
  2  9  1  0  0  0
  3  4  1  0  0  0
  4  8  1  0  0  0
  4 10  2  0  0  0
  9  7  1  0  0  0
  2 11  1  0  0  0
  2 12  1  0  0  0
  3 13  1  0  0  0
  3 14  1  0  0  0
  6 15  1  0  0  0
  7 16  1  0  0  0
  8 17  1  0  0  0
  9 18  1  0  0  0
M  END
$$$$
