3wb4_ligand
  -I-interpret- 

 37 38  0  0  0  0  0  0  0  0999 V2000
   16.5230   41.9820  -10.0520 O   0  0  0  0  0
   16.3150   41.0250   -9.3310 C   0  0  0  0  0
   15.9980   41.1700   -8.0300 N   0  0  0  0  0
   15.7640   42.5190   -7.5210 C   0  0  0  0  0
   15.8890   40.0480   -7.2630 C   0  0  0  0  0
   15.2410   40.1160   -6.1080 N   0  0  0  0  0
   16.3790   38.9300   -7.5850 N   0  0  0  0  0
   16.4210   39.6320   -9.8880 C   0  0  0  0  0
   17.0980   38.7620   -8.8390 C   0  0  0  0  0
   17.0530   37.3060   -9.2750 C   0  0  0  0  0
   18.5640   39.2100   -8.7090 C   0  0  0  0  0
   19.1920   38.7440   -7.3920 C   0  0  0  0  0
   20.5340   39.4010   -7.1300 C   0  0  0  0  0
   21.6230   39.1870   -7.9690 C   0  0  0  0  0
   22.8540   39.8060   -7.7060 C   0  0  0  0  0
   22.9960   40.6370   -6.5930 C   0  0  0  0  0
   21.9190   40.8530   -5.7430 C   0  0  0  0  0
   20.6970   40.2280   -6.0210 C   0  0  0  0  0
   14.7420   42.5935   -7.1494 H   0  0  0  0  0
   16.4627   42.7264   -6.7105 H   0  0  0  0  0
   15.9133   43.2401   -8.3246 H   0  0  0  0  0
   14.8321   40.9996   -5.8039 H   0  0  0  0  0
   16.2694   38.1334   -6.9575 H   0  0  0  0  0
   17.0033   39.6361  -10.8094 H   0  0  0  0  0
   15.4306   39.2415  -10.1217 H   0  0  0  0  0
   17.5171   36.6843   -8.5094 H   0  0  0  0  0
   16.0156   37.0012   -9.4127 H   0  0  0  0  0
   17.5942   37.1925  -10.2143 H   0  0  0  0  0
   18.5908   40.2994   -8.7326 H   0  0  0  0  0
   19.1290   38.7696   -9.5305 H   0  0  0  0  0
   19.3491   37.6672   -7.4546 H   0  0  0  0  0
   18.5176   39.0171   -6.5804 H   0  0  0  0  0
   21.5190   38.5344   -8.8359 H   0  0  0  0  0
   23.7008   39.6380   -8.3714 H   0  0  0  0  0
   23.9535   41.1170   -6.3909 H   0  0  0  0  0
   22.0234   41.4998   -4.8719 H   0  0  0  0  0
   19.8519   40.3929   -5.3526 H   0  0  0  0  0
  1  2  2  0  0  0
  2  3  1  0  0  0
  2  8  1  0  0  0
  3  4  1  0  0  0
  3  5  4  0  0  0
  5  6  2  0  0  0
  5  7  1  0  0  0
  7  9  1  0  0  0
  8  9  1  0  0  0
  9 10  1  0  0  0
  9 11  1  0  0  0
 11 12  1  0  0  0
 12 13  1  0  0  0
 13 14  4  0  0  0
 13 18  4  0  0  0
 14 15  4  0  0  0
 15 16  4  0  0  0
 16 17  4  0  0  0
 17 18  4  0  0  0
  4 19  1  0  0  0
  4 20  1  0  0  0
  4 21  1  0  0  0
  6 22  1  0  0  0
  7 23  1  0  0  0
  8 24  1  0  0  0
  8 25  1  0  0  0
 10 26  1  0  0  0
 10 27  1  0  0  0
 10 28  1  0  0  0
 11 29  1  0  0  0
 11 30  1  0  0  0
 12 31  1  0  0  0
 12 32  1  0  0  0
 14 33  1  0  0  0
 15 34  1  0  0  0
 16 35  1  0  0  0
 17 36  1  0  0  0
 18 37  1  0  0  0
M  END
$$$$
