5ewz_ligand
  -I-interpret- 

157158  0  0  0  0  0  0  0  0999 V2000
    9.5380   18.5310   -3.6050 N   0  3  0  0  0
    8.1080   18.3780   -3.8860 C   0  0  0  0  0
    7.2760   17.4450   -2.9550 C   0  0  0  0  0
    6.1060   17.7540   -2.7450 O   0  0  0  0  0
    8.0910   17.8650   -5.3490 C   0  0  0  0  0
    9.2910   18.5390   -5.9840 C   0  0  0  0  0
   10.3000   18.8440   -4.8340 C   0  0  0  0  0
    7.8330   16.3310   -2.4430 N   0  0  0  0  0
    7.0150   15.3020   -1.7200 C   0  0  0  0  0
    6.3350   15.8040   -0.4160 C   0  0  0  0  0
    6.9930   16.4680    0.3960 O   0  0  0  0  0
    7.8130   13.9960   -1.4660 C   0  0  0  0  0
    7.3520   12.7900   -2.3370 C   0  0  0  0  0
    8.1270   11.4260   -2.0880 C   0  0  0  0  0
    7.6310   10.6010   -0.9600 N   0  0  0  0  0
    6.4910    9.8890   -0.9620 C   0  0  0  0  0
    6.1500    9.1820    0.1090 N   0  0  0  0  0
    5.6700    9.9040   -2.0170 N   0  0  0  0  0
    5.0380   15.5020   -0.2220 N   0  0  0  0  0
    4.3290   15.8060    1.0620 C   0  0  0  0  0
    5.0370   15.2180    2.3150 C   0  0  0  0  0
    5.7260   14.1900    2.1860 O   0  0  0  0  0
    2.8380   15.4010    1.0110 C   0  0  0  0  0
    2.4950   13.9290    1.2670 C   0  0  0  0  0
    3.3320   12.9230    0.4490 C   0  0  0  0  0
    3.0950   11.5100    0.7800 N   0  0  0  0  0
    3.7780   10.7370    1.6400 C   0  0  0  0  0
    3.4210    9.4680    1.7890 N   0  0  0  0  0
    4.7680   11.1980    2.3730 N   0  0  0  0  0
    4.8990   15.8540    3.4900 N   0  0  0  0  0
    5.5680   15.3200    4.7180 C   0  0  0  0  0
    4.7920   14.2650    5.5280 C   0  0  0  0  0
    3.6250   14.4630    5.8460 O   0  0  0  0  0
    6.0720   16.4140    5.6980 C   0  0  0  0  0
    6.6140   17.6470    4.9930 C   0  0  0  0  0
    6.0070   18.7380    5.0540 O   0  0  0  0  0
    7.7540   17.4900    4.3030 N   0  0  0  0  0
    5.4860   13.1690    5.8670 N   0  0  0  0  0
    5.1330   12.3040    7.0330 C   0  0  0  0  0
    4.6740   10.9070    6.6270 C   0  0  0  0  0
    3.3710   11.0080    5.8110 C   0  0  0  0  0
    5.7620   10.2170    5.9810 O   0  0  0  0  0
    5.7920    8.6480    5.5860 P   0  0  0  0  0
    4.8520    8.5450    4.4020 O   0  0  0  0  0
    7.2210    8.3740    5.1890 O   0  0  0  0  0
    5.3470    7.7730    6.7650 O   0  0  0  0  0
    6.3120   12.2090    8.0070 C   0  0  0  0  0
    7.4430   12.6030    7.6550 O   0  0  0  0  0
    6.0620   11.6650    9.2060 N   0  0  0  0  0
    7.0270   11.5850   10.3140 C   0  0  0  0  0
    6.8380   10.3240   11.1840 C   0  0  0  0  0
    5.7190   10.0840   11.6550 O   0  0  0  0  0
    6.7460   12.7570   11.2290 C   0  0  0  0  0
    7.8820   13.4110   11.9890 C   0  0  0  0  0
    8.8740   14.0740   10.9850 C   0  0  0  0  0
    7.2520   14.3530   12.9570 C   0  0  0  0  0
    7.9210    9.5750   11.5080 N   0  0  0  0  0
    9.3440    9.9390   11.4290 C   0  0  0  0  0
    9.8760   10.0490    9.9920 C   0  0  0  0  0
    9.3860    9.3450    9.0960 O   0  0  0  0  0
   10.0330    8.7900   12.1750 C   0  0  0  0  0
    9.1190    7.6140   11.9610 C   0  0  0  0  0
    7.7380    8.1760   11.9610 C   0  0  0  0  0
   10.8520   10.9380    9.7860 N   0  0  0  0  0
   11.5840   10.9950    8.5120 C   0  0  0  0  0
   12.7880   10.0060    8.4490 C   0  0  0  0  0
   13.3070    9.5410    9.4770 O   0  0  0  0  0
   12.0200   12.4420    8.1950 C   0  0  0  0  0
   13.2070    9.6900    7.2280 N   0  0  0  0  0
   14.3200    8.7530    6.9600 C   0  0  0  0  0
   15.5910    9.5170    6.5430 C   0  0  0  0  0
   16.6440    9.3910    7.1760 O   0  0  0  0  0
   13.8940    7.7430    5.8710 C   0  0  0  0  0
   14.9410    6.7630    5.3790 C   0  0  0  0  0
   14.4640    6.0110    3.7820 S   0  0  0  0  0
   15.7350    4.7220    3.5770 C   0  0  0  0  0
   15.5860   10.2730    5.5660 O   0  0  0  0  0
    9.8883   17.6530   -3.2218 H   0  0  0  0  0
    9.6578   19.2997   -2.9453 H   0  0  0  0  0
    7.6100   19.3310   -3.7075 H   0  0  0  0  0
    7.1602   18.1066   -5.8622 H   0  0  0  0  0
    8.1469   16.7780   -5.4077 H   0  0  0  0  0
    8.9952   19.4566   -6.4926 H   0  0  0  0  0
    9.7448   17.8930   -6.7356 H   0  0  0  0  0
   11.2143   18.2563   -4.9169 H   0  0  0  0  0
   10.6521   19.8754   -4.8530 H   0  0  0  0  0
    8.8366   16.1830   -2.5495 H   0  0  0  0  0
    6.1965   15.0821   -2.4055 H   0  0  0  0  0
    7.6560   13.7196   -0.4234 H   0  0  0  0  0
    8.8533   14.1989   -1.7206 H   0  0  0  0  0
    7.5405   13.0677   -3.3740 H   0  0  0  0  0
    6.3090   12.6042   -2.0804 H   0  0  0  0  0
    9.1549   11.6951   -1.8449 H   0  0  0  0  0
    7.9955   10.8274   -2.9894 H   0  0  0  0  0
    8.2008   10.5715   -0.1145 H   0  0  0  0  0
    6.7529    9.1797    0.9318 H   0  0  0  0  0
    4.7968    9.3775   -1.9912 H   0  0  0  0  0
    5.9168   10.4420   -2.8477 H   0  0  0  0  0
    4.5197   15.0504   -0.9755 H   0  0  0  0  0
    4.3750   16.8896    1.1702 H   0  0  0  0  0
    2.5135   15.6046   -0.0095 H   0  0  0  0  0
    2.3550   15.9585    1.8135 H   0  0  0  0  0
    1.4543   13.7892    0.9745 H   0  0  0  0  0
    2.7006   13.7327    2.3193 H   0  0  0  0  0
    4.3792   13.1285    0.6710 H   0  0  0  0  0
    3.0517   13.0544   -0.5961 H   0  0  0  0  0
    2.3162   11.0619    0.2971 H   0  0  0  0  0
    3.9111    8.8757    2.4594 H   0  0  0  0  0
    2.6565    9.0846    1.2332 H   0  0  0  0  0
    5.0433   12.1775    2.3004 H   0  0  0  0  0
    4.3368   16.7032    3.5457 H   0  0  0  0  0
    6.4166   14.8103    4.2617 H   0  0  0  0  0
    6.8852   15.9840    6.2827 H   0  0  0  0  0
    5.2240   16.7279    6.3066 H   0  0  0  0  0
    8.1590   18.2799    3.8006 H   0  0  0  0  0
    8.2156   16.5807    4.2808 H   0  0  0  0  0
    6.2950   12.9131    5.3009 H   0  0  0  0  0
    4.2870   12.7827    7.5262 H   0  0  0  0  0
    4.4185   10.2958    7.4926 H   0  0  0  0  0
    2.5993   11.4813    6.4181 H   0  0  0  0  0
    3.5491   11.6055    4.9170 H   0  0  0  0  0
    3.0460   10.0083    5.5226 H   0  0  0  0  0
    3.9544    8.7249    4.6909 H   0  0  0  0  0
    4.4354    7.9764    6.9868 H   0  0  0  0  0
    5.1318   11.2768    9.3625 H   0  0  0  0  0
    8.0280   11.5726    9.8827 H   0  0  0  0  0
    6.0974   12.3492   12.0043 H   0  0  0  0  0
    6.3749   13.5386   10.5660 H   0  0  0  0  0
    8.4898   12.7020   12.5511 H   0  0  0  0  0
    9.2767   13.3122   10.3175 H   0  0  0  0  0
    8.3476   14.8290   10.4011 H   0  0  0  0  0
    9.6887   14.5426   11.5371 H   0  0  0  0  0
    6.6675   15.0946   12.4124 H   0  0  0  0  0
    6.5995   13.7974   13.6305 H   0  0  0  0  0
    8.0299   14.8536   13.5336 H   0  0  0  0  0
    9.5275   10.9271   11.8511 H   0  0  0  0  0
   10.1776    9.0128   13.2321 H   0  0  0  0  0
   11.0403    8.6023   11.8031 H   0  0  0  0  0
    9.2445    6.8640   12.7419 H   0  0  0  0  0
    9.3410    7.1013   11.0251 H   0  0  0  0  0
    7.0639    7.6163   11.3126 H   0  0  0  0  0
    7.2679    8.1175   12.9427 H   0  0  0  0  0
   11.0949   11.5923   10.5298 H   0  0  0  0  0
   10.8903   10.6658    7.7384 H   0  0  0  0  0
   11.1380   13.0784    8.1232 H   0  0  0  0  0
   12.6692   12.8071    8.9908 H   0  0  0  0  0
   12.5595   12.4583    7.2480 H   0  0  0  0  0
   12.7349   10.1174    6.4312 H   0  0  0  0  0
   14.5534    8.2060    7.8735 H   0  0  0  0  0
   13.6229    8.3438    5.0029 H   0  0  0  0  0
   13.1119    7.1343    6.3246 H   0  0  0  0  0
   15.0412    5.9675    6.1174 H   0  0  0  0  0
   15.8778    7.3023    5.2389 H   0  0  0  0  0
   16.7210    5.1862    3.5538 H   0  0  0  0  0
   15.6803    4.0236    4.4121 H   0  0  0  0  0
   15.5615    4.1877    2.6429 H   0  0  0  0  0
   14.7114   10.2768    5.1702 H   0  0  0  0  0
  1  2  1  0  0  0
  1  7  1  0  0  0
  2  3  1  0  0  0
  2  5  1  0  0  0
  3  4  2  0  0  0
  3  8  1  0  0  0
  5  6  1  0  0  0
  6  7  1  0  0  0
  8  9  1  0  0  0
  9 10  1  0  0  0
  9 12  1  0  0  0
 10 11  2  0  0  0
 10 19  1  0  0  0
 12 13  1  0  0  0
 13 14  1  0  0  0
 14 15  1  0  0  0
 15 16  1  0  0  0
 16 17  2  0  0  0
 16 18  1  0  0  0
 19 20  1  0  0  0
 20 21  1  0  0  0
 20 23  1  0  0  0
 21 22  2  0  0  0
 21 30  1  0  0  0
 23 24  1  0  0  0
 24 25  1  0  0  0
 25 26  1  0  0  0
 26 27  1  0  0  0
 27 28  1  0  0  0
 27 29  2  0  0  0
 30 31  1  0  0  0
 31 32  1  0  0  0
 31 34  1  0  0  0
 32 33  2  0  0  0
 32 38  1  0  0  0
 34 35  1  0  0  0
 35 36  2  0  0  0
 35 37  1  0  0  0
 38 39  1  0  0  0
 39 40  1  0  0  0
 39 47  1  0  0  0
 40 41  1  0  0  0
 40 42  1  0  0  0
 42 43  1  0  0  0
 43 44  1  0  0  0
 43 45  2  0  0  0
 43 46  1  0  0  0
 47 48  2  0  0  0
 47 49  1  0  0  0
 49 50  1  0  0  0
 50 51  1  0  0  0
 50 53  1  0  0  0
 51 52  2  0  0  0
 51 57  1  0  0  0
 53 54  1  0  0  0
 54 55  1  0  0  0
 54 56  1  0  0  0
 57 58  1  0  0  0
 57 63  1  0  0  0
 58 59  1  0  0  0
 58 61  1  0  0  0
 59 60  2  0  0  0
 59 64  1  0  0  0
 61 62  1  0  0  0
 62 63  1  0  0  0
 64 65  1  0  0  0
 65 66  1  0  0  0
 65 68  1  0  0  0
 66 67  2  0  0  0
 66 69  1  0  0  0
 69 70  1  0  0  0
 70 71  1  0  0  0
 70 73  1  0  0  0
 71 72  2  0  0  0
 71 77  1  0  0  0
 73 74  1  0  0  0
 74 75  1  0  0  0
 75 76  1  0  0  0
  1 78  1  0  0  0
  1 79  1  0  0  0
  2 80  1  0  0  0
  5 81  1  0  0  0
  5 82  1  0  0  0
  6 83  1  0  0  0
  6 84  1  0  0  0
  7 85  1  0  0  0
  7 86  1  0  0  0
  8 87  1  0  0  0
  9 88  1  0  0  0
 12 89  1  0  0  0
 12 90  1  0  0  0
 13 91  1  0  0  0
 13 92  1  0  0  0
 14 93  1  0  0  0
 14 94  1  0  0  0
 15 95  1  0  0  0
 17 96  1  0  0  0
 18 97  1  0  0  0
 18 98  1  0  0  0
 19 99  1  0  0  0
 20100  1  0  0  0
 23101  1  0  0  0
 23102  1  0  0  0
 24103  1  0  0  0
 24104  1  0  0  0
 25105  1  0  0  0
 25106  1  0  0  0
 26107  1  0  0  0
 28108  1  0  0  0
 28109  1  0  0  0
 29110  1  0  0  0
 30111  1  0  0  0
 31112  1  0  0  0
 34113  1  0  0  0
 34114  1  0  0  0
 37115  1  0  0  0
 37116  1  0  0  0
 38117  1  0  0  0
 39118  1  0  0  0
 40119  1  0  0  0
 41120  1  0  0  0
 41121  1  0  0  0
 41122  1  0  0  0
 44123  1  0  0  0
 46124  1  0  0  0
 49125  1  0  0  0
 50126  1  0  0  0
 53127  1  0  0  0
 53128  1  0  0  0
 54129  1  0  0  0
 55130  1  0  0  0
 55131  1  0  0  0
 55132  1  0  0  0
 56133  1  0  0  0
 56134  1  0  0  0
 56135  1  0  0  0
 58136  1  0  0  0
 61137  1  0  0  0
 61138  1  0  0  0
 62139  1  0  0  0
 62140  1  0  0  0
 63141  1  0  0  0
 63142  1  0  0  0
 64143  1  0  0  0
 65144  1  0  0  0
 68145  1  0  0  0
 68146  1  0  0  0
 68147  1  0  0  0
 69148  1  0  0  0
 70149  1  0  0  0
 73150  1  0  0  0
 73151  1  0  0  0
 74152  1  0  0  0
 74153  1  0  0  0
 76154  1  0  0  0
 76155  1  0  0  0
 76156  1  0  0  0
 77157  1  0  0  0
M  END
$$$$
