### 
### Created by X-TOOL on Mon Sep 10 21:13:28 2018
### 

@<TRIPOS>MOLECULE
5ewz_ligand
  156   157     1     0     0
SMALL
GAST_HUCK


@<TRIPOS>ATOM
      1 N           9.5380   18.5310   -3.6050 N.4       1 PRO         0.2461
      2 CA          8.1080   18.3780   -3.8860 C.3       1 PRO         0.0670
      3 C           7.2760   17.4450   -2.9550 C.2       1 PRO         0.2268
      4 O           6.1060   17.7540   -2.7450 O.2       1 PRO        -0.3907
      5 CB          8.0910   17.8650   -5.3490 C.3       1 PRO         0.0127
      6 CG          9.2910   18.5390   -5.9840 C.3       1 PRO        -0.0053
      7 CD         10.3000   18.8440   -4.8340 C.3       1 PRO        -0.0313
      8 N           7.8330   16.3310   -2.4430 N.am      1 ARG        -0.2610
      9 CA          7.0150   15.3020   -1.7200 C.3       1 ARG         0.1312
     10 C           6.3350   15.8040   -0.4160 C.2       1 ARG         0.2039
     11 O           6.9930   16.4680    0.3960 O.2       1 ARG        -0.3944
     12 CB          7.8130   13.9960   -1.4660 C.3       1 ARG        -0.0092
     13 CG          7.3520   12.7900   -2.3370 C.3       1 ARG        -0.0156
     14 CD          8.1270   11.4260   -2.0880 C.3       1 ARG         0.0627
     15 NE          7.6310   10.6010   -0.9600 N.pl3     1 ARG        -0.2723
     16 CZ          6.4910    9.8890   -0.9620 C.cat     1 ARG         0.2882
     17 NH1         6.1500    9.1820    0.1090 N.pl3     1 ARG        -0.2849
     18 NH2         5.6700    9.9040   -2.0170 N.pl3     1 ARG        -0.2849
     19 N           5.0380   15.5020   -0.2220 N.am      1 ARG        -0.2637
     20 CA          4.3290   15.8060    1.0620 C.3       1 ARG         0.1311
     21 C           5.0370   15.2180    2.3150 C.2       1 ARG         0.2040
     22 O           5.7260   14.1900    2.1860 O.2       1 ARG        -0.3944
     23 CB          2.8380   15.4010    1.0110 C.3       1 ARG        -0.0092
     24 CG          2.4950   13.9290    1.2670 C.3       1 ARG        -0.0156
     25 CD          3.3320   12.9230    0.4490 C.3       1 ARG         0.0627
     26 NE          3.0950   11.5100    0.7800 N.pl3     1 ARG        -0.2723
     27 CZ          3.7780   10.7370    1.6400 C.cat     1 ARG         0.2882
     28 NH1         3.4210    9.4680    1.7890 N.pl3     1 ARG        -0.2849
     29 NH2         4.7680   11.1980    2.3730 N.pl3     1 ARG        -0.2849
     30 N           4.8990   15.8540    3.4900 N.am      1 ASN        -0.2616
     31 CA          5.5680   15.3200    4.7180 C.3       1 ASN         0.1476
     32 C           4.7920   14.2650    5.5280 C.2       1 ASN         0.2063
     33 O           3.6250   14.4630    5.8460 O.2       1 ASN        -0.3942
     34 CB          6.0720   16.4140    5.6980 C.3       1 ASN         0.0773
     35 CG          6.6140   17.6470    4.9930 C.2       1 ASN         0.1780
     36 OD1         6.0070   18.7380    5.0540 O.2       1 ASN        -0.3970
     37 ND2         7.7540   17.4900    4.3030 N.am      1 ASN        -0.3007
     38 N           5.4860   13.1690    5.8670 N.am      1 TPO        -0.2609
     39 CA          5.1330   12.3040    7.0330 C.3       1 TPO         0.1612
     40 CB          4.6740   10.9070    6.6270 C.3       1 TPO         0.1262
     41 CG2         3.3710   11.0080    5.8110 C.3       1 TPO        -0.0298
     42 OG1         5.7620   10.2170    5.9810 O.3       1 TPO        -0.2685
     43 P           5.7920    8.6480    5.5860 P.3       1 TPO         0.2014
     44 O1P         4.8520    8.5450    4.4020 O.co2     1 TPO        -0.5537
     45 O2P         7.2210    8.3740    5.1890 O.co2     1 TPO        -0.5537
     46 O3P         5.3470    7.7730    6.7650 O.co2     1 TPO        -0.5537
     47 C           6.3120   12.2090    8.0070 C.2       1 TPO         0.2068
     48 O           7.4430   12.6030    7.6550 O.2       1 TPO        -0.3943
     49 N           6.0620   11.6650    9.2060 N.am      1 LEU        -0.2636
     50 CA          7.0270   11.5850   10.3140 C.3       1 LEU         0.1314
     51 C           6.8380   10.3240   11.1840 C.2       1 LEU         0.2064
     52 O           5.7190   10.0840   11.6550 O.2       1 LEU        -0.3942
     53 CB          6.7460   12.7570   11.2290 C.3       1 LEU        -0.0101
     54 CG          7.8820   13.4110   11.9890 C.3       1 LEU        -0.0425
     55 CD1         8.8740   14.0740   10.9850 C.3       1 LEU        -0.0625
     56 CD2         7.2520   14.3530   12.9570 C.3       1 LEU        -0.0625
     57 N           7.9210    9.5750   11.5080 N.am      1 PRO        -0.2498
     58 CA          9.3440    9.9390   11.4290 C.3       1 PRO         0.1338
     59 C           9.8760   10.0490    9.9920 C.2       1 PRO         0.2041
     60 O           9.3860    9.3450    9.0960 O.2       1 PRO        -0.3944
     61 CB         10.0330    8.7900   12.1750 C.3       1 PRO        -0.0104
     62 CG          9.1190    7.6140   11.9610 C.3       1 PRO        -0.0281
     63 CD          7.7380    8.1760   11.9610 C.3       1 PRO         0.0369
     64 N          10.8520   10.9380    9.7860 N.am      1 ALA        -0.2640
     65 CA         11.5840   10.9950    8.5120 C.3       1 ALA         0.1282
     66 C          12.7880   10.0060    8.4490 C.2       1 ALA         0.2031
     67 O          13.3070    9.5410    9.4770 O.2       1 ALA        -0.3944
     68 CB         12.0200   12.4420    8.1950 C.3       1 ALA        -0.0244
     69 N          13.2070    9.6900    7.2280 N.am      1 MET        -0.2695
     70 CA         14.3200    8.7530    6.9600 C.3       1 MET         0.0951
     71 C          15.5910    9.5170    6.5430 C.2       1 MET         0.0601
     72 O          16.6440    9.3910    7.1760 O.co2     1 MET        -0.5666
     73 CB         13.8940    7.7430    5.8710 C.3       1 MET        -0.0089
     74 CG         14.9410    6.7630    5.3790 C.3       1 MET        -0.0030
     75 SD         14.4640    6.0110    3.7820 S.3       1 MET        -0.1639
     76 CE         15.7350    4.7220    3.5770 C.3       1 MET        -0.0181
     77 OXT        15.5860   10.2730    5.5660 O.co2     1 MET        -0.5666
     78 H1          9.8886   17.6716   -3.2119 H         1 PRO         0.2035
     79 H2          9.6635   19.2797   -2.9419 H         1 PRO         0.2035
     80 H3          7.6398   19.3722   -3.8373 H         1 PRO         0.1099
     81 H4          7.1613   18.1610   -5.8570 H         1 PRO         0.0347
     82 H5          8.1941   16.7703   -5.3814 H         1 PRO         0.0347
     83 H6          8.9837   19.4739   -6.4755 H         1 PRO         0.0320
     84 H7          9.7528   17.8698   -6.7248 H         1 PRO         0.0320
     85 H8         11.1920   18.2055   -4.9155 H         1 PRO         0.0814
     86 H9         10.6032   19.9013   -4.8487 H         1 PRO         0.0814
     87 H10         8.8169   16.1859   -2.5474 H         1 ARG         0.1884
     88 H11         6.1956   15.0382   -2.4048 H         1 ARG         0.0800
     89 H12         7.6981   13.7213   -0.4071 H         1 ARG         0.0313
     90 H13         8.8738   14.1919   -1.6810 H         1 ARG         0.0313
     91 H14         7.4840   13.0659   -3.3936 H         1 ARG         0.0301
     92 H15         6.2852   12.6146   -2.1343 H         1 ARG         0.0301
     93 H16         9.1820   11.6677   -1.8915 H         1 ARG         0.0689
     94 H17         8.0536   10.8233   -3.0052 H         1 ARG         0.0689
     95 H18         8.2064   10.5712   -0.1062 H         1 ARG         0.2642
     96 H19         5.2767    8.6359    0.1089 H         1 ARG         0.2615
     97 H20         6.7588    9.1797    0.9398 H         1 ARG         0.2615
     98 H21         5.9192   10.4472   -2.8558 H         1 ARG         0.2615
     99 H22         4.7882    9.3723   -1.9910 H         1 ARG         0.2615
    100 H23         4.5299   15.0592   -0.9608 H         1 ARG         0.1883
    101 H24         4.3546   16.8997    1.1764 H         1 ARG         0.0800
    102 H25         2.4609   15.6578    0.0101 H         1 ARG         0.0313
    103 H26         2.3081   15.9990    1.7671 H         1 ARG         0.0313
    104 H27         1.4346   13.7754    1.0182 H         1 ARG         0.0301
    105 H28         2.6550   13.7201    2.3350 H         1 ARG         0.0301
    106 H29         4.3959   13.1414    0.6235 H         1 ARG         0.0689
    107 H30         3.0975   13.0689   -0.6158 H         1 ARG         0.0689
    108 H31         2.3086   11.0575    0.2924 H         1 ARG         0.2642
    109 H32         3.9347    8.8621    2.4446 H         1 ARG         0.2615
    110 H33         2.6301    9.0887    1.2491 H         1 ARG         0.2615
    111 H34         5.0658   12.1794    2.2776 H         1 ARG         0.2615
    112 H35         5.2455   10.5776    3.0424 H         1 ARG         0.2615
    113 H36         4.3478   16.6866    3.5446 H         1 ASN         0.1885
    114 H37         6.4656   14.8066    4.3430 H         1 ASN         0.0826
    115 H38         6.8732   15.9855    6.3180 H         1 ASN         0.0551
    116 H39         5.2339   16.7196    6.3416 H         1 ASN         0.0551
    117 H40         8.1567   18.2671    3.8193 H         1 ASN         0.1814
    118 H41         8.2009   16.5959    4.2725 H         1 ASN         0.1814
    119 H42         6.2791   12.9181    5.3120 H         1 TPO         0.1884
    120 H43         4.2960   12.7866    7.5588 H         1 TPO         0.0830
    121 H44         4.4357   10.3448    7.5420 H         1 TPO         0.0695
    122 H45         3.0419    9.9997    5.5194 H         1 TPO         0.0260
    123 H46         3.5494   11.6108    4.9084 H         1 TPO         0.0260
    124 H47         2.5914   11.4855    6.4227 H         1 TPO         0.0260
    125 H48         5.1501   11.2844    9.3594 H         1 LEU         0.1883
    126 H49         8.0531   11.6223    9.9194 H         1 LEU         0.0800
    127 H50         6.0208   12.4083   11.9790 H         1 LEU         0.0315
    128 H51         6.2850   13.5406   10.6098 H         1 LEU         0.0315
    129 H52         8.4347   12.6464   12.5547 H         1 LEU         0.0298
    130 H53         9.6967   14.5473   11.5410 H         1 LEU         0.0232
    131 H54         8.3439   14.8362   10.3951 H         1 LEU         0.0232
    132 H55         9.2812   13.3062   10.3108 H         1 LEU         0.0232
    133 H56         6.5726   13.7973   13.6200 H         1 LEU         0.0232
    134 H57         6.6837   15.1179   12.4074 H         1 LEU         0.0232
    135 H58         8.0347   14.8390   13.5580 H         1 LEU         0.0232
    136 H59         9.5183   10.8964   11.9418 H         1 PRO         0.0802
    137 H60        10.1278    9.0211   13.2463 H         1 PRO         0.0313
    138 H61        11.0293    8.5921   11.7530 H         1 PRO         0.0313
    139 H62         9.2363    6.8831   12.7747 H         1 PRO         0.0287
    140 H63         9.3363    7.1287   10.9980 H         1 PRO         0.0287
    141 H64         7.0901    7.6215   11.2662 H         1 PRO         0.0524
    142 H65         7.3034    8.1456   12.9710 H         1 PRO         0.0524
    143 H66        11.0902   11.5795   10.5152 H         1 ALA         0.1883
    144 H67        10.8799   10.6873    7.7248 H         1 ALA         0.0797
    145 H68        12.5646   12.4598    7.2394 H         1 ALA         0.0277
    146 H69        12.6753   12.8117    8.9974 H         1 ALA         0.0277
    147 H70        11.1307   13.0853    8.1222 H         1 ALA         0.0277
    148 H71        12.7441   10.1090    6.4468 H         1 MET         0.1875
    149 H72        14.5399    8.1977    7.8837 H         1 MET         0.0726
    150 H73        13.5494    8.3216    5.0012 H         1 MET         0.0313
    151 H74        13.0567    7.1554    6.2756 H         1 MET         0.0313
    152 H75        15.0623    5.9654    6.1267 H         1 MET         0.0378
    153 H76        15.8955    7.2947    5.2519 H         1 MET         0.0378
    154 H77        15.5609    4.1821    2.6346 H         1 MET         0.0340
    155 H78        15.6809    4.0164    4.4191 H         1 MET         0.0340
    156 H79        16.7306    5.1892    3.5534 H         1 MET         0.0340
@<TRIPOS>BOND
     1    1    2 1  
     2    1    7 1  
     3    2    3 1  
     4    2    5 1  
     5    3    4 2  
     6    3    8 am 
     7    5    6 1  
     8    6    7 1  
     9    8    9 1  
    10    9   10 1  
    11    9   12 1  
    12   10   11 2  
    13   10   19 am 
    14   12   13 1  
    15   13   14 1  
    16   14   15 1  
    17   15   16 ar 
    18   16   17 ar 
    19   16   18 ar 
    20   19   20 1  
    21   20   21 1  
    22   20   23 1  
    23   21   22 2  
    24   21   30 am 
    25   23   24 1  
    26   24   25 1  
    27   25   26 1  
    28   26   27 ar 
    29   27   28 ar 
    30   27   29 ar 
    31   30   31 1  
    32   31   32 1  
    33   31   34 1  
    34   32   33 2  
    35   32   38 am 
    36   34   35 1  
    37   35   36 2  
    38   35   37 am 
    39   38   39 1  
    40   39   40 1  
    41   39   47 1  
    42   40   41 1  
    43   40   42 1  
    44   42   43 1  
    45   43   44 ar 
    46   43   45 ar 
    47   43   46 ar 
    48   47   48 2  
    49   47   49 am 
    50   49   50 1  
    51   50   51 1  
    52   50   53 1  
    53   51   52 2  
    54   51   57 am 
    55   53   54 1  
    56   54   55 1  
    57   54   56 1  
    58   57   58 1  
    59   57   63 1  
    60   58   59 1  
    61   58   61 1  
    62   59   60 2  
    63   59   64 am 
    64   61   62 1  
    65   62   63 1  
    66   64   65 1  
    67   65   66 1  
    68   65   68 1  
    69   66   67 2  
    70   66   69 am 
    71   69   70 1  
    72   70   71 1  
    73   70   73 1  
    74   71   72 ar 
    75   71   77 ar 
    76   73   74 1  
    77   74   75 1  
    78   75   76 1  
    79    1   78 1  
    80    1   79 1  
    81    2   80 1  
    82    5   81 1  
    83    5   82 1  
    84    6   83 1  
    85    6   84 1  
    86    7   85 1  
    87    7   86 1  
    88    8   87 1  
    89    9   88 1  
    90   12   89 1  
    91   12   90 1  
    92   13   91 1  
    93   13   92 1  
    94   14   93 1  
    95   14   94 1  
    96   15   95 1  
    97   17   96 1  
    98   17   97 1  
    99   18   98 1  
   100   18   99 1  
   101   19  100 1  
   102   20  101 1  
   103   23  102 1  
   104   23  103 1  
   105   24  104 1  
   106   24  105 1  
   107   25  106 1  
   108   25  107 1  
   109   26  108 1  
   110   28  109 1  
   111   28  110 1  
   112   29  111 1  
   113   29  112 1  
   114   30  113 1  
   115   31  114 1  
   116   34  115 1  
   117   34  116 1  
   118   37  117 1  
   119   37  118 1  
   120   38  119 1  
   121   39  120 1  
   122   40  121 1  
   123   41  122 1  
   124   41  123 1  
   125   41  124 1  
   126   49  125 1  
   127   50  126 1  
   128   53  127 1  
   129   53  128 1  
   130   54  129 1  
   131   55  130 1  
   132   55  131 1  
   133   55  132 1  
   134   56  133 1  
   135   56  134 1  
   136   56  135 1  
   137   58  136 1  
   138   61  137 1  
   139   61  138 1  
   140   62  139 1  
   141   62  140 1  
   142   63  141 1  
   143   63  142 1  
   144   64  143 1  
   145   65  144 1  
   146   68  145 1  
   147   68  146 1  
   148   68  147 1  
   149   69  148 1  
   150   70  149 1  
   151   73  150 1  
   152   73  151 1  
   153   74  152 1  
   154   74  153 1  
   155   76  154 1  
   156   76  155 1  
   157   76  156 1  
@<TRIPOS>SUBSTRUCTURE
     1 PRO         1

