4k5y_ligand
  -I-interpret- 

 54 55  0  0  0  0  0  0  0  0999 V2000
  -41.0020  -18.2520   33.2560 C   0  0  0  0  0
  -44.9960  -19.9570   35.8780 C   0  0  0  0  0
  -37.9990  -21.7310   35.2040 C   0  0  0  0  0
  -41.6700  -22.3050   37.2960 C   0  0  0  0  0
  -41.5110  -21.2450   36.2460 C   0  0  0  0  0
  -42.6210  -20.3560   35.9030 C   0  0  0  0  0
  -42.4010  -19.4060   34.9270 C   0  0  0  0  0
  -41.1760  -19.3020   34.3030 C   0  0  0  0  0
  -40.2450  -21.0540   35.5270 C   0  0  0  0  0
  -37.7520  -22.2330   33.8400 C   0  0  0  0  0
  -34.1090  -21.3010   33.3860 C   0  0  0  0  0
  -38.8580  -22.8940   33.0750 C   0  0  0  0  0
  -37.0850  -20.5790   37.2950 C   0  0  0  0  0
  -36.4930  -22.0790   33.2860 C   0  0  0  0  0
  -35.4680  -21.4610   34.0030 C   0  0  0  0  0
  -35.6530  -20.9790   35.2880 C   0  0  0  0  0
  -36.8790  -21.0950   35.9110 C   0  0  0  0  0
  -45.0090  -18.4300   37.8390 C   0  0  0  0  0
  -45.8550  -19.2710   36.9150 C   0  0  0  0  0
  -45.7950  -21.0660   35.2290 C   0  0  0  0  0
  -44.8860  -22.0100   34.4880 C   0  0  0  0  0
  -43.8110  -20.4710   36.5180 N   0  0  0  0  0
  -40.1420  -20.1030   34.6000 N   0  0  0  0  0
  -39.2010  -21.8550   35.8170 O   0  0  0  0  0
  -41.7147  -18.4235   32.4493 H   0  0  0  0  0
  -41.1779  -17.2701   33.6953 H   0  0  0  0  0
  -39.9869  -18.2985   32.8618 H   0  0  0  0  0
  -44.6924  -19.2540   35.1023 H   0  0  0  0  0
  -41.9260  -21.8374   38.2467 H   0  0  0  0  0
  -42.4646  -22.9904   37.0011 H   0  0  0  0  0
  -40.7345  -22.8546   37.4002 H   0  0  0  0  0
  -43.2069  -18.7283   34.6453 H   0  0  0  0  0
  -33.7044  -22.2832   33.1416 H   0  0  0  0  0
  -34.1918  -20.7044   32.4775 H   0  0  0  0  0
  -33.4474  -20.7996   34.0924 H   0  0  0  0  0
  -39.2023  -23.7717   33.6220 H   0  0  0  0  0
  -39.6837  -22.1928   32.9537 H   0  0  0  0  0
  -38.4897  -23.1966   32.0948 H   0  0  0  0  0
  -37.8653  -19.8180   37.2853 H   0  0  0  0  0
  -37.3844  -21.3999   37.9466 H   0  0  0  0  0
  -36.1553  -20.1434   37.6611 H   0  0  0  0  0
  -36.3000  -22.4449   32.2776 H   0  0  0  0  0
  -34.8234  -20.5040   35.8117 H   0  0  0  0  0
  -44.2848  -19.0669   38.3468 H   0  0  0  0  0
  -44.4837  -17.6713   37.2588 H   0  0  0  0  0
  -45.6495  -17.9464   38.5765 H   0  0  0  0  0
  -46.3701  -20.0304   37.5033 H   0  0  0  0  0
  -46.5706  -18.6244   36.4072 H   0  0  0  0  0
  -46.4997  -20.6270   34.5228 H   0  0  0  0  0
  -46.3240  -21.6205   36.0041 H   0  0  0  0  0
  -44.3480  -21.4621   33.7144 H   0  0  0  0  0
  -44.1734  -22.4492   35.1861 H   0  0  0  0  0
  -45.4807  -22.7997   34.0289 H   0  0  0  0  0
  -43.8750  -20.9193   37.4320 H   0  0  0  0  0
  8  1  1  0  0  0
  2 19  1  0  0  0
  2 20  1  0  0  0
 22  2  1  0  0  0
 10  3  4  0  0  0
  3 17  4  0  0  0
  3 24  1  0  0  0
  5  4  1  0  0  0
  5  6  4  0  0  0
  9  5  4  0  0  0
  6  7  4  0  0  0
  6 22  1  0  0  0
  8  7  4  0  0  0
 23  8  4  0  0  0
  9 23  4  0  0  0
 24  9  1  0  0  0
 10 12  1  0  0  0
 14 10  4  0  0  0
 15 11  1  0  0  0
 17 13  1  0  0  0
 14 15  4  0  0  0
 15 16  4  0  0  0
 16 17  4  0  0  0
 19 18  1  0  0  0
 20 21  1  0  0  0
  1 25  1  0  0  0
  1 26  1  0  0  0
  1 27  1  0  0  0
  2 28  1  0  0  0
  4 29  1  0  0  0
  4 30  1  0  0  0
  4 31  1  0  0  0
  7 32  1  0  0  0
 11 33  1  0  0  0
 11 34  1  0  0  0
 11 35  1  0  0  0
 12 36  1  0  0  0
 12 37  1  0  0  0
 12 38  1  0  0  0
 13 39  1  0  0  0
 13 40  1  0  0  0
 13 41  1  0  0  0
 14 42  1  0  0  0
 16 43  1  0  0  0
 18 44  1  0  0  0
 18 45  1  0  0  0
 18 46  1  0  0  0
 19 47  1  0  0  0
 19 48  1  0  0  0
 20 49  1  0  0  0
 20 50  1  0  0  0
 21 51  1  0  0  0
 21 52  1  0  0  0
 21 53  1  0  0  0
 22 54  1  0  0  0
M  END
$$$$
