### 
### Created by X-TOOL on Mon Sep 10 21:12:49 2018
### 

@<TRIPOS>MOLECULE
1jyi_ligand
  181   186     1     0     0
SMALL
GAST_HUCK


@<TRIPOS>ATOM
      1 N          57.1440   24.4590  125.3390 N.4       1 ASP         0.2391
      2 CA         57.0060   23.5990  124.1270 C.3       1 ASP         0.0764
      3 C          58.3890   23.3350  123.5270 C.2       1 ASP         0.2284
      4 O          58.5800   22.3780  122.7730 O.2       1 ASP        -0.3906
      5 CB         56.0970   24.2920  123.0980 C.3       1 ASP         0.0607
      6 CG         55.6380   23.3550  121.9870 C.2       1 ASP         0.0425
      7 OD1        55.0780   22.2840  122.3040 O.co2     1 ASP        -0.5686
      8 OD2        55.8240   23.6920  120.7960 O.co2     1 ASP        -0.5686
      9 N          59.3500   24.1890  123.8750 N.am      1 VAL        -0.2607
     10 CA         60.7250   24.0680  123.3880 C.3       1 VAL         0.1334
     11 C          61.7320   24.3680  124.5070 C.2       1 VAL         0.2043
     12 O          61.4970   25.2380  125.3480 O.2       1 VAL        -0.3944
     13 CB         60.9750   25.0220  122.1830 C.3       1 VAL        -0.0063
     14 CG1        62.4500   25.0800  121.8510 C.3       1 VAL        -0.0584
     15 CG2        60.2090   24.5280  120.9670 C.3       1 VAL        -0.0584
     16 N          62.8480   23.6370  124.5050 N.am      1 PHE        -0.2619
     17 CA         63.8930   23.7890  125.5230 C.3       1 PHE         0.1404
     18 C          65.3010   24.0840  124.9830 C.2       1 PHE         0.2061
     19 O          65.8420   23.3220  124.1760 O.2       1 PHE        -0.3942
     20 CB         63.9500   22.5280  126.3950 C.3       1 PHE         0.0214
     21 CG         62.8610   22.4480  127.4290 C.ar      1 PHE        -0.0386
     22 CD1        62.6110   21.2540  128.0980 C.ar      1 PHE        -0.0601
     23 CD2        62.1030   23.5700  127.7570 C.ar      1 PHE        -0.0601
     24 CE1        61.6230   21.1780  129.0790 C.ar      1 PHE        -0.0686
     25 CE2        61.1140   23.5050  128.7350 C.ar      1 PHE        -0.0686
     26 CZ         60.8730   22.3070  129.3980 C.ar      1 PHE        -0.0687
     27 N          65.8790   25.1890  125.4600 N.am      1 TYR        -0.2620
     28 CA         67.2220   25.6670  125.0950 C.3       1 TYR         0.1392
     29 C          67.8440   25.1170  123.8090 C.2       1 TYR         0.2082
     30 O          69.0080   24.7110  123.8210 O.2       1 TYR        -0.3940
     31 CB         68.2370   25.3980  126.2200 C.3       1 TYR         0.0164
     32 CG         67.7010   25.2920  127.6340 C.ar      1 TYR        -0.0493
     33 CD1        66.7350   24.3400  127.9680 C.ar      1 TYR        -0.0685
     34 CD2        68.2310   26.0770  128.6570 C.ar      1 TYR        -0.0685
     35 CE1        66.3150   24.1700  129.2840 C.ar      1 TYR        -0.0398
     36 CE2        67.8190   25.9150  129.9770 C.ar      1 TYR        -0.0398
     37 CZ         66.8630   24.9570  130.2840 C.ar      1 TYR         0.0805
     38 OH         66.4620   24.7730  131.5870 O.3       1 TYR        -0.3376
     39 N          67.0980   25.0970  122.6880 N.am      1 PRO        -0.2497
     40 CA         67.6510   24.5840  121.4350 C.3       1 PRO         0.1338
     41 C          69.1490   24.7940  121.2970 C.2       1 PRO         0.2042
     42 O          69.8850   23.8460  121.0360 O.2       1 PRO        -0.3944
     43 CB         66.8320   25.3310  120.4040 C.3       1 PRO        -0.0104
     44 CG         65.4870   25.1880  120.9930 C.3       1 PRO        -0.0281
     45 CD         65.7240   25.5700  122.4590 C.3       1 PRO         0.0369
     46 N          69.6060   26.0270  121.4770 N.am      1 TYR        -0.2621
     47 CA         71.0340   26.2900  121.4080 C.3       1 TYR         0.1392
     48 C          71.4440   27.4710  122.2830 C.2       1 TYR         0.2082
     49 O          72.2490   27.3130  123.2040 O.2       1 TYR        -0.3940
     50 CB         71.4870   26.5280  119.9660 C.3       1 TYR         0.0164
     51 CG         72.9720   26.3060  119.7570 C.ar      1 TYR        -0.0493
     52 CD1        73.9110   26.7750  120.6840 C.ar      1 TYR        -0.0685
     53 CD2        73.4440   25.6570  118.6170 C.ar      1 TYR        -0.0685
     54 CE1        75.2820   26.6060  120.4780 C.ar      1 TYR        -0.0398
     55 CE2        74.8160   25.4840  118.3980 C.ar      1 TYR        -0.0398
     56 CZ         75.7270   25.9610  119.3310 C.ar      1 TYR         0.0805
     57 OH         77.0760   25.7970  119.1070 O.3       1 TYR        -0.3376
     58 N          70.8980   28.6710  122.0120 N.am      1 PRO        -0.2497
     59 CA         71.2540   29.8440  122.8170 C.3       1 PRO         0.1338
     60 C          71.0550   29.6430  124.3240 C.2       1 PRO         0.2042
     61 O          69.9930   29.2000  124.7750 O.2       1 PRO        -0.3944
     62 CB         70.3510   30.9350  122.2500 C.3       1 PRO        -0.0104
     63 CG         70.2050   30.5380  120.8230 C.3       1 PRO        -0.0281
     64 CD         69.9670   29.0490  120.9330 C.3       1 PRO         0.0369
     65 N          72.0980   29.9720  125.0830 N.am      1 TYR        -0.2621
     66 CA         72.1150   29.8520  126.5410 C.3       1 TYR         0.1390
     67 C          70.9040   30.4680  127.2420 C.2       1 TYR         0.2057
     68 O          70.7860   31.6920  127.3470 O.2       1 TYR        -0.3942
     69 CB         73.4030   30.4830  127.0970 C.3       1 TYR         0.0163
     70 CG         74.1380   31.3600  126.0990 C.ar      1 TYR        -0.0493
     71 CD1        73.4850   32.4100  125.4450 C.ar      1 TYR        -0.0685
     72 CD2        75.4790   31.1280  125.7930 C.ar      1 TYR        -0.0685
     73 CE1        74.1460   33.2020  124.5110 C.ar      1 TYR        -0.0398
     74 CE2        76.1500   31.9150  124.8610 C.ar      1 TYR        -0.0398
     75 CZ         75.4770   32.9480  124.2240 C.ar      1 TYR         0.0805
     76 OH         76.1340   33.7270  123.3020 O.3       1 TYR        -0.3376
     77 N          70.0070   29.6090  127.7230 N.am      1 ALA        -0.2639
     78 CA         68.8160   30.0620  128.4330 C.3       1 ALA         0.1282
     79 C          69.1020   30.0180  129.9350 C.2       1 ALA         0.2037
     80 O          69.1260   28.9430  130.5370 O.2       1 ALA        -0.3944
     81 CB         67.6200   29.1700  128.0870 C.3       1 ALA        -0.0244
     82 N          69.3230   31.1930  130.5250 N.am      1 SER        -0.2616
     83 CA         69.6310   31.3200  131.9530 C.3       1 SER         0.1539
     84 C          68.4470   30.9880  132.8610 C.2       1 SER         0.2060
     85 O          67.5400   31.8040  133.0470 O.2       1 SER        -0.3943
     86 CB         70.1250   32.7400  132.2600 C.3       1 SER         0.0843
     87 OG         70.4840   32.8750  133.6260 O.3       1 SER        -0.3903
     88 N          68.4760   29.7880  133.4350 N.am      1 GLY        -0.2663
     89 CA         67.4060   29.3520  134.3140 C.3       1 GLY         0.1201
     90 C          66.7920   28.0470  133.8450 C.2       1 GLY         0.2003
     91 O          67.3130   26.9660  134.1290 O.2       1 GLY        -0.3947
     92 N          65.6800   28.1440  133.1180 N.am      1 SER        -0.2675
     93 CA         64.9920   26.9620  132.6040 C.3       1 SER         0.1173
     94 C          64.5590   27.1400  131.1480 C.2       1 SER         0.0623
     95 O          64.9260   28.1700  130.5390 O.co2     1 SER        -0.5665
     96 CB         63.7730   26.6360  133.4760 C.3       1 SER         0.0789
     97 OG         64.1670   26.2600  134.7860 O.3       1 SER        -0.3910
     98 OXT        63.8630   26.2400  130.6320 O.co2     1 SER        -0.5665
     99 H1         56.2327   24.6324  125.7335 H         1 ASP         0.2016
    100 H2         57.5712   25.3352  125.0824 H         1 ASP         0.2016
    101 H3         57.7211   23.9903  126.0197 H         1 ASP         0.2016
    102 H4         56.5519   22.6396  124.4156 H         1 ASP         0.1117
    103 H5         56.6516   25.1274  122.6459 H         1 ASP         0.0512
    104 H6         55.2094   24.6803  123.6188 H         1 ASP         0.0512
    105 H7         59.1234   24.9419  124.4929 H         1 VAL         0.1885
    106 H8         60.8797   23.0329  123.0496 H         1 VAL         0.0802
    107 H9         60.6251   26.0310  122.4467 H         1 VAL         0.0343
    108 H10        62.6076   25.7575  120.9988 H         1 VAL         0.0234
    109 H11        62.8069   24.0729  121.5896 H         1 VAL         0.0234
    110 H12        63.0078   25.4519  122.7231 H         1 VAL         0.0234
    111 H13        59.1355   24.4839  121.2029 H         1 VAL         0.0234
    112 H14        60.5654   23.5244  120.6919 H         1 VAL         0.0234
    113 H15        60.3715   25.2181  120.1260 H         1 VAL         0.0234
    114 H16        62.9771   22.9591  123.7813 H         1 PHE         0.1885
    115 H17        63.6034   24.6382  126.1594 H         1 PHE         0.0823
    116 H18        64.9203   22.5094  126.9129 H         1 PHE         0.0474
    117 H19        63.8680   21.6495  125.7381 H         1 PHE         0.0474
    118 H20        63.1915   20.3718  127.8536 H         1 PHE         0.0557
    119 H21        62.2858   24.5070  127.2435 H         1 PHE         0.0557
    120 H22        61.4390   20.2413  129.5926 H         1 PHE         0.0599
    121 H23        60.5330   24.3870  128.9790 H         1 PHE         0.0599
    122 H24        60.1043   22.2520  130.1603 H         1 PHE         0.0559
    123 H25        65.3584   25.7346  126.1168 H         1 TYR         0.1885
    124 H26        67.1319   26.7558  124.9669 H         1 TYR         0.0821
    125 H27        68.9699   26.2181  126.2059 H         1 TYR         0.0453
    126 H28        68.7434   24.4496  125.9874 H         1 TYR         0.0453
    127 H29        66.3046   23.7223  127.1881 H         1 TYR         0.0530
    128 H30        68.9772   26.8269  128.4205 H         1 TYR         0.0530
    129 H31        65.5639   23.4265  129.5251 H         1 TYR         0.0525
    130 H32        68.2424   26.5334  130.7602 H         1 TYR         0.0525
    131 H33        65.8079   24.0850  131.6217 H         1 TYR         0.2458
    132 H34        67.4580   23.5040  121.3550 H         1 PRO         0.0802
    133 H35        66.8956   24.8594  119.4123 H         1 PRO         0.0313
    134 H36        67.1345   26.3859  120.3285 H         1 PRO         0.0313
    135 H37        65.1228   24.1537  120.9057 H         1 PRO         0.0287
    136 H38        64.7692   25.8711  120.5154 H         1 PRO         0.0287
    137 H39        65.6476   26.6576  122.6046 H         1 PRO         0.0524
    138 H40        65.0112   25.0601  123.1237 H         1 PRO         0.0524
    139 H41        68.9680   26.7750  121.6601 H         1 TYR         0.1885
    140 H42        71.5539   25.3965  121.7838 H         1 TYR         0.0821
    141 H43        71.2478   27.5662  119.6922 H         1 TYR         0.0453
    142 H44        70.9357   25.8392  119.3091 H         1 TYR         0.0453
    143 H45        73.5668   27.2794  121.5796 H         1 TYR         0.0530
    144 H46        72.7365   25.2798  117.8875 H         1 TYR         0.0530
    145 H47        75.9935   26.9754  121.2077 H         1 TYR         0.0525
    146 H48        75.1654   24.9800  117.5042 H         1 TYR         0.0525
    147 H49        77.5640   26.1735  119.8299 H         1 TYR         0.2458
    148 H50        72.3093   30.1039  122.6476 H         1 PRO         0.0802
    149 H51        70.8225   31.9248  122.3390 H         1 PRO         0.0313
    150 H52        69.3761   30.9461  122.7593 H         1 PRO         0.0313
    151 H53        71.1199   30.7553  120.2522 H         1 PRO         0.0287
    152 H54        69.3500   31.0456  120.3525 H         1 PRO         0.0287
    153 H55        68.9249   28.8298  121.2086 H         1 PRO         0.0524
    154 H56        70.2138   28.5339  119.9929 H         1 PRO         0.0524
    155 H57        72.9180   30.3217  124.6300 H         1 TYR         0.1885
    156 H58        72.1233   28.7787  126.7816 H         1 TYR         0.0821
    157 H59        74.0785   29.6732  127.4099 H         1 TYR         0.0453
    158 H60        73.1387   31.0980  127.9699 H         1 TYR         0.0453
    159 H61        72.4438   32.6107  125.6701 H         1 TYR         0.0530
    160 H62        76.0073   30.3218  126.2890 H         1 TYR         0.0530
    161 H63        73.6238   34.0106  124.0125 H         1 TYR         0.0525
    162 H64        77.1923   31.7220  124.6342 H         1 TYR         0.0525
    163 H65        75.5377   34.3833  122.9613 H         1 TYR         0.2458
    164 H66        70.1538   28.6283  127.5941 H         1 ALA         0.1883
    165 H67        68.5868   31.0963  128.1370 H         1 ALA         0.0797
    166 H68        66.7303   29.5231  128.6290 H         1 ALA         0.0277
    167 H69        67.8396   28.1326  128.3793 H         1 ALA         0.0277
    168 H70        67.4310   29.2137  127.0042 H         1 ALA         0.0277
    169 H71        69.2767   32.0234  129.9698 H         1 SER         0.1884
    170 H72        70.4406   30.6121  132.1840 H         1 SER         0.0823
    171 H73        69.3236   33.4567  132.0273 H         1 SER         0.0606
    172 H74        71.0039   32.9570  131.6351 H         1 SER         0.0606
    173 H75        70.7852   33.7615  133.7870 H         1 SER         0.2097
    174 H76        69.2473   29.1766  133.2581 H         1 GLY         0.1881
    175 H77        66.6247   30.1260  134.3359 H         1 GLY         0.0763
    176 H78        67.8115   29.2115  135.3268 H         1 GLY         0.0763
    177 H79        65.3062   29.0499  132.9188 H         1 SER         0.1876
    178 H80        65.6906   26.1137  132.6515 H         1 SER         0.0749
    179 H81        63.2146   25.8068  133.0171 H         1 SER         0.0599
    180 H82        63.1268   27.5241  133.5364 H         1 SER         0.0599
    181 H83        63.3949   26.0640  135.3037 H         1 SER         0.2096
@<TRIPOS>BOND
     1    1    2 1  
     2    2    3 1  
     3    2    5 1  
     4    3    4 2  
     5    3    9 am 
     6    5    6 1  
     7    6    7 ar 
     8    6    8 ar 
     9    9   10 1  
    10   10   11 1  
    11   10   13 1  
    12   11   12 2  
    13   11   16 am 
    14   13   14 1  
    15   13   15 1  
    16   16   17 1  
    17   17   18 1  
    18   17   20 1  
    19   18   19 2  
    20   18   27 am 
    21   20   21 1  
    22   21   22 ar 
    23   21   23 ar 
    24   22   24 ar 
    25   23   25 ar 
    26   24   26 ar 
    27   25   26 ar 
    28   27   28 1  
    29   28   29 1  
    30   28   31 1  
    31   29   30 2  
    32   29   39 am 
    33   31   32 1  
    34   32   33 ar 
    35   32   34 ar 
    36   33   35 ar 
    37   34   36 ar 
    38   35   37 ar 
    39   36   37 ar 
    40   37   38 1  
    41   39   40 1  
    42   39   45 1  
    43   40   41 1  
    44   40   43 1  
    45   41   42 2  
    46   41   46 am 
    47   43   44 1  
    48   44   45 1  
    49   46   47 1  
    50   47   48 1  
    51   47   50 1  
    52   48   49 2  
    53   48   58 am 
    54   50   51 1  
    55   51   52 ar 
    56   51   53 ar 
    57   52   54 ar 
    58   53   55 ar 
    59   54   56 ar 
    60   55   56 ar 
    61   56   57 1  
    62   58   59 1  
    63   58   64 1  
    64   59   60 1  
    65   59   62 1  
    66   60   61 2  
    67   60   65 am 
    68   62   63 1  
    69   63   64 1  
    70   65   66 1  
    71   66   67 1  
    72   66   69 1  
    73   67   68 2  
    74   67   77 am 
    75   69   70 1  
    76   70   71 ar 
    77   70   72 ar 
    78   71   73 ar 
    79   72   74 ar 
    80   73   75 ar 
    81   74   75 ar 
    82   75   76 1  
    83   77   78 1  
    84   78   79 1  
    85   78   81 1  
    86   79   80 2  
    87   79   82 am 
    88   82   83 1  
    89   83   84 1  
    90   83   86 1  
    91   84   85 2  
    92   84   88 am 
    93   86   87 1  
    94   88   89 1  
    95   89   90 1  
    96   90   91 2  
    97   90   92 am 
    98   92   93 1  
    99   93   94 1  
   100   93   96 1  
   101   94   95 ar 
   102   94   98 ar 
   103   96   97 1  
   104    1   99 1  
   105    1  100 1  
   106    1  101 1  
   107    2  102 1  
   108    5  103 1  
   109    5  104 1  
   110    9  105 1  
   111   10  106 1  
   112   13  107 1  
   113   14  108 1  
   114   14  109 1  
   115   14  110 1  
   116   15  111 1  
   117   15  112 1  
   118   15  113 1  
   119   16  114 1  
   120   17  115 1  
   121   20  116 1  
   122   20  117 1  
   123   22  118 1  
   124   23  119 1  
   125   24  120 1  
   126   25  121 1  
   127   26  122 1  
   128   27  123 1  
   129   28  124 1  
   130   31  125 1  
   131   31  126 1  
   132   33  127 1  
   133   34  128 1  
   134   35  129 1  
   135   36  130 1  
   136   38  131 1  
   137   40  132 1  
   138   43  133 1  
   139   43  134 1  
   140   44  135 1  
   141   44  136 1  
   142   45  137 1  
   143   45  138 1  
   144   46  139 1  
   145   47  140 1  
   146   50  141 1  
   147   50  142 1  
   148   52  143 1  
   149   53  144 1  
   150   54  145 1  
   151   55  146 1  
   152   57  147 1  
   153   59  148 1  
   154   62  149 1  
   155   62  150 1  
   156   63  151 1  
   157   63  152 1  
   158   64  153 1  
   159   64  154 1  
   160   65  155 1  
   161   66  156 1  
   162   69  157 1  
   163   69  158 1  
   164   71  159 1  
   165   72  160 1  
   166   73  161 1  
   167   74  162 1  
   168   76  163 1  
   169   77  164 1  
   170   78  165 1  
   171   81  166 1  
   172   81  167 1  
   173   81  168 1  
   174   82  169 1  
   175   83  170 1  
   176   86  171 1  
   177   86  172 1  
   178   87  173 1  
   179   88  174 1  
   180   89  175 1  
   181   89  176 1  
   182   92  177 1  
   183   93  178 1  
   184   96  179 1  
   185   96  180 1  
   186   97  181 1  
@<TRIPOS>SUBSTRUCTURE
     1 ASP         1

