3t8v_ligand
  -I-interpret- 

 83 84  0  0  0  0  0  0  0  0999 V2000
   17.1810   10.1600    9.1020 C   0  0  0  0  0
   17.7000    8.5330   11.6650 N   0  0  0  0  0
   17.5120   10.5880   12.4180 O   0  0  0  0  0
   16.4170   10.2120   10.3750 C   0  0  0  0  0
   15.3610    3.7680   18.2320 N   0  0  0  0  0
   16.6370    7.4320   13.7240 O   0  0  0  0  0
   17.2900    9.8390   11.6300 C   0  0  0  0  0
   15.0070    6.6780   15.9580 O   0  0  0  0  0
   18.6740    7.8900   12.5170 C   0  0  0  0  0
   17.0630    5.4080   17.9540 O   0  0  0  0  0
   18.0080    7.7510   13.8370 C   0  0  0  0  0
   15.3430   11.2020   10.4350 N   0  0  0  0  0
   16.3470    6.1440   14.0830 C   0  0  0  0  0
   11.6960   11.9490   12.3850 N   0  3  0  0  0
   14.9950    6.0270   14.7500 C   0  0  0  0  0
   14.9870    6.1370   17.3150 C   0  0  0  0  0
   15.9090    5.0740   17.8530 C   0  0  0  0  0
   14.4000    9.8790   11.7200 O   0  0  0  0  0
   14.8540    3.2950   19.5880 C   0  0  0  0  0
   12.2300   11.2290   18.7310 O   0  0  0  0  0
   15.7450    2.4660   20.4030 C   0  0  0  0  0
   13.1400   12.7170   10.3530 O   0  0  0  0  0
   13.4670    2.8700   20.0240 C   0  0  0  0  0
   14.5130   10.9860   11.1860 C   0  0  0  0  0
   13.8220   12.2620   11.3210 C   0  0  0  0  0
   13.0250   12.0510   12.4680 C   0  0  0  0  0
   13.3320   13.0210   13.5500 C   0  0  0  0  0
   13.0210   12.5130   14.9800 C   0  0  0  0  0
   12.8930   13.3220   15.9910 C   0  0  0  0  0
   12.6200   12.7210   17.1860 C   0  0  0  0  0
   12.5080   11.4460   17.5540 C   0  0  0  0  0
   12.5880   10.6400   16.6480 C   0  0  0  0  0
   12.8120   11.1470   15.4230 C   0  0  0  0  0
   11.9270   10.0960   19.4650 C   0  0  0  0  0
   13.2360    9.3660   19.6940 C   0  0  0  0  0
   13.3370    7.9020   19.8050 C   0  0  0  0  0
   14.5520    7.3470   20.1750 C   0  0  0  0  0
   15.6870    8.1620   20.4000 C   0  0  0  0  0
   15.5790    9.5520   20.3000 C   0  0  0  0  0
   14.4600   10.1590   19.9250 C   0  0  0  0  0
   16.5028    9.9234    8.2821 H   0  0  0  0  0
   17.6486   11.1277    8.9206 H   0  0  0  0  0
   17.9501    9.3909    9.1725 H   0  0  0  0  0
   17.2488    7.9203   10.9857 H   0  0  0  0  0
   15.7236    9.3719   10.4130 H   0  0  0  0  0
   15.3125    3.0789   17.4815 H   0  0  0  0  0
   19.5914    8.4741   12.5898 H   0  0  0  0  0
   18.9801    6.9229   12.1180 H   0  0  0  0  0
   18.4975    6.9394   14.3753 H   0  0  0  0  0
   18.0879    8.7068   14.3548 H   0  0  0  0  0
   15.3367   12.0326    9.8430 H   0  0  0  0  0
   17.1048    5.8110   14.7922 H   0  0  0  0  0
   16.3328    5.5352   13.1790 H   0  0  0  0  0
   11.3088   11.7996   13.3168 H   0  0  0  0  0
   11.3142   12.8087   11.9907 H   0  0  0  0  0
   11.4535   11.1610   11.7844 H   0  0  0  0  0
   14.2390    6.4788   14.1077 H   0  0  0  0  0
   14.7668    4.9738   14.9136 H   0  0  0  0  0
   14.0204    5.6341   17.3440 H   0  0  0  0  0
   15.2716    7.0054   17.9091 H   0  0  0  0  0
   14.8023    4.3798   19.6813 H   0  0  0  0  0
   15.5635    2.6689   21.4585 H   0  0  0  0  0
   15.5510    1.4137   20.1954 H   0  0  0  0  0
   16.7812    2.7007   20.1596 H   0  0  0  0  0
   12.7532   13.5591   10.6035 H   0  0  0  0  0
   13.3359    1.8059   19.8274 H   0  0  0  0  0
   13.3483    3.0611   21.0905 H   0  0  0  0  0
   12.7223    3.4382   19.4667 H   0  0  0  0  0
   14.5686   13.0545   11.3730 H   0  0  0  0  0
   13.3409   11.0281   12.6732 H   0  0  0  0  0
   12.7045   13.8959   13.3800 H   0  0  0  0  0
   14.4037   13.2155   13.5079 H   0  0  0  0  0
   12.9964   14.4025   15.8910 H   0  0  0  0  0
   12.4621   13.4258   18.0024 H   0  0  0  0  0
   12.4842    9.5684   16.8185 H   0  0  0  0  0
   12.8417   10.4044   14.6257 H   0  0  0  0  0
   11.2170    9.4644   18.9311 H   0  0  0  0  0
   11.4572   10.3598   20.4125 H   0  0  0  0  0
   12.4746    7.2676   19.6006 H   0  0  0  0  0
   14.6346    6.2667   20.2945 H   0  0  0  0  0
   16.6447    7.7060   20.6511 H   0  0  0  0  0
   16.4496   10.1624   20.5399 H   0  0  0  0  0
   14.4445   11.2402   19.7879 H   0  0  0  0  0
  4  1  1  0  0  0
  7  2  1  0  0  0
  2  9  1  0  0  0
  7  3  2  0  0  0
  4  7  1  0  0  0
 12  4  1  0  0  0
 17  5  1  0  0  0
  5 19  1  0  0  0
 11  6  1  0  0  0
  6 13  1  0  0  0
 15  8  1  0  0  0
  8 16  1  0  0  0
  9 11  1  0  0  0
 17 10  2  0  0  0
 24 12  1  0  0  0
 13 15  1  0  0  0
 26 14  1  0  0  0
 16 17  1  0  0  0
 24 18  2  0  0  0
 19 21  1  0  0  0
 19 23  1  0  0  0
 31 20  1  0  0  0
 20 34  1  0  0  0
 25 22  1  0  0  0
 25 24  1  0  0  0
 26 25  1  0  0  0
 27 26  1  0  0  0
 28 27  1  0  0  0
 29 28  4  0  0  0
 28 33  4  0  0  0
 30 29  4  0  0  0
 30 31  4  0  0  0
 31 32  4  0  0  0
 32 33  4  0  0  0
 34 35  1  0  0  0
 35 36  4  0  0  0
 35 40  4  0  0  0
 36 37  4  0  0  0
 37 38  4  0  0  0
 38 39  4  0  0  0
 39 40  4  0  0  0
  1 41  1  0  0  0
  1 42  1  0  0  0
  1 43  1  0  0  0
  2 44  1  0  0  0
  4 45  1  0  0  0
  5 46  1  0  0  0
  9 47  1  0  0  0
  9 48  1  0  0  0
 11 49  1  0  0  0
 11 50  1  0  0  0
 12 51  1  0  0  0
 13 52  1  0  0  0
 13 53  1  0  0  0
 14 54  1  0  0  0
 14 55  1  0  0  0
 14 56  1  0  0  0
 15 57  1  0  0  0
 15 58  1  0  0  0
 16 59  1  0  0  0
 16 60  1  0  0  0
 19 61  1  0  0  0
 21 62  1  0  0  0
 21 63  1  0  0  0
 21 64  1  0  0  0
 22 65  1  0  0  0
 23 66  1  0  0  0
 23 67  1  0  0  0
 23 68  1  0  0  0
 25 69  1  0  0  0
 26 70  1  0  0  0
 27 71  1  0  0  0
 27 72  1  0  0  0
 29 73  1  0  0  0
 30 74  1  0  0  0
 32 75  1  0  0  0
 33 76  1  0  0  0
 34 77  1  0  0  0
 34 78  1  0  0  0
 36 79  1  0  0  0
 37 80  1  0  0  0
 38 81  1  0  0  0
 39 82  1  0  0  0
 40 83  1  0  0  0
M  END
$$$$
