4nh7_ligand
  -I-interpret- 

 60 63  0  0  0  0  0  0  0  0999 V2000
   17.0510    7.7530   14.3260 C   0  0  0  0  0
   18.0480   10.0130   15.0560 C   0  0  0  0  0
   18.7670   11.1650   14.6590 C   0  0  0  0  0
   20.3350   12.1020   13.0440 N   0  0  0  0  0
   18.6360   12.0180   16.9200 C   0  0  0  0  0
   18.5220   10.9760   12.3110 O   0  0  0  0  0
   17.7590    9.0130   14.1260 N   0  0  0  0  0
   17.3120   10.8520   18.6000 N   0  0  0  0  0
   17.8980   10.9080   17.3040 C   0  0  0  0  0
   17.6210    9.8950   16.3850 C   0  0  0  0  0
   17.4000    9.6860   19.3620 N   0  0  0  0  0
   16.8200    5.3870   13.4900 C   0  0  0  0  0
   15.3190    5.5560   13.3390 C   0  0  0  0  0
   14.7710    6.6000   14.3030 C   0  0  0  0  0
   15.5390    7.9410   14.2180 C   0  0  0  0  0
   16.7020    9.9570   20.4520 C   0  0  0  0  0
   16.1740   11.2740   20.4310 C   0  0  0  0  0
   16.5750   11.8090   19.2240 C   0  0  0  0  0
   15.0300   13.4800   20.9470 C   0  0  0  0  0
   13.6630   13.0200   18.8860 C   0  0  0  0  0
   19.0590   12.1460   15.6130 C   0  0  0  0  0
   17.1040    7.7430   21.1240 F   0  0  0  0  0
   14.8660   11.5470   22.3620 O   0  0  0  0  0
   17.1100    9.2150   22.6110 F   0  0  0  0  0
   15.3050    8.6840   21.7970 F   0  0  0  0  0
   14.7020    4.2810   13.5950 O   0  0  0  0  0
   19.2110   11.4010   13.2450 C   0  0  0  0  0
   17.5420    6.7180   13.3250 C   0  0  0  0  0
   16.1690   13.1730   18.7520 C   0  0  0  0  0
   14.9090   13.7230   19.4330 C   0  0  0  0  0
   15.3330   12.0460   21.3380 C   0  0  0  0  0
   14.7920   15.2130   19.1430 C   0  0  0  0  0
   16.5520    8.8940   21.4930 C   0  0  0  0  0
   17.2628    7.3964   15.3340 H   0  0  0  0  0
   20.6486   12.3016   12.0941 H   0  0  0  0  0
   20.8771   12.4361   13.8408 H   0  0  0  0  0
   18.8816   12.7888   17.6505 H   0  0  0  0  0
   18.0879    9.1870   13.1763 H   0  0  0  0  0
   17.0707    9.0092   16.7022 H   0  0  0  0  0
   17.1727    4.7014   12.7195 H   0  0  0  0  0
   17.0284    4.9988   14.4870 H   0  0  0  0  0
   15.0968    5.9016   12.3294 H   0  0  0  0  0
   14.8784    6.2131   15.3164 H   0  0  0  0  0
   13.7305    6.7896   14.0394 H   0  0  0  0  0
   15.3233    8.3927   13.2497 H   0  0  0  0  0
   15.2166    8.5679   15.0493 H   0  0  0  0  0
   14.0645   13.7308   21.3862 H   0  0  0  0  0
   15.8635   14.0874   21.2997 H   0  0  0  0  0
   13.7405   11.9488   19.0723 H   0  0  0  0  0
   12.7771   13.4136   19.3844 H   0  0  0  0  0
   13.5878   13.1991   17.8134 H   0  0  0  0  0
   19.6304   13.0263   15.3186 H   0  0  0  0  0
   13.7498    4.3637   13.5050 H   0  0  0  0  0
   18.6063    6.5545   13.4945 H   0  0  0  0  0
   17.3462    7.0924   12.3202 H   0  0  0  0  0
   15.9511   13.0938   17.6869 H   0  0  0  0  0
   16.9869   13.8530   18.9901 H   0  0  0  0  0
   13.9063   15.6099   19.6390 H   0  0  0  0  0
   15.6790   15.7252   19.5158 H   0  0  0  0  0
   14.7072   15.3669   18.0673 H   0  0  0  0  0
  7  1  1  0  0  0
  1 15  1  0  0  0
  1 28  1  0  0  0
  2  3  4  0  0  0
  2  7  1  0  0  0
 10  2  4  0  0  0
 21  3  4  0  0  0
  3 27  1  0  0  0
 27  4  1  0  0  0
  9  5  4  0  0  0
  5 21  4  0  0  0
 27  6  2  0  0  0
  8  9  1  0  0  0
  8 11  4  0  0  0
 18  8  4  0  0  0
  9 10  4  0  0  0
 16 11  4  0  0  0
 12 13  1  0  0  0
 28 12  1  0  0  0
 14 13  1  0  0  0
 13 26  1  0  0  0
 15 14  1  0  0  0
 17 16  4  0  0  0
 16 33  1  0  0  0
 17 18  4  0  0  0
 31 17  1  0  0  0
 18 29  1  0  0  0
 19 30  1  0  0  0
 19 31  1  0  0  0
 30 20  1  0  0  0
 33 22  1  0  0  0
 31 23  2  0  0  0
 33 24  1  0  0  0
 33 25  1  0  0  0
 29 30  1  0  0  0
 30 32  1  0  0  0
  1 34  1  0  0  0
  4 35  1  0  0  0
  4 36  1  0  0  0
  5 37  1  0  0  0
  7 38  1  0  0  0
 10 39  1  0  0  0
 12 40  1  0  0  0
 12 41  1  0  0  0
 13 42  1  0  0  0
 14 43  1  0  0  0
 14 44  1  0  0  0
 15 45  1  0  0  0
 15 46  1  0  0  0
 19 47  1  0  0  0
 19 48  1  0  0  0
 20 49  1  0  0  0
 20 50  1  0  0  0
 20 51  1  0  0  0
 21 52  1  0  0  0
 26 53  1  0  0  0
 28 54  1  0  0  0
 28 55  1  0  0  0
 29 56  1  0  0  0
 29 57  1  0  0  0
 32 58  1  0  0  0
 32 59  1  0  0  0
 32 60  1  0  0  0
M  END
$$$$
