2nnk_ligand
  -I-interpret- 

100104  0  0  0  0  0  0  0  0999 V2000
   20.7520   27.7130   18.5390 O   0  0  0  0  0
   21.2350   26.5690   18.5810 C   0  0  0  0  0
   23.0660   25.0510   19.1090 N   0  0  0  0  0
   22.3650   26.1700   19.4590 C   0  0  0  0  0
   22.7380   26.8830   20.5950 C   0  0  0  0  0
   23.7990   26.4250   21.3900 C   0  0  0  0  0
   24.5230   25.3050   20.9890 C   0  0  0  0  0
   25.5870   24.8350   21.7410 C   0  0  0  0  0
   26.3160   23.7440   21.3650 C   0  0  0  0  0
   25.9150   23.0790   20.2240 C   0  0  0  0  0
   24.8420   23.5020   19.4800 C   0  0  0  0  0
   24.1230   24.6100   19.8580 C   0  0  0  0  0
   20.7680   25.6410   17.7360 N   0  0  0  0  0
   19.6000   25.8650   16.8840 C   0  0  0  0  0
   18.6340   24.6930   17.0990 C   0  0  0  0  0
   18.8200   23.6130   16.5490 O   0  0  0  0  0
   20.0530   25.9160   15.4530 C   0  0  0  0  0
   20.9810   27.0640   15.2760 C   0  0  0  0  0
   22.1990   26.9220   15.1310 O   0  0  0  0  0
   20.4550   28.2320   15.2580 N   0  0  0  0  0
   15.2740   24.5680   17.8620 C   0  0  0  0  0
   14.9060   25.6440   18.7270 O   0  0  0  0  0
   16.6230   23.9700   18.2590 C   0  0  0  0  0
   17.6060   24.9810   17.9200 N   0  0  0  0  0
   16.6840   23.6100   19.7430 C   0  0  0  0  0
   18.1080   23.4300   20.2500 C   0  0  0  0  0
   18.8030   22.2210   20.2010 C   0  0  0  0  0
   18.7530   24.4880   20.8280 C   0  0  0  0  0
   20.1080   22.1350   20.6080 C   0  0  0  0  0
   20.0490   24.3880   21.2570 C   0  0  0  0  0
   20.7130   23.2070   21.2230 C   0  0  0  0  0
   14.2430   22.7720   16.5400 N   0  3  0  0  0
   14.1900   23.5300   17.7680 C   0  0  0  0  0
   13.6250   21.4220   16.6740 C   0  0  0  0  0
   14.3350   20.5970   17.7830 C   0  0  0  0  0
   15.5800   20.5990   17.8190 O   0  0  0  0  0
   13.8440   20.6440   15.3820 C   0  0  0  0  0
   13.2420   21.3920   14.1810 C   0  0  0  0  0
   13.5470   20.7180   12.8440 C   0  0  0  0  0
   14.9950   20.8020   12.4310 C   0  0  0  0  0
   15.4650   22.2280   12.3140 C   0  0  0  0  0
   15.2600   22.8590   13.6820 C   0  0  0  0  0
   13.8290   22.8080   14.1250 C   0  0  0  0  0
   13.6130   23.5110   15.4540 C   0  0  0  0  0
   13.5260   19.9540   18.6370 N   0  0  0  0  0
   13.9170   19.0820   19.7280 C   0  0  0  0  0
   12.6610   18.4930   20.3080 C   0  0  0  0  0
   14.6470   19.8590   20.7790 C   0  0  0  0  0
   14.7350   17.9450   19.1770 C   0  0  0  0  0
   22.2067   27.7953   20.8661 H   0  0  0  0  0
   24.0549   26.9419   22.3149 H   0  0  0  0  0
   25.8507   25.3532   22.6630 H   0  0  0  0  0
   27.1791   23.4117   21.9419 H   0  0  0  0  0
   26.4654   22.1939   19.9051 H   0  0  0  0  0
   24.5579   22.9542   18.5815 H   0  0  0  0  0
   21.2461   24.7414   17.6843 H   0  0  0  0  0
   19.1008   26.8026   17.1285 H   0  0  0  0  0
   19.1893   26.0391   14.7996 H   0  0  0  0  0
   20.5651   24.9883   15.1976 H   0  0  0  0  0
   21.0433   29.0542   15.1231 H   0  0  0  0  0
   19.4479   28.3397   15.3786 H   0  0  0  0  0
   15.3934   24.9784   16.8593 H   0  0  0  0  0
   14.0567   25.9975   18.4526 H   0  0  0  0  0
   16.8045   23.0322   17.7340 H   0  0  0  0  0
   17.5178   25.9204   18.3076 H   0  0  0  0  0
   16.1601   22.6638   19.8781 H   0  0  0  0  0
   16.2318   24.4284   20.3033 H   0  0  0  0  0
   18.2979   21.3284   19.8319 H   0  0  0  0  0
   18.2231   25.4327   20.9500 H   0  0  0  0  0
   20.6688   21.2148   20.4443 H   0  0  0  0  0
   20.5571   25.2758   21.6334 H   0  0  0  0  0
   21.7015   23.1088   21.6716 H   0  0  0  0  0
   15.2295   22.6307   16.3225 H   0  0  0  0  0
   13.2307   24.0466   17.7993 H   0  0  0  0  0
   14.3236   22.8332   18.5955 H   0  0  0  0  0
   12.5696   21.5632   16.9069 H   0  0  0  0  0
   13.3557   19.6735   15.4706 H   0  0  0  0  0
   14.9157   20.5278   15.2207 H   0  0  0  0  0
   12.1617   21.3969   14.3257 H   0  0  0  0  0
   12.9629   21.2332   12.0815 H   0  0  0  0  0
   13.3021   19.6613   12.9513 H   0  0  0  0  0
   15.0999   20.3269   11.4556 H   0  0  0  0  0
   15.5965   20.3057   13.1926 H   0  0  0  0  0
   14.9049   22.7636   11.5475 H   0  0  0  0  0
   16.5123   22.2721   12.0151 H   0  0  0  0  0
   15.5567   23.9059   13.6188 H   0  0  0  0  0
   15.8569   22.3015   14.4038 H   0  0  0  0  0
   13.2865   23.3460   13.3476 H   0  0  0  0  0
   14.0574   24.5049   15.4016 H   0  0  0  0  0
   12.5422   23.5745   15.6475 H   0  0  0  0  0
   12.5243   20.0935   18.5048 H   0  0  0  0  0
   12.0194   19.2954   20.6721 H   0  0  0  0  0
   12.1366   17.9281   19.5373 H   0  0  0  0  0
   12.9197   17.8300   21.1336 H   0  0  0  0  0
   15.5402   20.3068   20.3433 H   0  0  0  0  0
   13.9971   20.6440   21.1658 H   0  0  0  0  0
   14.9333   19.1899   21.5905 H   0  0  0  0  0
   14.1390   17.3869   18.4549 H   0  0  0  0  0
   15.6236   18.3426   18.6867 H   0  0  0  0  0
   15.0327   17.2850   19.9918 H   0  0  0  0  0
  2  1  2  0  0  0
  2  4  1  0  0  0
 13  2  1  0  0  0
  4  3  4  0  0  0
  3 12  4  0  0  0
  4  5  4  0  0  0
  5  6  4  0  0  0
  6  7  4  0  0  0
  7  8  4  0  0  0
 12  7  4  0  0  0
  8  9  4  0  0  0
 10  9  4  0  0  0
 11 10  4  0  0  0
 12 11  4  0  0  0
 14 13  1  0  0  0
 15 14  1  0  0  0
 14 17  1  0  0  0
 15 16  2  0  0  0
 24 15  1  0  0  0
 17 18  1  0  0  0
 18 19  2  0  0  0
 18 20  1  0  0  0
 21 22  1  0  0  0
 23 21  1  0  0  0
 21 33  1  0  0  0
 23 24  1  0  0  0
 23 25  1  0  0  0
 25 26  1  0  0  0
 26 27  4  0  0  0
 26 28  4  0  0  0
 27 29  4  0  0  0
 28 30  4  0  0  0
 29 31  4  0  0  0
 30 31  4  0  0  0
 33 32  1  0  0  0
 32 34  1  0  0  0
 32 44  1  0  0  0
 34 35  1  0  0  0
 34 37  1  0  0  0
 35 36  2  0  0  0
 35 45  1  0  0  0
 37 38  1  0  0  0
 38 39  1  0  0  0
 38 43  1  0  0  0
 39 40  1  0  0  0
 40 41  1  0  0  0
 41 42  1  0  0  0
 42 43  1  0  0  0
 43 44  1  0  0  0
 45 46  1  0  0  0
 46 47  1  0  0  0
 46 48  1  0  0  0
 46 49  1  0  0  0
  5 50  1  0  0  0
  6 51  1  0  0  0
  8 52  1  0  0  0
  9 53  1  0  0  0
 10 54  1  0  0  0
 11 55  1  0  0  0
 13 56  1  0  0  0
 14 57  1  0  0  0
 17 58  1  0  0  0
 17 59  1  0  0  0
 20 60  1  0  0  0
 20 61  1  0  0  0
 21 62  1  0  0  0
 22 63  1  0  0  0
 23 64  1  0  0  0
 24 65  1  0  0  0
 25 66  1  0  0  0
 25 67  1  0  0  0
 27 68  1  0  0  0
 28 69  1  0  0  0
 29 70  1  0  0  0
 30 71  1  0  0  0
 31 72  1  0  0  0
 32 73  1  0  0  0
 33 74  1  0  0  0
 33 75  1  0  0  0
 34 76  1  0  0  0
 37 77  1  0  0  0
 37 78  1  0  0  0
 38 79  1  0  0  0
 39 80  1  0  0  0
 39 81  1  0  0  0
 40 82  1  0  0  0
 40 83  1  0  0  0
 41 84  1  0  0  0
 41 85  1  0  0  0
 42 86  1  0  0  0
 42 87  1  0  0  0
 43 88  1  0  0  0
 44 89  1  0  0  0
 44 90  1  0  0  0
 45 91  1  0  0  0
 47 92  1  0  0  0
 47 93  1  0  0  0
 47 94  1  0  0  0
 48 95  1  0  0  0
 48 96  1  0  0  0
 48 97  1  0  0  0
 49 98  1  0  0  0
 49 99  1  0  0  0
 49100  1  0  0  0
M  END
$$$$
