4x34_ligand
  -I-interpret- 

200201  0  0  0  0  0  0  0  0999 V2000
    5.8450    8.7320   43.5070 N   0  3  0  0  0
    6.7940    8.0250   42.6460 C   0  0  0  0  0
    6.1990    7.7120   41.2720 C   0  0  0  0  0
    5.2550    6.9250   41.1490 O   0  0  0  0  0
    7.3170    6.7270   43.3120 C   0  0  0  0  0
    7.4840    5.7050   42.3190 O   0  0  0  0  0
    6.3470    6.2380   44.3740 C   0  0  0  0  0
    6.7550    8.3370   40.2400 N   0  0  0  0  0
    6.1980    8.2040   38.8990 C   0  0  0  0  0
    6.9410    7.1860   38.0320 C   0  0  0  0  0
    8.1490    6.9780   38.1700 O   0  0  0  0  0
    6.1800    9.5570   38.2050 C   0  0  0  0  0
    7.4960   10.0250   38.0060 O   0  0  0  0  0
    6.2010    6.5520   37.1320 N   0  0  0  0  0
    6.7630    5.5720   36.2200 C   0  0  0  0  0
    6.3260    5.8870   34.7850 C   0  0  0  0  0
    5.2690    6.4840   34.5590 O   0  0  0  0  0
    6.2930    4.1680   36.6050 C   0  0  0  0  0
    6.7380    3.6930   37.9900 C   0  0  0  0  0
    6.2270    2.2830   38.2680 C   0  0  0  0  0
    4.9360    2.2790   38.9570 N   0  0  0  0  0
    4.0730    1.2660   38.9240 C   0  0  0  0  0
    4.3530    0.1770   38.2190 N   0  0  0  0  0
    2.9220    1.3460   39.5810 N   0  0  0  0  0
    7.1290    5.4810   33.8120 N   0  0  0  0  0
    6.7650    5.7370   32.4230 C   0  0  0  0  0
    5.5600    4.9100   32.0230 C   0  0  0  0  0
    5.4590    3.7370   32.3770 O   0  0  0  0  0
    7.9230    5.4340   31.4740 C   0  0  0  0  0
    7.7900    6.1290   30.1620 C   0  0  0  0  0
    6.9400    5.6850   29.1710 N   0  0  0  0  0
    8.3570    7.2650   29.6930 C   0  0  0  0  0
    6.9910    6.5180   28.1470 C   0  0  0  0  0
    7.8500    7.4820   28.4340 N   0  0  0  0  0
    2.8150    6.2370   24.1580 O   0  0  0  0  0
    2.1340    5.3760   24.7220 C   0  0  0  0  0
    1.9530    4.0160   24.0830 C   0  0  0  0  0
    1.5020    5.6300   25.9870 N   0  0  0  0  0
    1.6550    6.9210   26.6210 C   0  0  0  0  0
    1.6280    6.9570   28.1240 C   0  0  0  0  0
    2.7320    6.1840   28.8350 C   0  0  0  0  0
    2.4410    5.7510   30.2450 C   0  0  0  0  0
    3.4390    4.8510   30.9180 C   0  0  0  0  0
    4.6480    5.5180   31.2680 N   0  0  0  0  0
    3.6890    3.6090   30.1050 C   0  0  0  0  0
    2.8520    2.6780   30.1460 O   0  0  0  0  0
    4.8150    3.5000   29.4030 N   0  0  0  0  0
    5.0270    2.2900   28.6210 C   0  0  0  0  0
    6.1420    2.4070   27.5750 C   0  0  0  0  0
    6.1740    3.7110   26.7650 C   0  0  0  0  0
    5.6610    3.8610   25.3630 C   0  0  0  0  0
    6.5940    3.5780   24.1970 C   0  0  0  0  0
    7.3150    4.6200   23.4590 N   0  3  0  0  0
    6.6610    4.9250   22.1900 C   0  0  0  0  0
    8.5730    4.0010   23.1610 C   0  0  0  0  0
    5.2230    1.1100   29.5180 C   0  0  0  0  0
    5.0810   -0.0270   29.0800 O   0  0  0  0  0
    5.5200    1.3470   30.7890 N   0  0  0  0  0
    5.5730    0.2280   31.7410 C   0  0  0  0  0
    4.2060   -0.4030   31.9840 C   0  0  0  0  0
    4.1300   -1.5380   32.4670 O   0  0  0  0  0
    6.2050    0.6450   33.0700 C   0  0  0  0  0
    7.7120    0.9050   33.0080 C   0  0  0  0  0
    8.2380    1.3970   34.3450 C   0  0  0  0  0
    8.4400   -0.3600   32.5700 C   0  0  0  0  0
    3.1370    0.3150   31.6340 N   0  0  0  0  0
    1.7730   -0.2020   31.7890 C   0  0  0  0  0
    1.4850   -1.3960   30.8730 C   0  0  0  0  0
    0.5330   -2.1450   31.1040 O   0  0  0  0  0
    0.7310    0.9100   31.5450 C   0  0  0  0  0
    0.7770    2.0680   32.5460 C   0  0  0  0  0
   -0.0910    3.5740   31.9950 S   0  0  0  0  0
   -1.7750    3.0010   31.9050 C   0  0  0  0  0
    2.3110   -1.5860   29.8450 N   0  0  0  0  0
    2.1140   -2.6790   28.8830 C   0  0  0  0  0
    2.9630   -3.9150   29.1840 C   0  0  0  0  0
    2.9390   -4.8920   28.4320 O   0  0  0  0  0
    2.3860   -2.2010   27.4520 C   0  0  0  0  0
    1.5090   -1.0710   27.0170 C   0  0  0  0  0
    0.3300   -1.3190   26.3280 C   0  0  0  0  0
    1.8700    0.2470   27.2780 C   0  0  0  0  0
   -0.4800   -0.2700   25.9220 C   0  0  0  0  0
    1.0570    1.3010   26.8860 C   0  0  0  0  0
   -0.1160    1.0420   26.2050 C   0  0  0  0  0
    3.7140   -3.8620   30.2760 N   0  0  0  0  0
    4.5480   -4.9850   30.6830 C   0  0  0  0  0
    3.9090   -5.7430   31.8400 C   0  0  0  0  0
    2.9610   -6.5070   31.6340 O   0  0  0  0  0
    5.9550   -4.5060   31.0470 C   0  0  0  0  0
    6.7950   -4.1300   29.8310 C   0  0  0  0  0
    8.1700   -3.6100   30.2330 C   0  0  0  0  0
    8.9430   -4.6250   31.0590 C   0  0  0  0  0
    9.8690   -3.9590   32.0230 N   0  3  0  0  0
    4.3360   -5.5970   32.9890 O   0  0  0  0  0
    5.5247    9.5778   43.0353 H   0  0  0  0  0
    5.0474    8.1265   43.7009 H   0  0  0  0  0
    6.3039    8.9827   44.3828 H   0  0  0  0  0
    7.6382    8.6992   42.5015 H   0  0  0  0  0
    8.2751    6.9462   43.7832 H   0  0  0  0  0
    8.0966    6.0111   41.6463 H   0  0  0  0  0
    5.3853    6.0160   43.9114 H   0  0  0  0  0
    6.7444    5.3362   44.8396 H   0  0  0  0  0
    6.2177    7.0122   45.1303 H   0  0  0  0  0
    7.5812    8.9167   40.3874 H   0  0  0  0  0
    5.1818    7.8294   39.0219 H   0  0  0  0  0
    5.6405   10.2692   38.8293 H   0  0  0  0  0
    5.6899    9.4530   37.2370 H   0  0  0  0  0
    7.4680   10.8786   37.5676 H   0  0  0  0  0
    5.2038    6.7599   37.0789 H   0  0  0  0  0
    7.8504    5.6134   36.2826 H   0  0  0  0  0
    6.7308    3.4805   35.8813 H   0  0  0  0  0
    5.2034    4.1935   36.6166 H   0  0  0  0  0
    6.3308    4.3693   38.7415 H   0  0  0  0  0
    7.8274    3.6859   38.0263 H   0  0  0  0  0
    6.9521    1.7837   38.9106 H   0  0  0  0  0
    6.0983    1.7777   37.3108 H   0  0  0  0  0
    4.6810    3.1057   39.4973 H   0  0  0  0  0
    5.2301    0.1158   37.7019 H   0  0  0  0  0
    2.2579    0.5728   39.5424 H   0  0  0  0  0
    2.7018    2.1807   40.1243 H   0  0  0  0  0
    7.9966    4.9923   34.0332 H   0  0  0  0  0
    6.5203    6.7964   32.3457 H   0  0  0  0  0
    7.9279    4.3606   31.2847 H   0  0  0  0  0
    8.8417    5.7830   31.9455 H   0  0  0  0  0
    9.0803    7.8907   30.2159 H   0  0  0  0  0
    6.4216    6.4264   27.2221 H   0  0  0  0  0
    1.4768    4.1338   23.1096 H   0  0  0  0  0
    2.9267    3.5424   23.9576 H   0  0  0  0  0
    1.3256    3.3958   24.7232 H   0  0  0  0  0
    0.9470    4.9019   26.4367 H   0  0  0  0  0
    0.7997    7.5133   26.2957 H   0  0  0  0  0
    2.6451    7.2755   26.3346 H   0  0  0  0  0
    0.6890    6.4912   28.4229 H   0  0  0  0  0
    1.7577    8.0019   28.4060 H   0  0  0  0  0
    3.5851    6.8598   28.8952 H   0  0  0  0  0
    2.8796    5.2691   28.2611 H   0  0  0  0  0
    1.5182    5.1736   30.1888 H   0  0  0  0  0
    2.4290    6.6672   30.8354 H   0  0  0  0  0
    2.9922    4.5428   31.8632 H   0  0  0  0  0
    4.8160    6.4683   30.9377 H   0  0  0  0  0
    5.5115    4.2451   29.4127 H   0  0  0  0  0
    4.1170    2.1393   28.0403 H   0  0  0  0  0
    5.9718    1.6053   26.8564 H   0  0  0  0  0
    7.0821    2.3661   28.1251 H   0  0  0  0  0
    7.2432    3.8843   26.6427 H   0  0  0  0  0
    5.5002    4.3545   27.3308 H   0  0  0  0  0
    5.4102    4.9176   25.2694 H   0  0  0  0  0
    4.8700    3.1163   25.2743 H   0  0  0  0  0
    5.9220    3.1682   23.4430 H   0  0  0  0  0
    7.3992    3.0103   24.6634 H   0  0  0  0  0
    7.3726    5.4875   23.9923 H   0  0  0  0  0
    6.6271    4.0258   21.5749 H   0  0  0  0  0
    5.6464    5.2749   22.3805 H   0  0  0  0  0
    7.2229    5.7012   21.6705 H   0  0  0  0  0
    9.0713    3.7276   24.0911 H   0  0  0  0  0
    8.4034    3.1065   22.5616 H   0  0  0  0  0
    9.1975    4.6998   22.6045 H   0  0  0  0  0
    5.7102    2.2985   31.1034 H   0  0  0  0  0
    6.2062   -0.5281   31.2768 H   0  0  0  0  0
    6.0538   -0.1802   33.7659 H   0  0  0  0  0
    5.7333    1.5822   33.3653 H   0  0  0  0  0
    7.8981    1.6887   32.2737 H   0  0  0  0  0
    7.7343    2.3258   34.6126 H   0  0  0  0  0
    8.0449    0.6442   35.1093 H   0  0  0  0  0
    9.3111    1.5728   34.2694 H   0  0  0  0  0
    8.2417   -1.1580   33.2855 H   0  0  0  0  0
    8.0855   -0.6585   31.5834 H   0  0  0  0  0
    9.5117   -0.1652   32.5288 H   0  0  0  0  0
    3.2721    1.2494   31.2479 H   0  0  0  0  0
    1.6933   -0.5527   32.8179 H   0  0  0  0  0
   -0.2516    0.4483   31.6418 H   0  0  0  0  0
    0.9449    1.3329   30.5634 H   0  0  0  0  0
    1.8256    2.3338   32.6800 H   0  0  0  0  0
    0.2800    1.7262   33.4539 H   0  0  0  0  0
   -1.8404    2.1798   31.1912 H   0  0  0  0  0
   -2.0929    2.6553   32.8886 H   0  0  0  0  0
   -2.4187    3.8185   31.5802 H   0  0  0  0  0
    3.1027   -0.9547   29.7223 H   0  0  0  0  0
    1.0702   -2.9771   28.9816 H   0  0  0  0  0
    2.1890   -3.0408   26.7856 H   0  0  0  0  0
    3.4157   -1.8452   27.4181 H   0  0  0  0  0
    0.0391   -2.3455   26.1047 H   0  0  0  0  0
    2.8052    0.4547   27.7980 H   0  0  0  0  0
   -1.4036   -0.4737   25.3801 H   0  0  0  0  0
    1.3428    2.3278   27.1144 H   0  0  0  0  0
   -0.7564    1.8656   25.8894 H   0  0  0  0  0
    3.7074   -3.0150   30.8442 H   0  0  0  0  0
    4.6329   -5.6725   29.8414 H   0  0  0  0  0
    2.7509   -6.5092   30.6973 H   0  0  0  0  0
    6.4611   -5.3254   31.5575 H   0  0  0  0  0
    5.8507   -3.6142   31.6650 H   0  0  0  0  0
    6.2759   -3.3414   29.2862 H   0  0  0  0  0
    6.9310   -5.0218   29.2191 H   0  0  0  0  0
    8.0322   -2.7130   30.8368 H   0  0  0  0  0
    8.7369   -3.4071   29.3244 H   0  0  0  0  0
    9.5353   -5.2404   30.3819 H   0  0  0  0  0
    8.2292   -5.2236   31.6249 H   0  0  0  0  0
   10.3690   -4.6690   32.5581 H   0  0  0  0  0
   10.5376   -3.3852   31.5092 H   0  0  0  0  0
    9.3306   -3.3696   32.6579 H   0  0  0  0  0
  2  1  1  0  0  0
  3  2  1  0  0  0
  2  5  1  0  0  0
  3  4  2  0  0  0
  8  3  1  0  0  0
  5  6  1  0  0  0
  5  7  1  0  0  0
  9  8  1  0  0  0
 10  9  1  0  0  0
  9 12  1  0  0  0
 10 11  2  0  0  0
 14 10  1  0  0  0
 12 13  1  0  0  0
 15 14  1  0  0  0
 16 15  1  0  0  0
 15 18  1  0  0  0
 16 17  2  0  0  0
 25 16  1  0  0  0
 18 19  1  0  0  0
 19 20  1  0  0  0
 20 21  1  0  0  0
 21 22  1  0  0  0
 22 23  2  0  0  0
 22 24  1  0  0  0
 26 25  1  0  0  0
 27 26  1  0  0  0
 26 29  1  0  0  0
 27 28  2  0  0  0
 44 27  1  0  0  0
 29 30  1  0  0  0
 30 31  4  0  0  0
 30 32  4  0  0  0
 31 33  4  0  0  0
 32 34  4  0  0  0
 34 33  4  0  0  0
 36 35  2  0  0  0
 36 37  1  0  0  0
 38 36  1  0  0  0
 39 38  1  0  0  0
 40 39  1  0  0  0
 41 40  1  0  0  0
 42 41  1  0  0  0
 43 42  1  0  0  0
 43 44  1  0  0  0
 43 45  1  0  0  0
 45 46  2  0  0  0
 45 47  1  0  0  0
 47 48  1  0  0  0
 48 49  1  0  0  0
 48 56  1  0  0  0
 49 50  1  0  0  0
 50 51  1  0  0  0
 51 52  1  0  0  0
 52 53  1  0  0  0
 53 54  1  0  0  0
 53 55  1  0  0  0
 56 57  2  0  0  0
 56 58  1  0  0  0
 58 59  1  0  0  0
 59 60  1  0  0  0
 59 62  1  0  0  0
 60 61  2  0  0  0
 60 66  1  0  0  0
 62 63  1  0  0  0
 63 64  1  0  0  0
 63 65  1  0  0  0
 66 67  1  0  0  0
 67 68  1  0  0  0
 67 70  1  0  0  0
 68 69  2  0  0  0
 68 74  1  0  0  0
 70 71  1  0  0  0
 71 72  1  0  0  0
 72 73  1  0  0  0
 74 75  1  0  0  0
 75 76  1  0  0  0
 75 78  1  0  0  0
 76 77  2  0  0  0
 76 85  1  0  0  0
 78 79  1  0  0  0
 79 80  4  0  0  0
 79 81  4  0  0  0
 80 82  4  0  0  0
 81 83  4  0  0  0
 82 84  4  0  0  0
 83 84  4  0  0  0
 85 86  1  0  0  0
 86 87  1  0  0  0
 86 89  1  0  0  0
 87 88  1  0  0  0
 87 94  2  0  0  0
 89 90  1  0  0  0
 90 91  1  0  0  0
 91 92  1  0  0  0
 92 93  1  0  0  0
  1 95  1  0  0  0
  1 96  1  0  0  0
  1 97  1  0  0  0
  2 98  1  0  0  0
  5 99  1  0  0  0
  6100  1  0  0  0
  7101  1  0  0  0
  7102  1  0  0  0
  7103  1  0  0  0
  8104  1  0  0  0
  9105  1  0  0  0
 12106  1  0  0  0
 12107  1  0  0  0
 13108  1  0  0  0
 14109  1  0  0  0
 15110  1  0  0  0
 18111  1  0  0  0
 18112  1  0  0  0
 19113  1  0  0  0
 19114  1  0  0  0
 20115  1  0  0  0
 20116  1  0  0  0
 21117  1  0  0  0
 23118  1  0  0  0
 24119  1  0  0  0
 24120  1  0  0  0
 25121  1  0  0  0
 26122  1  0  0  0
 29123  1  0  0  0
 29124  1  0  0  0
 32125  1  0  0  0
 33126  1  0  0  0
 37127  1  0  0  0
 37128  1  0  0  0
 37129  1  0  0  0
 38130  1  0  0  0
 39131  1  0  0  0
 39132  1  0  0  0
 40133  1  0  0  0
 40134  1  0  0  0
 41135  1  0  0  0
 41136  1  0  0  0
 42137  1  0  0  0
 42138  1  0  0  0
 43139  1  0  0  0
 44140  1  0  0  0
 47141  1  0  0  0
 48142  1  0  0  0
 49143  1  0  0  0
 49144  1  0  0  0
 50145  1  0  0  0
 50146  1  0  0  0
 51147  1  0  0  0
 51148  1  0  0  0
 52149  1  0  0  0
 52150  1  0  0  0
 53151  1  0  0  0
 54152  1  0  0  0
 54153  1  0  0  0
 54154  1  0  0  0
 55155  1  0  0  0
 55156  1  0  0  0
 55157  1  0  0  0
 58158  1  0  0  0
 59159  1  0  0  0
 62160  1  0  0  0
 62161  1  0  0  0
 63162  1  0  0  0
 64163  1  0  0  0
 64164  1  0  0  0
 64165  1  0  0  0
 65166  1  0  0  0
 65167  1  0  0  0
 65168  1  0  0  0
 66169  1  0  0  0
 67170  1  0  0  0
 70171  1  0  0  0
 70172  1  0  0  0
 71173  1  0  0  0
 71174  1  0  0  0
 73175  1  0  0  0
 73176  1  0  0  0
 73177  1  0  0  0
 74178  1  0  0  0
 75179  1  0  0  0
 78180  1  0  0  0
 78181  1  0  0  0
 80182  1  0  0  0
 81183  1  0  0  0
 82184  1  0  0  0
 83185  1  0  0  0
 84186  1  0  0  0
 85187  1  0  0  0
 86188  1  0  0  0
 88189  1  0  0  0
 89190  1  0  0  0
 89191  1  0  0  0
 90192  1  0  0  0
 90193  1  0  0  0
 91194  1  0  0  0
 91195  1  0  0  0
 92196  1  0  0  0
 92197  1  0  0  0
 93198  1  0  0  0
 93199  1  0  0  0
 93200  1  0  0  0
M  END
$$$$
