### 
### Created by X-TOOL on Mon Sep 10 21:13:23 2018
### 

@<TRIPOS>MOLECULE
4x34_ligand
  201   202     1     0     0
SMALL
GAST_HUCK


@<TRIPOS>ATOM
      1 N           5.8450    8.7320   43.5070 N.4       1 THR         0.2398
      2 CA          6.7940    8.0250   42.6460 C.3       1 THR         0.0910
      3 C           6.1990    7.7120   41.2720 C.2       1 THR         0.2293
      4 O           5.2550    6.9250   41.1490 O.2       1 THR        -0.3906
      5 CB          7.3170    6.7270   43.3120 C.3       1 THR         0.1120
      6 OG1         7.4840    5.7050   42.3190 O.3       1 THR        -0.3840
      7 CG2         6.3470    6.2380   44.3740 C.3       1 THR        -0.0314
      8 N           6.7550    8.3370   40.2400 N.am      1 SER        -0.2588
      9 CA          6.1980    8.2040   38.8990 C.3       1 SER         0.1540
     10 C           6.9410    7.1860   38.0320 C.2       1 SER         0.2062
     11 O           8.1490    6.9780   38.1700 O.2       1 SER        -0.3943
     12 CB          6.1800    9.5570   38.2050 C.3       1 SER         0.0843
     13 OG          7.4960   10.0250   38.0060 O.3       1 SER        -0.3903
     14 N           6.2010    6.5520   37.1320 N.am      1 ARG        -0.2637
     15 CA          6.7630    5.5720   36.2200 C.3       1 ARG         0.1311
     16 C           6.3260    5.8870   34.7850 C.2       1 ARG         0.2040
     17 O           5.2690    6.4840   34.5590 O.2       1 ARG        -0.3944
     18 CB          6.2930    4.1680   36.6050 C.3       1 ARG        -0.0092
     19 CG          6.7380    3.6930   37.9900 C.3       1 ARG        -0.0156
     20 CD          6.2270    2.2830   38.2680 C.3       1 ARG         0.0627
     21 NE          4.9360    2.2790   38.9570 N.pl3     1 ARG        -0.2723
     22 CZ          4.0730    1.2660   38.9240 C.cat     1 ARG         0.2882
     23 NH1         4.3530    0.1770   38.2190 N.pl3     1 ARG        -0.2849
     24 NH2         2.9220    1.3460   39.5810 N.pl3     1 ARG        -0.2849
     25 N           7.1290    5.4810   33.8120 N.am      1 HIS        -0.2625
     26 CA          6.7650    5.7370   32.4230 C.3       1 HIS         0.1369
     27 C           5.5600    4.9100   32.0230 C.2       1 HIS         0.2054
     28 O           5.4590    3.7370   32.3770 O.2       1 HIS        -0.3942
     29 CB          7.9230    5.4340   31.4740 C.3       1 HIS         0.0145
     30 CG          7.7900    6.1290   30.1620 C.2       1 HIS        -0.0027
     31 ND1         6.9400    5.6850   29.1710 N.2       1 HIS        -0.3252
     32 CD2         8.3570    7.2650   29.6930 C.2       1 HIS         0.0291
     33 CE1         6.9910    6.5180   28.1470 C.2       1 HIS         0.0907
     34 NE2         7.8500    7.4820   28.4340 N.pl3     1 HIS        -0.2752
     35 OH          2.8150    6.2370   24.1580 O.2       1 ALY        -0.3974
     36 CH          2.1340    5.3760   24.7220 C.2       1 ALY         0.1729
     37 CH3         1.9530    4.0160   24.0830 C.3       1 ALY         0.0256
     38 NZ          1.5020    5.6300   25.9870 N.am      1 ALY        -0.2872
     39 CE          1.6550    6.9210   26.6210 C.3       1 ALY         0.0309
     40 CD          1.6280    6.9570   28.1240 C.3       1 ALY        -0.0325
     41 CG          2.7320    6.1840   28.8350 C.3       1 ALY        -0.0470
     42 CB          2.4410    5.7510   30.2450 C.3       1 ALY        -0.0123
     43 CA          3.4390    4.8510   30.9180 C.3       1 ALY         0.1310
     44 N           4.6480    5.5180   31.2680 N.am      1 ALY        -0.2636
     45 C           3.6890    3.6090   30.1050 C.2       1 ALY         0.2039
     46 O           2.8520    2.6780   30.1460 O.2       1 ALY        -0.3944
     47 N           4.8150    3.5000   29.4030 N.am      1 MLY        -0.2637
     48 CA          5.0270    2.2900   28.6210 C.3       1 MLY         0.1310
     49 CB          6.1420    2.4070   27.5750 C.3       1 MLY        -0.0122
     50 CG          6.1740    3.7110   26.7650 C.3       1 MLY        -0.0440
     51 CD          5.6610    3.8610   25.3630 C.3       1 MLY        -0.0123
     52 CE          6.5940    3.5780   24.1970 C.3       1 MLY        -0.0324
     53 NZ          7.3150    4.6200   23.4590 N.4       1 MLY         0.2309
     54 CH1         6.6610    4.9250   22.1900 C.3       1 MLY        -0.0433
     55 CH2         8.5730    4.0010   23.1610 C.3       1 MLY        -0.0433
     56 C           5.2230    1.1100   29.5180 C.2       1 MLY         0.2039
     57 O           5.0810   -0.0270   29.0800 O.2       1 MLY        -0.3944
     58 N           5.5200    1.3470   30.7890 N.am      1 LEU        -0.2637
     59 CA          5.5730    0.2280   31.7410 C.3       1 LEU         0.1312
     60 C           4.2060   -0.4030   31.9840 C.2       1 LEU         0.2039
     61 O           4.1300   -1.5380   32.4670 O.2       1 LEU        -0.3944
     62 CB          6.2050    0.6450   33.0700 C.3       1 LEU        -0.0101
     63 CG          7.7120    0.9050   33.0080 C.3       1 LEU        -0.0425
     64 CD1         8.2380    1.3970   34.3450 C.3       1 LEU        -0.0625
     65 CD2         8.4400   -0.3600   32.5700 C.3       1 LEU        -0.0625
     66 N           3.1370    0.3150   31.6340 N.am      1 MET        -0.2637
     67 CA          1.7730   -0.2020   31.7890 C.3       1 MET         0.1317
     68 C           1.4850   -1.3960   30.8730 C.2       1 MET         0.2040
     69 O           0.5330   -2.1450   31.1040 O.2       1 MET        -0.3944
     70 CB          0.7310    0.9100   31.5450 C.3       1 MET        -0.0034
     71 CG          0.7770    2.0680   32.5460 C.3       1 MET        -0.0024
     72 SD         -0.0910    3.5740   31.9950 S.3       1 MET        -0.1639
     73 CE         -1.7750    3.0010   31.9050 C.3       1 MET        -0.0181
     74 N           2.3110   -1.5860   29.8450 N.am      1 PHE        -0.2619
     75 CA          2.1140   -2.6790   28.8830 C.3       1 PHE         0.1404
     76 C           2.9630   -3.9150   29.1840 C.2       1 PHE         0.2054
     77 O           2.9390   -4.8920   28.4320 O.2       1 PHE        -0.3942
     78 CB          2.3860   -2.2010   27.4520 C.3       1 PHE         0.0214
     79 CG          1.5090   -1.0710   27.0170 C.ar      1 PHE        -0.0386
     80 CD1         0.3300   -1.3190   26.3280 C.ar      1 PHE        -0.0601
     81 CD2         1.8700    0.2470   27.2780 C.ar      1 PHE        -0.0601
     82 CE1        -0.4800   -0.2700   25.9220 C.ar      1 PHE        -0.0686
     83 CE2         1.0570    1.3010   26.8860 C.ar      1 PHE        -0.0686
     84 CZ         -0.1160    1.0420   26.2050 C.ar      1 PHE        -0.0687
     85 N           3.7140   -3.8620   30.2760 N.am      1 LYS        -0.2693
     86 CA          4.5480   -4.9850   30.6830 C.3       1 LYS         0.0944
     87 C           3.9090   -5.7430   31.8400 C.2       1 LYS         0.0601
     88 O           2.9610   -6.5070   31.6340 O.co2     1 LYS        -0.5666
     89 CB          5.9550   -4.5060   31.0470 C.3       1 LYS        -0.0177
     90 CG          6.7950   -4.1300   29.8310 C.3       1 LYS        -0.0446
     91 CD          8.1700   -3.6100   30.2330 C.3       1 LYS        -0.0125
     92 CE          8.9430   -4.6250   31.0590 C.3       1 LYS        -0.0354
     93 NZ          9.8690   -3.9590   32.0230 N.4       1 LYS         0.2185
     94 OXT         4.3360   -5.5970   32.9890 O.co2     1 LYS        -0.5666
     95 H1          5.5277    9.5681   43.0418 H         1 THR         0.2016
     96 H2          6.2974    8.9803   44.3729 H         1 THR         0.2016
     97 H3          5.0562    8.1346   43.6993 H         1 THR         0.2016
     98 H4          7.6554    8.6914   42.4917 H         1 THR         0.1125
     99 H5          8.2887    6.9354   43.7834 H         1 THR         0.0674
    100 H6          6.6483    5.5303   41.9023 H         1 THR         0.2102
    101 H7          6.7383    5.3176   44.8320 H         1 THR         0.0258
    102 H8          5.3707    6.0309   43.9115 H         1 THR         0.0258
    103 H9          6.2297    7.0113   45.1475 H         1 THR         0.0258
    104 H10         7.5650    8.9053   40.3845 H         1 SER         0.1885
    105 H11         5.1596    7.8567   39.0039 H         1 SER         0.0823
    106 H12         5.6297   10.2770   38.8285 H         1 SER         0.0606
    107 H13         5.6793    9.4580   37.2306 H         1 SER         0.0606
    108 H14         7.9300   10.1135   38.8465 H         1 SER         0.2097
    109 H15         5.2234    6.7558   37.0799 H         1 ARG         0.1883
    110 H16         7.8606    5.6131   36.2800 H         1 ARG         0.0800
    111 H17         6.6854    3.4606   35.8596 H         1 ARG         0.0313
    112 H18         5.1934    4.1570   36.5778 H         1 ARG         0.0313
    113 H19         6.3385    4.3783   38.7521 H         1 ARG         0.0301
    114 H20         7.8370    3.6940   38.0359 H         1 ARG         0.0301
    115 H21         6.9629    1.7586   38.8953 H         1 ARG         0.0689
    116 H22         6.1171    1.7527   37.3106 H         1 ARG         0.0689
    117 H23         4.6785    3.1138   39.5026 H         1 ARG         0.2642
    118 H24         3.6846   -0.6063   38.1940 H         1 ARG         0.2615
    119 H25         5.2387    0.1151   37.6968 H         1 ARG         0.2615
    120 H26         2.6997    2.1889   40.1297 H         1 ARG         0.2615
    121 H27         2.2514    0.5652   39.5420 H         1 ARG         0.2615
    122 H28         7.9796    5.0019   34.0289 H         1 HIS         0.1885
    123 H29         6.5068    6.8020   32.3273 H         1 HIS         0.0817
    124 H30         7.9567    4.3491   31.2954 H         1 HIS         0.0420
    125 H31         8.8610    5.7567   31.9494 H         1 HIS         0.0420
    126 H32         9.0797    7.8901   30.2154 H         1 HIS         0.0729
    127 H33         6.4221    6.4265   27.2229 H         1 HIS         0.1199
    128 H34         8.0984    8.2670   27.8152 H         1 HIS         0.2361
    129 H35         1.3200    3.3891   24.7282 H         1 ALY         0.0467
    130 H36         2.9350    3.5369   23.9559 H         1 ALY         0.0467
    131 H37         1.4724    4.1335   23.1006 H         1 ALY         0.0467
    132 H38         0.9578    4.9162   26.4279 H         1 ALY         0.1850
    133 H39         0.8399    7.5654   26.2601 H         1 ALY         0.0520
    134 H40         2.6210    7.3359   26.2976 H         1 ALY         0.0520
    135 H41         0.6633    6.5429   28.4524 H         1 ALY         0.0285
    136 H42         1.7007    8.0093   28.4360 H         1 ALY         0.0285
    137 H43         3.6267    6.8234   28.8589 H         1 ALY         0.0268
    138 H44         2.9426    5.2806   28.2439 H         1 ALY         0.0268
    139 H45         1.4764    5.2223   30.2342 H         1 ALY         0.0312
    140 H46         2.3537    6.6608   30.8570 H         1 ALY         0.0312
    141 H47         2.9800    4.5245   31.8628 H         1 ALY         0.0800
    142 H48         4.8127    6.4497   30.9441 H         1 ALY         0.1883
    143 H49         5.4978    4.2305   29.4125 H         1 MLY         0.1883
    144 H50         4.0971    2.1142   28.0603 H         1 MLY         0.0800
    145 H51         6.0267    1.5738   26.8661 H         1 MLY         0.0312
    146 H52         7.1050    2.3127   28.0982 H         1 MLY         0.0312
    147 H53         7.2329    4.0060   26.7239 H         1 MLY         0.0269
    148 H54         5.6123    4.4432   27.3637 H         1 MLY         0.0269
    149 H55         5.3190    4.9009   25.2556 H         1 MLY         0.0317
    150 H56         4.8030    3.1804   25.2603 H         1 MLY         0.0317
    151 H57         5.9862    3.0476   23.4491 H         1 MLY         0.0814
    152 H58         7.3664    2.9002   24.5893 H         1 MLY         0.0814
    153 H59         7.4226    5.4558   24.0121 H         1 MLY         0.2028
    154 H60         7.2272    5.7083   21.6647 H         1 MLY         0.0777
    155 H61         5.6369    5.2783   22.3809 H         1 MLY         0.0777
    156 H62         6.6262    4.0183   21.5682 H         1 MLY         0.0777
    157 H63         9.0932    3.7576   24.0992 H         1 MLY         0.0777
    158 H64         9.1903    4.6919   22.5681 H         1 MLY         0.0777
    159 H65         8.4009    3.0785   22.5871 H         1 MLY         0.0777
    160 H66         5.7064    2.2799   31.0972 H         1 LEU         0.1883
    161 H67         6.2168   -0.5447   31.2954 H         1 LEU         0.0800
    162 H68         6.0255   -0.1569   33.8013 H         1 LEU         0.0315
    163 H69         5.7118    1.5678   33.4093 H         1 LEU         0.0315
    164 H70         7.8970    1.6883   32.2583 H         1 LEU         0.0298
    165 H71         9.3209    1.5748   34.2700 H         1 LEU         0.0232
    166 H72         8.0437    0.6381   35.1172 H         1 LEU         0.0232
    167 H73         7.7305    2.3344   34.6162 H         1 LEU         0.0232
    168 H74         8.0416   -0.6954   31.6011 H         1 LEU         0.0232
    169 H75         8.2889   -1.1489   33.3215 H         1 LEU         0.0232
    170 H76         9.5150   -0.1488   32.4711 H         1 LEU         0.0232
    171 H77         3.2695    1.2311   31.2555 H         1 MET         0.1883
    172 H78         1.6666   -0.5457   32.8285 H         1 MET         0.0800
    173 H79        -0.2701    0.4566   31.5929 H         1 MET         0.0320
    174 H80         0.8995    1.3213   30.5388 H         1 MET         0.0320
    175 H81         1.8312    2.3251   32.7267 H         1 MET         0.0378
    176 H82         0.3159    1.7293   33.4855 H         1 MET         0.0378
    177 H83        -2.4257    3.8252   31.5773 H         1 MET         0.0340
    178 H84        -2.0971    2.6519   32.8971 H         1 MET         0.0340
    179 H85        -1.8423    2.1722   31.1849 H         1 MET         0.0340
    180 H86         3.0872   -0.9671   29.7247 H         1 PHE         0.1885
    181 H87         1.0581   -2.9811   28.9449 H         1 PHE         0.0823
    182 H88         2.2267   -3.0471   26.7674 H         1 PHE         0.0474
    183 H89         3.4335   -1.8710   27.3896 H         1 PHE         0.0474
    184 H90         0.0407   -2.3398   26.1059 H         1 PHE         0.0557
    185 H91         2.8000    0.4536   27.7952 H         1 PHE         0.0557
    186 H92        -1.3985   -0.4726   25.3831 H         1 PHE         0.0599
    187 H93         1.3412    2.3221   27.1131 H         1 PHE         0.0599
    188 H94        -0.7529    1.8611   25.8911 H         1 PHE         0.0559
    189 H95         3.7076   -3.0316   30.8331 H         1 LYS         0.1875
    190 H96         4.6328   -5.6747   29.8303 H         1 LYS         0.0726
    191 H97         6.4689   -5.3121   31.5911 H         1 LYS         0.0305
    192 H98         5.8665   -3.6232   31.6972 H         1 LYS         0.0305
    193 H99         6.2701   -3.3473   29.2636 H         1 LYS         0.0269
    194 H100        6.9221   -5.0198   29.1969 H         1 LYS         0.0269
    195 H101        8.0433   -2.6922   30.8259 H         1 LYS         0.0317
    196 H102        8.7437   -3.3821   29.3226 H         1 LYS         0.0317
    197 H103        9.5306   -5.2627   30.3822 H         1 LYS         0.0813
    198 H104        8.2295   -5.2459   31.6205 H         1 LYS         0.0813
    199 H105       10.3638   -4.6598   32.5524 H         1 LYS         0.1994
    200 H106        9.3380   -3.3762   32.6510 H         1 LYS         0.1994
    201 H107       10.5303   -3.3916   31.5163 H         1 LYS         0.1994
@<TRIPOS>BOND
     1    2    1 1  
     2    3    2 1  
     3    2    5 1  
     4    3    4 2  
     5    8    3 am 
     6    5    6 1  
     7    5    7 1  
     8    9    8 1  
     9   10    9 1  
    10    9   12 1  
    11   10   11 2  
    12   14   10 am 
    13   12   13 1  
    14   15   14 1  
    15   16   15 1  
    16   15   18 1  
    17   16   17 2  
    18   25   16 am 
    19   18   19 1  
    20   19   20 1  
    21   20   21 1  
    22   21   22 ar 
    23   22   23 ar 
    24   22   24 ar 
    25   26   25 1  
    26   27   26 1  
    27   26   29 1  
    28   27   28 2  
    29   44   27 am 
    30   29   30 1  
    31   30   31 1  
    32   30   32 2  
    33   31   33 2  
    34   32   34 1  
    35   34   33 1  
    36   36   35 2  
    37   36   37 1  
    38   38   36 am 
    39   39   38 1  
    40   40   39 1  
    41   41   40 1  
    42   42   41 1  
    43   43   42 1  
    44   43   44 1  
    45   43   45 1  
    46   45   46 2  
    47   45   47 am 
    48   47   48 1  
    49   48   49 1  
    50   48   56 1  
    51   49   50 1  
    52   50   51 1  
    53   51   52 1  
    54   52   53 1  
    55   53   54 1  
    56   53   55 1  
    57   56   57 2  
    58   56   58 am 
    59   58   59 1  
    60   59   60 1  
    61   59   62 1  
    62   60   61 2  
    63   60   66 am 
    64   62   63 1  
    65   63   64 1  
    66   63   65 1  
    67   66   67 1  
    68   67   68 1  
    69   67   70 1  
    70   68   69 2  
    71   68   74 am 
    72   70   71 1  
    73   71   72 1  
    74   72   73 1  
    75   74   75 1  
    76   75   76 1  
    77   75   78 1  
    78   76   77 2  
    79   76   85 am 
    80   78   79 1  
    81   79   80 ar 
    82   79   81 ar 
    83   80   82 ar 
    84   81   83 ar 
    85   82   84 ar 
    86   83   84 ar 
    87   85   86 1  
    88   86   87 1  
    89   86   89 1  
    90   87   88 ar 
    91   87   94 ar 
    92   89   90 1  
    93   90   91 1  
    94   91   92 1  
    95   92   93 1  
    96    1   95 1  
    97    1   96 1  
    98    1   97 1  
    99    2   98 1  
   100    5   99 1  
   101    6  100 1  
   102    7  101 1  
   103    7  102 1  
   104    7  103 1  
   105    8  104 1  
   106    9  105 1  
   107   12  106 1  
   108   12  107 1  
   109   13  108 1  
   110   14  109 1  
   111   15  110 1  
   112   18  111 1  
   113   18  112 1  
   114   19  113 1  
   115   19  114 1  
   116   20  115 1  
   117   20  116 1  
   118   21  117 1  
   119   23  118 1  
   120   23  119 1  
   121   24  120 1  
   122   24  121 1  
   123   25  122 1  
   124   26  123 1  
   125   29  124 1  
   126   29  125 1  
   127   32  126 1  
   128   33  127 1  
   129   34  128 1  
   130   37  129 1  
   131   37  130 1  
   132   37  131 1  
   133   38  132 1  
   134   39  133 1  
   135   39  134 1  
   136   40  135 1  
   137   40  136 1  
   138   41  137 1  
   139   41  138 1  
   140   42  139 1  
   141   42  140 1  
   142   43  141 1  
   143   44  142 1  
   144   47  143 1  
   145   48  144 1  
   146   49  145 1  
   147   49  146 1  
   148   50  147 1  
   149   50  148 1  
   150   51  149 1  
   151   51  150 1  
   152   52  151 1  
   153   52  152 1  
   154   53  153 1  
   155   54  154 1  
   156   54  155 1  
   157   54  156 1  
   158   55  157 1  
   159   55  158 1  
   160   55  159 1  
   161   58  160 1  
   162   59  161 1  
   163   62  162 1  
   164   62  163 1  
   165   63  164 1  
   166   64  165 1  
   167   64  166 1  
   168   64  167 1  
   169   65  168 1  
   170   65  169 1  
   171   65  170 1  
   172   66  171 1  
   173   67  172 1  
   174   70  173 1  
   175   70  174 1  
   176   71  175 1  
   177   71  176 1  
   178   73  177 1  
   179   73  178 1  
   180   73  179 1  
   181   74  180 1  
   182   75  181 1  
   183   78  182 1  
   184   78  183 1  
   185   80  184 1  
   186   81  185 1  
   187   82  186 1  
   188   83  187 1  
   189   84  188 1  
   190   85  189 1  
   191   86  190 1  
   192   89  191 1  
   193   89  192 1  
   194   90  193 1  
   195   90  194 1  
   196   91  195 1  
   197   91  196 1  
   198   92  197 1  
   199   92  198 1  
   200   93  199 1  
   201   93  200 1  
   202   93  201 1  
@<TRIPOS>SUBSTRUCTURE
     1 THR         1

