3m6q_ligand
  -I-interpret- 

 62 62  0  0  0  0  0  0  0  0999 V2000
    2.7360  -16.8050  -28.3820 C   0  0  0  0  0
    2.2210  -16.5830  -26.9590 C   0  0  0  0  0
    2.8840  -17.0620  -26.0520 O   0  0  0  0  0
    1.0770  -15.9230  -26.7400 N   0  0  0  0  0
    0.8780  -15.8570  -25.4360 O   0  0  0  0  0
    2.2260  -18.1560  -28.8850 C   0  0  0  0  0
    2.5760  -18.5130  -30.3640 C   0  0  0  0  0
    2.4540  -17.7430  -31.3370 O   0  0  0  0  0
    0.6570  -18.1000  -28.8610 C   0  0  0  0  0
    0.1280  -19.4400  -29.4200 C   0  0  0  0  0
   -1.4010  -19.5800  -29.5090 C   0  0  0  0  0
   -1.7540  -21.1040  -29.4050 C   0  0  0  0  0
   -1.8550  -21.6740  -30.7910 C   0  0  0  0  0
    2.9900  -19.7800  -30.4480 N   0  0  0  0  0
    3.2570  -20.4000  -31.6900 C   0  0  0  0  0
    4.7310  -20.7700  -31.8880 C   0  0  0  0  0
    5.3680  -19.6730  -32.8120 C   0  0  0  0  0
    5.5540  -21.1290  -30.6270 C   0  0  0  0  0
    2.3510  -21.6480  -31.7390 C   0  0  0  0  0
    2.0620  -22.2310  -30.6660 O   0  0  0  0  0
    1.8660  -21.9790  -33.0050 N   0  0  0  0  0
    1.0360  -23.1240  -33.4230 C   0  0  0  0  0
    2.2520  -21.1880  -34.2300 C   0  0  0  0  0
    1.5270  -21.7400  -35.4530 C   0  0  0  0  0
    1.0700  -23.1250  -34.9790 C   0  0  0  0  0
    1.6820  -24.4580  -32.9330 C   0  0  0  0  0
    1.1100  -25.6590  -33.5480 O   0  0  0  0  0
    3.8260  -16.7967  -28.3860 H   0  0  0  0  0
    2.3766  -16.0085  -29.0335 H   0  0  0  0  0
    0.4637  -15.5370  -27.4578 H   0  0  0  0  0
    0.0600  -15.3858  -25.2617 H   0  0  0  0  0
    2.6990  -18.8956  -28.2390 H   0  0  0  0  0
    0.2987  -17.2688  -29.4683 H   0  0  0  0  0
    0.2993  -17.9471  -27.8428 H   0  0  0  0  0
    0.4655  -20.2131  -28.7296 H   0  0  0  0  0
    0.5010  -19.5129  -30.4416 H   0  0  0  0  0
   -1.7624  -19.1730  -30.4534 H   0  0  0  0  0
   -1.8778  -19.0266  -28.7000 H   0  0  0  0  0
   -2.7037  -21.2282  -28.8848 H   0  0  0  0  0
   -0.9764  -21.6257  -28.8471 H   0  0  0  0  0
   -2.6363  -21.1503  -31.3418 H   0  0  0  0  0
   -0.9014  -21.5496  -31.3040 H   0  0  0  0  0
   -2.1003  -22.7342  -30.7295 H   0  0  0  0  0
    3.1174  -20.3165  -29.5899 H   0  0  0  0  0
    3.0464  -19.7063  -32.5039 H   0  0  0  0  0
    4.7643  -21.7440  -32.3761 H   0  0  0  0  0
    4.8453  -19.6571  -33.7684 H   0  0  0  0  0
    5.2789  -18.6987  -32.3316 H   0  0  0  0  0
    6.4206  -19.9040  -32.9755 H   0  0  0  0  0
    5.5589  -20.2796  -29.9439 H   0  0  0  0  0
    5.1039  -21.9907  -30.1341 H   0  0  0  0  0
    6.5767  -21.3686  -30.9182 H   0  0  0  0  0
    0.0277  -23.0445  -33.0166 H   0  0  0  0  0
    3.3282  -21.2658  -34.3842 H   0  0  0  0  0
    1.9728  -20.1441  -34.0870 H   0  0  0  0  0
    2.1603  -21.7820  -36.3391 H   0  0  0  0  0
    0.7004  -21.1081  -35.7778 H   0  0  0  0  0
    0.0785  -23.3464  -35.3740 H   0  0  0  0  0
    1.7605  -23.8887  -35.3369 H   0  0  0  0  0
    1.5038  -24.5283  -31.8600 H   0  0  0  0  0
    2.7366  -24.4259  -33.2065 H   0  0  0  0  0
    1.5533  -26.4368  -33.2013 H   0  0  0  0  0
  1  2  1  0  0  0
  1  6  1  0  0  0
  2  3  2  0  0  0
  2  4  1  0  0  0
  4  5  1  0  0  0
  6  7  1  0  0  0
  6  9  1  0  0  0
  7  8  2  0  0  0
  7 14  1  0  0  0
  9 10  1  0  0  0
 10 11  1  0  0  0
 11 12  1  0  0  0
 12 13  1  0  0  0
 14 15  1  0  0  0
 15 16  1  0  0  0
 15 19  1  0  0  0
 16 17  1  0  0  0
 16 18  1  0  0  0
 19 20  2  0  0  0
 19 21  1  0  0  0
 21 22  1  0  0  0
 21 23  1  0  0  0
 22 25  1  0  0  0
 22 26  1  0  0  0
 23 24  1  0  0  0
 24 25  1  0  0  0
 26 27  1  0  0  0
  1 28  1  0  0  0
  1 29  1  0  0  0
  4 30  1  0  0  0
  5 31  1  0  0  0
  6 32  1  0  0  0
  9 33  1  0  0  0
  9 34  1  0  0  0
 10 35  1  0  0  0
 10 36  1  0  0  0
 11 37  1  0  0  0
 11 38  1  0  0  0
 12 39  1  0  0  0
 12 40  1  0  0  0
 13 41  1  0  0  0
 13 42  1  0  0  0
 13 43  1  0  0  0
 14 44  1  0  0  0
 15 45  1  0  0  0
 16 46  1  0  0  0
 17 47  1  0  0  0
 17 48  1  0  0  0
 17 49  1  0  0  0
 18 50  1  0  0  0
 18 51  1  0  0  0
 18 52  1  0  0  0
 22 53  1  0  0  0
 23 54  1  0  0  0
 23 55  1  0  0  0
 24 56  1  0  0  0
 24 57  1  0  0  0
 25 58  1  0  0  0
 25 59  1  0  0  0
 26 60  1  0  0  0
 26 61  1  0  0  0
 27 62  1  0  0  0
M  END
$$$$
