1jtq_ligand
  -I-interpret- 

 52 55  0  0  0  0  0  0  0  0999 V2000
   13.8790   19.2360   32.6030 N   0  0  0  0  0
   13.0380   19.3160   31.5440 C   0  0  0  0  0
   13.1360   18.5310   30.5410 N   0  0  0  0  0
   14.2390   17.5570   30.5340 C   0  0  0  0  0
   15.0590   17.4380   31.5730 C   0  0  0  0  0
   14.9550   18.3880   32.7430 C   0  0  0  0  0
   14.6400   16.5220   29.5780 N   0  0  0  0  0
   15.8020   15.8320   30.1380 C   0  0  0  0  0
   16.0970   16.3780   31.3270 C   0  0  0  0  0
   17.1940   15.9880   32.2840 C   0  0  0  0  0
   17.1840   14.4810   32.5540 C   0  0  0  0  0
   16.1150   14.1800   33.5690 C   0  0  0  0  0
   16.3010   14.4480   34.9660 C   0  0  0  0  0
   15.2540   14.1510   35.9060 C   0  0  0  0  0
   14.0320   13.5890   35.4220 C   0  0  0  0  0
   13.8690   13.3300   34.0370 C   0  0  0  0  0
   14.9000   13.6240   33.1220 C   0  0  0  0  0
   12.8560   13.2220   36.3290 C   0  0  0  0  0
   15.6720   18.3530   33.7100 O   0  0  0  0  0
   11.9840   20.3260   31.6320 N   0  0  0  0  0
   11.9860   12.4410   38.4090 C   0  0  0  0  0
   11.6470   10.9450   38.3070 C   0  0  0  0  0
   12.1200   12.8240   39.8480 C   0  0  0  0  0
   13.5520   13.0040   40.2030 O   0  0  0  0  0
   11.1950   12.8940   40.6210 O   0  0  0  0  0
   13.1450   12.7960   37.6010 N   0  0  0  0  0
   11.7130   13.2830   35.9400 O   0  0  0  0  0
   12.0270   10.1820   39.5830 C   0  0  0  0  0
   12.7820    8.9690   39.1780 C   0  0  0  0  0
   13.7680    8.9940   38.1220 N   0  0  0  0  0
   14.1150    7.7910   38.1420 N   0  0  0  0  0
   13.4870    7.0070   39.0580 N   0  0  0  0  0
   12.6340    7.8400   39.6990 N   0  0  0  0  0
   13.6957   19.8716   33.3794 H   0  0  0  0  0
   16.3397   15.0094   29.6665 H   0  0  0  0  0
   17.0352   16.5113   33.2269 H   0  0  0  0  0
   18.1533   16.2556   31.8410 H   0  0  0  0  0
   18.1556   14.1666   32.9352 H   0  0  0  0  0
   16.9798   13.9405   31.6297 H   0  0  0  0  0
   17.2393   14.8783   35.3162 H   0  0  0  0  0
   15.3898   14.3509   36.9689 H   0  0  0  0  0
   12.9354   12.8985   33.6760 H   0  0  0  0  0
   14.7563   13.4198   32.0610 H   0  0  0  0  0
   11.3015   20.4178   30.8796 H   0  0  0  0  0
   11.9314   20.9387   32.4458 H   0  0  0  0  0
   11.1669   13.0242   37.9882 H   0  0  0  0  0
   12.2123   10.5230   37.4761 H   0  0  0  0  0
   10.5714   10.8483   38.1592 H   0  0  0  0  0
   14.0912   12.9006   39.4155 H   0  0  0  0  0
   14.0998   12.7327   37.9543 H   0  0  0  0  0
   11.1314    9.9028   40.1381 H   0  0  0  0  0
   12.6383   10.8095   40.2315 H   0  0  0  0  0
  1  2  1  0  0  0
  6  1  1  0  0  0
  3  2  2  0  0  0
  2 20  1  0  0  0
  4  3  1  0  0  0
  5  4  4  0  0  0
  7  4  4  0  0  0
  5  6  1  0  0  0
  9  5  4  0  0  0
  6 19  2  0  0  0
  8  7  4  0  0  0
  9  8  4  0  0  0
 10  9  1  0  0  0
 11 10  1  0  0  0
 12 11  1  0  0  0
 13 12  4  0  0  0
 17 12  4  0  0  0
 14 13  4  0  0  0
 15 14  4  0  0  0
 15 16  4  0  0  0
 18 15  1  0  0  0
 16 17  4  0  0  0
 26 18  1  0  0  0
 18 27  2  0  0  0
 21 22  1  0  0  0
 21 23  1  0  0  0
 21 26  1  0  0  0
 22 28  1  0  0  0
 23 24  1  0  0  0
 23 25  2  0  0  0
 28 29  1  0  0  0
 29 30  4  0  0  0
 29 33  4  0  0  0
 30 31  4  0  0  0
 31 32  4  0  0  0
 32 33  4  0  0  0
  1 34  1  0  0  0
  8 35  1  0  0  0
 10 36  1  0  0  0
 10 37  1  0  0  0
 11 38  1  0  0  0
 11 39  1  0  0  0
 13 40  1  0  0  0
 14 41  1  0  0  0
 16 42  1  0  0  0
 17 43  1  0  0  0
 20 44  1  0  0  0
 20 45  1  0  0  0
 21 46  1  0  0  0
 22 47  1  0  0  0
 22 48  1  0  0  0
 24 49  1  0  0  0
 26 50  1  0  0  0
 28 51  1  0  0  0
 28 52  1  0  0  0
M  END
$$$$
