### 
### Created by X-TOOL on Wed Jan  1 15:39:38 2020
### 

@<TRIPOS>MOLECULE
6fdt_ligand
  126   126     1     0     0
SMALL
GAST_HUCK


@<TRIPOS>ATOM
      1 N          33.9030   26.1110   22.0550 N.4       1 SER         0.2396
      2 CA         34.7030   24.8820   22.0820 C.3       1 SER         0.0884
      3 C          34.5070   24.1790   23.4160 C.2       1 SER         0.2288
      4 O          34.9190   24.6910   24.4570 O.2       1 SER        -0.3906
      5 CB         36.1640   25.2240   21.8030 C.3       1 SER         0.1041
      6 OG         36.2190   25.8450   20.5280 O.3       1 SER        -0.3870
      7 N          33.8130   23.0360   23.3970 N.am      1 GLY        -0.2636
      8 CA         33.4720   22.2410   24.5870 C.3       1 GLY         0.1204
      9 C          32.5000   22.9280   25.5710 C.2       1 GLY         0.2032
     10 O          32.0230   24.0350   25.3050 O.2       1 GLY        -0.3945
     11 N          32.2080   22.3020   26.7290 N.am      1 PRO        -0.2501
     12 CA         31.3530   22.8490   27.7890 C.3       1 PRO         0.1338
     13 C          32.0850   23.9070   28.6330 C.2       1 PRO         0.2042
     14 O          32.2340   23.7700   29.8530 O.2       1 PRO        -0.3944
     15 CB         30.8770   21.6180   28.5700 C.3       1 PRO        -0.0104
     16 CG         32.0810   20.6800   28.4790 C.3       1 PRO        -0.0281
     17 CD         32.6060   20.9420   27.0690 C.3       1 PRO         0.0369
     18 N          32.5430   24.9750   27.9760 N.am      1 THR        -0.2613
     19 CA         33.3230   26.0730   28.5630 C.3       1 THR         0.1565
     20 C          32.5210   27.3510   28.8100 C.2       1 THR         0.2065
     21 O          31.4830   27.6130   28.1940 O.2       1 THR        -0.3943
     22 CB         34.5430   26.4430   27.7160 C.3       1 THR         0.0924
     23 OG1        34.2100   26.6540   26.3630 O.3       1 THR        -0.3874
     24 CG2        35.6670   25.4170   27.8060 C.3       1 THR        -0.0346
     25 N          33.0260   28.1820   29.7300 N.am      1 ILE        -0.2634
     26 CA         32.2990   29.3670   30.2040 C.3       1 ILE         0.1335
     27 C          32.4640   30.6030   29.3110 C.2       1 ILE         0.2042
     28 O          31.5530   31.4220   29.2570 O.2       1 ILE        -0.3944
     29 CB         32.5950   29.6740   31.6900 C.3       1 ILE        -0.0037
     30 CG1        33.8250   30.5820   31.9170 C.3       1 ILE        -0.0491
     31 CG2        32.5960   28.4040   32.5560 C.3       1 ILE        -0.0582
     32 CD1        34.2730   30.7460   33.3690 C.3       1 ILE        -0.0648
     33 N          33.5850   30.7650   28.6010 N.am      1 GLU        -0.2636
     34 CA         33.8480   31.9880   27.8140 C.3       1 GLU         0.1325
     35 C          33.2180   31.9880   26.4090 C.2       1 GLU         0.2040
     36 O          33.3910   32.9400   25.6500 O.2       1 GLU        -0.3944
     37 CB         35.3490   32.3290   27.8030 C.3       1 GLU        -0.0008
     38 CG         36.1780   31.3890   26.9190 C.3       1 GLU         0.0044
     39 CD         37.6680   31.7370   26.9910 C.2       1 GLU         0.0350
     40 OE1        38.4510   30.9350   27.5580 O.co2     1 GLU        -0.5690
     41 OE2        38.0640   32.8050   26.4650 O.co2     1 GLU        -0.5690
     42 N          32.4800   30.9300   26.0720 N.am      1 GLU        -0.2636
     43 CA         31.6010   30.8370   24.9030 C.3       1 GLU         0.1325
     44 C          30.1730   31.2840   25.2570 C.2       1 GLU         0.2040
     45 O          29.6860   30.9970   26.3550 O.2       1 GLU        -0.3944
     46 CB         31.6240   29.3880   24.3760 C.3       1 GLU        -0.0008
     47 CG         32.4290   29.2630   23.0770 C.3       1 GLU         0.0044
     48 CD         31.6400   29.7230   21.8460 C.2       1 GLU         0.0350
     49 OE1        31.6260   28.9900   20.8280 O.co2     1 GLU        -0.5690
     50 OE2        31.0340   30.8190   21.8730 O.co2     1 GLU        -0.5690
     51 N          29.5020   31.9630   24.3220 N.am      1 VAL        -0.2635
     52 CA         28.1690   32.5810   24.4950 C.3       1 VAL         0.1332
     53 C          27.0530   31.7240   23.8900 C.2       1 VAL         0.2037
     54 O          27.2140   31.1950   22.7890 O.2       1 VAL        -0.3944
     55 CB         28.1380   34.0120   23.9240 C.3       1 VAL        -0.0063
     56 CG1        28.8470   34.9770   24.8820 C.3       1 VAL        -0.0584
     57 CG2        28.7210   34.1530   22.5130 C.3       1 VAL        -0.0584
     58 N          25.9290   31.5580   24.5970 N.am      1 ASP        -0.2679
     59 CA         24.9570   30.4800   24.2930 C.3       1 ASP         0.1057
     60 C          24.0680   30.6860   23.0450 C.2       1 ASP         0.0618
     61 O          23.6010   29.6520   22.5080 O.co2     1 ASP        -0.5665
     62 CB         24.2120   30.0530   25.5810 C.3       1 ASP         0.0351
     63 CG         24.0760   28.5340   25.7660 C.2       1 ASP         0.0387
     64 OD1        25.1090   27.8320   25.9190 O.co2     1 ASP        -0.5688
     65 OD2        22.9200   28.0420   25.8690 O.co2     1 ASP        -0.5688
     66 OXT        23.9000   31.8260   22.5500 O.co2     1 ASP        -0.5665
     67 H1         34.0329   26.5771   21.1707 H         1 SER         0.2016
     68 H2         34.1974   26.7201   22.8022 H         1 SER         0.2016
     69 H3         32.9289   25.8805   22.1734 H         1 SER         0.2016
     70 H4         34.3497   24.2105   21.2856 H         1 SER         0.1122
     71 H5         36.7710   24.3067   21.8007 H         1 SER         0.0640
     72 H6         36.5426   25.9123   22.5730 H         1 SER         0.0640
     73 H7         37.1193   26.0705   20.3254 H         1 SER         0.2099
     74 H8         33.5031   22.6968   22.5088 H         1 GLY         0.1882
     75 H9         34.4038   22.0175   25.1272 H         1 GLY         0.0763
     76 H10        33.0094   21.3018   24.2495 H         1 GLY         0.0763
     77 H11        30.4792   23.3397   27.3354 H         1 PRO         0.0802
     78 H12        29.9882   21.1699   28.1019 H         1 PRO         0.0313
     79 H13        30.6511   21.8739   29.6157 H         1 PRO         0.0313
     80 H14        31.7757   19.6301   28.5997 H         1 PRO         0.0287
     81 H15        32.8376   20.9313   29.2368 H         1 PRO         0.0287
     82 H16        33.7019   20.8495   27.0477 H         1 PRO         0.0524
     83 H17        32.1638   20.2273   26.3593 H         1 PRO         0.0524
     84 H18        32.3372   25.0327   26.9991 H         1 THR         0.1884
     85 H19        33.6849   25.7154   29.5382 H         1 THR         0.0826
     86 H20        34.9313   27.3920   28.1142 H         1 THR         0.0639
     87 H21        33.8313   25.8603   26.0038 H         1 THR         0.2101
     88 H22        36.5099   25.7405   27.1776 H         1 THR         0.0257
     89 H23        35.3014   24.4408   27.4548 H         1 THR         0.0257
     90 H24        36.0008   25.3295   28.8505 H         1 THR         0.0257
     91 H25        33.9313   27.9889   30.1084 H         1 ILE         0.1883
     92 H26        31.2323   29.1031   30.1533 H         1 ILE         0.0803
     93 H27        31.7363   30.2654   32.0405 H         1 ILE         0.0345
     94 H28        33.5843   31.5806   31.5235 H         1 ILE         0.0267
     95 H29        34.6668   30.1576   31.3502 H         1 ILE         0.0267
     96 H30        31.6945   27.8120   32.3396 H         1 ILE         0.0235
     97 H31        32.6034   28.6853   33.6194 H         1 ILE         0.0235
     98 H32        33.4907   27.8059   32.3287 H         1 ILE         0.0235
     99 H33        35.1503   31.4084   33.4094 H         1 ILE         0.0230
    100 H34        34.5369   29.7623   33.7847 H         1 ILE         0.0230
    101 H35        33.4544   31.1854   33.9579 H         1 ILE         0.0230
    102 H36        34.2681   30.0347   28.6024 H         1 GLU         0.1883
    103 H37        33.3533   32.8067   28.3571 H         1 GLU         0.0801
    104 H38        35.7292   32.2651   28.8332 H         1 GLU         0.0330
    105 H39        35.4709   33.3567   27.4302 H         1 GLU         0.0330
    106 H40        35.8372   31.4817   25.8772 H         1 GLU         0.0433
    107 H41        36.0338   30.3536   27.2612 H         1 GLU         0.0433
    108 H42        32.5307   30.1296   26.6693 H         1 GLU         0.1883
    109 H43        31.9858   31.5032   24.1168 H         1 GLU         0.0801
    110 H44        30.5906   29.0625   24.1862 H         1 GLU         0.0330
    111 H45        32.0785   28.7394   25.1394 H         1 GLU         0.0330
    112 H46        32.7135   28.2094   22.9392 H         1 GLU         0.0433
    113 H47        33.3359   29.8793   23.1642 H         1 GLU         0.0433
    114 H48        29.9387   32.0620   23.4279 H         1 VAL         0.1883
    115 H49        27.9789   32.6517   25.5761 H         1 VAL         0.0802
    116 H50        27.0809   34.3104   23.8653 H         1 VAL         0.0343
    117 H51        28.8189   35.9944   24.4648 H         1 VAL         0.0234
    118 H52        29.8931   34.6626   25.0114 H         1 VAL         0.0234
    119 H53        28.3376   34.9663   25.8568 H         1 VAL         0.0234
    120 H54        28.2071   33.4578   21.8328 H         1 VAL         0.0234
    121 H55        29.7953   33.9176   22.5349 H         1 VAL         0.0234
    122 H56        28.5788   35.1847   22.1589 H         1 VAL         0.0234
    123 H57        25.7382   32.1814   25.3553 H         1 ASP         0.1876
    124 H58        25.5787   29.6123   24.0273 H         1 ASP         0.0745
    125 H59        23.2017   30.4872   25.5532 H         1 ASP         0.0471
    126 H60        24.7609   30.4562   26.4448 H         1 ASP         0.0471
@<TRIPOS>BOND
     1    1    2 1  
     2    2    3 1  
     3    2    5 1  
     4    3    4 2  
     5    3    7 am 
     6    5    6 1  
     7    7    8 1  
     8    8    9 1  
     9    9   10 2  
    10    9   11 am 
    11   11   12 1  
    12   11   17 1  
    13   12   13 1  
    14   12   15 1  
    15   13   14 2  
    16   13   18 am 
    17   15   16 1  
    18   16   17 1  
    19   18   19 1  
    20   19   20 1  
    21   19   22 1  
    22   20   21 2  
    23   20   25 am 
    24   22   23 1  
    25   22   24 1  
    26   25   26 1  
    27   26   27 1  
    28   26   29 1  
    29   27   28 2  
    30   27   33 am 
    31   29   30 1  
    32   29   31 1  
    33   30   32 1  
    34   33   34 1  
    35   34   35 1  
    36   34   37 1  
    37   35   36 2  
    38   35   42 am 
    39   37   38 1  
    40   38   39 1  
    41   39   40 ar 
    42   39   41 ar 
    43   42   43 1  
    44   43   44 1  
    45   43   46 1  
    46   44   45 2  
    47   44   51 am 
    48   46   47 1  
    49   47   48 1  
    50   48   49 ar 
    51   48   50 ar 
    52   51   52 1  
    53   52   53 1  
    54   52   55 1  
    55   53   54 2  
    56   53   58 am 
    57   55   56 1  
    58   55   57 1  
    59   58   59 1  
    60   59   60 1  
    61   59   62 1  
    62   60   61 ar 
    63   60   66 ar 
    64   62   63 1  
    65   63   64 ar 
    66   63   65 ar 
    67    1   67 1  
    68    1   68 1  
    69    1   69 1  
    70    2   70 1  
    71    5   71 1  
    72    5   72 1  
    73    6   73 1  
    74    7   74 1  
    75    8   75 1  
    76    8   76 1  
    77   12   77 1  
    78   15   78 1  
    79   15   79 1  
    80   16   80 1  
    81   16   81 1  
    82   17   82 1  
    83   17   83 1  
    84   18   84 1  
    85   19   85 1  
    86   22   86 1  
    87   23   87 1  
    88   24   88 1  
    89   24   89 1  
    90   24   90 1  
    91   25   91 1  
    92   26   92 1  
    93   29   93 1  
    94   30   94 1  
    95   30   95 1  
    96   31   96 1  
    97   31   97 1  
    98   31   98 1  
    99   32   99 1  
   100   32  100 1  
   101   32  101 1  
   102   33  102 1  
   103   34  103 1  
   104   37  104 1  
   105   37  105 1  
   106   38  106 1  
   107   38  107 1  
   108   42  108 1  
   109   43  109 1  
   110   46  110 1  
   111   46  111 1  
   112   47  112 1  
   113   47  113 1  
   114   51  114 1  
   115   52  115 1  
   116   55  116 1  
   117   56  117 1  
   118   56  118 1  
   119   56  119 1  
   120   57  120 1  
   121   57  121 1  
   122   57  122 1  
   123   58  123 1  
   124   59  124 1  
   125   62  125 1  
   126   62  126 1  
@<TRIPOS>SUBSTRUCTURE
     1 SER         1

