6fdt_ligand
  -I-interpret- 

130130  0  0  0  0  0  0  0  0999 V2000
   33.9030   26.1110   22.0550 N   0  3  0  0  0
   34.7030   24.8820   22.0820 C   0  0  0  0  0
   34.5070   24.1790   23.4160 C   0  0  0  0  0
   34.9190   24.6910   24.4570 O   0  0  0  0  0
   36.1640   25.2240   21.8030 C   0  0  0  0  0
   36.2190   25.8450   20.5280 O   0  0  0  0  0
   33.8130   23.0360   23.3970 N   0  0  0  0  0
   33.4720   22.2410   24.5870 C   0  0  0  0  0
   32.5000   22.9280   25.5710 C   0  0  0  0  0
   32.0230   24.0350   25.3050 O   0  0  0  0  0
   32.2080   22.3020   26.7290 N   0  0  0  0  0
   31.3530   22.8490   27.7890 C   0  0  0  0  0
   32.0850   23.9070   28.6330 C   0  0  0  0  0
   32.2340   23.7700   29.8530 O   0  0  0  0  0
   30.8770   21.6180   28.5700 C   0  0  0  0  0
   32.0810   20.6800   28.4790 C   0  0  0  0  0
   32.6060   20.9420   27.0690 C   0  0  0  0  0
   32.5430   24.9750   27.9760 N   0  0  0  0  0
   33.3230   26.0730   28.5630 C   0  0  0  0  0
   32.5210   27.3510   28.8100 C   0  0  0  0  0
   31.4830   27.6130   28.1940 O   0  0  0  0  0
   34.5430   26.4430   27.7160 C   0  0  0  0  0
   34.2100   26.6540   26.3630 O   0  0  0  0  0
   35.6670   25.4170   27.8060 C   0  0  0  0  0
   33.0260   28.1820   29.7300 N   0  0  0  0  0
   32.2990   29.3670   30.2040 C   0  0  0  0  0
   32.4640   30.6030   29.3110 C   0  0  0  0  0
   31.5530   31.4220   29.2570 O   0  0  0  0  0
   32.5950   29.6740   31.6900 C   0  0  0  0  0
   33.8250   30.5820   31.9170 C   0  0  0  0  0
   32.5960   28.4040   32.5560 C   0  0  0  0  0
   34.2730   30.7460   33.3690 C   0  0  0  0  0
   33.5850   30.7650   28.6010 N   0  0  0  0  0
   33.8480   31.9880   27.8140 C   0  0  0  0  0
   33.2180   31.9880   26.4090 C   0  0  0  0  0
   33.3910   32.9400   25.6500 O   0  0  0  0  0
   35.3490   32.3290   27.8030 C   0  0  0  0  0
   36.1780   31.3890   26.9190 C   0  0  0  0  0
   37.6680   31.7370   26.9910 C   0  0  0  0  0
   38.4510   30.9350   27.5580 O   0  0  0  0  0
   38.0640   32.8050   26.4650 O   0  0  0  0  0
   32.4800   30.9300   26.0720 N   0  0  0  0  0
   31.6010   30.8370   24.9030 C   0  0  0  0  0
   30.1730   31.2840   25.2570 C   0  0  0  0  0
   29.6860   30.9970   26.3550 O   0  0  0  0  0
   31.6240   29.3880   24.3760 C   0  0  0  0  0
   32.4290   29.2630   23.0770 C   0  0  0  0  0
   31.6400   29.7230   21.8460 C   0  0  0  0  0
   31.6260   28.9900   20.8280 O   0  0  0  0  0
   31.0340   30.8190   21.8730 O   0  0  0  0  0
   29.5020   31.9630   24.3220 N   0  0  0  0  0
   28.1690   32.5810   24.4950 C   0  0  0  0  0
   27.0530   31.7240   23.8900 C   0  0  0  0  0
   27.2140   31.1950   22.7890 O   0  0  0  0  0
   28.1380   34.0120   23.9240 C   0  0  0  0  0
   28.8470   34.9770   24.8820 C   0  0  0  0  0
   28.7210   34.1530   22.5130 C   0  0  0  0  0
   25.9290   31.5580   24.5970 N   0  0  0  0  0
   24.9570   30.4800   24.2930 C   0  0  0  0  0
   24.0680   30.6860   23.0450 C   0  0  0  0  0
   23.6010   29.6520   22.5080 O   0  0  0  0  0
   24.2120   30.0530   25.5810 C   0  0  0  0  0
   24.0760   28.5340   25.7660 C   0  0  0  0  0
   25.1090   27.8320   25.9190 O   0  0  0  0  0
   22.9200   28.0420   25.8690 O   0  0  0  0  0
   23.9000   31.8260   22.5500 O   0  0  0  0  0
   32.9263   25.8836   22.2414 H   0  0  0  0  0
   34.2458   26.7541   22.7686 H   0  0  0  0  0
   33.9825   26.5469   21.1363 H   0  0  0  0  0
   34.3773   24.1917   21.3038 H   0  0  0  0  0
   36.7763   24.3223   21.8153 H   0  0  0  0  0
   36.5529   25.8930   22.5707 H   0  0  0  0  0
   37.1288   26.0729   20.3233 H   0  0  0  0  0
   33.4969   22.6900   22.4910 H   0  0  0  0  0
   34.4018   22.0701   25.1295 H   0  0  0  0  0
   32.9755   21.3380   24.2317 H   0  0  0  0  0
   30.4984   23.4064   27.4056 H   0  0  0  0  0
   29.9648   21.1815   28.1632 H   0  0  0  0  0
   30.5926   21.8482   29.5967 H   0  0  0  0  0
   31.8195   19.6354   28.6477 H   0  0  0  0  0
   32.8262   20.8689   29.2518 H   0  0  0  0  0
   33.6893   20.8291   27.0273 H   0  0  0  0  0
   32.1951   20.2246   26.3586 H   0  0  0  0  0
   32.3331   25.0339   26.9796 H   0  0  0  0  0
   33.6375   25.6710   29.5261 H   0  0  0  0  0
   34.9052   27.3789   28.1413 H   0  0  0  0  0
   35.0023   26.8827   25.8715 H   0  0  0  0  0
   35.9968   25.3312   28.8414 H   0  0  0  0  0
   35.3034   24.4502   27.4578 H   0  0  0  0  0
   36.5016   25.7386   27.1830 H   0  0  0  0  0
   33.9494   27.9851   30.1160 H   0  0  0  0  0
   31.2438   29.1043   30.1292 H   0  0  0  0  0
   31.7577   30.2793   32.0373 H   0  0  0  0  0
   33.5424   31.5753   31.5684 H   0  0  0  0  0
   34.6555   30.1121   31.3902 H   0  0  0  0  0
   31.6189   27.9246   32.4967 H   0  0  0  0  0
   33.3613   27.7183   32.1922 H   0  0  0  0  0
   32.8085   28.6717   33.5910 H   0  0  0  0  0
   33.4610   31.1814   33.9515 H   0  0  0  0  0
   34.5341   29.7707   33.7797 H   0  0  0  0  0
   35.1423   31.4025   33.4077 H   0  0  0  0  0
   34.2817   30.0201   28.6025 H   0  0  0  0  0
   33.3304   32.7964   28.3304 H   0  0  0  0  0
   35.7168   32.2305   28.8243 H   0  0  0  0  0
   35.4550   33.3371   27.4021 H   0  0  0  0  0
   35.8441   31.4955   25.8869 H   0  0  0  0  0
   36.0408   30.3668   27.2716 H   0  0  0  0  0
   37.9529   30.1854   27.8921 H   0  0  0  0  0
   32.5317   30.1136   26.6813 H   0  0  0  0  0
   31.9594   31.5052   24.1200 H   0  0  0  0  0
   30.5977   29.0828   24.1721 H   0  0  0  0  0
   32.0943   28.7578   25.1308 H   0  0  0  0  0
   32.6813   28.2116   22.9393 H   0  0  0  0  0
   33.3101   29.8985   23.1666 H   0  0  0  0  0
   32.1427   28.1989   20.9976 H   0  0  0  0  0
   29.9474   32.0640   23.4100 H   0  0  0  0  0
   27.9839   32.6401   25.5675 H   0  0  0  0  0
   27.0819   34.2658   23.8323 H   0  0  0  0  0
   28.3413   34.9654   25.8475 H   0  0  0  0  0
   29.8834   34.6644   25.0094 H   0  0  0  0  0
   28.8185   35.9847   24.4676 H   0  0  0  0  0
   29.7647   33.8387   22.5194 H   0  0  0  0  0
   28.1557   33.5261   21.8234 H   0  0  0  0  0
   28.6556   35.1940   22.1966 H   0  0  0  0  0
   25.7344   32.1939   25.3704 H   0  0  0  0  0
   25.5435   29.6250   23.9567 H   0  0  0  0  0
   23.8360   28.8849   23.0352 H   0  0  0  0  0
   23.2020   30.4574   25.5137 H   0  0  0  0  0
   24.7939   30.4257   26.4240 H   0  0  0  0  0
   22.2665   28.7293   25.7200 H   0  0  0  0  0
  1  2  1  0  0  0
  2  3  1  0  0  0
  2  5  1  0  0  0
  3  4  2  0  0  0
  3  7  1  0  0  0
  5  6  1  0  0  0
  7  8  1  0  0  0
  8  9  1  0  0  0
  9 10  2  0  0  0
  9 11  1  0  0  0
 11 12  1  0  0  0
 11 17  1  0  0  0
 12 13  1  0  0  0
 12 15  1  0  0  0
 13 14  2  0  0  0
 13 18  1  0  0  0
 15 16  1  0  0  0
 16 17  1  0  0  0
 18 19  1  0  0  0
 19 20  1  0  0  0
 19 22  1  0  0  0
 20 21  2  0  0  0
 20 25  1  0  0  0
 22 23  1  0  0  0
 22 24  1  0  0  0
 25 26  1  0  0  0
 26 27  1  0  0  0
 26 29  1  0  0  0
 27 28  2  0  0  0
 27 33  1  0  0  0
 29 30  1  0  0  0
 29 31  1  0  0  0
 30 32  1  0  0  0
 33 34  1  0  0  0
 34 35  1  0  0  0
 34 37  1  0  0  0
 35 36  2  0  0  0
 35 42  1  0  0  0
 37 38  1  0  0  0
 38 39  1  0  0  0
 39 40  1  0  0  0
 39 41  2  0  0  0
 42 43  1  0  0  0
 43 44  1  0  0  0
 43 46  1  0  0  0
 44 45  2  0  0  0
 44 51  1  0  0  0
 46 47  1  0  0  0
 47 48  1  0  0  0
 48 49  1  0  0  0
 48 50  2  0  0  0
 51 52  1  0  0  0
 52 53  1  0  0  0
 52 55  1  0  0  0
 53 54  2  0  0  0
 53 58  1  0  0  0
 55 56  1  0  0  0
 55 57  1  0  0  0
 58 59  1  0  0  0
 59 60  1  0  0  0
 59 62  1  0  0  0
 60 61  1  0  0  0
 60 66  2  0  0  0
 62 63  1  0  0  0
 63 64  2  0  0  0
 63 65  1  0  0  0
  1 67  1  0  0  0
  1 68  1  0  0  0
  1 69  1  0  0  0
  2 70  1  0  0  0
  5 71  1  0  0  0
  5 72  1  0  0  0
  6 73  1  0  0  0
  7 74  1  0  0  0
  8 75  1  0  0  0
  8 76  1  0  0  0
 12 77  1  0  0  0
 15 78  1  0  0  0
 15 79  1  0  0  0
 16 80  1  0  0  0
 16 81  1  0  0  0
 17 82  1  0  0  0
 17 83  1  0  0  0
 18 84  1  0  0  0
 19 85  1  0  0  0
 22 86  1  0  0  0
 23 87  1  0  0  0
 24 88  1  0  0  0
 24 89  1  0  0  0
 24 90  1  0  0  0
 25 91  1  0  0  0
 26 92  1  0  0  0
 29 93  1  0  0  0
 30 94  1  0  0  0
 30 95  1  0  0  0
 31 96  1  0  0  0
 31 97  1  0  0  0
 31 98  1  0  0  0
 32 99  1  0  0  0
 32100  1  0  0  0
 32101  1  0  0  0
 33102  1  0  0  0
 34103  1  0  0  0
 37104  1  0  0  0
 37105  1  0  0  0
 38106  1  0  0  0
 38107  1  0  0  0
 40108  1  0  0  0
 42109  1  0  0  0
 43110  1  0  0  0
 46111  1  0  0  0
 46112  1  0  0  0
 47113  1  0  0  0
 47114  1  0  0  0
 49115  1  0  0  0
 51116  1  0  0  0
 52117  1  0  0  0
 55118  1  0  0  0
 56119  1  0  0  0
 56120  1  0  0  0
 56121  1  0  0  0
 57122  1  0  0  0
 57123  1  0  0  0
 57124  1  0  0  0
 58125  1  0  0  0
 59126  1  0  0  0
 61127  1  0  0  0
 62128  1  0  0  0
 62129  1  0  0  0
 65130  1  0  0  0
M  END
$$$$
