### 
### Created by X-TOOL on Mon Sep 10 21:13:07 2018
### 

@<TRIPOS>MOLECULE
3b1t_ligand
   42    42     1     0     0
SMALL
GAST_HUCK


@<TRIPOS>ATOM
      1 C1        -26.2840   20.0440  -21.7230 C.2       1 YCL         0.0666
      2 O1        -25.5490   20.8160  -21.0650 O.co2     1 YCL        -0.5594
      3 O2        -27.3160   19.5380  -21.2270 O.co2     1 YCL        -0.5594
      4 NAA       -21.7900   15.6230  -22.9010 N.am      1 YCL        -0.2990
      5 NAC       -23.4980    9.3500  -19.1690 N.2       1 YCL        -0.3925
      6 OAE       -21.4740   15.1510  -20.7480 O.2       1 YCL        -0.3947
      7 OAF       -23.6300   18.4700  -21.5370 O.2       1 YCL        -0.3834
      8 CAH       -26.1200   20.2460  -25.5110 C.ar      1 YCL        -0.0541
      9 CAI       -26.4600   20.4860  -24.1740 C.ar      1 YCL        -0.0422
     10 CAJ       -25.2010   19.2500  -25.8240 C.ar      1 YCL        -0.0537
     11 CAK       -25.8930   19.7280  -23.1440 C.ar      1 YCL         0.0296
     12 CAL       -24.6320   18.4910  -24.7960 C.ar      1 YCL        -0.0386
     13 CAM       -23.7730   12.9910  -21.6690 C.3       1 YCL        -0.0275
     14 CAN       -23.9730   12.0980  -20.4370 C.3       1 YCL         0.0351
     15 CAO       -24.5250   14.3220  -21.5910 C.3       1 YCL        -0.0105
     16 CAP       -24.3800    8.3370  -21.1750 C.3       1 YCL         0.0183
     17 NAR       -24.2280   10.7500  -20.9310 N.pl3     1 YCL        -0.2896
     18 NAS       -24.3730   16.5400  -22.4320 N.am      1 YCL        -0.2646
     19 CAU       -22.2360   15.4490  -21.6650 C.2       1 YCL         0.1991
     20 CAV       -24.0040    9.5520  -20.3780 C.2       1 YCL         0.0851
     21 CAW       -24.2870   17.8790  -22.3950 C.2       1 YCL         0.2097
     22 CAX       -24.9720   18.7150  -23.4550 C.ar      1 YCL         0.0637
     23 CAZ       -23.7290   15.6330  -21.4640 C.3       1 YCL         0.1303
     24 H         -20.7972   15.5098  -23.1056 H         1 YCL         0.1815
     25 H         -22.4396   15.8701  -23.6475 H         1 YCL         0.1815
     26 H         -23.3792    8.3997  -18.8181 H         1 YCL         0.0591
     27 H         -26.5746   20.8386  -26.3049 H         1 YCL         0.0659
     28 H         -27.1749   21.2727  -23.9330 H         1 YCL         0.0663
     29 H         -24.9264   19.0624  -26.8620 H         1 YCL         0.0649
     30 H         -23.9112   17.7113  -25.0424 H         1 YCL         0.0676
     31 H         -24.1589   12.4481  -22.5318 H         1 YCL         0.0288
     32 H         -22.7096   13.2204  -21.7368 H         1 YCL         0.0288
     33 H         -24.8071   12.4534  -19.8320 H         1 YCL         0.0533
     34 H         -23.0903   12.1161  -19.7977 H         1 YCL         0.0533
     35 H         -25.1052   14.2594  -20.6704 H         1 YCL         0.0313
     36 H         -25.0440   14.4039  -22.5460 H         1 YCL         0.0313
     37 H         -23.4969    7.7167  -21.3278 H         1 YCL         0.0525
     38 H         -25.1358    7.7683  -20.6333 H         1 YCL         0.0525
     39 H         -24.7795    8.6468  -22.1407 H         1 YCL         0.0525
     40 H         -24.6503   10.7138  -21.8588 H         1 YCL         0.1931
     41 H         -24.9222   16.1205  -23.1822 H         1 YCL         0.1877
     42 H         -23.7635   16.0470  -20.4563 H         1 YCL         0.0799
@<TRIPOS>BOND
     1    1    2 ar 
     2    1    3 ar 
     3   11    1 1  
     4   19    4 am 
     5   20    5 2  
     6   19    6 2  
     7   21    7 2  
     8    9    8 ar 
     9   10    8 ar 
    10   11    9 ar 
    11   12   10 ar 
    12   22   11 ar 
    13   22   12 ar 
    14   13   14 1  
    15   15   13 1  
    16   14   17 1  
    17   23   15 1  
    18   20   16 1  
    19   17   20 1  
    20   21   18 am 
    21   18   23 1  
    22   23   19 1  
    23   21   22 1  
    24    4   24 1  
    25    4   25 1  
    26    5   26 1  
    27    8   27 1  
    28    9   28 1  
    29   10   29 1  
    30   12   30 1  
    31   13   31 1  
    32   13   32 1  
    33   14   33 1  
    34   14   34 1  
    35   15   35 1  
    36   15   36 1  
    37   16   37 1  
    38   16   38 1  
    39   16   39 1  
    40   17   40 1  
    41   18   41 1  
    42   23   42 1  
@<TRIPOS>SUBSTRUCTURE
     1 YCL         1

