3b1t_ligand
  -I-interpret- 

 43 43  0  0  0  0  0  0  0  0999 V2000
  -26.2840   20.0440  -21.7230 C   0  0  0  0  0
  -25.5490   20.8160  -21.0650 O   0  0  0  0  0
  -27.3160   19.5380  -21.2270 O   0  0  0  0  0
  -21.7900   15.6230  -22.9010 N   0  0  0  0  0
  -23.4980    9.3500  -19.1690 N   0  0  0  0  0
  -21.4740   15.1510  -20.7480 O   0  0  0  0  0
  -23.6300   18.4700  -21.5370 O   0  0  0  0  0
  -26.1200   20.2460  -25.5110 C   0  0  0  0  0
  -26.4600   20.4860  -24.1740 C   0  0  0  0  0
  -25.2010   19.2500  -25.8240 C   0  0  0  0  0
  -25.8930   19.7280  -23.1440 C   0  0  0  0  0
  -24.6320   18.4910  -24.7960 C   0  0  0  0  0
  -23.7730   12.9910  -21.6690 C   0  0  0  0  0
  -23.9730   12.0980  -20.4370 C   0  0  0  0  0
  -24.5250   14.3220  -21.5910 C   0  0  0  0  0
  -24.3800    8.3370  -21.1750 C   0  0  0  0  0
  -24.2280   10.7500  -20.9310 N   0  0  0  0  0
  -24.3730   16.5400  -22.4320 N   0  0  0  0  0
  -22.2360   15.4490  -21.6650 C   0  0  0  0  0
  -24.0040    9.5520  -20.3780 C   0  0  0  0  0
  -24.2870   17.8790  -22.3950 C   0  0  0  0  0
  -24.9720   18.7150  -23.4550 C   0  0  0  0  0
  -23.7290   15.6330  -21.4640 C   0  0  0  0  0
  -24.8125   21.0985  -21.6121 H   0  0  0  0  0
  -20.7972   15.5098  -23.1056 H   0  0  0  0  0
  -22.4396   15.8701  -23.6475 H   0  0  0  0  0
  -23.3792    8.3997  -18.8181 H   0  0  0  0  0
  -26.5746   20.8386  -26.3049 H   0  0  0  0  0
  -27.1749   21.2727  -23.9330 H   0  0  0  0  0
  -24.9264   19.0624  -26.8620 H   0  0  0  0  0
  -23.9112   17.7113  -25.0424 H   0  0  0  0  0
  -24.1589   12.4481  -22.5318 H   0  0  0  0  0
  -22.7096   13.2204  -21.7368 H   0  0  0  0  0
  -24.8071   12.4534  -19.8320 H   0  0  0  0  0
  -23.0903   12.1161  -19.7977 H   0  0  0  0  0
  -25.1052   14.2594  -20.6704 H   0  0  0  0  0
  -25.0440   14.4039  -22.5460 H   0  0  0  0  0
  -23.4969    7.7167  -21.3278 H   0  0  0  0  0
  -25.1358    7.7683  -20.6333 H   0  0  0  0  0
  -24.7795    8.6468  -22.1407 H   0  0  0  0  0
  -24.6503   10.7138  -21.8588 H   0  0  0  0  0
  -24.9222   16.1205  -23.1822 H   0  0  0  0  0
  -23.7635   16.0470  -20.4563 H   0  0  0  0  0
  1  2  1  0  0  0
  1  3  2  0  0  0
 11  1  1  0  0  0
 19  4  1  0  0  0
 20  5  2  0  0  0
 19  6  2  0  0  0
 21  7  2  0  0  0
  9  8  4  0  0  0
 10  8  4  0  0  0
 11  9  4  0  0  0
 12 10  4  0  0  0
 22 11  4  0  0  0
 22 12  4  0  0  0
 13 14  1  0  0  0
 15 13  1  0  0  0
 14 17  1  0  0  0
 23 15  1  0  0  0
 20 16  1  0  0  0
 17 20  1  0  0  0
 21 18  1  0  0  0
 18 23  1  0  0  0
 23 19  1  0  0  0
 21 22  1  0  0  0
  2 24  1  0  0  0
  4 25  1  0  0  0
  4 26  1  0  0  0
  5 27  1  0  0  0
  8 28  1  0  0  0
  9 29  1  0  0  0
 10 30  1  0  0  0
 12 31  1  0  0  0
 13 32  1  0  0  0
 13 33  1  0  0  0
 14 34  1  0  0  0
 14 35  1  0  0  0
 15 36  1  0  0  0
 15 37  1  0  0  0
 16 38  1  0  0  0
 16 39  1  0  0  0
 16 40  1  0  0  0
 17 41  1  0  0  0
 18 42  1  0  0  0
 23 43  1  0  0  0
M  END
$$$$
