2o4n_ligand
  -I-interpret- 

 75 78  0  0  0  0  0  0  0  0999 V2000
   13.4390   22.0880   17.3250 O   0  0  0  0  0
   12.2400   21.3430   17.4820 C   0  0  0  0  0
   12.2880   19.9940   18.0750 C   0  0  0  0  0
   13.5220   19.4490   18.2960 C   0  0  0  0  0
   14.8020   20.1640   17.9180 C   0  0  0  0  0
   14.6990   21.7010   17.8940 C   0  0  0  0  0
   11.2280   21.9170   17.1000 O   0  0  0  0  0
   13.6870   18.2290   18.7820 O   0  0  0  0  0
   14.8250   22.2280   19.3320 C   0  0  0  0  0
   14.4450   23.7110   19.5160 C   0  0  0  0  0
   14.5990   24.0380   21.0030 C   0  0  0  0  0
   15.7950   22.3330   17.0180 C   0  0  0  0  0
   15.6390   22.0370   15.5170 C   0  0  0  0  0
   16.7670   22.7170   14.7500 C   0  0  0  0  0
   16.4990   23.8410   13.9580 C   0  0  0  0  0
   17.5210   24.4830   13.2410 C   0  0  0  0  0
   18.8210   23.9890   13.3560 C   0  0  0  0  0
   19.1220   22.8720   14.1570 C   0  0  0  0  0
   18.0800   22.2340   14.8530 C   0  0  0  0  0
   10.9530   19.2680   18.2700 C   0  0  0  0  0
   10.8480   18.4350   19.5670 C   0  0  0  0  0
   10.9560   19.2550   20.8480 C   0  0  0  0  0
   10.6340   18.4070   17.0850 C   0  0  0  0  0
   11.6200   17.9050   16.2240 C   0  0  0  0  0
   11.2600   17.1140   15.1180 C   0  0  0  0  0
    9.9160   16.7880   14.9010 C   0  0  0  0  0
    8.9110   17.2650   15.7460 C   0  0  0  0  0
    7.5750   16.9820   15.5310 N   0  0  0  0  0
    9.2900   18.0730   16.8220 C   0  0  0  0  0
    6.8810   15.6480   16.1240 S   0  0  0  0  0
    7.6780   14.5190   15.6970 O   0  0  0  0  0
    5.5130   15.5280   15.7180 O   0  0  0  0  0
    6.9500   15.8740   17.7350 C   0  0  0  0  0
    8.0500   15.4610   18.4170 N   0  0  0  0  0
    8.1990   15.7020   19.7520 C   0  0  0  0  0
    7.2030   16.3550   20.4990 C   0  0  0  0  0
    6.0520   16.7900   19.8200 C   0  0  0  0  0
    5.9140   16.5380   18.4360 C   0  0  0  0  0
    7.3830   16.6610   21.9620 C   0  0  0  0  0
    7.9860   15.7200   22.6680 F   0  0  0  0  0
    6.2520   17.0630   22.4930 F   0  0  0  0  0
    8.1600   17.7280   22.0300 F   0  0  0  0  0
   15.0549   19.8475   16.9061 H   0  0  0  0  0
   15.5435   19.9078   18.6748 H   0  0  0  0  0
   14.6252   18.0410   18.8600 H   0  0  0  0  0
   15.8744   22.1343   19.6114 H   0  0  0  0  0
   14.1336   21.6472   19.9425 H   0  0  0  0  0
   13.4204   23.8876   19.1888 H   0  0  0  0  0
   15.0913   24.3498   18.9141 H   0  0  0  0  0
   13.9366   23.3973   21.5851 H   0  0  0  0  0
   15.6317   23.8662   21.3064 H   0  0  0  0  0
   14.3380   25.0826   21.1729 H   0  0  0  0  0
   16.7482   21.9098   17.3350 H   0  0  0  0  0
   15.7287   23.4136   17.1444 H   0  0  0  0  0
   14.6790   22.4173   15.1678 H   0  0  0  0  0
   15.6817   20.9606   15.3508 H   0  0  0  0  0
   15.4801   24.2234   13.8975 H   0  0  0  0  0
   17.3046   25.3454   12.6105 H   0  0  0  0  0
   19.6255   24.4820   12.8103 H   0  0  0  0  0
   20.1461   22.5073   14.2367 H   0  0  0  0  0
   18.2927   21.3632   15.4732 H   0  0  0  0  0
   10.2165   20.0656   18.3676 H   0  0  0  0  0
   11.6802   17.7311   19.5650 H   0  0  0  0  0
    9.8645   17.9651   19.5683 H   0  0  0  0  0
   11.9194   19.7643   20.8717 H   0  0  0  0  0
   10.1533   19.9919   20.8749 H   0  0  0  0  0
   10.8722   18.5929   21.7098 H   0  0  0  0  0
   12.6700   18.1286   16.4125 H   0  0  0  0  0
   12.0264   16.7554   14.4309 H   0  0  0  0  0
    9.6490   16.1508   14.0579 H   0  0  0  0  0
    7.0119   17.6327   14.9833 H   0  0  0  0  0
    8.5154   18.4602   17.4840 H   0  0  0  0  0
    9.1129   15.3802   20.2514 H   0  0  0  0  0
    5.2674   17.3206   20.3595 H   0  0  0  0  0
    5.0131   16.8537   17.9100 H   0  0  0  0  0
  1  2  1  0  0  0
  1  6  1  0  0  0
  2  3  1  0  0  0
  2  7  2  0  0  0
  3  4  2  0  0  0
  3 20  1  0  0  0
  4  5  1  0  0  0
  4  8  1  0  0  0
  5  6  1  0  0  0
  6  9  1  0  0  0
  6 12  1  0  0  0
  9 10  1  0  0  0
 10 11  1  0  0  0
 12 13  1  0  0  0
 13 14  1  0  0  0
 14 15  4  0  0  0
 14 19  4  0  0  0
 15 16  4  0  0  0
 16 17  4  0  0  0
 17 18  4  0  0  0
 18 19  4  0  0  0
 20 21  1  0  0  0
 20 23  1  0  0  0
 21 22  1  0  0  0
 23 24  4  0  0  0
 23 29  4  0  0  0
 24 25  4  0  0  0
 25 26  4  0  0  0
 26 27  4  0  0  0
 27 28  1  0  0  0
 27 29  4  0  0  0
 28 30  1  0  0  0
 30 31  2  0  0  0
 30 32  2  0  0  0
 30 33  1  0  0  0
 33 34  4  0  0  0
 33 38  4  0  0  0
 34 35  4  0  0  0
 35 36  4  0  0  0
 36 37  4  0  0  0
 36 39  1  0  0  0
 37 38  4  0  0  0
 39 40  1  0  0  0
 39 41  1  0  0  0
 39 42  1  0  0  0
  5 43  1  0  0  0
  5 44  1  0  0  0
  8 45  1  0  0  0
  9 46  1  0  0  0
  9 47  1  0  0  0
 10 48  1  0  0  0
 10 49  1  0  0  0
 11 50  1  0  0  0
 11 51  1  0  0  0
 11 52  1  0  0  0
 12 53  1  0  0  0
 12 54  1  0  0  0
 13 55  1  0  0  0
 13 56  1  0  0  0
 15 57  1  0  0  0
 16 58  1  0  0  0
 17 59  1  0  0  0
 18 60  1  0  0  0
 19 61  1  0  0  0
 20 62  1  0  0  0
 21 63  1  0  0  0
 21 64  1  0  0  0
 22 65  1  0  0  0
 22 66  1  0  0  0
 22 67  1  0  0  0
 24 68  1  0  0  0
 25 69  1  0  0  0
 26 70  1  0  0  0
 28 71  1  0  0  0
 29 72  1  0  0  0
 35 73  1  0  0  0
 37 74  1  0  0  0
 38 75  1  0  0  0
M  END
$$$$
