5wxg_ligand
  -I-interpret- 

118117  0  0  0  0  0  0  0  0999 V2000
   22.5760   11.4780   -7.6860 N   0  3  0  0  0
   21.2400   11.4970   -7.1030 C   0  0  0  0  0
   20.1860   11.4420   -8.1910 C   0  0  0  0  0
   20.4550   11.7670   -9.3460 O   0  0  0  0  0
   21.0510   12.7360   -6.2470 C   0  0  0  0  0
   18.9850   11.0290   -7.8050 N   0  0  0  0  0
   17.8360   10.9710   -8.7000 C   0  0  0  0  0
   16.9990   12.2260   -8.4960 C   0  0  0  0  0
   16.4290   12.4340   -7.4160 O   0  0  0  0  0
   17.0210    9.7110   -8.4390 C   0  0  0  0  0
   17.7830    8.4530   -8.7950 C   0  0  0  0  0
   17.0210    7.2070   -8.3910 C   0  0  0  0  0
   16.7100    7.2250   -6.9690 N   0  0  0  0  0
   15.4830    7.1500   -6.4700 C   0  0  0  0  0
   14.4310    7.0260   -7.2740 N   0  0  0  0  0
   15.3090    7.1850   -5.1570 N   0  0  0  0  0
   16.9350   13.0590   -9.5290 N   0  0  0  0  0
   16.2020   14.3130   -9.4610 C   0  0  0  0  0
   15.2050   14.4090  -10.6050 C   0  0  0  0  0
   15.3690   13.7800  -11.6640 O   0  0  0  0  0
   17.1470   15.5390   -9.4820 C   0  0  0  0  0
   17.8600   15.6050  -10.7300 O   0  0  0  0  0
   18.1600   15.4310   -8.3550 C   0  0  0  0  0
    9.1590    8.3020   -9.1460 O   0  0  0  0  0
   10.0720    8.7960   -9.8450 C   0  0  0  0  0
   11.2400    7.9430  -10.2690 C   0  0  0  0  0
   10.0400   10.1320  -10.2360 N   0  0  0  0  0
   11.0210   10.8270  -11.0250 C   0  0  0  0  0
   10.8220   12.3470  -10.9620 C   0  0  0  0  0
   12.1140   13.0820  -11.2780 C   0  0  0  0  0
   11.8550   14.5740  -11.1940 C   0  0  0  0  0
   13.1350   15.4040  -11.3740 C   0  0  0  0  0
   14.1640   15.1970  -10.3760 N   0  0  0  0  0
   12.7550   16.8760  -11.3650 C   0  0  0  0  0
   12.9130   17.6080  -10.3940 O   0  0  0  0  0
   12.2600   17.3250  -12.5220 N   0  0  0  0  0
   11.7280   18.6740  -12.6980 C   0  0  0  0  0
   12.7760   19.7670  -12.5240 C   0  0  0  0  0
   12.4960   20.8520  -12.0090 O   0  0  0  0  0
   10.5440   18.8890  -11.7510 C   0  0  0  0  0
    9.4170   17.9560  -12.1330 C   0  0  0  0  0
    8.1710   18.0420  -11.2650 C   0  0  0  0  0
    8.1660   18.6230  -10.1690 O   0  0  0  0  0
    7.1110   17.4420  -11.7530 N   0  0  0  0  0
   13.9860   19.4810  -12.9850 N   0  0  0  0  0
   15.0580   20.4570  -12.9060 C   0  0  0  0  0
   14.9720   21.4400  -14.0720 C   0  0  0  0  0
   14.3710   21.1600  -15.1110 O   0  0  0  0  0
   16.4090   19.7520  -12.8990 C   0  0  0  0  0
   16.5130   18.9250  -14.0520 O   0  0  0  0  0
   16.5220   18.8650  -11.6750 C   0  0  0  0  0
   15.5740   22.6100  -13.8810 N   0  0  0  0  0
   15.6260   23.6320  -14.9230 C   0  0  0  0  0
   16.3900   23.1380  -16.1470 C   0  0  0  0  0
   16.1170   23.5600  -17.2730 O   0  0  0  0  0
   16.2640   24.9030  -14.3860 C   0  0  0  0  0
   17.2940   22.3080  -16.0330 O   0  0  0  0  0
   22.6846   10.6398   -8.2569 H   0  0  0  0  0
   22.7036   12.3060   -8.2679 H   0  0  0  0  0
   23.2713   11.4750   -6.9397 H   0  0  0  0  0
   21.1293   10.6178   -6.4683 H   0  0  0  0  0
   21.1379   13.6247   -6.8721 H   0  0  0  0  0
   20.0639   12.7100   -5.7854 H   0  0  0  0  0
   21.8159   12.7600   -5.4708 H   0  0  0  0  0
   18.8602   10.7382   -6.8353 H   0  0  0  0  0
   18.1705   10.9293   -9.7366 H   0  0  0  0  0
   16.1256    9.7519   -9.0592 H   0  0  0  0  0
   16.7843    9.6745   -7.3756 H   0  0  0  0  0
   18.7338    8.4635   -8.2621 H   0  0  0  0  0
   17.9292    8.4326   -9.8750 H   0  0  0  0  0
   17.6390    6.3345   -8.6032 H   0  0  0  0  0
   16.0878    7.1697   -8.9530 H   0  0  0  0  0
   17.4871    7.3003   -6.3126 H   0  0  0  0  0
   13.4928    6.9581   -6.8795 H   0  0  0  0  0
   14.5623    6.9988   -8.2851 H   0  0  0  0  0
   16.1152    7.2691   -4.5378 H   0  0  0  0  0
   17.4140   12.8117  -10.3949 H   0  0  0  0  0
   15.6661   14.3215   -8.5118 H   0  0  0  0  0
   16.5408   16.4365   -9.3590 H   0  0  0  0  0
   18.4402   16.3698  -10.7257 H   0  0  0  0  0
   17.6364   15.3964   -7.3996 H   0  0  0  0  0
   18.7473   14.5216   -8.4820 H   0  0  0  0  0
   18.8205   16.2978   -8.3776 H   0  0  0  0  0
   11.7561    7.5702   -9.3843 H   0  0  0  0  0
   10.8783    7.1025  -10.8613 H   0  0  0  0  0
   11.9273    8.5415  -10.8669 H   0  0  0  0  0
    9.2337   10.6765   -9.9297 H   0  0  0  0  0
   10.9173   10.5086  -12.0623 H   0  0  0  0  0
   12.0096   10.5923  -10.6305 H   0  0  0  0  0
   10.5056   12.6157   -9.9541 H   0  0  0  0  0
   10.0703   12.6310  -11.6985 H   0  0  0  0  0
   12.4543   12.8203  -12.2799 H   0  0  0  0  0
   12.8865   12.7986  -10.5631 H   0  0  0  0  0
   11.4502   14.7900  -10.2053 H   0  0  0  0  0
   11.1654   14.8413  -11.9946 H   0  0  0  0  0
   13.5682   15.0728  -12.3178 H   0  0  0  0  0
   14.0857   15.6690   -9.4752 H   0  0  0  0  0
   12.2533   16.6937  -13.3231 H   0  0  0  0  0
   11.3906   18.7540  -13.7314 H   0  0  0  0  0
   10.2021   19.9213  -11.8254 H   0  0  0  0  0
   10.8555   18.6823  -10.7271 H   0  0  0  0  0
    9.8026   16.9426  -12.0219 H   0  0  0  0  0
    9.1119   18.2353  -13.1415 H   0  0  0  0  0
    6.2375   17.4414  -11.2262 H   0  0  0  0  0
    7.1605   16.9762  -12.6591 H   0  0  0  0  0
   14.1654   18.5663  -13.3992 H   0  0  0  0  0
   14.9531   21.0181  -11.9774 H   0  0  0  0  0
   17.1982   20.5038  -12.8910 H   0  0  0  0  0
   17.3636   18.4799  -14.0495 H   0  0  0  0  0
   16.4294   19.4747  -10.7762 H   0  0  0  0  0
   15.7270   18.1196  -11.6934 H   0  0  0  0  0
   17.4906   18.3651  -11.6783 H   0  0  0  0  0
   16.0126   22.7995  -12.9798 H   0  0  0  0  0
   14.6024   23.8490  -15.2285 H   0  0  0  0  0
   15.3995   24.1947  -17.2104 H   0  0  0  0  0
   15.6752   25.2779  -13.5488 H   0  0  0  0  0
   17.2778   24.6852  -14.0501 H   0  0  0  0  0
   16.2948   25.6541  -15.1753 H   0  0  0  0  0
  2  1  1  0  0  0
  3  2  1  0  0  0
  2  5  1  0  0  0
  3  4  2  0  0  0
  6  3  1  0  0  0
  7  6  1  0  0  0
  8  7  1  0  0  0
  7 10  1  0  0  0
  8  9  2  0  0  0
 17  8  1  0  0  0
 10 11  1  0  0  0
 11 12  1  0  0  0
 12 13  1  0  0  0
 13 14  1  0  0  0
 14 15  1  0  0  0
 14 16  2  0  0  0
 18 17  1  0  0  0
 19 18  1  0  0  0
 18 21  1  0  0  0
 19 20  2  0  0  0
 33 19  1  0  0  0
 21 22  1  0  0  0
 21 23  1  0  0  0
 25 24  2  0  0  0
 25 26  1  0  0  0
 27 25  1  0  0  0
 28 27  1  0  0  0
 29 28  1  0  0  0
 30 29  1  0  0  0
 31 30  1  0  0  0
 32 31  1  0  0  0
 32 33  1  0  0  0
 32 34  1  0  0  0
 34 35  2  0  0  0
 34 36  1  0  0  0
 36 37  1  0  0  0
 37 38  1  0  0  0
 37 40  1  0  0  0
 38 39  2  0  0  0
 38 45  1  0  0  0
 40 41  1  0  0  0
 41 42  1  0  0  0
 42 43  2  0  0  0
 42 44  1  0  0  0
 45 46  1  0  0  0
 46 47  1  0  0  0
 46 49  1  0  0  0
 47 48  2  0  0  0
 47 52  1  0  0  0
 49 50  1  0  0  0
 49 51  1  0  0  0
 52 53  1  0  0  0
 53 54  1  0  0  0
 53 56  1  0  0  0
 54 55  1  0  0  0
 54 57  2  0  0  0
  1 58  1  0  0  0
  1 59  1  0  0  0
  1 60  1  0  0  0
  2 61  1  0  0  0
  5 62  1  0  0  0
  5 63  1  0  0  0
  5 64  1  0  0  0
  6 65  1  0  0  0
  7 66  1  0  0  0
 10 67  1  0  0  0
 10 68  1  0  0  0
 11 69  1  0  0  0
 11 70  1  0  0  0
 12 71  1  0  0  0
 12 72  1  0  0  0
 13 73  1  0  0  0
 15 74  1  0  0  0
 15 75  1  0  0  0
 16 76  1  0  0  0
 17 77  1  0  0  0
 18 78  1  0  0  0
 21 79  1  0  0  0
 22 80  1  0  0  0
 23 81  1  0  0  0
 23 82  1  0  0  0
 23 83  1  0  0  0
 26 84  1  0  0  0
 26 85  1  0  0  0
 26 86  1  0  0  0
 27 87  1  0  0  0
 28 88  1  0  0  0
 28 89  1  0  0  0
 29 90  1  0  0  0
 29 91  1  0  0  0
 30 92  1  0  0  0
 30 93  1  0  0  0
 31 94  1  0  0  0
 31 95  1  0  0  0
 32 96  1  0  0  0
 33 97  1  0  0  0
 36 98  1  0  0  0
 37 99  1  0  0  0
 40100  1  0  0  0
 40101  1  0  0  0
 41102  1  0  0  0
 41103  1  0  0  0
 44104  1  0  0  0
 44105  1  0  0  0
 45106  1  0  0  0
 46107  1  0  0  0
 49108  1  0  0  0
 50109  1  0  0  0
 51110  1  0  0  0
 51111  1  0  0  0
 51112  1  0  0  0
 52113  1  0  0  0
 53114  1  0  0  0
 55115  1  0  0  0
 56116  1  0  0  0
 56117  1  0  0  0
 56118  1  0  0  0
M  END
$$$$
