### 
### Created by X-TOOL on Mon Sep 10 21:13:31 2018
### 

@<TRIPOS>MOLECULE
5wxg_ligand
  118   117     1     0     0
SMALL
GAST_HUCK


@<TRIPOS>ATOM
      1 N          22.5760   11.4780   -7.6860 N.4       1 ALA         0.2377
      2 CA         21.2400   11.4970   -7.1030 C.3       1 ALA         0.0621
      3 C          20.1860   11.4420   -8.1910 C.2       1 ALA         0.2264
      4 O          20.4550   11.7670   -9.3460 O.2       1 ALA        -0.3907
      5 CB         21.0510   12.7360   -6.2470 C.3       1 ALA        -0.0040
      6 N          18.9850   11.0290   -7.8050 N.am      1 ARG        -0.2610
      7 CA         17.8360   10.9710   -8.7000 C.3       1 ARG         0.1312
      8 C          16.9990   12.2260   -8.4960 C.2       1 ARG         0.2040
      9 O          16.4290   12.4340   -7.4160 O.2       1 ARG        -0.3944
     10 CB         17.0210    9.7110   -8.4390 C.3       1 ARG        -0.0092
     11 CG         17.7830    8.4530   -8.7950 C.3       1 ARG        -0.0156
     12 CD         17.0210    7.2070   -8.3910 C.3       1 ARG         0.0627
     13 NE         16.7100    7.2250   -6.9690 N.pl3     1 ARG        -0.2723
     14 CZ         15.4830    7.1500   -6.4700 C.cat     1 ARG         0.2882
     15 NH1        14.4310    7.0260   -7.2740 N.pl3     1 ARG        -0.2849
     16 NH2        15.3090    7.1850   -5.1570 N.pl3     1 ARG        -0.2849
     17 N          16.9350   13.0590   -9.5290 N.am      1 THR        -0.2613
     18 CA         16.2020   14.3130   -9.4610 C.3       1 THR         0.1565
     19 C          15.2050   14.4090  -10.6050 C.2       1 THR         0.2065
     20 O          15.3690   13.7800  -11.6640 O.2       1 THR        -0.3943
     21 CB         17.1470   15.5390   -9.4820 C.3       1 THR         0.0924
     22 OG1        17.8600   15.6050  -10.7300 O.3       1 THR        -0.3874
     23 CG2        18.1600   15.4310   -8.3550 C.3       1 THR        -0.0346
     24 OH          9.1590    8.3020   -9.1460 O.2       1 ALY        -0.3974
     25 CH         10.0720    8.7960   -9.8450 C.2       1 ALY         0.1729
     26 CH3        11.2400    7.9430  -10.2690 C.3       1 ALY         0.0256
     27 NZ         10.0400   10.1320  -10.2360 N.am      1 ALY        -0.2872
     28 CE         11.0210   10.8270  -11.0250 C.3       1 ALY         0.0309
     29 CD         10.8220   12.3470  -10.9620 C.3       1 ALY        -0.0325
     30 CG         12.1140   13.0820  -11.2780 C.3       1 ALY        -0.0470
     31 CB         11.8550   14.5740  -11.1940 C.3       1 ALY        -0.0123
     32 CA         13.1350   15.4040  -11.3740 C.3       1 ALY         0.1310
     33 N          14.1640   15.1970  -10.3760 N.am      1 ALY        -0.2637
     34 C          12.7550   16.8760  -11.3650 C.2       1 ALY         0.2039
     35 O          12.9130   17.6080  -10.3940 O.2       1 ALY        -0.3944
     36 N          12.2600   17.3250  -12.5220 N.am      1 GLN        -0.2636
     37 CA         11.7280   18.6740  -12.6980 C.3       1 GLN         0.1330
     38 C          12.7760   19.7670  -12.5240 C.2       1 GLN         0.2041
     39 O          12.4960   20.8520  -12.0090 O.2       1 GLN        -0.3944
     40 CB         10.5440   18.8890  -11.7510 C.3       1 GLN         0.0045
     41 CG          9.4170   17.9560  -12.1330 C.3       1 GLN         0.0412
     42 CD          8.1710   18.0420  -11.2650 C.2       1 GLN         0.1737
     43 OE1         8.1660   18.6230  -10.1690 O.2       1 GLN        -0.3973
     44 NE2         7.1110   17.4420  -11.7530 N.am      1 GLN        -0.3009
     45 N          13.9860   19.4810  -12.9850 N.am      1 THR        -0.2613
     46 CA         15.0580   20.4570  -12.9060 C.3       1 THR         0.1564
     47 C          14.9720   21.4400  -14.0720 C.2       1 THR         0.2059
     48 O          14.3710   21.1600  -15.1110 O.2       1 THR        -0.3943
     49 CB         16.4090   19.7520  -12.8990 C.3       1 THR         0.0924
     50 OG1        16.5130   18.9250  -14.0520 O.3       1 THR        -0.3874
     51 CG2        16.5220   18.8650  -11.6750 C.3       1 THR        -0.0346
     52 N          15.5740   22.6100  -13.8810 N.am      1 ALA        -0.2697
     53 CA         15.6260   23.6320  -14.9230 C.3       1 ALA         0.0916
     54 C          16.3900   23.1380  -16.1470 C.2       1 ALA         0.0598
     55 O          16.1170   23.5600  -17.2730 O.co2     1 ALA        -0.5666
     56 CB         16.2640   24.9030  -14.3860 C.3       1 ALA        -0.0300
     57 OXT        17.2940   22.3080  -16.0330 O.co2     1 ALA        -0.5666
     58 H1         23.2641   11.5151   -6.9504 H         1 ALA         0.2015
     59 H2         22.6893   12.2751   -8.2925 H         1 ALA         0.2015
     60 H3         22.6984   10.6307   -8.2182 H         1 ALA         0.2015
     61 H4         21.1268   10.6100   -6.4624 H         1 ALA         0.1095
     62 H5         20.0389   12.7331   -5.8162 H         1 ALA         0.0310
     63 H6         21.1825   13.6343   -6.8680 H         1 ALA         0.0310
     64 H7         21.7945   12.7386   -5.4364 H         1 ALA         0.0310
     65 H8         18.8626   10.7439   -6.8543 H         1 ARG         0.1884
     66 H9         18.1923   10.9465   -9.7404 H         1 ARG         0.0800
     67 H10        16.1027    9.7517   -9.0431 H         1 ARG         0.0313
     68 H11        16.7566    9.6749   -7.3719 H         1 ARG         0.0313
     69 H12        18.7522    8.4632   -8.2748 H         1 ARG         0.0301
     70 H13        17.9504    8.4324   -9.8820 H         1 ARG         0.0301
     71 H14        17.6346    6.3217   -8.6140 H         1 ARG         0.0689
     72 H15        16.0833    7.1570   -8.9638 H         1 ARG         0.0689
     73 H16        17.4947    7.3010   -6.3062 H         1 ARG         0.2642
     74 H17        13.4827    6.9686   -6.8761 H         1 ARG         0.2615
     75 H18        14.5645    6.9873   -8.2946 H         1 ARG         0.2615
     76 H19        16.1221    7.2810   -4.5321 H         1 ARG         0.2615
     77 H20        14.3606    7.1162   -4.7612 H         1 ARG         0.2615
     78 H21        17.4046   12.8166  -10.3780 H         1 THR         0.1884
     79 H22        15.6443   14.3286   -8.5130 H         1 THR         0.0826
     80 H23        16.5511   16.4546   -9.3534 H         1 THR         0.0639
     81 H24        18.3762   14.8151  -10.8407 H         1 THR         0.2101
     82 H25        18.8273   16.3052   -8.3768 H         1 THR         0.0257
     83 H26        18.7535   14.5136   -8.4820 H         1 THR         0.0257
     84 H27        17.6328   15.3961   -7.3902 H         1 THR         0.0257
     85 H28        11.9344    8.5460  -10.8726 H         1 ALY         0.0467
     86 H29        10.8764    7.0944  -10.8670 H         1 ALY         0.0467
     87 H30        11.7618    7.5662   -9.3770 H         1 ALY         0.0467
     88 H31         9.2495   10.6658   -9.9357 H         1 ALY         0.1850
     89 H32        10.9354   10.4988  -12.0714 H         1 ALY         0.0520
     90 H33        12.0237   10.5822  -10.6448 H         1 ALY         0.0520
     91 H34        10.4893   12.6241   -9.9508 H         1 ALY         0.0285
     92 H35        10.0544   12.6394  -11.6936 H         1 ALY         0.0285
     93 H36        12.4504   12.8209  -12.2922 H         1 ALY         0.0268
     94 H37        12.8889   12.7989  -10.5504 H         1 ALY         0.0268
     95 H38        11.4223   14.8021  -10.2087 H         1 ALY         0.0312
     96 H39        11.1400   14.8529  -11.9820 H         1 ALY         0.0312
     97 H40        13.5638   15.1476  -12.3540 H         1 ALY         0.0800
     98 H41        14.0873   15.6597   -9.4928 H         1 ALY         0.1883
     99 H42        12.2534   16.7060  -13.3074 H         1 GLN         0.1883
    100 H43        11.3524   18.7472  -13.7293 H         1 GLN         0.0801
    101 H44        10.1989   19.9307  -11.8261 H         1 GLN         0.0337
    102 H45        10.8583   18.6804  -10.7177 H         1 GLN         0.0337
    103 H46         9.7973   16.9253  -12.0781 H         1 GLN         0.0504
    104 H47         9.1246   18.1843  -13.1685 H         1 GLN         0.0504
    105 H48         6.2511   17.4527  -11.2427 H         1 GLN         0.1814
    106 H49         7.1631   16.9741  -12.6352 H         1 GLN         0.1814
    107 H50        14.1619   18.5842  -13.3911 H         1 THR         0.1884
    108 H51        14.9516   21.0195  -11.9667 H         1 THR         0.0826
    109 H52        17.2165   20.4990  -12.8964 H         1 THR         0.0639
    110 H53        17.3547   18.4845  -14.0495 H         1 THR         0.2101
    111 H54        17.4992   18.3600  -11.6772 H         1 THR         0.0257
    112 H55        15.7202   18.1122  -11.6924 H         1 THR         0.0257
    113 H56        16.4287   19.4792  -10.7672 H         1 THR         0.0257
    114 H57        16.0040   22.7957  -12.9975 H         1 ALA         0.1875
    115 H58        14.5952   23.8628  -15.2300 H         1 ALA         0.0723
    116 H59        16.2957   25.6618  -15.1818 H         1 ALA         0.0270
    117 H60        17.2873   24.6846  -14.0467 H         1 ALA         0.0270
    118 H61        15.6707   25.2824  -13.5410 H         1 ALA         0.0270
@<TRIPOS>BOND
     1    2    1 1  
     2    3    2 1  
     3    2    5 1  
     4    3    4 2  
     5    6    3 am 
     6    7    6 1  
     7    8    7 1  
     8    7   10 1  
     9    8    9 2  
    10   17    8 am 
    11   10   11 1  
    12   11   12 1  
    13   12   13 1  
    14   13   14 ar 
    15   14   15 ar 
    16   14   16 ar 
    17   18   17 1  
    18   19   18 1  
    19   18   21 1  
    20   19   20 2  
    21   33   19 am 
    22   21   22 1  
    23   21   23 1  
    24   25   24 2  
    25   25   26 1  
    26   27   25 am 
    27   28   27 1  
    28   29   28 1  
    29   30   29 1  
    30   31   30 1  
    31   32   31 1  
    32   32   33 1  
    33   32   34 1  
    34   34   35 2  
    35   34   36 am 
    36   36   37 1  
    37   37   38 1  
    38   37   40 1  
    39   38   39 2  
    40   38   45 am 
    41   40   41 1  
    42   41   42 1  
    43   42   43 2  
    44   42   44 am 
    45   45   46 1  
    46   46   47 1  
    47   46   49 1  
    48   47   48 2  
    49   47   52 am 
    50   49   50 1  
    51   49   51 1  
    52   52   53 1  
    53   53   54 1  
    54   53   56 1  
    55   54   55 ar 
    56   54   57 ar 
    57    1   58 1  
    58    1   59 1  
    59    1   60 1  
    60    2   61 1  
    61    5   62 1  
    62    5   63 1  
    63    5   64 1  
    64    6   65 1  
    65    7   66 1  
    66   10   67 1  
    67   10   68 1  
    68   11   69 1  
    69   11   70 1  
    70   12   71 1  
    71   12   72 1  
    72   13   73 1  
    73   15   74 1  
    74   15   75 1  
    75   16   76 1  
    76   16   77 1  
    77   17   78 1  
    78   18   79 1  
    79   21   80 1  
    80   22   81 1  
    81   23   82 1  
    82   23   83 1  
    83   23   84 1  
    84   26   85 1  
    85   26   86 1  
    86   26   87 1  
    87   27   88 1  
    88   28   89 1  
    89   28   90 1  
    90   29   91 1  
    91   29   92 1  
    92   30   93 1  
    93   30   94 1  
    94   31   95 1  
    95   31   96 1  
    96   32   97 1  
    97   33   98 1  
    98   36   99 1  
    99   37  100 1  
   100   40  101 1  
   101   40  102 1  
   102   41  103 1  
   103   41  104 1  
   104   44  105 1  
   105   44  106 1  
   106   45  107 1  
   107   46  108 1  
   108   49  109 1  
   109   50  110 1  
   110   51  111 1  
   111   51  112 1  
   112   51  113 1  
   113   52  114 1  
   114   53  115 1  
   115   56  116 1  
   116   56  117 1  
   117   56  118 1  
@<TRIPOS>SUBSTRUCTURE
     1 ALA         1

