1k6c_ligand
  -I-interpret- 

 94 98  0  0  0  0  0  0  0  0999 V2000
    3.2570   -5.4410   16.1630 N   0  3  0  0  0
    4.6680   -5.2080   15.6870 C   0  0  0  0  0
    5.4710   -4.0700   16.3040 C   0  0  0  0  0
    6.8220   -4.0520   15.6490 C   0  0  0  0  0
    6.9300   -3.5390   14.5320 O   0  0  0  0  0
    7.8690   -4.6000   16.3290 N   0  0  0  0  0
    9.2810   -4.7300   15.9960 C   0  0  0  0  0
    9.9750   -5.4710   17.1500 C   0  0  0  0  0
    9.9180   -3.4980   15.8420 C   0  0  0  0  0
    9.5520   -5.5330   14.7940 C   0  0  0  0  0
    4.5920   -2.8780   15.9820 N   0  3  0  0  0
    3.1280   -2.9740   16.3070 C   0  0  0  0  0
    2.5030   -4.2940   15.8350 C   0  0  0  0  0
    5.0790   -1.5860   16.4960 C   0  0  0  0  0
    5.1070   -0.4850   15.4430 C   0  0  0  0  0
    5.1220    0.5580   16.3690 O   0  0  0  0  0
    6.3240   -0.2320   14.5380 C   0  0  0  0  0
    6.2700    0.8700   13.4720 C   0  0  0  0  0
    7.6060    0.9590   12.6720 C   0  0  0  0  0
    7.6000    1.9920   11.5890 C   0  0  0  0  0
    7.4220    3.3780   11.8960 C   0  0  0  0  0
    7.4040    4.3340   10.8500 C   0  0  0  0  0
    7.5650    3.8960    9.4960 C   0  0  0  0  0
    7.7440    2.5130    9.1910 C   0  0  0  0  0
    7.7600    1.5670   10.2430 C   0  0  0  0  0
    5.0920    0.6470   12.4780 C   0  0  0  0  0
    4.7680   -0.4980   12.0830 O   0  0  0  0  0
    4.5110    1.7690   12.0600 N   0  0  0  0  0
    3.4330    1.8060   11.0760 C   0  0  0  0  0
    3.3590    3.1720   10.3930 C   0  0  0  0  0
    3.7700    4.2120   11.2840 O   0  0  0  0  0
    1.9360    3.3040    9.9120 C   0  0  0  0  0
    0.9990    2.5900   10.8420 C   0  0  0  0  0
   -0.3540    2.6130   11.1430 C   0  0  0  0  0
   -0.8350    1.7260   12.1380 C   0  0  0  0  0
    0.0480    0.8370   12.8270 C   0  0  0  0  0
    1.4230    0.7970   12.5400 C   0  0  0  0  0
    1.9880    1.6230   11.5920 C   0  0  0  0  0
    2.6450   -6.6790   15.6730 C   0  0  0  0  0
    3.2420   -8.0430   16.0480 C   0  0  0  0  0
    3.2830   -8.5380   17.3800 C   0  0  0  0  0
    3.8350   -9.8040   17.7710 N   0  0  0  0  0
    4.3530  -10.5370   16.6670 C   0  0  0  0  0
    4.3410  -10.1010   15.3220 C   0  0  0  0  0
    3.7770   -8.8330   15.0110 C   0  0  0  0  0
    3.2750   -5.5812   17.1732 H   0  0  0  0  0
    4.5715   -4.9471   14.6331 H   0  0  0  0  0
    5.2103   -6.1147   15.9552 H   0  0  0  0  0
    5.6812   -4.1221   17.3723 H   0  0  0  0  0
    7.6174   -4.9904   17.2371 H   0  0  0  0  0
    9.5583   -6.4743   17.2386 H   0  0  0  0  0
   11.0439   -5.5367   16.9472 H   0  0  0  0  0
    9.8132   -4.9256   18.0798 H   0  0  0  0  0
   10.9903   -3.6566   15.7276 H   0  0  0  0  0
    9.5271   -2.9965   14.9567 H   0  0  0  0  0
    9.7324   -2.8820   16.7218 H   0  0  0  0  0
    9.1644   -5.0144   13.9171 H   0  0  0  0  0
   10.6276   -5.6745   14.6881 H   0  0  0  0  0
    9.0642   -6.5031   14.8891 H   0  0  0  0  0
    4.6753   -2.9127   14.9660 H   0  0  0  0  0
    2.6168   -2.1591   15.7945 H   0  0  0  0  0
    3.0211   -2.9212   17.3905 H   0  0  0  0  0
    1.5386   -4.3897   16.3338 H   0  0  0  0  0
    2.4412   -4.2499   14.7476 H   0  0  0  0  0
    6.1020   -1.7353   16.8414 H   0  0  0  0  0
    4.3963   -1.2685   17.2841 H   0  0  0  0  0
    4.3390   -0.6709   14.6922 H   0  0  0  0  0
    5.1413    1.3974   15.9036 H   0  0  0  0  0
    6.4386   -1.1554   13.9703 H   0  0  0  0  0
    7.1105    0.0878   15.2215 H   0  0  0  0  0
    6.1122    1.8081   14.0041 H   0  0  0  0  0
    7.7620   -0.0085   12.1948 H   0  0  0  0  0
    8.3880    1.2364   13.3788 H   0  0  0  0  0
    7.3006    3.6976   12.9310 H   0  0  0  0  0
    7.2690    5.3922   11.0738 H   0  0  0  0  0
    7.5507    4.6278    8.6883 H   0  0  0  0  0
    7.8672    2.1889    8.1576 H   0  0  0  0  0
    7.8955    0.5087   10.0199 H   0  0  0  0  0
    4.8374    2.6535   12.4493 H   0  0  0  0  0
    3.7091    0.9619   10.4441 H   0  0  0  0  0
    4.0426    3.2603    9.5486 H   0  0  0  0  0
    3.7151    5.0580   10.8336 H   0  0  0  0  0
    1.8551    2.8617    8.9191 H   0  0  0  0  0
    1.6687    4.3603    9.8818 H   0  0  0  0  0
   -1.0301    3.2954   10.6279 H   0  0  0  0  0
   -1.8972    1.7213   12.3825 H   0  0  0  0  0
   -0.3551    0.1746   13.5931 H   0  0  0  0  0
    2.0586    0.0955   13.0804 H   0  0  0  0  0
    2.7578   -6.6246   14.5902 H   0  0  0  0  0
    1.6532   -6.6860   16.1251 H   0  0  0  0  0
    2.8632   -7.9081   18.1643 H   0  0  0  0  0
    4.7940  -11.5119   16.8745 H   0  0  0  0  0
    4.7583  -10.7282   14.5342 H   0  0  0  0  0
    3.7588   -8.4760   13.9813 H   0  0  0  0  0
  1 39  1  0  0  0
  1 13  1  0  0  0
  1  2  1  0  0  0
  2  3  1  0  0  0
  3 11  1  0  0  0
  3  4  1  0  0  0
  4  6  1  0  0  0
  4  5  2  0  0  0
  6  7  1  0  0  0
  7 10  1  0  0  0
  7  9  1  0  0  0
  7  8  1  0  0  0
 11 14  1  0  0  0
 11 12  1  0  0  0
 12 13  1  0  0  0
 14 15  1  0  0  0
 15 17  1  0  0  0
 15 16  1  0  0  0
 17 18  1  0  0  0
 18 26  1  0  0  0
 18 19  1  0  0  0
 19 20  1  0  0  0
 20 25  4  0  0  0
 20 21  4  0  0  0
 21 22  4  0  0  0
 22 23  4  0  0  0
 23 24  4  0  0  0
 24 25  4  0  0  0
 26 28  1  0  0  0
 26 27  2  0  0  0
 28 29  1  0  0  0
 29 38  1  0  0  0
 29 30  1  0  0  0
 30 32  1  0  0  0
 30 31  1  0  0  0
 32 33  1  0  0  0
 33 38  4  0  0  0
 33 34  4  0  0  0
 34 35  4  0  0  0
 35 36  4  0  0  0
 36 37  4  0  0  0
 37 38  4  0  0  0
 39 40  1  0  0  0
 40 45  4  0  0  0
 40 41  4  0  0  0
 41 42  4  0  0  0
 42 43  4  0  0  0
 43 44  4  0  0  0
 44 45  4  0  0  0
  1 46  1  0  0  0
  2 47  1  0  0  0
  2 48  1  0  0  0
  3 49  1  0  0  0
  6 50  1  0  0  0
  8 51  1  0  0  0
  8 52  1  0  0  0
  8 53  1  0  0  0
  9 54  1  0  0  0
  9 55  1  0  0  0
  9 56  1  0  0  0
 10 57  1  0  0  0
 10 58  1  0  0  0
 10 59  1  0  0  0
 11 60  1  0  0  0
 12 61  1  0  0  0
 12 62  1  0  0  0
 13 63  1  0  0  0
 13 64  1  0  0  0
 14 65  1  0  0  0
 14 66  1  0  0  0
 15 67  1  0  0  0
 16 68  1  0  0  0
 17 69  1  0  0  0
 17 70  1  0  0  0
 18 71  1  0  0  0
 19 72  1  0  0  0
 19 73  1  0  0  0
 21 74  1  0  0  0
 22 75  1  0  0  0
 23 76  1  0  0  0
 24 77  1  0  0  0
 25 78  1  0  0  0
 28 79  1  0  0  0
 29 80  1  0  0  0
 30 81  1  0  0  0
 31 82  1  0  0  0
 32 83  1  0  0  0
 32 84  1  0  0  0
 34 85  1  0  0  0
 35 86  1  0  0  0
 36 87  1  0  0  0
 37 88  1  0  0  0
 39 89  1  0  0  0
 39 90  1  0  0  0
 41 91  1  0  0  0
 43 92  1  0  0  0
 44 93  1  0  0  0
 45 94  1  0  0  0
M  END
$$$$
