5qae_ligand
  -I-interpret- 

 25 26  0  0  0  0  0  0  0  0999 V2000
   97.9360  255.6970    7.0880 C   0  0  0  0  0
   98.6070  255.8800    6.0430 O   0  0  0  0  0
   97.5190  254.2840    7.4140 C   0  0  0  0  0
   96.7760  251.6720    8.0060 C   0  0  0  0  0
   96.3670  252.7130    8.8220 C   0  0  0  0  0
   96.7370  254.0140    8.5300 C   0  0  0  0  0
   97.9240  253.2320    6.6000 C   0  0  0  0  0
   97.5660  251.9150    6.8830 C   0  0  0  0  0
   98.0460  250.8020    6.0280 C   0  0  0  0  0
   99.4060  250.5970    5.8100 C   0  0  0  0  0
   99.8490  249.5320    5.0450 C   0  0  0  0  0
   98.9470  248.6500    4.4780 C   0  0  0  0  0
   97.6190  248.8720    4.6950 C   0  0  0  0  0
   97.1450  249.9150    5.4460 C   0  0  0  0  0
   96.7180  248.0240    4.1320 F   0  0  0  0  0
   97.5900  256.6070    7.8810 O   0  0  0  0  0
   96.4771  250.6512    8.2441 H   0  0  0  0  0
   95.7513  252.5070    9.6976 H   0  0  0  0  0
   96.4140  254.8292    9.1774 H   0  0  0  0  0
   98.5345  253.4417    5.7217 H   0  0  0  0  0
  100.1307  251.2838    6.2473 H   0  0  0  0  0
  100.9179  249.3871    4.8880 H   0  0  0  0  0
   99.2862  247.8057    3.8778 H   0  0  0  0  0
   96.0724  250.0490    5.5865 H   0  0  0  0  0
   97.0863  256.2256    8.6038 H   0  0  0  0  0
  1  2  2  0  0  0
  3  1  1  0  0  0
  1 16  1  0  0  0
  6  3  4  0  0  0
  3  7  4  0  0  0
  5  4  4  0  0  0
  4  8  4  0  0  0
  5  6  4  0  0  0
  7  8  4  0  0  0
  8  9  1  0  0  0
  9 10  4  0  0  0
  9 14  4  0  0  0
 10 11  4  0  0  0
 11 12  4  0  0  0
 12 13  4  0  0  0
 13 14  4  0  0  0
 13 15  1  0  0  0
  4 17  1  0  0  0
  5 18  1  0  0  0
  6 19  1  0  0  0
  7 20  1  0  0  0
 10 21  1  0  0  0
 11 22  1  0  0  0
 12 23  1  0  0  0
 14 24  1  0  0  0
 16 25  1  0  0  0
M  END
$$$$
