1k6p_ligand
  -I-interpret- 

 98103  0  0  0  0  0  0  0  0999 V2000
    2.9870   -5.2210   16.4330 N   0  3  0  0  0
    4.4240   -5.1360   15.8830 C   0  0  0  0  0
    5.2740   -4.0030   16.4550 C   0  0  0  0  0
    6.5890   -4.1070   15.7800 C   0  0  0  0  0
    6.6900   -3.7170   14.5870 O   0  0  0  0  0
    7.6250   -4.6130   16.5050 N   0  0  0  0  0
    9.0440   -4.8250   16.1550 C   0  0  0  0  0
    9.7760   -5.4670   17.3640 C   0  0  0  0  0
    9.7310   -3.6180   15.9290 C   0  0  0  0  0
    9.2710   -5.7280   14.9800 C   0  0  0  0  0
    4.4080   -2.7320   16.1550 N   0  3  0  0  0
    2.9770   -2.7210   16.6230 C   0  0  0  0  0
    2.3040   -3.9920   16.0890 C   0  0  0  0  0
    5.0340   -1.4780   16.6850 C   0  0  0  0  0
    5.0310   -0.4040   15.6520 C   0  0  0  0  0
    5.0260    0.6510   16.5970 O   0  0  0  0  0
    6.2600   -0.1440   14.7950 C   0  0  0  0  0
    6.2470    0.9680   13.7360 C   0  0  0  0  0
    7.6760    1.0260   12.9870 C   0  0  0  0  0
    7.7080    2.1340   11.9120 C   0  0  0  0  0
    7.5640    3.5760   12.2690 C   0  0  0  0  0
    7.5860    4.5810   11.2230 C   0  0  0  0  0
    7.7530    4.1510    9.8110 C   0  0  0  0  0
    7.8950    2.7180    9.4740 C   0  0  0  0  0
    7.8720    1.7290   10.5180 C   0  0  0  0  0
    5.1360    0.7420   12.6270 C   0  0  0  0  0
    4.7740   -0.4090   12.1580 O   0  0  0  0  0
    4.6460    1.8950   12.2310 N   0  0  0  0  0
    3.6330    2.0750   11.2110 C   0  0  0  0  0
    3.5990    3.4990   10.6770 C   0  0  0  0  0
    3.7360    4.4530   11.7260 O   0  0  0  0  0
    2.3020    3.5780    9.9210 C   0  0  0  0  0
    1.2550    2.8450   10.7180 C   0  0  0  0  0
   -0.1400    2.8390   10.8590 C   0  0  0  0  0
   -0.7240    1.9050   11.8050 C   0  0  0  0  0
    0.1090    0.9840   12.5990 C   0  0  0  0  0
    1.5180    0.9800   12.4650 C   0  0  0  0  0
    2.1670    1.8480   11.5760 C   0  0  0  0  0
    2.2370   -6.3570   15.8620 C   0  0  0  0  0
    2.7850   -7.7490   16.1700 C   0  0  0  0  0
    2.6270   -8.3460   17.4970 C   0  0  0  0  0
    3.8240  -10.3630   16.7610 C   0  0  0  0  0
    4.0190   -9.8410   15.4420 C   0  0  0  0  0
    3.4850   -8.5080   15.1320 C   0  0  0  0  0
    4.4180  -11.6360   16.8100 O   0  0  0  0  0
    5.0500  -12.0910   15.5490 C   0  0  0  0  0
    4.7110  -10.8440   14.7730 O   0  0  0  0  0
    3.1340   -9.6740   17.8730 C   0  0  0  0  0
    3.0358   -5.3595   17.4424 H   0  0  0  0  0
    4.3386   -4.9528   14.8119 H   0  0  0  0  0
    4.9193   -6.0675   16.1569 H   0  0  0  0  0
    5.5052   -4.0022   17.5202 H   0  0  0  0  0
    7.3781   -4.8942   17.4539 H   0  0  0  0  0
    9.3635   -6.4582   17.5523 H   0  0  0  0  0
   10.8395   -5.5511   17.1403 H   0  0  0  0  0
    9.6372   -4.8409   18.2454 H   0  0  0  0  0
   10.7956   -3.8230   15.8165 H   0  0  0  0  0
    9.3517   -3.1502   15.0205 H   0  0  0  0  0
    9.5759   -2.9492   16.7756 H   0  0  0  0  0
    8.8945   -5.2482   14.0766 H   0  0  0  0  0
   10.3384   -5.9210   14.8726 H   0  0  0  0  0
    8.7446   -6.6690   15.1395 H   0  0  0  0  0
    4.3842   -2.7714   15.1360 H   0  0  0  0  0
    2.4628   -1.8343   16.2524 H   0  0  0  0  0
    2.9334   -2.6967   17.7119 H   0  0  0  0  0
    1.3121   -4.0412   16.5382 H   0  0  0  0  0
    2.3034   -3.9204   15.0014 H   0  0  0  0  0
    6.0655   -1.6924   16.9645 H   0  0  0  0  0
    4.4601   -1.1370   17.5466 H   0  0  0  0  0
    4.2668   -0.5888   14.8971 H   0  0  0  0  0
    5.0233    1.4927   16.1353 H   0  0  0  0  0
    6.3870   -1.0616   14.2206 H   0  0  0  0  0
    7.0232    0.1707   15.5068 H   0  0  0  0  0
    6.0313    1.8962   14.2652 H   0  0  0  0  0
    7.8488    0.0668   12.4990 H   0  0  0  0  0
    8.4454    1.2422   13.7282 H   0  0  0  0  0
    7.4429    3.8727   13.3108 H   0  0  0  0  0
    7.4814    5.6375   11.4699 H   0  0  0  0  0
    7.7710    4.8975    9.0170 H   0  0  0  0  0
    8.0170    2.4116    8.4351 H   0  0  0  0  0
    7.9773    0.6733   10.2682 H   0  0  0  0  0
    5.0100    2.7353   12.6802 H   0  0  0  0  0
    3.9634    1.3000   10.5194 H   0  0  0  0  0
    4.4351    3.7393   10.0203 H   0  0  0  0  0
    3.7106    5.3388   11.3568 H   0  0  0  0  0
    2.4116    3.1250    8.9357 H   0  0  0  0  0
    2.0096    4.6187    9.7814 H   0  0  0  0  0
   -0.7666    3.5145   10.2766 H   0  0  0  0  0
   -1.8065    1.8844   11.9313 H   0  0  0  0  0
   -0.3665    0.2967   13.2988 H   0  0  0  0  0
    2.1099    0.2886   13.0647 H   0  0  0  0  0
    2.2880   -6.2423   14.7793 H   0  0  0  0  0
    1.2411   -6.3172   16.3033 H   0  0  0  0  0
    2.0991   -7.7685   18.2559 H   0  0  0  0  0
    3.6093   -8.0863   14.1346 H   0  0  0  0  0
    6.1007  -12.3775   15.5949 H   0  0  0  0  0
    4.7093  -13.0408   15.1369 H   0  0  0  0  0
    3.0139  -10.1053   18.8668 H   0  0  0  0  0
  1 39  1  0  0  0
  1 13  1  0  0  0
  1  2  1  0  0  0
  2  3  1  0  0  0
  3 11  1  0  0  0
  3  4  1  0  0  0
  4  6  1  0  0  0
  4  5  2  0  0  0
  6  7  1  0  0  0
  7 10  1  0  0  0
  7  9  1  0  0  0
  7  8  1  0  0  0
 11 14  1  0  0  0
 11 12  1  0  0  0
 12 13  1  0  0  0
 14 15  1  0  0  0
 15 17  1  0  0  0
 15 16  1  0  0  0
 17 18  1  0  0  0
 18 26  1  0  0  0
 18 19  1  0  0  0
 19 20  1  0  0  0
 20 25  4  0  0  0
 20 21  4  0  0  0
 21 22  4  0  0  0
 22 23  4  0  0  0
 23 24  4  0  0  0
 24 25  4  0  0  0
 26 28  1  0  0  0
 26 27  2  0  0  0
 28 29  1  0  0  0
 29 38  1  0  0  0
 29 30  1  0  0  0
 30 32  1  0  0  0
 30 31  1  0  0  0
 32 33  1  0  0  0
 33 38  4  0  0  0
 33 34  4  0  0  0
 34 35  4  0  0  0
 35 36  4  0  0  0
 36 37  4  0  0  0
 37 38  4  0  0  0
 39 40  1  0  0  0
 40 44  4  0  0  0
 40 41  4  0  0  0
 41 48  4  0  0  0
 48 42  4  0  0  0
 42 45  1  0  0  0
 42 43  4  0  0  0
 43 47  1  0  0  0
 43 44  4  0  0  0
 47 46  1  0  0  0
 46 45  1  0  0  0
  1 49  1  0  0  0
  2 50  1  0  0  0
  2 51  1  0  0  0
  3 52  1  0  0  0
  6 53  1  0  0  0
  8 54  1  0  0  0
  8 55  1  0  0  0
  8 56  1  0  0  0
  9 57  1  0  0  0
  9 58  1  0  0  0
  9 59  1  0  0  0
 10 60  1  0  0  0
 10 61  1  0  0  0
 10 62  1  0  0  0
 11 63  1  0  0  0
 12 64  1  0  0  0
 12 65  1  0  0  0
 13 66  1  0  0  0
 13 67  1  0  0  0
 14 68  1  0  0  0
 14 69  1  0  0  0
 15 70  1  0  0  0
 16 71  1  0  0  0
 17 72  1  0  0  0
 17 73  1  0  0  0
 18 74  1  0  0  0
 19 75  1  0  0  0
 19 76  1  0  0  0
 21 77  1  0  0  0
 22 78  1  0  0  0
 23 79  1  0  0  0
 24 80  1  0  0  0
 25 81  1  0  0  0
 28 82  1  0  0  0
 29 83  1  0  0  0
 30 84  1  0  0  0
 31 85  1  0  0  0
 32 86  1  0  0  0
 32 87  1  0  0  0
 34 88  1  0  0  0
 35 89  1  0  0  0
 36 90  1  0  0  0
 37 91  1  0  0  0
 39 92  1  0  0  0
 39 93  1  0  0  0
 41 94  1  0  0  0
 44 95  1  0  0  0
 46 96  1  0  0  0
 46 97  1  0  0  0
 48 98  1  0  0  0
M  END
$$$$
