5eh8_ligand
  -I-interpret- 

 26 26  0  0  0  0  0  0  0  0999 V2000
   20.9270   10.0590   14.5660 C   0  0  0  0  0
   20.6130    9.1710   13.5200 O   0  0  0  0  0
   19.7420    8.1250   13.8860 C   0  0  0  0  0
   18.6530    8.3930   14.7040 C   0  0  0  0  0
   17.7850    7.3710   15.0590 C   0  0  0  0  0
   18.0140    6.1130   14.5540 C   0  0  0  0  0
   17.0750    5.0150   14.9610 C   0  0  0  0  0
   15.5810    5.2840   15.0290 C   0  0  0  0  0
   17.6840    3.8410   15.2450 C   0  0  0  0  0
   16.9900    2.5850   15.7180 C   0  0  0  0  0
   17.5330    1.9010   16.6290 O   0  0  0  0  0
   15.8750    2.2440   15.2620 O   0  0  0  0  0
   19.1130    5.8360   13.7500 C   0  0  0  0  0
   19.9660    6.8600   13.3950 C   0  0  0  0  0
   20.0117   10.5212   14.9356 H   0  0  0  0  0
   21.4103    9.5100   15.3742 H   0  0  0  0  0
   21.6014   10.8310   14.1954 H   0  0  0  0  0
   18.4801    9.4061   15.0672 H   0  0  0  0  0
   16.9414    7.5608   15.7226 H   0  0  0  0  0
   15.0609    4.6139   14.3445 H   0  0  0  0  0
   15.2281    5.1122   16.0459 H   0  0  0  0  0
   15.3861    6.3182   14.7453 H   0  0  0  0  0
   18.7662    3.7974   15.1223 H   0  0  0  0  0
   18.3764    2.2949   16.8638 H   0  0  0  0  0
   19.2991    4.8195   13.4033 H   0  0  0  0  0
   20.8095    6.6686   12.7317 H   0  0  0  0  0
  1  2  1  0  0  0
  2  3  1  0  0  0
  3  4  4  0  0  0
  3 14  4  0  0  0
  4  5  4  0  0  0
  5  6  4  0  0  0
  6  7  1  0  0  0
  6 13  4  0  0  0
  7  8  1  0  0  0
  7  9  2  0  0  0
  9 10  1  0  0  0
 10 11  1  0  0  0
 10 12  2  0  0  0
 13 14  4  0  0  0
  1 15  1  0  0  0
  1 16  1  0  0  0
  1 17  1  0  0  0
  4 18  1  0  0  0
  5 19  1  0  0  0
  8 20  1  0  0  0
  8 21  1  0  0  0
  8 22  1  0  0  0
  9 23  1  0  0  0
 11 24  1  0  0  0
 13 25  1  0  0  0
 14 26  1  0  0  0
M  END
$$$$
