1hn4_ligand
  -I-interpret- 

 76 75  0  0  0  0  0  0  0  0999 V2000
   17.6620   14.6390   11.8510 C   0  0  0  0  0
   16.9590   15.7970   12.2200 O   0  0  0  0  0
   18.5690   14.9360   10.6840 C   0  0  0  0  0
   17.8760   15.7120    9.6740 O   0  0  0  0  0
   19.7820   15.7060   11.1580 C   0  0  0  0  0
   20.3930   16.3550   10.0710 O   0  0  0  0  0
   21.2720   15.5020    9.3740 C   0  0  0  0  0
   22.2780   16.2960    8.5760 C   0  0  0  0  0
   17.3330   15.0270    8.3220 P   0  0  0  0  0
   16.9210   16.1210    7.3690 O   0  0  0  0  0
   18.3060   13.9770    7.8640 O   0  0  0  0  0
   14.9090   15.0020    9.3820 C   0  0  0  0  0
   16.0110   14.2710    8.8210 O   0  0  0  0  0
   16.2080   15.5770   13.3760 C   0  0  0  0  0
   15.0100   16.5060   13.3670 C   0  0  0  0  0
   15.1650   17.5470   14.4680 C   0  0  0  0  0
   14.6940   16.9670   15.7980 C   0  0  0  0  0
   15.4660   17.6210   16.9300 C   0  0  0  0  0
   15.9530   16.5510   17.8950 C   0  0  0  0  0
   17.4350   16.7440   18.1550 C   0  0  0  0  0
   17.6320   17.6610   19.3530 C   0  0  0  0  0
   17.9330   16.8190   20.5840 C   0  0  0  0  0
   19.3920   17.0010   20.9750 C   0  0  0  0  0
   19.6970   16.1470   22.2010 C   0  0  0  0  0
   20.3430   14.8360   21.7700 C   0  0  0  0  0
   21.1280   14.2540   22.9380 C   0  0  0  0  0
   21.1420   12.7340   22.8470 C   0  0  0  0  0
   21.7390   12.1570   24.1270 C   0  0  0  0  0
   22.2030   10.7240   23.8760 C   0  0  0  0  0
   23.0220   17.1620    9.3250 F   0  0  0  0  0
   21.7440   17.0130    7.5610 F   0  0  0  0  0
   23.1200   15.4470    8.0230 F   0  0  0  0  0
   18.2629   14.3002   12.6949 H   0  0  0  0  0
   16.9511   13.8641   11.5644 H   0  0  0  0  0
   18.8801   13.9874   10.2463 H   0  0  0  0  0
   20.4931   15.0137   11.6087 H   0  0  0  0  0
   19.4710   16.4498   11.8916 H   0  0  0  0  0
   20.6905   14.8854    8.6886 H   0  0  0  0  0
   21.8070   14.8856   10.0964 H   0  0  0  0  0
   16.3004   16.7082    7.8068 H   0  0  0  0  0
   15.2450   15.5395   10.2688 H   0  0  0  0  0
   14.5334   15.7124    8.6456 H   0  0  0  0  0
   14.1154   14.3069    9.6559 H   0  0  0  0  0
   16.8202   15.7734   14.2562 H   0  0  0  0  0
   15.8708   14.5409   13.4049 H   0  0  0  0  0
   14.1017   15.9285   13.5388 H   0  0  0  0  0
   14.9461   17.0064   12.4008 H   0  0  0  0  0
   14.5633   18.4224   14.2234 H   0  0  0  0  0
   16.2141   17.8310   14.5502 H   0  0  0  0  0
   14.8688   15.8912   15.8100 H   0  0  0  0  0
   13.6284   17.1589   15.9236 H   0  0  0  0  0
   14.8158   18.3183   17.4583 H   0  0  0  0  0
   16.3215   18.1600   16.5229 H   0  0  0  0  0
   15.7849   15.5654   17.4608 H   0  0  0  0  0
   15.4052   16.6311   18.8340 H   0  0  0  0  0
   17.8998   17.1926   17.2771 H   0  0  0  0  0
   17.8939   15.7771   18.3615 H   0  0  0  0  0
   16.7258   18.2431   19.5208 H   0  0  0  0  0
   18.4637   18.3391   19.1616 H   0  0  0  0  0
   17.7435   15.7687   20.3623 H   0  0  0  0  0
   17.2929   17.1357   21.4075 H   0  0  0  0  0
   19.5793   18.0497   21.2057 H   0  0  0  0  0
   20.0320   16.6931   20.1481 H   0  0  0  0  0
   18.7689   15.9339   22.7314 H   0  0  0  0  0
   20.3810   16.6875   22.8553 H   0  0  0  0  0
   21.0165   15.0190   20.9327 H   0  0  0  0  0
   19.5698   14.1318   21.4630 H   0  0  0  0  0
   20.6557   14.5538   23.8735 H   0  0  0  0  0
   22.1521   14.6256   22.9036 H   0  0  0  0  0
   21.7442   12.4254   21.9924 H   0  0  0  0  0
   20.1234   12.3668   22.7220 H   0  0  0  0  0
   20.9832   12.1604   24.9124 H   0  0  0  0  0
   22.5901   12.7643   24.4352 H   0  0  0  0  0
   21.3522   10.1168   23.5670 H   0  0  0  0  0
   22.9582   10.7204   23.0900 H   0  0  0  0  0
   22.6287   10.3155   24.7925 H   0  0  0  0  0
  3  1  1  0  0  0
  1  2  1  0  0  0
  2 14  1  0  0  0
 14 15  1  0  0  0
 15 16  1  0  0  0
 16 17  1  0  0  0
 17 18  1  0  0  0
 18 19  1  0  0  0
 19 20  1  0  0  0
 20 21  1  0  0  0
 21 22  1  0  0  0
 22 23  1  0  0  0
 23 24  1  0  0  0
 24 25  1  0  0  0
 25 26  1  0  0  0
 26 27  1  0  0  0
 27 28  1  0  0  0
 28 29  1  0  0  0
  3  5  1  0  0  0
  3  4  1  0  0  0
  4  9  1  0  0  0
  9 13  1  0  0  0
  9 11  2  0  0  0
  9 10  1  0  0  0
 13 12  1  0  0  0
  5  6  1  0  0  0
  6  7  1  0  0  0
  7  8  1  0  0  0
  8 30  1  0  0  0
  8 32  1  0  0  0
  8 31  1  0  0  0
  1 33  1  0  0  0
  1 34  1  0  0  0
  3 35  1  0  0  0
  5 36  1  0  0  0
  5 37  1  0  0  0
  7 38  1  0  0  0
  7 39  1  0  0  0
 10 40  1  0  0  0
 12 41  1  0  0  0
 12 42  1  0  0  0
 12 43  1  0  0  0
 14 44  1  0  0  0
 14 45  1  0  0  0
 15 46  1  0  0  0
 15 47  1  0  0  0
 16 48  1  0  0  0
 16 49  1  0  0  0
 17 50  1  0  0  0
 17 51  1  0  0  0
 18 52  1  0  0  0
 18 53  1  0  0  0
 19 54  1  0  0  0
 19 55  1  0  0  0
 20 56  1  0  0  0
 20 57  1  0  0  0
 21 58  1  0  0  0
 21 59  1  0  0  0
 22 60  1  0  0  0
 22 61  1  0  0  0
 23 62  1  0  0  0
 23 63  1  0  0  0
 24 64  1  0  0  0
 24 65  1  0  0  0
 25 66  1  0  0  0
 25 67  1  0  0  0
 26 68  1  0  0  0
 26 69  1  0  0  0
 27 70  1  0  0  0
 27 71  1  0  0  0
 28 72  1  0  0  0
 28 73  1  0  0  0
 29 74  1  0  0  0
 29 75  1  0  0  0
 29 76  1  0  0  0
M  END
$$$$
