### 
### Created by X-TOOL on Mon Sep 10 21:13:07 2018
### 

@<TRIPOS>MOLECULE
3r93_ligand
  166   165     1     0     0
SMALL
GAST_HUCK


@<TRIPOS>ATOM
      1 N          17.8810   30.5210   22.9140 N.4       1 LYS         0.2377
      2 CA         17.5810   29.1150   22.5260 C.3       1 LYS         0.0621
      3 C          16.0710   28.9290   22.4290 C.2       1 LYS         0.2264
      4 O          15.3060   29.5020   23.2150 O.2       1 LYS        -0.3907
      5 CB         18.1750   28.1310   23.5410 C.3       1 LYS        -0.0040
      6 N          15.6410   28.1240   21.4650 N.am      1 GLN        -0.2609
      7 CA         14.2110   27.9500   21.1920 C.3       1 GLN         0.1331
      8 C          13.7120   26.6850   21.8870 C.2       1 GLN         0.2041
      9 O          14.3090   25.6140   21.7370 O.2       1 GLN        -0.3944
     10 CB         13.9560   27.8800   19.6870 C.3       1 GLN         0.0045
     11 CG         14.7040   28.9330   18.8510 C.3       1 GLN         0.0412
     12 CD         14.0040   30.2940   18.8100 C.2       1 GLN         0.1737
     13 OE1        12.8230   30.3970   18.4790 O.2       1 GLN        -0.3973
     14 NE2        14.7500   31.3440   19.1170 N.am      1 GLN        -0.3009
     15 N          12.6210   26.8150   22.6420 N.am      1 THR        -0.2613
     16 CA         12.0880   25.7100   23.4560 C.3       1 THR         0.1565
     17 C          10.5690   25.5080   23.2820 C.2       1 THR         0.2065
     18 O           9.8520   26.4190   22.8520 O.2       1 THR        -0.3943
     19 CB         12.3670   25.9550   24.9570 C.3       1 THR         0.0924
     20 OG1        11.4920   26.9790   25.4440 O.3       1 THR        -0.3874
     21 CG2        13.8430   26.3690   25.2010 C.3       1 THR        -0.0346
     22 N          10.0890   24.3140   23.6280 N.am      1 ALA        -0.2639
     23 CA          8.6530   24.0060   23.5930 C.3       1 ALA         0.1282
     24 C           8.3390   22.6620   24.2560 C.2       1 ALA         0.2036
     25 O           9.2230   21.7920   24.3780 O.2       1 ALA        -0.3944
     26 CB          8.1340   24.0050   22.1580 C.3       1 ALA        -0.0244
     27 N           7.0780   22.5150   24.6850 N.am      1 ARG        -0.2637
     28 CA          6.5390   21.2440   25.1830 C.3       1 ARG         0.1310
     29 C           6.4650   20.2750   24.0010 C.2       1 ARG         0.2039
     30 O           5.9620   20.6570   22.9500 O.2       1 ARG        -0.3944
     31 CB          5.1090   21.4180   25.7440 C.3       1 ARG        -0.0126
     32 CG          4.9530   22.1560   27.0650 C.3       1 ARG        -0.0517
     33 CD          3.4740   22.1810   27.5280 C.3       1 ARG        -0.0651
     34 N           6.9570   19.0460   24.1800 N.am      1 M3L        -0.2637
     35 CA          6.7940   17.9800   23.2020 C.3       1 M3L         0.1310
     36 CB          8.0430   17.0990   23.2240 C.3       1 M3L        -0.0122
     37 CG          7.9620   15.9730   22.1990 C.3       1 M3L        -0.0440
     38 CD          9.3370   15.4260   21.7980 C.3       1 M3L        -0.0123
     39 CE         10.0060   14.5920   22.8800 C.3       1 M3L        -0.0309
     40 NZ         11.4310   14.2880   22.6050 N.4       1 M3L         0.2369
     41 C           5.5520   17.1640   23.4790 C.2       1 M3L         0.2040
     42 O           5.3850   16.6630   24.5820 O.2       1 M3L        -0.3944
     43 CM1        11.6400   13.6020   21.3180 C.3       1 M3L        -0.0418
     44 CM2        11.9110   13.3900   23.6550 C.3       1 M3L        -0.0418
     45 CM3        12.2500   15.5130   22.6190 C.3       1 M3L        -0.0418
     46 N           4.6720   17.0270   22.4820 N.am      1 SER        -0.2616
     47 CA          3.4690   16.1820   22.5820 C.3       1 SER         0.1539
     48 C           3.8630   14.7050   22.5000 C.2       1 SER         0.2063
     49 O           4.3820   14.2580   21.4880 O.2       1 SER        -0.3943
     50 CB          2.4930   16.4570   21.4270 C.3       1 SER         0.0843
     51 OG          1.9340   17.7560   21.4440 O.3       1 SER        -0.3903
     52 N           3.5920   13.9370   23.5420 N.am      1 THR        -0.2613
     53 CA          3.8900   12.5040   23.5100 C.3       1 THR         0.1565
     54 C           2.6300   11.6520   23.2540 C.2       1 THR         0.2063
     55 O           2.7160   10.4550   23.0150 O.2       1 THR        -0.3943
     56 CB          4.4980   12.0640   24.8310 C.3       1 THR         0.0924
     57 OG1         3.6360   12.4850   25.8880 O.3       1 THR        -0.3874
     58 CG2         5.8940   12.6620   24.9900 C.3       1 THR        -0.0346
     59 N           1.4610   12.2740   23.3240 N.am      1 GLY        -0.2663
     60 CA          0.2220   11.5620   23.0780 C.3       1 GLY         0.1201
     61 C          -0.2790   11.8460   21.6840 C.2       1 GLY         0.2005
     62 O           0.5090   12.0380   20.7440 O.2       1 GLY        -0.3947
     63 N          -1.6010   11.8900   21.5590 N.am      1 GLY        -0.2666
     64 CA         -2.2350   12.1950   20.2870 C.3       1 GLY         0.1201
     65 C          -3.2440   11.1460   19.9220 C.2       1 GLY         0.2007
     66 O          -3.5290   10.2330   20.7130 O.2       1 GLY        -0.3947
     67 N          -3.7910   11.2950   18.7290 N.am      1 LYS        -0.2640
     68 CA         -4.9370   10.5210   18.2950 C.3       1 LYS         0.1309
     69 C          -4.5630    9.0360   18.3180 C.2       1 LYS         0.2033
     70 O          -3.4320    8.6630   17.9560 O.2       1 LYS        -0.3944
     71 CB         -5.3940   10.9810   16.8950 C.3       1 LYS        -0.0126
     72 CG         -6.9180   11.1020   16.7470 C.3       1 LYS        -0.0517
     73 CD         -7.3520   11.2580   15.2820 C.3       1 LYS        -0.0651
     74 N          -5.5230    8.2090   18.7320 N.am      1 ALA        -0.2698
     75 CA         -5.3010    6.7990   19.0550 C.3       1 ALA         0.0916
     76 C          -5.7610    5.8580   17.9430 C.2       1 ALA         0.0598
     77 O          -5.3400    5.9950   16.7900 O.co2     1 ALA        -0.5666
     78 CB         -6.0140    6.4500   20.3710 C.3       1 ALA        -0.0300
     79 H          17.4768   31.1560   22.2257 H         1 LYS         0.2015
     80 H          17.4793   30.7122   23.8319 H         1 LYS         0.2015
     81 H          18.8916   30.6544   22.9493 H         1 LYS         0.2015
     82 H          18.0346   28.9112   21.5561 H         1 LYS         0.1095
     83 H          17.7306   28.3087   24.5203 H         1 LYS         0.0310
     84 H          17.9615   27.1104   23.2235 H         1 LYS         0.0310
     85 H          19.2537   28.2770   23.5982 H         1 LYS         0.0310
     86 H          16.3213   27.6146   20.9010 H         1 GLN         0.1885
     87 H          13.6639   28.8081   21.5823 H         1 GLN         0.0801
     88 H          12.8911   28.0597   19.5396 H         1 GLN         0.0337
     89 H          14.3091   26.9043   19.3531 H         1 GLN         0.0337
     90 H          14.7555   28.5612   17.8277 H         1 GLN         0.0504
     91 H          15.6808   29.0818   19.3113 H         1 GLN         0.0504
     92 H          14.3494   32.2814   19.0840 H         1 GLN         0.1814
     93 H          15.7253   31.2154   19.3865 H         1 GLN         0.1814
     94 H          12.1377   27.7131   22.6563 H         1 THR         0.1884
     95 H          12.5981   24.8132   23.1044 H         1 THR         0.0826
     96 H          12.1864   25.0232   25.4930 H         1 THR         0.0639
     97 H          10.5804   26.7010   25.3285 H         1 THR         0.2101
     98 H          14.5040   25.5759   24.8515 H         1 THR         0.0257
     99 H          14.0562   27.2882   24.6553 H         1 THR         0.0257
    100 H          14.0017   26.5327   26.2669 H         1 THR         0.0257
    101 H          10.7410   23.5890   23.9274 H         1 ALA         0.1883
    102 H           8.1472   24.7884   24.1588 H         1 ALA         0.0797
    103 H           8.2942   24.9877   21.7144 H         1 ALA         0.0277
    104 H           8.6697   23.2522   21.5798 H         1 ALA         0.0277
    105 H           7.0687   23.7745   22.1585 H         1 ALA         0.0277
    106 H           6.4617   23.3275   24.6644 H         1 ARG         0.1883
    107 H           7.1845   20.8762   25.9806 H         1 ARG         0.0800
    108 H           4.7433   20.4080   25.9290 H         1 ARG         0.0312
    109 H           4.5783   22.0219   25.0079 H         1 ARG         0.0312
    110 H           5.2905   23.1835   26.9293 H         1 ARG         0.0265
    111 H           5.5438   21.6397   27.8217 H         1 ARG         0.0265
    112 H           2.8676   22.6854   26.7757 H         1 ARG         0.0230
    113 H           3.1180   21.1590   27.6580 H         1 ARG         0.0230
    114 H           3.4000   22.7161   28.4747 H         1 ARG         0.0230
    115 H           7.4691   18.8458   25.0391 H         1 M3L         0.1883
    116 H           6.6716   18.4175   22.2112 H         1 M3L         0.0800
    117 H           8.1300   16.6537   24.2151 H         1 M3L         0.0312
    118 H           8.9046   17.7210   22.9813 H         1 M3L         0.0312
    119 H           7.4904   16.3744   21.3020 H         1 M3L         0.0269
    120 H           7.3981   15.1555   22.6483 H         1 M3L         0.0269
    121 H           9.9826   16.2821   21.6020 H         1 M3L         0.0317
    122 H           9.1896   14.7786   20.9335 H         1 M3L         0.0317
    123 H           9.4750   13.6416   22.9330 H         1 M3L         0.0815
    124 H           9.9689   15.1683   23.8045 H         1 M3L         0.0815
    125 H          11.0953   12.6578   21.3183 H         1 M3L         0.0778
    126 H          11.2750   14.2332   20.5078 H         1 M3L         0.0778
    127 H          12.7038   13.4092   21.1791 H         1 M3L         0.0778
    128 H          11.8095   13.8789   24.6239 H         1 M3L         0.0778
    129 H          11.3209   12.4736   23.6454 H         1 M3L         0.0778
    130 H          12.9591   13.1506   23.4754 H         1 M3L         0.0778
    131 H          11.8868   16.2001   21.8547 H         1 M3L         0.0778
    132 H          12.1776   15.9858   23.5985 H         1 M3L         0.0778
    133 H          13.2893   15.2561   22.4141 H         1 M3L         0.0778
    134 H           4.8412   17.5309   21.6115 H         1 SER         0.1884
    135 H           2.9907   16.4136   23.5337 H         1 SER         0.0823
    136 H           1.6697   15.7492   21.5236 H         1 SER         0.0606
    137 H           3.0549   16.3587   20.4982 H         1 SER         0.0606
    138 H           2.6372   18.4066   21.3827 H         1 SER         0.2097
    139 H           3.1714   14.3470   24.3759 H         1 THR         0.1884
    140 H           4.5912   12.3493   22.6900 H         1 THR         0.0826
    141 H           4.5979   10.9789   24.8586 H         1 THR         0.0639
    142 H           3.5504   13.4409   25.8681 H         1 THR         0.2101
    143 H           6.5289   12.3218   24.1719 H         1 THR         0.0257
    144 H           5.8263   13.7497   24.9709 H         1 THR         0.0257
    145 H           6.3198   12.3398   25.9402 H         1 THR         0.0257
    146 H           1.4329   13.2673   23.5541 H         1 GLY         0.1881
    147 H          -0.5264   11.8919   23.7985 H         1 GLY         0.0763
    148 H           0.4011   10.4917   23.1799 H         1 GLY         0.0763
    149 H          -2.1848   11.7054   22.3748 H         1 GLY         0.1881
    150 H          -1.4680   12.2259   19.5132 H         1 GLY         0.0763
    151 H          -2.7445   13.1548   20.3722 H         1 GLY         0.0763
    152 H          -3.3916   11.9811   18.0886 H         1 LYS         0.1883
    153 H          -5.7782   10.6775   18.9703 H         1 LYS         0.0800
    154 H          -5.0574   10.2296   16.1807 H         1 LYS         0.0312
    155 H          -4.9720   11.9715   16.7252 H         1 LYS         0.0312
    156 H          -7.2408   11.9896   17.2912 H         1 LYS         0.0265
    157 H          -7.3687   10.1896   17.1375 H         1 LYS         0.0265
    158 H          -6.8996   12.1574   14.8642 H         1 LYS         0.0230
    159 H          -7.0255   10.3875   14.7130 H         1 LYS         0.0230
    160 H          -8.4378   11.3394   15.2328 H         1 LYS         0.0230
    161 H          -6.4678    8.5808   18.8294 H         1 ALA         0.1875
    162 H          -4.2256    6.6578   19.1633 H         1 ALA         0.0723
    163 O          -6.5770    4.9342   18.2044 O.co2     1 ALA        -0.5666
    164 H          -5.6174    7.0718   21.1736 H         1 ALA         0.0270
    165 H          -7.0832    6.6324   20.2629 H         1 ALA         0.0270
    166 H          -5.8453    5.3992   20.6065 H         1 ALA         0.0270
@<TRIPOS>BOND
     1    1    2 1  
     2    2    3 1  
     3    2    5 1  
     4    3    4 2  
     5    3    6 am 
     6    6    7 1  
     7    7    8 1  
     8    7   10 1  
     9    8    9 2  
    10    8   15 am 
    11   10   11 1  
    12   11   12 1  
    13   12   13 2  
    14   12   14 am 
    15   15   16 1  
    16   16   17 1  
    17   16   19 1  
    18   17   18 2  
    19   17   22 am 
    20   19   20 1  
    21   19   21 1  
    22   22   23 1  
    23   23   24 1  
    24   23   26 1  
    25   24   25 2  
    26   24   27 am 
    27   27   28 1  
    28   28   29 1  
    29   28   31 1  
    30   29   30 2  
    31   29   34 am 
    32   31   32 1  
    33   32   33 1  
    34   34   35 1  
    35   35   36 1  
    36   35   41 1  
    37   36   37 1  
    38   37   38 1  
    39   38   39 1  
    40   39   40 1  
    41   40   43 1  
    42   40   44 1  
    43   40   45 1  
    44   41   42 2  
    45   41   46 am 
    46   46   47 1  
    47   47   48 1  
    48   47   50 1  
    49   48   49 2  
    50   48   52 am 
    51   50   51 1  
    52   52   53 1  
    53   53   54 1  
    54   53   56 1  
    55   54   55 2  
    56   54   59 am 
    57   56   57 1  
    58   56   58 1  
    59   59   60 1  
    60   60   61 1  
    61   61   62 2  
    62   61   63 am 
    63   63   64 1  
    64   64   65 1  
    65   65   66 2  
    66   65   67 am 
    67   67   68 1  
    68   68   69 1  
    69   68   71 1  
    70   69   70 2  
    71   69   74 am 
    72   71   72 1  
    73   72   73 1  
    74   74   75 1  
    75   75   76 1  
    76   75   78 1  
    77   76   77 ar 
    78    1   79 1  
    79    1   80 1  
    80    1   81 1  
    81    2   82 1  
    82    5   83 1  
    83    5   84 1  
    84    5   85 1  
    85    6   86 1  
    86    7   87 1  
    87   10   88 1  
    88   10   89 1  
    89   11   90 1  
    90   11   91 1  
    91   14   92 1  
    92   14   93 1  
    93   15   94 1  
    94   16   95 1  
    95   19   96 1  
    96   20   97 1  
    97   21   98 1  
    98   21   99 1  
    99   21  100 1  
   100   22  101 1  
   101   23  102 1  
   102   26  103 1  
   103   26  104 1  
   104   26  105 1  
   105   27  106 1  
   106   28  107 1  
   107   31  108 1  
   108   31  109 1  
   109   32  110 1  
   110   32  111 1  
   111   33  112 1  
   112   33  113 1  
   113   33  114 1  
   114   34  115 1  
   115   35  116 1  
   116   36  117 1  
   117   36  118 1  
   118   37  119 1  
   119   37  120 1  
   120   38  121 1  
   121   38  122 1  
   122   39  123 1  
   123   39  124 1  
   124   43  125 1  
   125   43  126 1  
   126   43  127 1  
   127   44  128 1  
   128   44  129 1  
   129   44  130 1  
   130   45  131 1  
   131   45  132 1  
   132   45  133 1  
   133   46  134 1  
   134   47  135 1  
   135   50  136 1  
   136   50  137 1  
   137   51  138 1  
   138   52  139 1  
   139   53  140 1  
   140   56  141 1  
   141   57  142 1  
   142   58  143 1  
   143   58  144 1  
   144   58  145 1  
   145   59  146 1  
   146   60  147 1  
   147   60  148 1  
   148   63  149 1  
   149   64  150 1  
   150   64  151 1  
   151   67  152 1  
   152   68  153 1  
   153   71  154 1  
   154   71  155 1  
   155   72  156 1  
   156   72  157 1  
   157   73  158 1  
   158   73  159 1  
   159   73  160 1  
   160   74  161 1  
   161   75  162 1  
   162   76  163 ar 
   163   78  164 1  
   164   78  165 1  
   165   78  166 1  
@<TRIPOS>SUBSTRUCTURE
     1 LYS         1

