3r93_ligand
  -I-interpret- 

167166  0  0  0  0  0  0  0  0999 V2000
   17.8810   30.5210   22.9140 N   0  3  0  0  0
   17.5810   29.1150   22.5260 C   0  0  0  0  0
   16.0710   28.9290   22.4290 C   0  0  0  0  0
   15.3060   29.5020   23.2150 O   0  0  0  0  0
   18.1750   28.1310   23.5410 C   0  0  0  0  0
   15.6410   28.1240   21.4650 N   0  0  0  0  0
   14.2110   27.9500   21.1920 C   0  0  0  0  0
   13.7120   26.6850   21.8870 C   0  0  0  0  0
   14.3090   25.6140   21.7370 O   0  0  0  0  0
   13.9560   27.8800   19.6870 C   0  0  0  0  0
   14.7040   28.9330   18.8510 C   0  0  0  0  0
   14.0040   30.2940   18.8100 C   0  0  0  0  0
   12.8230   30.3970   18.4790 O   0  0  0  0  0
   14.7500   31.3440   19.1170 N   0  0  0  0  0
   12.6210   26.8150   22.6420 N   0  0  0  0  0
   12.0880   25.7100   23.4560 C   0  0  0  0  0
   10.5690   25.5080   23.2820 C   0  0  0  0  0
    9.8520   26.4190   22.8520 O   0  0  0  0  0
   12.3670   25.9550   24.9570 C   0  0  0  0  0
   11.4920   26.9790   25.4440 O   0  0  0  0  0
   13.8430   26.3690   25.2010 C   0  0  0  0  0
   10.0890   24.3140   23.6280 N   0  0  0  0  0
    8.6530   24.0060   23.5930 C   0  0  0  0  0
    8.3390   22.6620   24.2560 C   0  0  0  0  0
    9.2230   21.7920   24.3780 O   0  0  0  0  0
    8.1340   24.0050   22.1580 C   0  0  0  0  0
    7.0780   22.5150   24.6850 N   0  0  0  0  0
    6.5390   21.2440   25.1830 C   0  0  0  0  0
    6.4650   20.2750   24.0010 C   0  0  0  0  0
    5.9620   20.6570   22.9500 O   0  0  0  0  0
    5.1090   21.4180   25.7440 C   0  0  0  0  0
    4.9530   22.1560   27.0650 C   0  0  0  0  0
    3.4740   22.1810   27.5280 C   0  0  0  0  0
    6.9570   19.0460   24.1800 N   0  0  0  0  0
    6.7940   17.9800   23.2020 C   0  0  0  0  0
    8.0430   17.0990   23.2240 C   0  0  0  0  0
    7.9620   15.9730   22.1990 C   0  0  0  0  0
    9.3370   15.4260   21.7980 C   0  0  0  0  0
   10.0060   14.5920   22.8800 C   0  0  0  0  0
   11.4310   14.2880   22.6050 N   0  3  0  0  0
    5.5520   17.1640   23.4790 C   0  0  0  0  0
    5.3850   16.6630   24.5820 O   0  0  0  0  0
   11.6400   13.6020   21.3180 C   0  0  0  0  0
   11.9110   13.3900   23.6550 C   0  0  0  0  0
   12.2500   15.5130   22.6190 C   0  0  0  0  0
    4.6720   17.0270   22.4820 N   0  0  0  0  0
    3.4690   16.1820   22.5820 C   0  0  0  0  0
    3.8630   14.7050   22.5000 C   0  0  0  0  0
    4.3820   14.2580   21.4880 O   0  0  0  0  0
    2.4930   16.4570   21.4270 C   0  0  0  0  0
    1.9340   17.7560   21.4440 O   0  0  0  0  0
    3.5920   13.9370   23.5420 N   0  0  0  0  0
    3.8900   12.5040   23.5100 C   0  0  0  0  0
    2.6300   11.6520   23.2540 C   0  0  0  0  0
    2.7160   10.4550   23.0150 O   0  0  0  0  0
    4.4980   12.0640   24.8310 C   0  0  0  0  0
    3.6360   12.4850   25.8880 O   0  0  0  0  0
    5.8940   12.6620   24.9900 C   0  0  0  0  0
    1.4610   12.2740   23.3240 N   0  0  0  0  0
    0.2220   11.5620   23.0780 C   0  0  0  0  0
   -0.2790   11.8460   21.6840 C   0  0  0  0  0
    0.5090   12.0380   20.7440 O   0  0  0  0  0
   -1.6010   11.8900   21.5590 N   0  0  0  0  0
   -2.2350   12.1950   20.2870 C   0  0  0  0  0
   -3.2440   11.1460   19.9220 C   0  0  0  0  0
   -3.5290   10.2330   20.7130 O   0  0  0  0  0
   -3.7910   11.2950   18.7290 N   0  0  0  0  0
   -4.9370   10.5210   18.2950 C   0  0  0  0  0
   -4.5630    9.0360   18.3180 C   0  0  0  0  0
   -3.4320    8.6630   17.9560 O   0  0  0  0  0
   -5.3940   10.9810   16.8950 C   0  0  0  0  0
   -6.9180   11.1020   16.7470 C   0  0  0  0  0
   -7.3520   11.2580   15.2820 C   0  0  0  0  0
   -5.5230    8.2090   18.7320 N   0  0  0  0  0
   -5.3010    6.7990   19.0550 C   0  0  0  0  0
   -5.7610    5.8580   17.9430 C   0  0  0  0  0
   -5.3400    5.9950   16.7900 O   0  0  0  0  0
   -6.0140    6.4500   20.3710 C   0  0  0  0  0
   -6.5770    4.9342   18.2044 O   0  0  0  0  0
   17.4768   31.1560   22.2257 H   0  0  0  0  0
   17.4793   30.7122   23.8319 H   0  0  0  0  0
   18.8916   30.6544   22.9493 H   0  0  0  0  0
   18.0346   28.9112   21.5561 H   0  0  0  0  0
   17.7306   28.3087   24.5203 H   0  0  0  0  0
   17.9615   27.1104   23.2235 H   0  0  0  0  0
   19.2537   28.2770   23.5982 H   0  0  0  0  0
   16.3213   27.6146   20.9010 H   0  0  0  0  0
   13.6639   28.8081   21.5823 H   0  0  0  0  0
   12.8911   28.0597   19.5396 H   0  0  0  0  0
   14.3091   26.9043   19.3531 H   0  0  0  0  0
   14.7555   28.5612   17.8277 H   0  0  0  0  0
   15.6808   29.0818   19.3113 H   0  0  0  0  0
   14.3494   32.2814   19.0840 H   0  0  0  0  0
   15.7253   31.2154   19.3865 H   0  0  0  0  0
   12.1377   27.7131   22.6563 H   0  0  0  0  0
   12.5981   24.8132   23.1044 H   0  0  0  0  0
   12.1864   25.0232   25.4930 H   0  0  0  0  0
   11.6659   27.1304   26.3759 H   0  0  0  0  0
   14.5040   25.5759   24.8515 H   0  0  0  0  0
   14.0562   27.2882   24.6553 H   0  0  0  0  0
   14.0017   26.5327   26.2669 H   0  0  0  0  0
   10.7410   23.5890   23.9274 H   0  0  0  0  0
    8.1472   24.7884   24.1588 H   0  0  0  0  0
    8.2942   24.9877   21.7144 H   0  0  0  0  0
    8.6697   23.2522   21.5798 H   0  0  0  0  0
    7.0687   23.7745   22.1585 H   0  0  0  0  0
    6.4617   23.3275   24.6644 H   0  0  0  0  0
    7.1845   20.8762   25.9806 H   0  0  0  0  0
    4.7433   20.4080   25.9290 H   0  0  0  0  0
    4.5783   22.0219   25.0079 H   0  0  0  0  0
    5.2905   23.1835   26.9293 H   0  0  0  0  0
    5.5438   21.6397   27.8217 H   0  0  0  0  0
    2.8676   22.6854   26.7757 H   0  0  0  0  0
    3.1180   21.1590   27.6580 H   0  0  0  0  0
    3.4000   22.7161   28.4747 H   0  0  0  0  0
    7.4691   18.8458   25.0391 H   0  0  0  0  0
    6.6716   18.4175   22.2112 H   0  0  0  0  0
    8.1300   16.6537   24.2151 H   0  0  0  0  0
    8.9046   17.7210   22.9813 H   0  0  0  0  0
    7.4904   16.3744   21.3020 H   0  0  0  0  0
    7.3981   15.1555   22.6483 H   0  0  0  0  0
    9.9826   16.2821   21.6020 H   0  0  0  0  0
    9.1896   14.7786   20.9335 H   0  0  0  0  0
    9.4750   13.6416   22.9330 H   0  0  0  0  0
    9.9689   15.1683   23.8045 H   0  0  0  0  0
   11.0953   12.6578   21.3183 H   0  0  0  0  0
   11.2750   14.2332   20.5078 H   0  0  0  0  0
   12.7038   13.4092   21.1791 H   0  0  0  0  0
   11.8095   13.8789   24.6239 H   0  0  0  0  0
   11.3209   12.4736   23.6454 H   0  0  0  0  0
   12.9591   13.1506   23.4754 H   0  0  0  0  0
   11.8868   16.2001   21.8547 H   0  0  0  0  0
   12.1776   15.9858   23.5985 H   0  0  0  0  0
   13.2893   15.2561   22.4141 H   0  0  0  0  0
    4.8412   17.5309   21.6115 H   0  0  0  0  0
    2.9907   16.4136   23.5337 H   0  0  0  0  0
    1.6697   15.7492   21.5236 H   0  0  0  0  0
    3.0549   16.3587   20.4982 H   0  0  0  0  0
    1.3378   17.8564   20.6983 H   0  0  0  0  0
    3.1714   14.3470   24.3759 H   0  0  0  0  0
    4.5912   12.3493   22.6900 H   0  0  0  0  0
    4.5979   10.9789   24.8586 H   0  0  0  0  0
    4.0081   12.2134   26.7302 H   0  0  0  0  0
    6.5289   12.3218   24.1719 H   0  0  0  0  0
    5.8263   13.7497   24.9709 H   0  0  0  0  0
    6.3198   12.3398   25.9402 H   0  0  0  0  0
    1.4329   13.2673   23.5541 H   0  0  0  0  0
   -0.5264   11.8919   23.7985 H   0  0  0  0  0
    0.4011   10.4917   23.1799 H   0  0  0  0  0
   -2.1848   11.7054   22.3748 H   0  0  0  0  0
   -1.4680   12.2259   19.5132 H   0  0  0  0  0
   -2.7445   13.1548   20.3722 H   0  0  0  0  0
   -3.3916   11.9811   18.0886 H   0  0  0  0  0
   -5.7782   10.6775   18.9703 H   0  0  0  0  0
   -5.0574   10.2296   16.1807 H   0  0  0  0  0
   -4.9720   11.9715   16.7252 H   0  0  0  0  0
   -7.2408   11.9896   17.2912 H   0  0  0  0  0
   -7.3687   10.1896   17.1375 H   0  0  0  0  0
   -6.8996   12.1574   14.8642 H   0  0  0  0  0
   -7.0255   10.3875   14.7130 H   0  0  0  0  0
   -8.4378   11.3394   15.2328 H   0  0  0  0  0
   -6.4678    8.5808   18.8294 H   0  0  0  0  0
   -4.2256    6.6578   19.1633 H   0  0  0  0  0
   -5.6174    7.0718   21.1736 H   0  0  0  0  0
   -7.0832    6.6324   20.2629 H   0  0  0  0  0
   -5.8453    5.3992   20.6065 H   0  0  0  0  0
   -6.8042    4.9637   19.1367 H   0  0  0  0  0
  1  2  1  0  0  0
  2  3  1  0  0  0
  2  5  1  0  0  0
  3  4  2  0  0  0
  3  6  1  0  0  0
  6  7  1  0  0  0
  7  8  1  0  0  0
  7 10  1  0  0  0
  8  9  2  0  0  0
  8 15  1  0  0  0
 10 11  1  0  0  0
 11 12  1  0  0  0
 12 13  2  0  0  0
 12 14  1  0  0  0
 15 16  1  0  0  0
 16 17  1  0  0  0
 16 19  1  0  0  0
 17 18  2  0  0  0
 17 22  1  0  0  0
 19 20  1  0  0  0
 19 21  1  0  0  0
 22 23  1  0  0  0
 23 24  1  0  0  0
 23 26  1  0  0  0
 24 25  2  0  0  0
 24 27  1  0  0  0
 27 28  1  0  0  0
 28 29  1  0  0  0
 28 31  1  0  0  0
 29 30  2  0  0  0
 29 34  1  0  0  0
 31 32  1  0  0  0
 32 33  1  0  0  0
 34 35  1  0  0  0
 35 36  1  0  0  0
 35 41  1  0  0  0
 36 37  1  0  0  0
 37 38  1  0  0  0
 38 39  1  0  0  0
 39 40  1  0  0  0
 40 43  1  0  0  0
 40 44  1  0  0  0
 40 45  1  0  0  0
 41 42  2  0  0  0
 41 46  1  0  0  0
 46 47  1  0  0  0
 47 48  1  0  0  0
 47 50  1  0  0  0
 48 49  2  0  0  0
 48 52  1  0  0  0
 50 51  1  0  0  0
 52 53  1  0  0  0
 53 54  1  0  0  0
 53 56  1  0  0  0
 54 55  2  0  0  0
 54 59  1  0  0  0
 56 57  1  0  0  0
 56 58  1  0  0  0
 59 60  1  0  0  0
 60 61  1  0  0  0
 61 62  2  0  0  0
 61 63  1  0  0  0
 63 64  1  0  0  0
 64 65  1  0  0  0
 65 66  2  0  0  0
 65 67  1  0  0  0
 67 68  1  0  0  0
 68 69  1  0  0  0
 68 71  1  0  0  0
 69 70  2  0  0  0
 69 74  1  0  0  0
 71 72  1  0  0  0
 72 73  1  0  0  0
 74 75  1  0  0  0
 75 76  1  0  0  0
 75 78  1  0  0  0
 76 77  2  0  0  0
 76 79  1  0  0  0
  1 80  1  0  0  0
  1 81  1  0  0  0
  1 82  1  0  0  0
  2 83  1  0  0  0
  5 84  1  0  0  0
  5 85  1  0  0  0
  5 86  1  0  0  0
  6 87  1  0  0  0
  7 88  1  0  0  0
 10 89  1  0  0  0
 10 90  1  0  0  0
 11 91  1  0  0  0
 11 92  1  0  0  0
 14 93  1  0  0  0
 14 94  1  0  0  0
 15 95  1  0  0  0
 16 96  1  0  0  0
 19 97  1  0  0  0
 20 98  1  0  0  0
 21 99  1  0  0  0
 21100  1  0  0  0
 21101  1  0  0  0
 22102  1  0  0  0
 23103  1  0  0  0
 26104  1  0  0  0
 26105  1  0  0  0
 26106  1  0  0  0
 27107  1  0  0  0
 28108  1  0  0  0
 31109  1  0  0  0
 31110  1  0  0  0
 32111  1  0  0  0
 32112  1  0  0  0
 33113  1  0  0  0
 33114  1  0  0  0
 33115  1  0  0  0
 34116  1  0  0  0
 35117  1  0  0  0
 36118  1  0  0  0
 36119  1  0  0  0
 37120  1  0  0  0
 37121  1  0  0  0
 38122  1  0  0  0
 38123  1  0  0  0
 39124  1  0  0  0
 39125  1  0  0  0
 43126  1  0  0  0
 43127  1  0  0  0
 43128  1  0  0  0
 44129  1  0  0  0
 44130  1  0  0  0
 44131  1  0  0  0
 45132  1  0  0  0
 45133  1  0  0  0
 45134  1  0  0  0
 46135  1  0  0  0
 47136  1  0  0  0
 50137  1  0  0  0
 50138  1  0  0  0
 51139  1  0  0  0
 52140  1  0  0  0
 53141  1  0  0  0
 56142  1  0  0  0
 57143  1  0  0  0
 58144  1  0  0  0
 58145  1  0  0  0
 58146  1  0  0  0
 59147  1  0  0  0
 60148  1  0  0  0
 60149  1  0  0  0
 63150  1  0  0  0
 64151  1  0  0  0
 64152  1  0  0  0
 67153  1  0  0  0
 68154  1  0  0  0
 71155  1  0  0  0
 71156  1  0  0  0
 72157  1  0  0  0
 72158  1  0  0  0
 73159  1  0  0  0
 73160  1  0  0  0
 73161  1  0  0  0
 74162  1  0  0  0
 75163  1  0  0  0
 78164  1  0  0  0
 78165  1  0  0  0
 78166  1  0  0  0
 79167  1  0  0  0
M  END
$$$$
