5q0z_ligand
  -I-interpret- 

 54 57  0  0  0  0  0  0  0  0999 V2000
   13.5410   24.0550    1.9370 N   0  0  0  0  0
   16.0400   22.4730    3.0380 C   0  0  0  0  0
   12.9980   22.7460    2.0640 C   0  0  0  0  0
   16.0250   23.9650    2.5200 C   0  0  0  0  0
   12.7950   25.2420    2.2530 C   0  0  0  0  0
   16.6590   20.4410    4.0380 C   0  0  0  0  0
   11.3930   25.1910    2.7480 C   0  0  0  0  0
    9.1570   26.0160    2.6580 C   0  0  0  0  0
    8.7870   25.1480    3.6560 C   0  0  0  0  0
    9.7010   24.2890    4.2210 C   0  0  0  0  0
   15.8960   24.9350    3.7030 C   0  0  0  0  0
   18.3550   22.1420    4.3260 C   0  0  0  0  0
   10.9580   19.2660    0.8370 C   0  0  0  0  0
    9.7870   19.7230    0.0710 C   0  0  0  0  0
   11.8180   20.5010    1.1680 O   0  0  0  0  0
   12.8290   20.3420    2.0480 C   0  0  0  0  0
   13.0110   19.3260    2.6720 O   0  0  0  0  0
   13.6770   21.5730    2.1470 C   0  0  0  0  0
   14.9320   24.2150    1.4580 C   0  0  0  0  0
   17.3410   24.2890    1.8010 C   0  0  0  0  0
   14.9590   21.4370    2.8400 C   0  0  0  0  0
   15.4000   20.2470    3.4670 N   0  0  0  0  0
   17.4460   19.5260    4.7480 C   0  0  0  0  0
   18.6810   19.9320    5.2390 C   0  0  0  0  0
   19.1320   21.2270    5.0320 C   0  0  0  0  0
   17.1130   21.7640    3.8230 C   0  0  0  0  0
   13.3250   26.3310    2.1210 O   0  0  0  0  0
   11.0090   24.3150    3.7670 C   0  0  0  0  0
    7.5050   25.1410    4.0870 F   0  0  0  0  0
    8.2310   26.8440    2.1270 F   0  0  0  0  0
   10.4480   26.0570    2.1920 C   0  0  0  0  0
   12.4918   22.6316    1.1055 H   0  0  0  0  0
   12.5432   22.7992    3.0532 H   0  0  0  0  0
    9.4012   23.6008    5.0113 H   0  0  0  0  0
   15.9927   25.9594    3.3434 H   0  0  0  0  0
   14.9217   24.8043    4.1738 H   0  0  0  0  0
   16.6824   24.7276    4.4287 H   0  0  0  0  0
   18.7201   23.1566    4.1668 H   0  0  0  0  0
   11.5352   18.5493    0.2528 H   0  0  0  0  0
   10.6395   18.7707    1.7542 H   0  0  0  0  0
    9.2160   20.4316    0.6709 H   0  0  0  0  0
   10.1211   20.2079   -0.8462 H   0  0  0  0  0
    9.1598   18.8667   -0.1769 H   0  0  0  0  0
   14.1975   21.7120    1.1994 H   0  0  0  0  0
   15.0362   25.2521    1.1393 H   0  0  0  0  0
   15.0809   23.4722    0.6743 H   0  0  0  0  0
   17.3166   25.3201    1.4485 H   0  0  0  0  0
   18.1731   24.1599    2.4932 H   0  0  0  0  0
   17.4650   23.6164    0.9523 H   0  0  0  0  0
   17.0942   18.5077    4.9135 H   0  0  0  0  0
   19.3009   19.2262    5.7919 H   0  0  0  0  0
   20.1022   21.5310    5.4249 H   0  0  0  0  0
   11.7467   23.6453    4.2090 H   0  0  0  0  0
   10.7306   26.7530    1.4022 H   0  0  0  0  0
  3  1  1  0  0  0
  1  5  1  0  0  0
  1 19  1  0  0  0
  4  2  1  0  0  0
  2 21  4  0  0  0
  2 26  4  0  0  0
 18  3  1  0  0  0
  4 11  1  0  0  0
 19  4  1  0  0  0
  4 20  1  0  0  0
  5  7  1  0  0  0
  5 27  2  0  0  0
  6 22  4  0  0  0
  6 23  4  0  0  0
 26  6  4  0  0  0
  7 28  4  0  0  0
  7 31  4  0  0  0
  8  9  4  0  0  0
  8 30  1  0  0  0
 31  8  4  0  0  0
 10  9  4  0  0  0
  9 29  1  0  0  0
 28 10  4  0  0  0
 12 25  4  0  0  0
 26 12  4  0  0  0
 13 14  1  0  0  0
 15 13  1  0  0  0
 16 15  1  0  0  0
 16 17  2  0  0  0
 16 18  1  0  0  0
 18 21  1  0  0  0
 21 22  4  0  0  0
 23 24  4  0  0  0
 24 25  4  0  0  0
  3 32  1  0  0  0
  3 33  1  0  0  0
 10 34  1  0  0  0
 11 35  1  0  0  0
 11 36  1  0  0  0
 11 37  1  0  0  0
 12 38  1  0  0  0
 13 39  1  0  0  0
 13 40  1  0  0  0
 14 41  1  0  0  0
 14 42  1  0  0  0
 14 43  1  0  0  0
 18 44  1  0  0  0
 19 45  1  0  0  0
 19 46  1  0  0  0
 20 47  1  0  0  0
 20 48  1  0  0  0
 20 49  1  0  0  0
 23 50  1  0  0  0
 24 51  1  0  0  0
 25 52  1  0  0  0
 28 53  1  0  0  0
 31 54  1  0  0  0
M  END
$$$$
