6gzh_ligand
  -I-interpret- 

 51 54  0  0  0  0  0  0  0  0999 V2000
  -37.4920   38.6040   46.5230 F   0  0  0  0  0
  -38.6250   39.2890   46.4070 C   0  0  0  0  0
  -38.5780   40.6690   46.4410 C   0  0  0  0  0
  -39.7320   41.4190   46.3220 N   0  0  0  0  0
  -39.8470   38.6480   46.2540 C   0  0  0  0  0
  -40.9950   39.4110   46.1360 N   0  0  0  0  0
  -40.9500   40.7900   46.1720 C   0  0  0  0  0
  -42.1280   41.5540   46.0390 N   0  0  0  0  0
  -43.4220   40.8940   45.7940 C   0  0  0  0  0
  -44.5590   41.8420   46.1760 C   0  0  0  0  0
  -45.9100   41.1400   45.9860 C   0  0  0  0  0
  -43.5710   40.4570   44.3240 C   0  0  0  0  0
  -44.9160   39.7420   44.1280 C   0  0  0  0  0
  -46.0780   40.6650   44.5330 C   0  0  0  0  0
  -47.3500   39.9350   44.4140 N   0  3  0  0  0
  -39.9550   37.1700   46.2100 C   0  0  0  0  0
  -38.9000   36.3150   46.4510 C   0  0  0  0  0
  -39.3710   35.0640   46.3210 N   0  0  0  0  0
  -40.5900   35.0940   46.0290 N   0  0  0  0  0
  -41.3820   33.8710   45.8200 C   0  0  0  0  0
  -41.0370   36.3610   45.9400 C   0  0  0  0  0
  -42.4570   36.7820   45.6070 C   0  0  0  0  0
  -43.4430   36.1750   46.6120 C   0  0  0  0  0
  -44.5200   37.1840   47.0200 C   0  0  0  0  0
  -44.8270   36.1250   45.9630 C   0  0  0  0  0
  -37.6189   41.1723   46.5632 H   0  0  0  0  0
  -42.0837   42.5704   46.1129 H   0  0  0  0  0
  -43.4655   39.9957   46.4099 H   0  0  0  0  0
  -44.5200   42.7254   45.5387 H   0  0  0  0  0
  -44.4488   42.1332   47.2206 H   0  0  0  0  0
  -46.7084   41.8441   46.2205 H   0  0  0  0  0
  -45.9523   40.2739   46.6464 H   0  0  0  0  0
  -42.7598   39.7761   44.0663 H   0  0  0  0  0
  -43.5330   41.3362   43.6809 H   0  0  0  0  0
  -44.9377   38.8490   44.7526 H   0  0  0  0  0
  -45.0255   39.4735   43.0773 H   0  0  0  0  0
  -46.0782   41.5316   43.8718 H   0  0  0  0  0
  -47.4691   39.6163   43.4524 H   0  0  0  0  0
  -47.3390   39.1306   45.0411 H   0  0  0  0  0
  -48.1206   40.5538   44.6663 H   0  0  0  0  0
  -37.8779   36.6004   46.6998 H   0  0  0  0  0
  -40.9527   33.2977   44.9984 H   0  0  0  0  0
  -41.3681   33.2708   46.7298 H   0  0  0  0  0
  -42.4096   34.1421   45.5777 H   0  0  0  0  0
  -42.7069   36.4290   44.6065 H   0  0  0  0  0
  -42.5257   37.8688   45.6539 H   0  0  0  0  0
  -42.7953   35.4890   47.1579 H   0  0  0  0  0
  -44.6231   38.2610   47.1521 H   0  0  0  0  0
  -44.9645   37.5810   47.9326 H   0  0  0  0  0
  -45.6007   35.3887   45.7455 H   0  0  0  0  0
  -45.2587   36.0699   44.9637 H   0  0  0  0  0
  1  2  1  0  0  0
  2  3  4  0  0  0
  2  5  4  0  0  0
  3  4  4  0  0  0
  4  7  4  0  0  0
  5  6  4  0  0  0
  5 16  1  0  0  0
  6  7  4  0  0  0
  7  8  1  0  0  0
  8  9  1  0  0  0
  9 10  1  0  0  0
  9 12  1  0  0  0
 10 11  1  0  0  0
 11 14  1  0  0  0
 12 13  1  0  0  0
 13 14  1  0  0  0
 14 15  1  0  0  0
 16 17  4  0  0  0
 16 21  4  0  0  0
 17 18  4  0  0  0
 18 19  4  0  0  0
 19 20  1  0  0  0
 19 21  4  0  0  0
 21 22  1  0  0  0
 22 23  1  0  0  0
 23 24  1  0  0  0
 23 25  1  0  0  0
 24 25  1  0  0  0
  3 26  1  0  0  0
  8 27  1  0  0  0
  9 28  1  0  0  0
 10 29  1  0  0  0
 10 30  1  0  0  0
 11 31  1  0  0  0
 11 32  1  0  0  0
 12 33  1  0  0  0
 12 34  1  0  0  0
 13 35  1  0  0  0
 13 36  1  0  0  0
 14 37  1  0  0  0
 15 38  1  0  0  0
 15 39  1  0  0  0
 15 40  1  0  0  0
 17 41  1  0  0  0
 20 42  1  0  0  0
 20 43  1  0  0  0
 20 44  1  0  0  0
 22 45  1  0  0  0
 22 46  1  0  0  0
 23 47  1  0  0  0
 24 48  1  0  0  0
 24 49  1  0  0  0
 25 50  1  0  0  0
 25 51  1  0  0  0
M  END
$$$$
