1c87_ligand
  -I-interpret- 

 27 28  0  0  0  0  0  0  0  0999 V2000
   13.8520   44.7350   16.7810 O   0  0  0  0  0
   13.8860   45.2420   18.1090 C   0  0  0  0  0
   12.4530   45.3500   18.5400 C   0  0  0  0  0
   11.3710   45.0070   17.8060 C   0  0  0  0  0
   11.4160   44.1730   16.5640 C   0  0  0  0  0
   12.8920   43.6890   16.5220 C   0  0  0  0  0
   12.0250   46.1190   20.0430 S   0  0  0  0  0
   10.3900   45.9070   19.6500 C   0  0  0  0  0
   10.1010   45.3820   18.4480 C   0  0  0  0  0
    8.6910   45.2280   17.9250 C   0  0  0  0  0
    7.6230   45.4050   18.6800 O   0  0  0  0  0
    8.5240   44.8110   16.8090 O   0  0  0  0  0
    9.3280   46.2860   20.5150 N   0  0  0  0  0
    9.4010   46.9470   21.6870 C   0  0  0  0  0
    7.9860   47.3240   22.2660 C   0  0  0  0  0
    7.0460   46.5860   22.2500 O   0  0  0  0  0
    7.8950   48.5360   22.8840 O   0  0  0  0  0
   10.4090   47.1980   22.3170 O   0  0  0  0  0
   14.3878   46.2086   18.1524 H   0  0  0  0  0
   14.4514   44.5855   18.7705 H   0  0  0  0  0
   11.1277   44.7282   15.6714 H   0  0  0  0  0
   10.7017   43.3499   16.5815 H   0  0  0  0  0
   13.0110   42.9365   17.3016 H   0  0  0  0  0
   13.0833   43.3119   15.5173 H   0  0  0  0  0
    7.8916   45.7385   19.5392 H   0  0  0  0  0
    8.3907   46.0242   20.2096 H   0  0  0  0  0
    8.7325   48.9984   22.8041 H   0  0  0  0  0
  1  6  1  0  0  0
  1  2  1  0  0  0
  2  3  1  0  0  0
  3  7  4  0  0  0
  3  4  4  0  0  0
  4  9  4  0  0  0
  4  5  1  0  0  0
  5  6  1  0  0  0
  9 10  1  0  0  0
  9  8  4  0  0  0
  8 13  1  0  0  0
  8  7  4  0  0  0
 13 14  1  0  0  0
 14 18  2  0  0  0
 14 15  1  0  0  0
 15 17  1  0  0  0
 15 16  2  0  0  0
 10 12  2  0  0  0
 10 11  1  0  0  0
  2 19  1  0  0  0
  2 20  1  0  0  0
  5 21  1  0  0  0
  5 22  1  0  0  0
  6 23  1  0  0  0
  6 24  1  0  0  0
 11 25  1  0  0  0
 13 26  1  0  0  0
 17 27  1  0  0  0
M  END
$$$$
