5tpx_ligand
  -I-interpret- 

 52 55  0  0  0  0  0  0  0  0999 V2000
   30.7590   77.1350   48.4150 C   0  0  0  0  0
   29.3700   77.5040   48.0630 N   0  3  0  0  0
   28.8780   78.5410   48.9800 C   0  0  0  0  0
   28.4800   76.3670   47.7400 C   0  0  0  0  0
   28.4350   75.3360   48.8590 C   0  0  0  0  0
   27.8130   75.6180   50.0800 C   0  0  0  0  0
   27.9080   74.7330   51.1420 C   0  0  0  0  0
   28.6020   73.5360   50.9950 C   0  0  0  0  0
   29.2120   73.2410   49.7880 C   0  0  0  0  0
   29.1290   74.1290   48.7270 C   0  0  0  0  0
   27.0350   76.7480   47.3320 C   0  0  0  0  0
   26.1860   75.5290   47.0120 C   0  0  0  0  0
   27.0220   77.6460   46.1810 N   0  0  0  0  0
   26.3630   78.8320   46.1700 C   0  0  0  0  0
   26.2880   79.4850   44.8590 C   0  0  0  0  0
   26.6780   78.8280   43.6870 C   0  0  0  0  0
   26.4900   79.4340   42.4540 C   0  0  0  0  0
   25.9350   80.7000   42.3740 C   0  0  0  0  0
   25.5440   81.3650   43.5250 C   0  0  0  0  0
   25.6980   80.7570   44.7750 C   0  0  0  0  0
   25.1910   81.3490   45.9890 C   0  0  0  0  0
   25.3000   80.6120   47.1480 N   0  0  0  0  0
   25.9090   79.3520   47.2830 N   0  0  0  0  0
   24.5050   82.4420   46.2360 N   0  0  0  0  0
   24.1630   82.4340   47.5900 N   0  0  0  0  0
   24.6350   81.3360   48.1160 C   0  0  0  0  0
   24.5560   80.9460   49.5480 C   0  0  0  0  0
   30.7505   76.4873   49.2917 H   0  0  0  0  0
   31.2172   76.6090   47.5775 H   0  0  0  0  0
   31.3290   78.0379   48.6343 H   0  0  0  0  0
   29.3667   77.9488   47.1451 H   0  0  0  0  0
   27.9815   78.9986   48.5616 H   0  0  0  0  0
   28.6412   78.0896   49.9435 H   0  0  0  0  0
   29.6475   79.3015   49.1129 H   0  0  0  0  0
   28.9435   75.9340   46.8536 H   0  0  0  0  0
   27.2482   76.5429   50.1971 H   0  0  0  0  0
   27.4378   74.9752   52.0951 H   0  0  0  0  0
   28.6650   72.8339   51.8264 H   0  0  0  0  0
   29.7601   72.3061   49.6714 H   0  0  0  0  0
   29.6096   73.8841   47.7799 H   0  0  0  0  0
   26.6062   77.2564   48.1956 H   0  0  0  0  0
   25.1643   75.8447   46.8007 H   0  0  0  0  0
   26.5978   75.0196   46.1408 H   0  0  0  0  0
   26.1890   74.8514   47.8658 H   0  0  0  0  0
   27.5337   77.3680   45.3436 H   0  0  0  0  0
   27.1305   77.8379   43.7432 H   0  0  0  0  0
   26.7807   78.9110   41.5429 H   0  0  0  0  0
   25.8052   81.1754   41.4017 H   0  0  0  0  0
   25.1152   82.3647   43.4560 H   0  0  0  0  0
   24.0745   79.9717   49.6319 H   0  0  0  0  0
   25.5618   80.8927   49.9648 H   0  0  0  0  0
   23.9740   81.6885   50.0939 H   0  0  0  0  0
  1  2  1  0  0  0
  2  3  1  0  0  0
  2  4  1  0  0  0
  4  5  1  0  0  0
  4 11  1  0  0  0
  5  6  4  0  0  0
  5 10  4  0  0  0
  6  7  4  0  0  0
  7  8  4  0  0  0
  8  9  4  0  0  0
  9 10  4  0  0  0
 11 12  1  0  0  0
 11 13  1  0  0  0
 13 14  1  0  0  0
 14 15  4  0  0  0
 14 23  4  0  0  0
 15 16  4  0  0  0
 15 20  4  0  0  0
 16 17  4  0  0  0
 17 18  4  0  0  0
 18 19  4  0  0  0
 19 20  4  0  0  0
 20 21  4  0  0  0
 21 22  4  0  0  0
 21 24  4  0  0  0
 22 23  4  0  0  0
 22 26  4  0  0  0
 24 25  4  0  0  0
 25 26  4  0  0  0
 26 27  1  0  0  0
  1 28  1  0  0  0
  1 29  1  0  0  0
  1 30  1  0  0  0
  2 31  1  0  0  0
  3 32  1  0  0  0
  3 33  1  0  0  0
  3 34  1  0  0  0
  4 35  1  0  0  0
  6 36  1  0  0  0
  7 37  1  0  0  0
  8 38  1  0  0  0
  9 39  1  0  0  0
 10 40  1  0  0  0
 11 41  1  0  0  0
 12 42  1  0  0  0
 12 43  1  0  0  0
 12 44  1  0  0  0
 13 45  1  0  0  0
 16 46  1  0  0  0
 17 47  1  0  0  0
 18 48  1  0  0  0
 19 49  1  0  0  0
 27 50  1  0  0  0
 27 51  1  0  0  0
 27 52  1  0  0  0
M  END
$$$$
