3tkm_ligand
  -I-interpret- 

 48 50  0  0  0  0  0  0  0  0999 V2000
    4.8670    6.9830   29.2390 C   0  0  0  0  0
   10.9620    4.7300   26.7940 C   0  0  0  0  0
    7.0120   10.9350   24.9670 O   0  0  0  0  0
    5.3840    9.6060   24.9310 O   0  0  0  0  0
   12.8320    3.7960   33.9580 F   0  0  0  0  0
   11.4840    3.4920   36.1250 F   0  0  0  0  0
   10.4250    1.8530   36.1910 F   0  0  0  0  0
   12.3150    1.7620   35.7210 F   0  0  0  0  0
    7.2190    5.8440   25.9160 C   0  0  0  0  0
    9.7860    2.1920   32.1300 C   0  0  0  0  0
    6.9770    7.1720   26.1770 C   0  0  0  0  0
    9.9320    2.0030   33.4830 C   0  0  0  0  0
    5.9410    5.2770   27.7940 C   0  0  0  0  0
   11.7070    3.5050   31.9840 C   0  0  0  0  0
    6.6530    9.7730   26.9060 C   0  0  0  0  0
    8.7230    2.9860   26.4070 C   0  0  0  0  0
   11.0100    3.9220   29.1750 N   0  0  0  0  0
    5.9490    8.7930   27.5210 O   0  0  0  0  0
    6.9190    3.1820   26.4680 S   0  0  0  0  0
    9.1840    2.3510   29.1170 S   0  0  0  0  0
    6.3030   10.1300   25.4930 C   0  0  0  0  0
    5.7100    6.5970   28.0570 C   0  0  0  0  0
   10.4940    3.9240   27.9640 C   0  0  0  0  0
    6.6960    4.8760   26.7250 C   0  0  0  0  0
   11.8430    3.3000   33.3200 C   0  0  0  0  0
   10.6590    2.9160   31.3470 C   0  0  0  0  0
    6.2170    7.5460   27.2430 C   0  0  0  0  0
    9.4470    3.1190   27.7460 C   0  0  0  0  0
   10.9900    2.5910   34.0770 C   0  0  0  0  0
   10.4050    3.1160   29.9940 C   0  0  0  0  0
   11.3030    2.4440   35.5620 C   0  0  0  0  0
    3.8711    6.5538   29.1290 H   0  0  0  0  0
    5.3282    6.6051   30.1515 H   0  0  0  0  0
    4.7922    8.0692   29.2911 H   0  0  0  0  0
   10.8973    5.7908   27.0360 H   0  0  0  0  0
   11.9958    4.4704   26.5658 H   0  0  0  0  0
   10.3327    4.5140   25.9306 H   0  0  0  0  0
    4.9490    8.9961   25.5313 H   0  0  0  0  0
    7.8312    5.5624   25.0593 H   0  0  0  0  0
    8.9221    1.7391   31.6434 H   0  0  0  0  0
    7.3987    7.9348   25.5225 H   0  0  0  0  0
    9.2223    1.4028   34.0524 H   0  0  0  0  0
    5.5125    4.5222   28.4533 H   0  0  0  0  0
   12.4180    4.1244   31.4373 H   0  0  0  0  0
    7.6765    9.4010   26.8597 H   0  0  0  0  0
    6.4506   10.6741   27.4850 H   0  0  0  0  0
    9.1000    3.7864   25.7704 H   0  0  0  0  0
    8.9125    1.9731   26.0518 H   0  0  0  0  0
 22  1  1  0  0  0
 23  2  1  0  0  0
 21  3  2  0  0  0
 21  4  1  0  0  0
 25  5  1  0  0  0
 31  6  1  0  0  0
 31  7  1  0  0  0
 31  8  1  0  0  0
  9 11  4  0  0  0
 24  9  4  0  0  0
 12 10  4  0  0  0
 10 26  4  0  0  0
 11 27  4  0  0  0
 29 12  4  0  0  0
 13 22  4  0  0  0
 24 13  4  0  0  0
 25 14  4  0  0  0
 14 26  4  0  0  0
 18 15  1  0  0  0
 15 21  1  0  0  0
 16 19  1  0  0  0
 28 16  1  0  0  0
 17 23  4  0  0  0
 30 17  4  0  0  0
 27 18  1  0  0  0
 19 24  1  0  0  0
 20 28  4  0  0  0
 30 20  4  0  0  0
 22 27  4  0  0  0
 28 23  4  0  0  0
 29 25  4  0  0  0
 26 30  1  0  0  0
 29 31  1  0  0  0
  1 32  1  0  0  0
  1 33  1  0  0  0
  1 34  1  0  0  0
  2 35  1  0  0  0
  2 36  1  0  0  0
  2 37  1  0  0  0
  4 38  1  0  0  0
  9 39  1  0  0  0
 10 40  1  0  0  0
 11 41  1  0  0  0
 12 42  1  0  0  0
 13 43  1  0  0  0
 14 44  1  0  0  0
 15 45  1  0  0  0
 15 46  1  0  0  0
 16 47  1  0  0  0
 16 48  1  0  0  0
M  END
$$$$
