4xs2_ligand
  -I-interpret- 

 58 61  0  0  0  0  0  0  0  0999 V2000
   29.9150    8.8900   -7.9880 C   0  0  0  0  0
   29.4050    8.1810   -6.9060 N   0  0  0  0  0
   29.7310    6.8920   -6.7770 C   0  0  0  0  0
   30.5020    6.1930   -7.6100 N   0  0  0  0  0
   31.0370    6.8280   -8.7040 C   0  0  0  0  0
   30.7670    8.2490   -9.0200 C   0  0  0  0  0
   29.5390   10.2120   -8.0230 N   0  0  0  0  0
   29.2310    6.2080   -5.6990 N   0  0  0  0  0
   31.9670    5.6630   -9.6070 Cl  0  0  0  0  0
   31.3580    9.0400  -10.1860 C   0  0  0  0  0
   28.6350   11.0540   -7.2150 C   0  0  0  0  0
   28.9140   11.0610   -5.6890 C   0  0  0  0  0
   29.7560   12.3390   -5.3980 C   0  0  0  0  0
   29.4430   13.3240   -6.5700 C   0  0  0  0  0
   28.6020   12.5430   -7.6190 C   0  0  0  0  0
   27.7020   11.0410   -4.9490 O   0  0  0  0  0
   29.4670   12.8870   -4.0940 O   0  0  0  0  0
   30.6630   14.0700   -7.1730 C   0  0  0  0  0
   30.5540   15.4850   -7.0630 O   0  0  0  0  0
   28.1020    6.5040   -4.8460 C   0  0  0  0  0
   28.1430    5.5810   -3.6260 C   0  0  0  0  0
   26.9070    5.7940   -2.7430 C   0  0  0  0  0
   26.5350    4.5530   -2.1560 O   0  0  0  0  0
   25.1550    4.2450   -2.3450 C   0  0  0  0  0
   32.6080    8.4460  -11.3050 S   0  0  0  0  0
   32.7370    9.9930  -12.1260 C   0  0  0  0  0
   31.8270   10.9020  -11.4970 C   0  0  0  0  0
   31.1170   10.3520  -10.4100 N   0  0  0  0  0
   33.5490   10.4020  -13.2340 C   0  0  0  0  0
   33.4490   11.7430  -13.7320 C   0  0  0  0  0
   32.5540   12.6730  -13.1300 C   0  0  0  0  0
   31.7530   12.2550  -12.0190 C   0  0  0  0  0
   29.9868   10.7288   -8.7798 H   0  0  0  0  0
   29.7361    5.3544   -5.4610 H   0  0  0  0  0
   27.6860   10.5628   -7.4299 H   0  0  0  0  0
   29.4617   10.1699   -5.3824 H   0  0  0  0  0
   30.8239   12.1239   -5.3599 H   0  0  0  0  0
   28.8713   14.1605   -6.1682 H   0  0  0  0  0
   27.5766   12.9120   -7.6399 H   0  0  0  0  0
   29.0146   12.6783   -8.6188 H   0  0  0  0  0
   27.9016   11.0458   -4.0100 H   0  0  0  0  0
   30.0030   13.6706   -3.9515 H   0  0  0  0  0
   30.7162   13.8207   -8.2328 H   0  0  0  0  0
   31.5502   13.7597   -6.6210 H   0  0  0  0  0
   31.3309   15.8957   -7.4494 H   0  0  0  0  0
   27.1744    6.3450   -5.3959 H   0  0  0  0  0
   28.1491    7.5436   -4.5218 H   0  0  0  0  0
   29.0357    5.8072   -3.0429 H   0  0  0  0  0
   28.1578    4.5460   -3.9676 H   0  0  0  0  0
   26.0846    6.1742   -3.3489 H   0  0  0  0  0
   27.1362    6.5162   -1.9594 H   0  0  0  0  0
   24.5444    5.0256   -1.8912 H   0  0  0  0  0
   24.9396    4.1877   -3.4120 H   0  0  0  0  0
   24.9302    3.2872   -1.8757 H   0  0  0  0  0
   34.2397    9.6967  -13.6962 H   0  0  0  0  0
   34.0627   12.0529  -14.5778 H   0  0  0  0  0
   32.4795   13.6916  -13.5107 H   0  0  0  0  0
   31.0724   12.9686  -11.5547 H   0  0  0  0  0
  1  2  4  0  0  0
  1  6  4  0  0  0
  1  7  1  0  0  0
  2  3  4  0  0  0
  3  4  4  0  0  0
  3  8  1  0  0  0
  4  5  4  0  0  0
  5  6  4  0  0  0
  5  9  1  0  0  0
  6 10  1  0  0  0
  7 11  1  0  0  0
  8 20  1  0  0  0
 10 25  4  0  0  0
 10 28  4  0  0  0
 11 12  1  0  0  0
 11 15  1  0  0  0
 12 13  1  0  0  0
 12 16  1  0  0  0
 13 14  1  0  0  0
 13 17  1  0  0  0
 14 15  1  0  0  0
 14 18  1  0  0  0
 18 19  1  0  0  0
 20 21  1  0  0  0
 21 22  1  0  0  0
 22 23  1  0  0  0
 23 24  1  0  0  0
 25 26  4  0  0  0
 26 27  4  0  0  0
 26 29  4  0  0  0
 27 28  4  0  0  0
 27 32  4  0  0  0
 29 30  4  0  0  0
 30 31  4  0  0  0
 31 32  4  0  0  0
  7 33  1  0  0  0
  8 34  1  0  0  0
 11 35  1  0  0  0
 12 36  1  0  0  0
 13 37  1  0  0  0
 14 38  1  0  0  0
 15 39  1  0  0  0
 15 40  1  0  0  0
 16 41  1  0  0  0
 17 42  1  0  0  0
 18 43  1  0  0  0
 18 44  1  0  0  0
 19 45  1  0  0  0
 20 46  1  0  0  0
 20 47  1  0  0  0
 21 48  1  0  0  0
 21 49  1  0  0  0
 22 50  1  0  0  0
 22 51  1  0  0  0
 24 52  1  0  0  0
 24 53  1  0  0  0
 24 54  1  0  0  0
 29 55  1  0  0  0
 30 56  1  0  0  0
 31 57  1  0  0  0
 32 58  1  0  0  0
M  END
$$$$
