5pzm_ligand
  -I-interpret- 

 45 48  0  0  0  0  0  0  0  0999 V2000
   18.6910    4.7120   73.4070 C   0  0  0  0  0
   18.1410    7.5010   74.3830 C   0  0  0  0  0
   17.6390   13.8770   71.5120 C   0  0  0  0  0
   17.1390   13.8490   73.8550 C   0  0  0  0  0
   17.0790   15.8770   72.6350 C   0  0  0  0  0
   17.4030   15.2390   71.4710 C   0  0  0  0  0
   16.9270   15.2180   73.8290 C   0  0  0  0  0
   18.5040    3.3530   73.1500 C   0  0  0  0  0
   18.0490    5.6910   72.6400 C   0  0  0  0  0
   17.2460    5.2750   71.5720 C   0  0  0  0  0
   17.7520   10.7400   71.7480 C   0  0  0  0  0
   17.7020   11.7030   72.7140 C   0  0  0  0  0
   17.9760    9.4730   72.4390 C   0  0  0  0  0
   17.8630   11.1520   73.9740 O   0  0  0  0  0
   18.0090    9.7900   73.7890 C   0  0  0  0  0
   17.6290   10.8970   70.2870 C   0  0  0  0  0
   18.0840    8.1340   72.0570 C   0  0  0  0  0
   19.1420    2.3210   74.0280 C   0  0  0  0  0
   18.1300    7.1270   73.0310 C   0  0  0  0  0
   17.5040   13.1600   72.7000 C   0  0  0  0  0
   18.1090    8.8300   74.7760 C   0  0  0  0  0
   18.6040   10.7200   69.5690 O   0  0  0  0  0
   19.0470    1.1190   73.7850 O   0  0  0  0  0
   16.4300   11.2390   69.8190 N   0  0  0  0  0
   19.8200    2.7830   75.0540 O   0  0  0  0  0
   16.9520   17.2310   72.6160 F   0  0  0  0  0
   17.6920    2.9700   72.0840 C   0  0  0  0  0
   17.0740    3.9270   71.2970 C   0  0  0  0  0
   16.1660   11.3940   68.3970 C   0  0  0  0  0
   19.3495    5.0167   74.2204 H   0  0  0  0  0
   18.1757    6.7240   75.1467 H   0  0  0  0  0
   17.9351   13.3560   70.6015 H   0  0  0  0  0
   17.0187   13.3038   74.7912 H   0  0  0  0  0
   17.4737   15.7900   70.5332 H   0  0  0  0  0
   16.6467   15.7576   74.7336 H   0  0  0  0  0
   16.7500    6.0194   70.9491 H   0  0  0  0  0
   18.1326    7.8717   71.0002 H   0  0  0  0  0
   18.1610    9.1076   75.8288 H   0  0  0  0  0
   15.6703   11.3978   70.4808 H   0  0  0  0  0
   19.7694    3.7416   75.0641 H   0  0  0  0  0
   17.5427    1.9119   71.8688 H   0  0  0  0  0
   16.4498    3.6194   70.4580 H   0  0  0  0  0
   16.8138   12.1709   67.9911 H   0  0  0  0  0
   16.3638   10.4511   67.8871 H   0  0  0  0  0
   15.1232   11.6757   68.2510 H   0  0  0  0  0
  1  8  4  0  0  0
  9  1  4  0  0  0
  2 19  4  0  0  0
 21  2  4  0  0  0
  3  6  4  0  0  0
 20  3  4  0  0  0
  4  7  4  0  0  0
 20  4  4  0  0  0
  6  5  4  0  0  0
  7  5  4  0  0  0
  5 26  1  0  0  0
  8 18  1  0  0  0
  8 27  4  0  0  0
  9 10  4  0  0  0
 19  9  1  0  0  0
 10 28  4  0  0  0
 12 11  4  0  0  0
 13 11  4  0  0  0
 11 16  1  0  0  0
 14 12  4  0  0  0
 12 20  1  0  0  0
 15 13  4  0  0  0
 13 17  4  0  0  0
 15 14  4  0  0  0
 15 21  4  0  0  0
 16 22  2  0  0  0
 16 24  1  0  0  0
 17 19  4  0  0  0
 18 23  2  0  0  0
 18 25  1  0  0  0
 24 29  1  0  0  0
 27 28  4  0  0  0
  1 30  1  0  0  0
  2 31  1  0  0  0
  3 32  1  0  0  0
  4 33  1  0  0  0
  6 34  1  0  0  0
  7 35  1  0  0  0
 10 36  1  0  0  0
 17 37  1  0  0  0
 21 38  1  0  0  0
 24 39  1  0  0  0
 25 40  1  0  0  0
 27 41  1  0  0  0
 28 42  1  0  0  0
 29 43  1  0  0  0
 29 44  1  0  0  0
 29 45  1  0  0  0
M  END
$$$$
