1gsz_ligand
  -I-interpret- 

 56 57  0  0  0  0  0  0  0  0999 V2000
   68.8470   72.7280   71.6980 C   0  0  0  0  0
   68.2980   71.3300   71.3830 C   0  0  0  0  0
   68.8730   70.3020   72.0110 O   0  0  0  0  0
   67.1500   71.0160   70.4170 C   0  0  0  0  0
   66.2770   69.8740   70.5730 C   0  0  0  0  0
   66.4160   69.0130   71.5790 F   0  0  0  0  0
   65.2380   69.6410   69.6400 C   0  0  0  0  0
   65.0400   70.5240   68.5470 C   0  0  0  0  0
   64.0150   70.2850   67.6440 O   0  0  0  0  0
   64.3350   69.4070   66.5670 C   0  0  0  0  0
   63.1820   69.4280   65.5630 C   0  0  0  0  0
   63.2180   70.7640   64.8040 C   0  0  0  0  0
   63.9320   70.5690   63.4590 C   0  0  0  0  0
   62.9600   69.9330   62.4620 C   0  0  0  0  0
   62.1340   71.0350   61.7900 C   0  0  0  0  0
   62.6720   71.3680   60.4710 N   0  3  0  0  0
   62.9220   72.8100   60.3860 C   0  0  0  0  0
   61.7140   70.9600   59.4190 C   0  0  0  0  0
   61.8200   69.5030   59.0230 C   0  0  0  0  0
   62.9840   68.9610   58.6510 C   0  0  0  0  0
   65.8920   71.6460   68.3920 C   0  0  0  0  0
   66.9320   71.8870   69.3160 C   0  0  0  0  0
   70.2580   72.9100   71.6960 C   0  0  0  0  0
   70.8300   74.1720   71.9960 C   0  0  0  0  0
   70.0010   75.2760   72.3040 C   0  0  0  0  0
   70.7820   76.9130   72.7140 Br  0  0  0  0  0
   68.5790   75.1180   72.3090 C   0  0  0  0  0
   68.0040   73.8470   72.0070 C   0  0  0  0  0
   64.5852   68.7767   69.7622 H   0  0  0  0  0
   64.4812   68.3947   66.9438 H   0  0  0  0  0
   65.2554   69.7332   66.0827 H   0  0  0  0  0
   62.2317   69.3238   66.0866 H   0  0  0  0  0
   63.2848   68.5997   64.8620 H   0  0  0  0  0
   63.7553   71.5044   65.3967 H   0  0  0  0  0
   62.1993   71.1096   64.6280 H   0  0  0  0  0
   64.7960   69.9183   63.5940 H   0  0  0  0  0
   64.2671   71.5341   63.0790 H   0  0  0  0  0
   62.2955   69.2463   62.9864 H   0  0  0  0  0
   63.5199   69.3830   61.7056 H   0  0  0  0  0
   62.1687   71.9269   62.4156 H   0  0  0  0  0
   61.1109   70.6789   61.6691 H   0  0  0  0  0
   63.5504   70.8683   60.3327 H   0  0  0  0  0
   61.9875   73.3492   60.5413 H   0  0  0  0  0
   63.6412   73.0986   61.1525 H   0  0  0  0  0
   63.3225   73.0506   59.4012 H   0  0  0  0  0
   61.9351   71.5535   58.5319 H   0  0  0  0  0
   60.7110   71.1153   59.8166 H   0  0  0  0  0
   60.9254   68.8805   59.0416 H   0  0  0  0  0
   63.8867   69.5715   58.6277 H   0  0  0  0  0
   63.0304   67.9086   58.3710 H   0  0  0  0  0
   65.7434   72.3272   67.5541 H   0  0  0  0  0
   67.5778   72.7549   69.1825 H   0  0  0  0  0
   70.9083   72.0675   71.4606 H   0  0  0  0  0
   71.9133   74.2921   71.9893 H   0  0  0  0  0
   67.9361   75.9665   72.5430 H   0  0  0  0  0
   66.9207   73.7261   72.0112 H   0  0  0  0  0
  1  2  1  0  0  0
  1 23  4  0  0  0
  1 28  4  0  0  0
  2  3  2  0  0  0
  2  4  1  0  0  0
  4  5  4  0  0  0
  4 22  4  0  0  0
  5  6  1  0  0  0
  5  7  4  0  0  0
  7  8  4  0  0  0
  8  9  1  0  0  0
  8 21  4  0  0  0
  9 10  1  0  0  0
 10 11  1  0  0  0
 11 12  1  0  0  0
 12 13  1  0  0  0
 13 14  1  0  0  0
 14 15  1  0  0  0
 15 16  1  0  0  0
 16 17  1  0  0  0
 16 18  1  0  0  0
 18 19  1  0  0  0
 19 20  2  0  0  0
 21 22  4  0  0  0
 23 24  4  0  0  0
 24 25  4  0  0  0
 25 26  1  0  0  0
 25 27  4  0  0  0
 27 28  4  0  0  0
  7 29  1  0  0  0
 10 30  1  0  0  0
 10 31  1  0  0  0
 11 32  1  0  0  0
 11 33  1  0  0  0
 12 34  1  0  0  0
 12 35  1  0  0  0
 13 36  1  0  0  0
 13 37  1  0  0  0
 14 38  1  0  0  0
 14 39  1  0  0  0
 15 40  1  0  0  0
 15 41  1  0  0  0
 16 42  1  0  0  0
 17 43  1  0  0  0
 17 44  1  0  0  0
 17 45  1  0  0  0
 18 46  1  0  0  0
 18 47  1  0  0  0
 19 48  1  0  0  0
 20 49  1  0  0  0
 20 50  1  0  0  0
 21 51  1  0  0  0
 22 52  1  0  0  0
 23 53  1  0  0  0
 24 54  1  0  0  0
 27 55  1  0  0  0
 28 56  1  0  0  0
M  END
$$$$
