1jqy_ligand
  -I-interpret- 

 63 65  0  0  0  0  0  0  0  0999 V2000
   50.2040    2.1310   -1.6490 C   0  0  0  0  0
   50.4090    0.6840   -1.5200 O   0  0  0  0  0
   50.9120    3.0240   -0.5900 C   0  0  0  0  0
   52.3400    3.0370   -0.6630 O   0  0  0  0  0
   50.4950    2.5360    0.8120 C   0  0  0  0  0
   50.9900    3.4940    1.7290 O   0  0  0  0  0
   48.9310    2.6760    0.8520 C   0  0  0  0  0
   48.5540    4.0360    0.9380 O   0  0  0  0  0
   48.2460    1.9190   -0.2960 C   0  0  0  0  0
   48.7850    2.3660   -1.5640 O   0  0  0  0  0
   46.7090    2.0260   -0.3230 C   0  0  0  0  0
   46.1300    1.0970   -1.2100 O   0  0  0  0  0
   50.1220   -0.0160   -2.7540 C   0  0  0  0  0
   50.9800    0.0950   -3.8470 C   0  0  0  0  0
   50.6490   -0.6100   -5.0190 C   0  0  0  0  0
   49.4520   -1.3980   -4.9680 C   0  0  0  0  0
   48.5990   -1.4910   -3.8490 C   0  0  0  0  0
   48.9510   -0.7620   -2.6760 C   0  0  0  0  0
   51.3940   -0.6530   -6.2170 N   0  0  0  0  0
   50.8480   -1.3250   -7.1610 O   0  0  0  0  0
   52.5260   -0.1370   -6.3440 O   0  0  0  0  0
   47.3860   -2.2250   -3.7440 C   0  0  0  0  0
   46.9910   -2.3330   -2.5240 O   0  0  0  0  0
   46.7440   -2.6570   -4.7090 N   0  0  0  0  0
   48.1190   -8.6530   -4.0990 O   0  0  0  0  0
   49.2480   -7.8630   -4.3650 C   0  0  0  0  0
   49.1440   -6.5630   -5.1240 C   0  0  0  0  0
   47.8810   -6.2430   -5.8710 N   0  3  0  0  0
   46.8980   -7.3800   -5.8230 C   0  0  0  0  0
   46.8440   -8.1320   -4.4960 C   0  0  0  0  0
   47.2470   -4.9070   -5.6470 C   0  0  0  0  0
   47.3240   -3.8610   -6.7500 C   0  0  0  0  0
   46.8690   -2.5160   -6.1120 C   0  0  0  0  0
   50.6523    2.4174   -2.6004 H   0  0  0  0  0
   50.5952    4.0464   -0.7958 H   0  0  0  0  0
   52.6121    3.3395   -1.5325 H   0  0  0  0  0
   50.8450    1.5274    1.0319 H   0  0  0  0  0
   51.9490    3.4532    1.7462 H   0  0  0  0  0
   48.5701    2.1917    1.7593 H   0  0  0  0  0
   49.0151    4.4489    1.6718 H   0  0  0  0  0
   48.4631    0.8655   -0.1198 H   0  0  0  0  0
   46.4433    3.0284   -0.6585 H   0  0  0  0  0
   46.3355    1.8180    0.6796 H   0  0  0  0  0
   45.1752    1.1962   -1.1972 H   0  0  0  0  0
   51.8793    0.7088   -3.7954 H   0  0  0  0  0
   49.1821   -1.9660   -5.8583 H   0  0  0  0  0
   48.3402   -0.7876   -1.7736 H   0  0  0  0  0
   45.9540   -3.2409   -4.4346 H   0  0  0  0  0
   49.5900   -7.5587   -3.3758 H   0  0  0  0  0
   49.8580   -8.4928   -5.0125 H   0  0  0  0  0
   49.2174   -5.7893   -4.3597 H   0  0  0  0  0
   49.9122   -6.6298   -5.8944 H   0  0  0  0  0
   48.2148   -6.1359   -6.8289 H   0  0  0  0  0
   47.2123   -8.0993   -6.5792 H   0  0  0  0  0
   45.9097   -6.9478   -5.9797 H   0  0  0  0  0
   46.5169   -7.4306   -3.7285 H   0  0  0  0  0
   46.1630   -8.9743   -4.6177 H   0  0  0  0  0
   46.1835   -5.1162   -5.5314 H   0  0  0  0  0
   47.7933   -4.4733   -4.8094 H   0  0  0  0  0
   48.3366   -3.7836   -7.1458 H   0  0  0  0  0
   46.6851   -4.1312   -7.5908 H   0  0  0  0  0
   47.6129   -1.7492   -6.3283 H   0  0  0  0  0
   45.9028   -2.2324   -6.5292 H   0  0  0  0  0
  1 10  1  0  0  0
  1  3  1  0  0  0
  1  2  1  0  0  0
  2 13  1  0  0  0
 13 18  4  0  0  0
 13 14  4  0  0  0
 14 15  4  0  0  0
 15 19  1  0  0  0
 15 16  4  0  0  0
 16 17  4  0  0  0
 17 22  1  0  0  0
 17 18  4  0  0  0
 22 24  1  0  0  0
 22 23  2  0  0  0
 24 33  1  0  0  0
 33 32  1  0  0  0
 32 31  1  0  0  0
 31 28  1  0  0  0
 28 29  1  0  0  0
 28 27  1  0  0  0
 27 26  1  0  0  0
 26 25  1  0  0  0
 25 30  1  0  0  0
 30 29  1  0  0  0
 19 21  2  0  0  0
 19 20  2  0  0  0
  3  5  1  0  0  0
  3  4  1  0  0  0
  5  7  1  0  0  0
  5  6  1  0  0  0
  7  9  1  0  0  0
  7  8  1  0  0  0
  9 11  1  0  0  0
  9 10  1  0  0  0
 11 12  1  0  0  0
  1 34  1  0  0  0
  3 35  1  0  0  0
  4 36  1  0  0  0
  5 37  1  0  0  0
  6 38  1  0  0  0
  7 39  1  0  0  0
  8 40  1  0  0  0
  9 41  1  0  0  0
 11 42  1  0  0  0
 11 43  1  0  0  0
 12 44  1  0  0  0
 14 45  1  0  0  0
 16 46  1  0  0  0
 18 47  1  0  0  0
 24 48  1  0  0  0
 26 49  1  0  0  0
 26 50  1  0  0  0
 27 51  1  0  0  0
 27 52  1  0  0  0
 28 53  1  0  0  0
 29 54  1  0  0  0
 29 55  1  0  0  0
 30 56  1  0  0  0
 30 57  1  0  0  0
 31 58  1  0  0  0
 31 59  1  0  0  0
 32 60  1  0  0  0
 32 61  1  0  0  0
 33 62  1  0  0  0
 33 63  1  0  0  0
M  END
$$$$
