6s43_ligand
  -I-interpret- 

 62 65  0  0  0  0  0  0  0  0999 V2000
  170.0470  -12.9490   31.4860 O   0  0  0  0  0
  171.9020   -7.0790   31.5960 C   0  0  0  0  0
  169.9420  -10.1510   32.0130 C   0  0  0  0  0
  165.7120  -10.3930   33.5790 O   0  0  0  0  0
  170.9990  -12.3580   31.9960 C   0  0  0  0  0
  172.0330  -15.4520   32.5510 N   0  0  0  0  0
  172.2240  -13.0990   32.4690 C   0  0  0  0  0
  172.3820  -14.4430   31.8280 C   0  0  0  0  0
  172.1570  -16.7050   31.9710 N   0  0  0  0  0
  172.5640  -17.0070   30.7340 C   0  0  0  0  0
  172.9390  -15.8660   29.8930 C   0  0  0  0  0
  173.2550  -16.0360   28.5350 C   0  0  0  0  0
  173.5190  -14.9220   27.7450 C   0  0  0  0  0
  165.7850  -11.5380   31.3990 N   0  0  0  0  0
  173.5000  -13.6340   28.3010 C   0  0  0  0  0
  173.1670  -13.4520   29.6360 C   0  0  0  0  0
  172.8660  -14.5740   30.4410 C   0  0  0  0  0
  165.9310  -10.1200   32.2070 S   0  0  0  0  0
  165.0960   -9.1650   31.5480 O   0  0  0  0  0
  166.1300  -11.5630   29.9640 C   0  0  0  0  0
  165.5690  -12.7300   29.1890 C   0  0  0  0  0
  164.0580  -12.7810   29.1580 C   0  0  0  0  0
  163.2830  -13.2960   30.3530 C   0  0  0  0  0
  163.9890  -14.1970   31.3340 C   0  0  0  0  0
  164.6340  -13.4780   32.5110 C   0  0  0  0  0
  165.9410  -12.7670   32.2120 C   0  0  0  0  0
  167.6090   -9.6200   32.0090 C   0  0  0  0  0
  168.6180  -10.5620   32.1380 C   0  0  0  0  0
  170.2210   -8.7920   31.7700 C   0  0  0  0  0
  171.5530   -8.4800   31.7140 O   0  0  0  0  0
  169.1910   -7.8820   31.6440 C   0  0  0  0  0
  167.8830   -8.2980   31.7490 C   0  0  0  0  0
  171.0430  -11.0200   32.1430 N   0  0  0  0  0
  172.5780  -18.1760   30.3360 O   0  0  0  0  0
  171.4694   -6.6739   30.6812 H   0  0  0  0  0
  171.5115   -6.5349   32.4560 H   0  0  0  0  0
  172.9868   -6.9777   31.5624 H   0  0  0  0  0
  172.1228  -13.2543   33.5431 H   0  0  0  0  0
  173.0958  -12.5010   32.2034 H   0  0  0  0  0
  171.9059  -17.4967   32.5630 H   0  0  0  0  0
  173.2931  -17.0358   28.1024 H   0  0  0  0  0
  173.7423  -15.0507   26.6859 H   0  0  0  0  0
  173.7480  -12.7721   27.6815 H   0  0  0  0  0
  173.1378  -12.4489   30.0614 H   0  0  0  0  0
  167.2156  -11.6403   29.9043 H   0  0  0  0  0
  165.7044  -10.6612   29.5239 H   0  0  0  0  0
  165.9124  -13.6395   29.6818 H   0  0  0  0  0
  165.9095  -12.6266   28.1587 H   0  0  0  0  0
  163.8291  -13.4906   28.3629 H   0  0  0  0  0
  163.7555  -11.7375   29.0707 H   0  0  0  0  0
  162.4821  -13.9043   29.9327 H   0  0  0  0  0
  163.0157  -12.4069   30.9240 H   0  0  0  0  0
  164.7914  -14.6928   30.7876 H   0  0  0  0  0
  163.2353  -14.8674   31.7471 H   0  0  0  0  0
  164.8617  -14.2433   33.2529 H   0  0  0  0  0
  163.9293  -12.7086   32.8264 H   0  0  0  0  0
  166.3741  -12.4704   33.1673 H   0  0  0  0  0
  166.5614  -13.4570   31.6400 H   0  0  0  0  0
  168.3785  -11.6071   32.3341 H   0  0  0  0  0
  169.4139   -6.8309   31.4608 H   0  0  0  0  0
  167.0691   -7.5834   31.6267 H   0  0  0  0  0
  171.9463  -10.6022   32.3665 H   0  0  0  0  0
  5  1  2  0  0  0
 30  2  1  0  0  0
  3 28  4  0  0  0
 29  3  4  0  0  0
  3 33  1  0  0  0
 18  4  2  0  0  0
  5  7  1  0  0  0
 33  5  1  0  0  0
  8  6  2  0  0  0
  6  9  1  0  0  0
  7  8  1  0  0  0
  8 17  1  0  0  0
  9 10  1  0  0  0
 11 10  1  0  0  0
 10 34  2  0  0  0
 11 12  4  0  0  0
 17 11  4  0  0  0
 12 13  4  0  0  0
 15 13  4  0  0  0
 18 14  1  0  0  0
 14 20  1  0  0  0
 14 26  1  0  0  0
 16 15  4  0  0  0
 17 16  4  0  0  0
 18 19  2  0  0  0
 27 18  1  0  0  0
 20 21  1  0  0  0
 21 22  1  0  0  0
 22 23  1  0  0  0
 24 23  1  0  0  0
 25 24  1  0  0  0
 26 25  1  0  0  0
 28 27  4  0  0  0
 27 32  4  0  0  0
 29 30  1  0  0  0
 29 31  4  0  0  0
 31 32  4  0  0  0
  2 35  1  0  0  0
  2 36  1  0  0  0
  2 37  1  0  0  0
  7 38  1  0  0  0
  7 39  1  0  0  0
  9 40  1  0  0  0
 12 41  1  0  0  0
 13 42  1  0  0  0
 15 43  1  0  0  0
 16 44  1  0  0  0
 20 45  1  0  0  0
 20 46  1  0  0  0
 21 47  1  0  0  0
 21 48  1  0  0  0
 22 49  1  0  0  0
 22 50  1  0  0  0
 23 51  1  0  0  0
 23 52  1  0  0  0
 24 53  1  0  0  0
 24 54  1  0  0  0
 25 55  1  0  0  0
 25 56  1  0  0  0
 26 57  1  0  0  0
 26 58  1  0  0  0
 28 59  1  0  0  0
 31 60  1  0  0  0
 32 61  1  0  0  0
 33 62  1  0  0  0
M  END
$$$$
