3wnr_ligand
  -I-interpret- 

 19 19  0  0  0  0  0  0  0  0999 V2000
   10.9110   -9.7310   -4.9110 S   0  0  0  0  0
    9.8050   -8.9590   -3.9180 C   0  0  0  0  0
    9.1480   -9.6810   -2.8820 N   0  0  0  0  0
    9.4430  -11.0840   -2.6570 C   0  0  0  0  0
    8.2130  -11.9270   -2.9880 C   0  0  0  0  0
    7.2380  -11.4350   -3.8570 C   0  0  0  0  0
    6.1160  -12.2140   -4.1690 C   0  0  0  0  0
    5.9780  -13.4780   -3.6230 C   0  0  0  0  0
    6.9560  -13.9690   -2.7510 C   0  0  0  0  0
    8.0690  -13.1970   -2.4350 C   0  0  0  0  0
    9.5878   -7.9011   -4.0654 H   0  0  0  0  0
    8.4634   -9.2078   -2.2922 H   0  0  0  0  0
    9.7135  -11.2337   -1.6118 H   0  0  0  0  0
   10.2718  -11.3865   -3.2970 H   0  0  0  0  0
    7.3496  -10.4426   -4.2939 H   0  0  0  0  0
    5.3519  -11.8244   -4.8417 H   0  0  0  0  0
    5.1103  -14.0892   -3.8714 H   0  0  0  0  0
    6.8449  -14.9626   -2.3167 H   0  0  0  0  0
    8.8275  -13.5855   -1.7554 H   0  0  0  0  0
  1  2  2  0  0  0
  2  3  1  0  0  0
  3  4  1  0  0  0
  4  5  1  0  0  0
  5  6  4  0  0  0
  5 10  4  0  0  0
  6  7  4  0  0  0
  7  8  4  0  0  0
  8  9  4  0  0  0
  9 10  4  0  0  0
  2 11  1  0  0  0
  3 12  1  0  0  0
  4 13  1  0  0  0
  4 14  1  0  0  0
  6 15  1  0  0  0
  7 16  1  0  0  0
  8 17  1  0  0  0
  9 18  1  0  0  0
 10 19  1  0  0  0
M  END
$$$$
