4tn2_ligand
  -I-interpret- 

 49 52  0  0  0  0  0  0  0  0999 V2000
   35.0430  -72.4480  -12.7390 C   0  0  0  0  0
   34.0300  -71.4180  -12.3830 C   0  0  0  0  0
   32.7110  -69.6740  -11.0610 C   0  0  0  0  0
   35.9690  -72.6960  -11.7760 O   0  0  0  0  0
   35.0880  -72.9910  -13.8460 O   0  0  0  0  0
   30.6070  -71.8620  -14.5320 O   0  0  0  0  0
   35.0280  -68.6520  -16.4390 C   0  0  0  0  0
   35.4710  -67.1880  -16.3790 C   0  0  0  0  0
   34.3100  -66.2610  -16.7870 C   0  0  0  0  0
   33.1340  -66.3940  -15.8160 C   0  0  0  0  0
   32.6940  -67.8550  -15.6450 C   0  0  0  0  0
   32.1730  -68.7330  -10.0780 C   0  0  0  0  0
   32.5620  -68.7380   -8.7120 C   0  0  0  0  0
   32.0030  -67.8220   -7.7920 C   0  0  0  0  0
   31.0790  -66.8450   -8.2380 C   0  0  0  0  0
   30.6910  -66.7960   -9.5970 C   0  0  0  0  0
   31.2530  -67.7240  -10.5070 C   0  0  0  0  0
   34.0090  -70.8000  -10.7290 S   0  0  0  0  0
   32.3120  -69.7970  -12.3570 C   0  0  0  0  0
   33.0460  -70.7650  -13.1080 C   0  0  0  0  0
   32.6820  -70.9550  -14.4860 N   0  0  0  0  0
   31.7520  -71.7610  -14.9640 C   0  0  0  0  0
   32.3180  -72.3870  -16.2310 C   0  0  0  0  0
   33.4740  -71.4320  -16.5920 C   0  0  0  0  0
   33.0870  -70.2470  -15.6990 C   0  0  0  0  0
   33.8300  -68.9090  -15.4890 C   0  0  0  0  0
   35.7610  -72.1806  -10.9933 H   0  0  0  0  0
   35.8614  -69.2826  -16.1295 H   0  0  0  0  0
   34.7214  -68.8832  -17.4591 H   0  0  0  0  0
   36.3035  -67.0396  -17.0668 H   0  0  0  0  0
   35.7754  -66.9498  -15.3598 H   0  0  0  0  0
   33.9728  -66.5415  -17.7849 H   0  0  0  0  0
   34.6631  -65.2299  -16.7692 H   0  0  0  0  0
   32.2932  -65.8291  -16.2186 H   0  0  0  0  0
   33.4498  -66.0164  -14.8435 H   0  0  0  0  0
   32.1610  -68.1186  -16.5585 H   0  0  0  0  0
   32.1197  -67.8909  -14.7193 H   0  0  0  0  0
   33.3031  -69.4594   -8.3678 H   0  0  0  0  0
   32.2828  -67.8673   -6.7395 H   0  0  0  0  0
   30.6649  -66.1272   -7.5298 H   0  0  0  0  0
   29.9694  -66.0542   -9.9392 H   0  0  0  0  0
   30.9781  -67.6685  -11.5603 H   0  0  0  0  0
   31.5015  -69.2070  -12.7849 H   0  0  0  0  0
   31.5788  -72.4805  -17.0266 H   0  0  0  0  0
   32.6455  -73.4167  -16.0875 H   0  0  0  0  0
   33.5666  -71.1996  -17.6529 H   0  0  0  0  0
   34.4735  -71.8318  -16.4210 H   0  0  0  0  0
   32.3893  -69.6491  -16.2853 H   0  0  0  0  0
   34.3294  -68.8820  -14.5205 H   0  0  0  0  0
  2  1  1  0  0  0
  1  4  1  0  0  0
  1  5  2  0  0  0
  2 18  4  0  0  0
 20  2  4  0  0  0
  3 12  1  0  0  0
  3 18  4  0  0  0
 19  3  4  0  0  0
 22  6  2  0  0  0
  7  8  1  0  0  0
 26  7  1  0  0  0
  8  9  1  0  0  0
 10  9  1  0  0  0
 11 10  1  0  0  0
 26 11  1  0  0  0
 12 13  4  0  0  0
 12 17  4  0  0  0
 13 14  4  0  0  0
 14 15  4  0  0  0
 16 15  4  0  0  0
 17 16  4  0  0  0
 20 19  4  0  0  0
 21 20  1  0  0  0
 21 22  1  0  0  0
 25 21  1  0  0  0
 23 22  1  0  0  0
 24 23  1  0  0  0
 25 24  1  0  0  0
 25 26  1  0  0  0
  4 27  1  0  0  0
  7 28  1  0  0  0
  7 29  1  0  0  0
  8 30  1  0  0  0
  8 31  1  0  0  0
  9 32  1  0  0  0
  9 33  1  0  0  0
 10 34  1  0  0  0
 10 35  1  0  0  0
 11 36  1  0  0  0
 11 37  1  0  0  0
 13 38  1  0  0  0
 14 39  1  0  0  0
 15 40  1  0  0  0
 16 41  1  0  0  0
 17 42  1  0  0  0
 19 43  1  0  0  0
 23 44  1  0  0  0
 23 45  1  0  0  0
 24 46  1  0  0  0
 24 47  1  0  0  0
 25 48  1  0  0  0
 26 49  1  0  0  0
M  END
$$$$
