6die_ligand
  -I-interpret- 

 21 21  0  0  0  0  0  0  0  0999 V2000
   -6.0520  -14.4280   33.9980 C   0  0  0  0  0
   -7.1490  -13.6960   34.4510 C   0  0  0  0  0
   -6.9790  -12.2240   34.6850 C   0  0  0  0  0
   -8.3680  -14.3250   34.6260 C   0  0  0  0  0
   -9.5720  -13.5710   35.1200 C   0  0  0  0  0
   -8.4770  -15.6940   34.4090 C   0  0  0  0  0
   -6.1690  -15.7960   33.7650 C   0  0  0  0  0
   -7.5420  -17.9040   33.7230 C   0  0  0  0  0
   -7.3840  -16.4290   33.9760 C   0  0  0  0  0
   -6.7820  -18.4950   32.9840 O   0  0  0  0  0
   -8.5260  -18.5800   34.3080 O   0  0  0  0  0
   -7.6650  -11.3990   34.1090 O   0  0  0  0  0
   -6.0330  -11.8180   35.5150 O   0  0  0  0  0
  -10.6860  -13.7720   34.6760 O   0  0  0  0  0
   -9.4330  -12.6810   36.0880 O   0  0  0  0  0
   -5.0992  -13.9275   33.8256 H   0  0  0  0  0
   -9.4302  -16.1939   34.5808 H   0  0  0  0  0
   -5.3080  -16.3671   33.4178 H   0  0  0  0  0
   -9.0394  -17.9838   34.8580 H   0  0  0  0  0
   -5.5850  -12.5817   35.8860 H   0  0  0  0  0
   -8.5082  -12.6252   36.3394 H   0  0  0  0  0
  1  2  4  0  0  0
  1  7  4  0  0  0
  2  3  1  0  0  0
  2  4  4  0  0  0
  3 12  2  0  0  0
  3 13  1  0  0  0
  4  5  1  0  0  0
  4  6  4  0  0  0
  5 14  2  0  0  0
  5 15  1  0  0  0
  6  9  4  0  0  0
  7  9  4  0  0  0
  9  8  1  0  0  0
  8 10  2  0  0  0
  8 11  1  0  0  0
  1 16  1  0  0  0
  6 17  1  0  0  0
  7 18  1  0  0  0
 11 19  1  0  0  0
 13 20  1  0  0  0
 15 21  1  0  0  0
M  END
$$$$
