2ay1_ligand
  -I-interpret- 

 23 23  0  0  0  0  0  0  0  0999 V2000
  103.3630   46.4480   11.7040 C   0  0  0  0  0
  102.8860   47.1490   12.9620 C   0  0  0  0  0
  103.3400   46.7700   14.0560 O   0  0  0  0  0
  102.0590   48.0820   12.8670 O   0  0  0  0  0
  102.2290   46.0930   10.7440 C   0  0  0  0  0
  101.3440   44.9730   11.2260 C   0  0  0  0  0
  101.5430   43.6680   10.7840 C   0  0  0  0  0
  100.2990   45.2240   12.1010 C   0  0  0  0  0
  100.7100   42.6340   11.2120 C   0  0  0  0  0
   99.4690   44.1960   12.5300 C   0  0  0  0  0
   99.6640   42.8910   12.0890 C   0  0  0  0  0
   98.7690   41.7920   12.5580 N   0  0  0  0  0
  103.8421   45.5170   12.0069 H   0  0  0  0  0
  104.0357   47.1287   11.1822 H   0  0  0  0  0
  101.8366   48.2181   11.9431 H   0  0  0  0  0
  102.6869   45.7639    9.8112 H   0  0  0  0  0
  101.6022   46.9790   10.6431 H   0  0  0  0  0
  102.3595   43.4515   10.0952 H   0  0  0  0  0
  100.1264   46.2398   12.4567 H   0  0  0  0  0
  100.8811   41.6181   10.8560 H   0  0  0  0  0
   98.6547   44.4146   13.2208 H   0  0  0  0  0
   98.9215   40.8368   12.2343 H   0  0  0  0  0
   98.0050   41.9963   13.2021 H   0  0  0  0  0
  1  2  1  0  0  0
  1  5  1  0  0  0
  2  3  2  0  0  0
  2  4  1  0  0  0
  5  6  1  0  0  0
  6  7  4  0  0  0
  6  8  4  0  0  0
  7  9  4  0  0  0
  8 10  4  0  0  0
  9 11  4  0  0  0
 10 11  4  0  0  0
 11 12  1  0  0  0
  1 13  1  0  0  0
  1 14  1  0  0  0
  4 15  1  0  0  0
  5 16  1  0  0  0
  5 17  1  0  0  0
  7 18  1  0  0  0
  8 19  1  0  0  0
  9 20  1  0  0  0
 10 21  1  0  0  0
 12 22  1  0  0  0
 12 23  1  0  0  0
M  END
$$$$
