6das_ligand
  -I-interpret- 

 54 58  0  0  0  0  0  0  0  0999 V2000
   32.6360   18.2190  -34.5920 C   0  0  0  0  0
   31.2840   18.0290  -34.2600 C   0  0  0  0  0
   36.1650   20.0590  -30.5340 C   0  0  0  0  0
   36.7520   18.0740  -27.4600 C   0  0  0  0  0
   36.8390   18.6470  -28.7190 C   0  0  0  0  0
   35.8900   19.5760  -29.1400 C   0  0  0  0  0
   37.8710   18.4110  -29.7770 C   0  0  0  0  0
   35.6900   18.4370  -26.6130 C   0  0  0  0  0
   34.7300   19.3860  -27.0250 C   0  0  0  0  0
   33.5840   19.7980  -26.2250 C   0  0  0  0  0
   32.8410   18.9870  -25.3770 C   0  0  0  0  0
   32.0310   21.0450  -25.4750 C   0  0  0  0  0
   31.6680   19.1470  -32.1470 C   0  0  0  0  0
   33.9260   20.0250  -31.5410 C   0  0  0  0  0
   33.0150   19.3330  -32.4890 C   0  0  0  0  0
   33.5030   18.8670  -33.7100 C   0  0  0  0  0
   30.7580   19.7140  -24.0150 C   0  0  0  0  0
   33.5370   21.0020  -30.9150 O   0  0  0  0  0
   30.3630   17.3290  -35.2220 C   0  0  0  0  0
   30.7980   18.4990  -33.0270 C   0  0  0  0  0
   29.4680   18.2720  -32.7820 O   0  0  0  0  0
   28.9450   18.7240  -31.5400 C   0  0  0  0  0
   35.1860   19.4890  -31.4270 N   0  0  0  0  0
   37.5820   19.5240  -30.8010 C   0  0  0  0  0
   31.8810   19.8130  -24.9200 N   0  0  0  0  0
   31.0020   21.9900  -25.0080 C   0  0  0  0  0
   30.2330   21.1610  -23.9450 C   0  0  0  0  0
   33.0520   21.0830  -26.2870 N   0  0  0  0  0
   34.8410   19.9390  -28.3100 C   0  0  0  0  0
   33.0122   17.8565  -35.5487 H   0  0  0  0  0
   36.1048   21.1385  -30.6721 H   0  0  0  0  0
   37.4979   17.3507  -27.1305 H   0  0  0  0  0
   37.8093   17.4129  -30.2107 H   0  0  0  0  0
   38.8888   18.4493  -29.3889 H   0  0  0  0  0
   35.6072   17.9802  -25.6268 H   0  0  0  0  0
   32.9974   17.9349  -25.1388 H   0  0  0  0  0
   31.2974   19.5103  -31.1885 H   0  0  0  0  0
   34.5514   19.0075  -33.9730 H   0  0  0  0  0
   31.0390   19.3211  -23.0379 H   0  0  0  0  0
   30.0017   19.0087  -24.3593 H   0  0  0  0  0
   30.3287   17.8842  -36.1594 H   0  0  0  0  0
   30.7328   16.3208  -35.4087 H   0  0  0  0  0
   29.3626   17.2767  -34.7924 H   0  0  0  0  0
   29.4774   18.2357  -30.7238 H   0  0  0  0  0
   29.0733   19.8038  -31.4646 H   0  0  0  0  0
   27.8847   18.4779  -31.4826 H   0  0  0  0  0
   35.4340   18.6719  -31.9849 H   0  0  0  0  0
   38.3127   20.3267  -30.7011 H   0  0  0  0  0
   37.6510   19.1301  -31.8150 H   0  0  0  0  0
   30.3599   22.3502  -25.8118 H   0  0  0  0  0
   31.4228   22.9113  -24.6052 H   0  0  0  0  0
   30.3929   21.5762  -22.9499 H   0  0  0  0  0
   29.1616   21.1872  -24.1440 H   0  0  0  0  0
   34.0985   20.6576  -28.6571 H   0  0  0  0  0
  2  1  4  0  0  0
  1 16  4  0  0  0
  2 19  1  0  0  0
 20  2  4  0  0  0
  3  6  1  0  0  0
 23  3  1  0  0  0
  3 24  1  0  0  0
  5  4  4  0  0  0
  4  8  4  0  0  0
  6  5  4  0  0  0
  7  5  1  0  0  0
  6 29  4  0  0  0
 24  7  1  0  0  0
  9  8  4  0  0  0
  9 10  1  0  0  0
 29  9  4  0  0  0
 10 11  4  0  0  0
 10 28  4  0  0  0
 11 25  4  0  0  0
 12 25  4  0  0  0
 12 26  1  0  0  0
 28 12  4  0  0  0
 15 13  4  0  0  0
 13 20  4  0  0  0
 14 15  1  0  0  0
 14 18  2  0  0  0
 14 23  1  0  0  0
 15 16  4  0  0  0
 25 17  1  0  0  0
 17 27  1  0  0  0
 20 21  1  0  0  0
 21 22  1  0  0  0
 26 27  1  0  0  0
  1 30  1  0  0  0
  3 31  1  0  0  0
  4 32  1  0  0  0
  7 33  1  0  0  0
  7 34  1  0  0  0
  8 35  1  0  0  0
 11 36  1  0  0  0
 13 37  1  0  0  0
 16 38  1  0  0  0
 17 39  1  0  0  0
 17 40  1  0  0  0
 19 41  1  0  0  0
 19 42  1  0  0  0
 19 43  1  0  0  0
 22 44  1  0  0  0
 22 45  1  0  0  0
 22 46  1  0  0  0
 23 47  1  0  0  0
 24 48  1  0  0  0
 24 49  1  0  0  0
 26 50  1  0  0  0
 26 51  1  0  0  0
 27 52  1  0  0  0
 27 53  1  0  0  0
 29 54  1  0  0  0
M  END
$$$$
