### 
### Created by X-TOOL on Mon Sep 10 21:13:07 2018
### 

@<TRIPOS>MOLECULE
3u1i_ligand
  103   103     1     0     0
SMALL
GAST_HUCK


@<TRIPOS>ATOM
      1 C          20.3410  -24.3140    8.1560 C.2       1 BEZ         0.2072
      2 O1         19.9950  -23.2270    7.7060 O.2       1 BEZ        -0.3845
      3 C1         19.3410  -25.1730    8.8870 C.ar      1 BEZ         0.0500
      4 C2         19.1800  -26.5190    8.5530 C.ar      1 BEZ        -0.0419
      5 C3         18.2440  -27.3180    9.2210 C.ar      1 BEZ        -0.0562
      6 C4         17.4600  -26.7800   10.2400 C.ar      1 BEZ        -0.0575
      7 C5         17.6150  -25.4330   10.5800 C.ar      1 BEZ        -0.0562
      8 C6         18.5540  -24.6300    9.9100 C.ar      1 BEZ        -0.0419
      9 N          21.5760  -24.7950    8.0520 N.am      1 NLE        -0.2649
     10 CA         22.6590  -24.4870    7.1130 C.3       1 NLE         0.1305
     11 C          23.5740  -23.4320    7.6550 C.2       1 NLE         0.2039
     12 O          23.9430  -23.5920    8.8020 O.2       1 NLE        -0.3944
     13 CB         22.2330  -24.3070    5.6580 C.3       1 NLE        -0.0124
     14 CG         21.7760  -25.6440    5.0750 C.3       1 NLE        -0.0491
     15 CD         22.9430  -26.5610    4.7170 C.3       1 NLE        -0.0557
     16 CE         22.7220  -27.0780    3.3280 C.3       1 NLE        -0.0653
     17 N          23.9670  -22.4010    6.9000 N.am      1 LYS        -0.2637
     18 CA         25.1680  -21.6280    7.2430 C.3       1 LYS         0.1310
     19 C          24.8990  -20.5220    8.2360 C.2       1 LYS         0.2039
     20 O          25.8300  -19.9540    8.8080 O.2       1 LYS        -0.3944
     21 CB         25.8600  -21.0640    5.9940 C.3       1 LYS        -0.0122
     22 CG         26.3290  -22.2080    5.0980 C.3       1 LYS        -0.0440
     23 CD         27.4660  -21.7800    4.1840 C.3       1 LYS        -0.0124
     24 CE         27.5810  -22.7450    3.0060 C.3       1 LYS        -0.0354
     25 NZ         28.9120  -22.6930    2.4250 N.4       1 LYS         0.2185
     26 N          23.6160  -20.2190    8.4350 N.am      1 ARG        -0.2637
     27 CA         23.2170  -19.0410    9.1670 C.3       1 ARG         0.1311
     28 C          22.2630  -19.3060   10.2940 C.2       1 ARG         0.2040
     29 O          21.3210  -20.0850   10.1640 O.2       1 ARG        -0.3944
     30 CB         22.5480  -18.0900    8.1850 C.3       1 ARG        -0.0092
     31 CG         23.4330  -16.8750    7.9790 C.3       1 ARG        -0.0156
     32 CD         23.9560  -16.7900    6.5570 C.3       1 ARG         0.0627
     33 NE         23.5300  -15.5660    5.9150 N.pl3     1 ARG        -0.2723
     34 CZ         24.3670  -14.7080    5.2990 C.cat     1 ARG         0.2882
     35 NH1        23.8200  -13.7050    4.6040 N.pl3     1 ARG        -0.2849
     36 NH2        25.7070  -14.8280    5.3750 N.pl3     1 ARG        -0.2849
     37 OH1        20.1750  -16.6650   11.9230 O.2       1 OAR        -0.3725
     38 N1         22.4830  -18.6170   11.4050 N.am      1 OAR        -0.2650
     39 N2         21.4650  -22.8660   13.2910 N.pl3     1 OAR        -0.2723
     40 N3         21.7950  -22.9290   10.9660 N.pl3     1 OAR        -0.2849
     41 N4         21.7570  -24.8720   12.2020 N.pl3     1 OAR        -0.2849
     42 C1         21.4830  -18.5800   12.4790 C.3       1 OAR         0.1129
     43 C2         22.0310  -19.1160   13.8030 C.3       1 OAR        -0.0105
     44 C3         22.4300  -20.5930   13.6990 C.3       1 OAR        -0.0155
     45 C4         21.2550  -21.4300   13.2190 C.3       1 OAR         0.0627
     46 C5         21.6710  -23.5490   12.1600 C.cat     1 OAR         0.2882
     47 C6         20.9690  -17.1810   12.7070 C.2       1 OAR         0.1245
     48 H          19.7910  -26.9536    7.7618 H         1 BEZ         0.0669
     49 H          18.1280  -28.3655    8.9428 H         1 BEZ         0.0629
     50 H          16.7350  -27.4018   10.7653 H         1 BEZ         0.0653
     51 H          17.0023  -25.0017   11.3716 H         1 BEZ         0.0629
     52 H          18.6699  -23.5823   10.1873 H         1 BEZ         0.0669
     53 H          21.8115  -25.5027    8.7478 H         1 NLE         0.1876
     54 H          23.2611  -25.3927    7.0401 H         1 NLE         0.0799
     55 H          23.0798  -23.9359    5.0807 H         1 NLE         0.0312
     56 H          21.4079  -23.5962    5.6122 H         1 NLE         0.0312
     57 H          21.2201  -25.4376    4.1604 H         1 NLE         0.0267
     58 H          21.1729  -26.1492    5.8294 H         1 NLE         0.0267
     59 H          22.9979  -27.3907    5.4217 H         1 NLE         0.0263
     60 H          23.8821  -26.0099    4.7671 H         1 NLE         0.0263
     61 H          21.7843  -27.6325    3.2930 H         1 NLE         0.0230
     62 H          22.6761  -26.2398    2.6327 H         1 NLE         0.0230
     63 H          23.5455  -27.7364    3.0515 H         1 NLE         0.0230
     64 H          23.4250  -22.1475    6.0739 H         1 LYS         0.1883
     65 H          25.8417  -22.3367    7.7247 H         1 LYS         0.0800
     66 H          26.7214  -20.4693    6.2981 H         1 LYS         0.0312
     67 H          25.1551  -20.4416    5.4428 H         1 LYS         0.0312
     68 H          25.4903  -22.5226    4.4770 H         1 LYS         0.0269
     69 H          26.6873  -23.0169    5.7347 H         1 LYS         0.0269
     70 H          28.3999  -21.7874    4.7460 H         1 LYS         0.0317
     71 H          27.2652  -20.7770    3.8075 H         1 LYS         0.0317
     72 H          26.8540  -22.4599    2.2456 H         1 LYS         0.0813
     73 H          27.3918  -23.7579    3.3614 H         1 LYS         0.0813
     74 H          28.9654  -23.3442    1.6417 H         1 LYS         0.1994
     75 H          29.1010  -21.7464    2.0953 H         1 LYS         0.1994
     76 H          29.6005  -22.9520    3.1316 H         1 LYS         0.1994
     77 H          22.8965  -20.8369    8.0595 H         1 ARG         0.1883
     78 H          24.1178  -18.6261    9.6193 H         1 ARG         0.0800
     79 H          21.5834  -17.7748    8.5828 H         1 ARG         0.0313
     80 H          22.3977  -18.5970    7.2319 H         1 ARG         0.0313
     81 H          24.2862  -16.9556    8.6526 H         1 ARG         0.0301
     82 H          22.8400  -15.9825    8.1788 H         1 ARG         0.0301
     83 H          23.5632  -17.6346    5.9909 H         1 ARG         0.0689
     84 H          25.0455  -16.8068    6.5855 H         1 ARG         0.0689
     85 H          22.5358  -15.3384    5.9293 H         1 ARG         0.2642
     86 H          22.8054  -13.6120    4.5554 H         1 ARG         0.2615
     87 H          24.4174  -13.0329    4.1225 H         1 ARG         0.2615
     88 H          26.1212  -15.5890    5.9133 H         1 ARG         0.2615
     89 H          26.3071  -14.1578    4.8942 H         1 ARG         0.2615
     90 H          23.3588  -18.1058   11.5150 H         1 OAR         0.1884
     91 H          21.4554  -23.3460   14.1910 H         1 OAR         0.2642
     92 H          21.7320  -21.9125   10.9102 H         1 OAR         0.2615
     93 H          21.9517  -23.4774   10.1204 H         1 OAR         0.2615
     94 H          21.6661  -25.3610   13.0925 H         1 OAR         0.2615
     95 H          21.9140  -25.4004   11.3438 H         1 OAR         0.2615
     96 H          20.6687  -19.2239   12.1468 H         1 OAR         0.0790
     97 H          21.2506  -19.0246   14.5585 H         1 OAR         0.0314
     98 H          22.9182  -18.5394   14.0647 H         1 OAR         0.0314
     99 H          22.7379  -20.9466   14.6830 H         1 OAR         0.0301
    100 H          23.2481  -20.6892   12.9852 H         1 OAR         0.0301
    101 H          20.4126  -21.1988   13.8710 H         1 OAR         0.0689
    102 H          21.0974  -21.1840   12.1689 H         1 OAR         0.0689
    103 H1         21.3056  -16.6202   13.5777 H         1 OAR         0.1373
@<TRIPOS>BOND
     1    1    2 2  
     2    1    3 1  
     3    9    1 am 
     4    3    4 ar 
     5    3    8 ar 
     6    4    5 ar 
     7    5    6 ar 
     8    7    6 ar 
     9    8    7 ar 
    10   10    9 1  
    11   11   10 1  
    12   10   13 1  
    13   11   12 2  
    14   17   11 am 
    15   13   14 1  
    16   14   15 1  
    17   15   16 1  
    18   18   17 1  
    19   19   18 1  
    20   18   21 1  
    21   19   20 2  
    22   26   19 am 
    23   21   22 1  
    24   22   23 1  
    25   23   24 1  
    26   24   25 1  
    27   27   26 1  
    28   28   27 1  
    29   27   30 1  
    30   28   29 2  
    31   38   28 am 
    32   30   31 1  
    33   31   32 1  
    34   32   33 1  
    35   33   34 ar 
    36   34   35 ar 
    37   34   36 ar 
    38   47   37 2  
    39   42   38 1  
    40   45   39 1  
    41   39   46 ar 
    42   46   40 ar 
    43   46   41 ar 
    44   43   42 1  
    45   42   47 1  
    46   44   43 1  
    47   44   45 1  
    48    4   48 1  
    49    5   49 1  
    50    6   50 1  
    51    7   51 1  
    52    8   52 1  
    53    9   53 1  
    54   10   54 1  
    55   13   55 1  
    56   13   56 1  
    57   14   57 1  
    58   14   58 1  
    59   15   59 1  
    60   15   60 1  
    61   16   61 1  
    62   16   62 1  
    63   16   63 1  
    64   17   64 1  
    65   18   65 1  
    66   21   66 1  
    67   21   67 1  
    68   22   68 1  
    69   22   69 1  
    70   23   70 1  
    71   23   71 1  
    72   24   72 1  
    73   24   73 1  
    74   25   74 1  
    75   25   75 1  
    76   25   76 1  
    77   26   77 1  
    78   27   78 1  
    79   30   79 1  
    80   30   80 1  
    81   31   81 1  
    82   31   82 1  
    83   32   83 1  
    84   32   84 1  
    85   33   85 1  
    86   35   86 1  
    87   35   87 1  
    88   36   88 1  
    89   36   89 1  
    90   38   90 1  
    91   39   91 1  
    92   40   92 1  
    93   40   93 1  
    94   41   94 1  
    95   41   95 1  
    96   42   96 1  
    97   43   97 1  
    98   43   98 1  
    99   44   99 1  
   100   44  100 1  
   101   45  101 1  
   102   45  102 1  
   103   47  103 1  
@<TRIPOS>SUBSTRUCTURE
     1 BEZ         1

