3u1i_ligand
  -I-interpret- 

101101  0  0  0  0  0  0  0  0999 V2000
   20.3410  -24.3140    8.1560 C   0  0  0  0  0
   19.9950  -23.2270    7.7060 O   0  0  0  0  0
   19.3410  -25.1730    8.8870 C   0  0  0  0  0
   19.1800  -26.5190    8.5530 C   0  0  0  0  0
   18.2440  -27.3180    9.2210 C   0  0  0  0  0
   17.4600  -26.7800   10.2400 C   0  0  0  0  0
   17.6150  -25.4330   10.5800 C   0  0  0  0  0
   18.5540  -24.6300    9.9100 C   0  0  0  0  0
   21.5760  -24.7950    8.0520 N   0  0  0  0  0
   22.6590  -24.4870    7.1130 C   0  0  0  0  0
   23.5740  -23.4320    7.6550 C   0  0  0  0  0
   23.9430  -23.5920    8.8020 O   0  0  0  0  0
   22.2330  -24.3070    5.6580 C   0  0  0  0  0
   21.7760  -25.6440    5.0750 C   0  0  0  0  0
   22.9430  -26.5610    4.7170 C   0  0  0  0  0
   22.7220  -27.0780    3.3280 C   0  0  0  0  0
   23.9670  -22.4010    6.9000 N   0  0  0  0  0
   25.1680  -21.6280    7.2430 C   0  0  0  0  0
   24.8990  -20.5220    8.2360 C   0  0  0  0  0
   25.8300  -19.9540    8.8080 O   0  0  0  0  0
   25.8600  -21.0640    5.9940 C   0  0  0  0  0
   26.3290  -22.2080    5.0980 C   0  0  0  0  0
   27.4660  -21.7800    4.1840 C   0  0  0  0  0
   27.5810  -22.7450    3.0060 C   0  0  0  0  0
   28.9120  -22.6930    2.4250 N   0  3  0  0  0
   23.6160  -20.2190    8.4350 N   0  0  0  0  0
   23.2170  -19.0410    9.1670 C   0  0  0  0  0
   22.2630  -19.3060   10.2940 C   0  0  0  0  0
   21.3210  -20.0850   10.1640 O   0  0  0  0  0
   22.5480  -18.0900    8.1850 C   0  0  0  0  0
   23.4330  -16.8750    7.9790 C   0  0  0  0  0
   23.9560  -16.7900    6.5570 C   0  0  0  0  0
   23.5300  -15.5660    5.9150 N   0  0  0  0  0
   24.3670  -14.7080    5.2990 C   0  0  0  0  0
   23.8200  -13.7050    4.6040 N   0  0  0  0  0
   25.7070  -14.8280    5.3750 N   0  0  0  0  0
   20.1750  -16.6650   11.9230 O   0  0  0  0  0
   22.4830  -18.6170   11.4050 N   0  0  0  0  0
   21.4650  -22.8660   13.2910 N   0  0  0  0  0
   21.7950  -22.9290   10.9660 N   0  0  0  0  0
   21.7570  -24.8720   12.2020 N   0  0  0  0  0
   21.4830  -18.5800   12.4790 C   0  0  0  0  0
   22.0310  -19.1160   13.8030 C   0  0  0  0  0
   22.4300  -20.5930   13.6990 C   0  0  0  0  0
   21.2550  -21.4300   13.2190 C   0  0  0  0  0
   21.6710  -23.5490   12.1600 C   0  0  0  0  0
   20.9690  -17.1810   12.7070 C   0  0  0  0  0
   19.7910  -26.9536    7.7618 H   0  0  0  0  0
   18.1280  -28.3655    8.9428 H   0  0  0  0  0
   16.7350  -27.4018   10.7653 H   0  0  0  0  0
   17.0023  -25.0017   11.3716 H   0  0  0  0  0
   18.6699  -23.5823   10.1873 H   0  0  0  0  0
   21.8115  -25.5027    8.7478 H   0  0  0  0  0
   23.2611  -25.3927    7.0401 H   0  0  0  0  0
   23.0798  -23.9359    5.0807 H   0  0  0  0  0
   21.4079  -23.5962    5.6122 H   0  0  0  0  0
   21.2201  -25.4376    4.1604 H   0  0  0  0  0
   21.1729  -26.1492    5.8294 H   0  0  0  0  0
   22.9979  -27.3907    5.4217 H   0  0  0  0  0
   23.8821  -26.0099    4.7671 H   0  0  0  0  0
   21.7843  -27.6325    3.2930 H   0  0  0  0  0
   22.6761  -26.2398    2.6327 H   0  0  0  0  0
   23.5455  -27.7364    3.0515 H   0  0  0  0  0
   23.4250  -22.1475    6.0739 H   0  0  0  0  0
   25.8417  -22.3367    7.7247 H   0  0  0  0  0
   26.7214  -20.4693    6.2981 H   0  0  0  0  0
   25.1551  -20.4416    5.4428 H   0  0  0  0  0
   25.4903  -22.5226    4.4770 H   0  0  0  0  0
   26.6873  -23.0169    5.7347 H   0  0  0  0  0
   28.3999  -21.7874    4.7460 H   0  0  0  0  0
   27.2652  -20.7770    3.8075 H   0  0  0  0  0
   26.8540  -22.4599    2.2456 H   0  0  0  0  0
   27.3918  -23.7579    3.3614 H   0  0  0  0  0
   28.9654  -23.3442    1.6417 H   0  0  0  0  0
   29.1010  -21.7464    2.0953 H   0  0  0  0  0
   29.6005  -22.9520    3.1316 H   0  0  0  0  0
   22.8965  -20.8369    8.0595 H   0  0  0  0  0
   24.1178  -18.6261    9.6193 H   0  0  0  0  0
   21.5834  -17.7748    8.5828 H   0  0  0  0  0
   22.3977  -18.5970    7.2319 H   0  0  0  0  0
   24.2862  -16.9556    8.6526 H   0  0  0  0  0
   22.8400  -15.9825    8.1788 H   0  0  0  0  0
   23.5632  -17.6346    5.9909 H   0  0  0  0  0
   25.0455  -16.8068    6.5855 H   0  0  0  0  0
   22.5358  -15.3384    5.9293 H   0  0  0  0  0
   22.8054  -13.6120    4.5554 H   0  0  0  0  0
   26.3072  -14.1527    4.9016 H   0  0  0  0  0
   26.1211  -15.5942    5.9059 H   0  0  0  0  0
   23.3588  -18.1058   11.5150 H   0  0  0  0  0
   21.4554  -23.3460   14.1910 H   0  0  0  0  0
   21.9514  -23.4775   10.1204 H   0  0  0  0  0
   21.7322  -21.9125   10.9102 H   0  0  0  0  0
   21.6661  -25.3610   13.0925 H   0  0  0  0  0
   20.6687  -19.2239   12.1468 H   0  0  0  0  0
   21.2506  -19.0246   14.5585 H   0  0  0  0  0
   22.9182  -18.5394   14.0647 H   0  0  0  0  0
   22.7379  -20.9466   14.6830 H   0  0  0  0  0
   23.2481  -20.6892   12.9852 H   0  0  0  0  0
   20.4126  -21.1988   13.8710 H   0  0  0  0  0
   21.0974  -21.1840   12.1689 H   0  0  0  0  0
   21.3059  -16.6197   13.5785 H   0  0  0  0  0
  1  2  2  0  0  0
  1  3  1  0  0  0
  9  1  1  0  0  0
  3  4  4  0  0  0
  3  8  4  0  0  0
  4  5  4  0  0  0
  5  6  4  0  0  0
  7  6  4  0  0  0
  8  7  4  0  0  0
 10  9  1  0  0  0
 11 10  1  0  0  0
 10 13  1  0  0  0
 11 12  2  0  0  0
 17 11  1  0  0  0
 13 14  1  0  0  0
 14 15  1  0  0  0
 15 16  1  0  0  0
 18 17  1  0  0  0
 19 18  1  0  0  0
 18 21  1  0  0  0
 19 20  2  0  0  0
 26 19  1  0  0  0
 21 22  1  0  0  0
 22 23  1  0  0  0
 23 24  1  0  0  0
 24 25  1  0  0  0
 27 26  1  0  0  0
 28 27  1  0  0  0
 27 30  1  0  0  0
 28 29  2  0  0  0
 38 28  1  0  0  0
 30 31  1  0  0  0
 31 32  1  0  0  0
 32 33  1  0  0  0
 33 34  1  0  0  0
 34 35  2  0  0  0
 34 36  1  0  0  0
 47 37  2  0  0  0
 42 38  1  0  0  0
 45 39  1  0  0  0
 39 46  1  0  0  0
 46 40  1  0  0  0
 46 41  2  0  0  0
 43 42  1  0  0  0
 42 47  1  0  0  0
 44 43  1  0  0  0
 44 45  1  0  0  0
  4 48  1  0  0  0
  5 49  1  0  0  0
  6 50  1  0  0  0
  7 51  1  0  0  0
  8 52  1  0  0  0
  9 53  1  0  0  0
 10 54  1  0  0  0
 13 55  1  0  0  0
 13 56  1  0  0  0
 14 57  1  0  0  0
 14 58  1  0  0  0
 15 59  1  0  0  0
 15 60  1  0  0  0
 16 61  1  0  0  0
 16 62  1  0  0  0
 16 63  1  0  0  0
 17 64  1  0  0  0
 18 65  1  0  0  0
 21 66  1  0  0  0
 21 67  1  0  0  0
 22 68  1  0  0  0
 22 69  1  0  0  0
 23 70  1  0  0  0
 23 71  1  0  0  0
 24 72  1  0  0  0
 24 73  1  0  0  0
 25 74  1  0  0  0
 25 75  1  0  0  0
 25 76  1  0  0  0
 26 77  1  0  0  0
 27 78  1  0  0  0
 30 79  1  0  0  0
 30 80  1  0  0  0
 31 81  1  0  0  0
 31 82  1  0  0  0
 32 83  1  0  0  0
 32 84  1  0  0  0
 33 85  1  0  0  0
 35 86  1  0  0  0
 36 87  1  0  0  0
 36 88  1  0  0  0
 38 89  1  0  0  0
 39 90  1  0  0  0
 40 91  1  0  0  0
 40 92  1  0  0  0
 41 93  1  0  0  0
 42 94  1  0  0  0
 43 95  1  0  0  0
 43 96  1  0  0  0
 44 97  1  0  0  0
 44 98  1  0  0  0
 45 99  1  0  0  0
 45100  1  0  0  0
 47101  1  0  0  0
M  END
$$$$
