1cny_ligand
  -I-interpret- 

 64 65  0  0  0  0  0  0  0  0999 V2000
   -6.0570    1.1260   17.0250 S   0  0  0  0  0
   -5.6570    1.0840   18.4380 O   0  0  0  0  0
   -7.4720    1.0420   16.8840 O   0  0  0  0  0
   -5.3550   -0.0420   16.4600 N   0  0  0  0  0
   -4.5530    4.6290   14.6940 C   0  0  0  0  0
   -3.7060    3.5860   15.0470 C   0  0  0  0  0
   -4.1460    2.5020   15.7530 C   0  0  0  0  0
   -5.4760    2.4600   16.1070 C   0  0  0  0  0
   -6.3240    3.4610   15.7530 C   0  0  0  0  0
   -5.8840    4.5870   15.0470 C   0  0  0  0  0
   -4.0700    5.6710   13.9870 C   0  0  0  0  0
   -4.6680    6.6720   13.4930 O   0  0  0  0  0
   -2.6360    5.8380   13.5630 N   0  0  0  0  0
   -2.3600    6.8800   12.5040 C   0  0  0  0  0
   -1.9520    8.2150   13.0690 C   0  0  0  0  0
   -1.1000    8.1730   14.0580 O   0  0  0  0  0
   -1.2600    9.0910   15.3290 C   0  0  0  0  0
   -1.1310   10.5500   14.8350 C   0  0  0  0  0
   -0.3360   11.3350   15.7840 O   0  0  0  0  0
    0.7430   12.0990   15.0450 C   0  0  0  0  0
    1.4770   12.9510   15.9490 C   0  0  0  0  0
    2.3130   13.8210   15.1390 N   0  0  0  0  0
    3.1130   14.7450   16.0470 C   0  0  0  0  0
    3.0030   14.6740   17.2760 O   0  0  0  0  0
    4.1370   15.6800   15.4470 C   0  0  0  0  0
    3.4680   16.9810   15.0790 N   0  3  0  0  0
    5.3480   15.9350   16.3490 C   0  0  0  0  0
    6.2940   16.9980   15.7530 C   0  0  0  0  0
    7.2000   16.5800   14.7590 C   0  0  0  0  0
    8.0720   17.5260   14.1870 C   0  0  0  0  0
    8.0340   18.8060   14.5990 C   0  0  0  0  0
    7.1290   19.2250   15.5950 C   0  0  0  0  0
    6.2890   18.2640   16.1870 C   0  0  0  0  0
   -5.8874   -0.7968   16.0273 H   0  0  0  0  0
   -4.3372   -0.0948   16.5020 H   0  0  0  0  0
   -2.6579    3.6338   14.7516 H   0  0  0  0  0
   -3.4655    1.6959   16.0273 H   0  0  0  0  0
   -7.3764    3.3851   16.0264 H   0  0  0  0  0
   -6.5660    5.3967   14.7874 H   0  0  0  0  0
   -1.8881    5.2763   13.9698 H   0  0  0  0  0
   -3.2821    7.0293   11.9423 H   0  0  0  0  0
   -1.5341    6.5160   11.8928 H   0  0  0  0  0
   -2.8589    8.6752   13.4613 H   0  0  0  0  0
   -1.4608    8.7562   12.2603 H   0  0  0  0  0
   -0.4981    8.8623   16.0742 H   0  0  0  0  0
   -2.2235    8.9258   15.8112 H   0  0  0  0  0
   -2.1253   10.9889   14.7525 H   0  0  0  0  0
   -0.6368   10.5562   13.8635 H   0  0  0  0  0
    0.2744   12.7184   14.2802 H   0  0  0  0  0
    1.4336   11.3858   14.5950 H   0  0  0  0  0
    2.0880   12.3546   16.6265 H   0  0  0  0  0
    0.7934   13.5385   16.5619 H   0  0  0  0  0
    2.3570   13.8138   14.1200 H   0  0  0  0  0
    4.5328   15.1888   14.5581 H   0  0  0  0  0
    4.1577   17.6138   14.6737 H   0  0  0  0  0
    2.7287   16.8015   14.3995 H   0  0  0  0  0
    3.0668   17.4043   15.9158 H   0  0  0  0  0
    5.9021   15.0018   16.4499 H   0  0  0  0  0
    4.9875   16.2987   17.3112 H   0  0  0  0  0
    7.2258   15.5389   14.4371 H   0  0  0  0  0
    8.7760   17.2220   13.4124 H   0  0  0  0  0
    8.7151   19.5319   14.1548 H   0  0  0  0  0
    7.0809   20.2704   15.8999 H   0  0  0  0  0
    5.6292   18.5527   17.0052 H   0  0  0  0  0
  1  8  1  0  0  0
  1  4  1  0  0  0
  1  3  2  0  0  0
  1  2  2  0  0  0
  8  9  4  0  0  0
  8  7  4  0  0  0
  7  6  4  0  0  0
  6  5  4  0  0  0
  5 11  1  0  0  0
  5 10  4  0  0  0
 10  9  4  0  0  0
 11 13  1  0  0  0
 11 12  2  0  0  0
 13 14  1  0  0  0
 14 15  1  0  0  0
 15 16  1  0  0  0
 16 17  1  0  0  0
 17 18  1  0  0  0
 18 19  1  0  0  0
 19 20  1  0  0  0
 20 21  1  0  0  0
 21 22  1  0  0  0
 22 23  1  0  0  0
 23 25  1  0  0  0
 23 24  2  0  0  0
 25 27  1  0  0  0
 25 26  1  0  0  0
 27 28  1  0  0  0
 28 33  4  0  0  0
 28 29  4  0  0  0
 29 30  4  0  0  0
 30 31  4  0  0  0
 31 32  4  0  0  0
 32 33  4  0  0  0
  4 34  1  0  0  0
  4 35  1  0  0  0
  6 36  1  0  0  0
  7 37  1  0  0  0
  9 38  1  0  0  0
 10 39  1  0  0  0
 13 40  1  0  0  0
 14 41  1  0  0  0
 14 42  1  0  0  0
 15 43  1  0  0  0
 15 44  1  0  0  0
 17 45  1  0  0  0
 17 46  1  0  0  0
 18 47  1  0  0  0
 18 48  1  0  0  0
 20 49  1  0  0  0
 20 50  1  0  0  0
 21 51  1  0  0  0
 21 52  1  0  0  0
 22 53  1  0  0  0
 25 54  1  0  0  0
 26 55  1  0  0  0
 26 56  1  0  0  0
 26 57  1  0  0  0
 27 58  1  0  0  0
 27 59  1  0  0  0
 29 60  1  0  0  0
 30 61  1  0  0  0
 31 62  1  0  0  0
 32 63  1  0  0  0
 33 64  1  0  0  0
M  END
$$$$
