6un3_ligand
  -I-interpret- 

 41 43  0  0  0  0  0  0  0  0999 V2000
   -6.0970   37.0610  -17.0730 C   0  0  0  0  0
   -5.9600   36.8010  -15.8870 O   0  0  0  0  0
   -6.1710   38.4680  -17.5960 C   0  0  0  0  0
   -4.8510   38.7350  -18.3110 C   0  0  0  0  0
   -4.1830   40.3740  -18.1170 S   0  0  0  0  0
   -2.7670   39.8770  -17.1680 C   0  0  0  0  0
   -1.5370   39.9020  -18.0650 C   0  0  0  0  0
   -2.5600   40.7460  -15.9500 C   0  0  0  0  0
   -3.1070   38.4410  -16.6870 C   0  0  0  0  0
   -1.8860   37.6810  -16.3000 C   0  0  0  0  0
   -1.5130   36.8590  -17.1360 O   0  0  0  0  0
   -1.2840   37.8690  -15.2120 O   0  0  0  0  0
   -3.8420   37.7610  -17.7770 N   0  0  0  0  0
   -6.4650   39.3740  -16.5100 N   0  0  0  0  0
   -7.2130   40.4470  -16.6610 C   0  0  0  0  0
   -7.7150   40.6820  -17.7490 O   0  0  0  0  0
   -7.4860   41.2920  -15.4070 C   0  0  0  0  0
   -8.8280   41.9050  -15.6110 C   0  0  0  0  0
   -9.8260   41.1690  -15.4960 O   0  0  0  0  0
   -8.9210   43.0600  -16.0200 O   0  0  0  0  0
   -6.3580   42.1800  -15.0630 C   0  0  0  0  0
   -5.8830   42.1690  -13.7600 C   0  0  0  0  0
   -4.5500   43.2580  -13.6820 S   0  0  0  0  0
   -4.6590   43.7260  -15.3470 C   0  0  0  0  0
   -5.7080   43.0430  -15.9830 C   0  0  0  0  0
   -6.9786   38.6200  -18.3121 H   0  0  0  0  0
   -5.0583   38.6251  -19.3755 H   0  0  0  0  0
   -1.3469   40.9248  -18.3904 H   0  0  0  0  0
   -0.6761   39.5302  -17.5094 H   0  0  0  0  0
   -1.7105   39.2689  -18.9351 H   0  0  0  0  0
   -1.7040   40.3783  -15.3841 H   0  0  0  0  0
   -2.3748   41.7729  -16.2651 H   0  0  0  0  0
   -3.4523   40.7117  -15.3249 H   0  0  0  0  0
   -3.7251   38.4917  -15.7906 H   0  0  0  0  0
   -1.7382   38.5494  -14.7097 H   0  0  0  0  0
   -6.0771   39.1742  -15.5880 H   0  0  0  0  0
   -7.5378   40.7030  -14.4913 H   0  0  0  0  0
   -9.5527   40.3107  -15.1639 H   0  0  0  0  0
   -6.2809   41.5784  -12.9348 H   0  0  0  0  0
   -4.0045   44.4497  -15.8328 H   0  0  0  0  0
   -5.9832   43.1589  -17.0313 H   0  0  0  0  0
  1  2  2  0  0  0
  1  3  1  0  0  0
  3  4  1  0  0  0
  3 14  1  0  0  0
  4  5  1  0  0  0
  4 13  1  0  0  0
  5  6  1  0  0  0
  6  7  1  0  0  0
  6  8  1  0  0  0
  6  9  1  0  0  0
  9 10  1  0  0  0
  9 13  1  0  0  0
 10 11  2  0  0  0
 10 12  1  0  0  0
 14 15  1  0  0  0
 15 16  2  0  0  0
 15 17  1  0  0  0
 17 18  1  0  0  0
 17 21  1  0  0  0
 18 19  1  0  0  0
 18 20  2  0  0  0
 21 22  4  0  0  0
 21 25  4  0  0  0
 22 23  4  0  0  0
 23 24  4  0  0  0
 24 25  4  0  0  0
  1 13  1  0  0  0
  3 26  1  0  0  0
  4 27  1  0  0  0
  7 28  1  0  0  0
  7 29  1  0  0  0
  7 30  1  0  0  0
  8 31  1  0  0  0
  8 32  1  0  0  0
  8 33  1  0  0  0
  9 34  1  0  0  0
 12 35  1  0  0  0
 14 36  1  0  0  0
 17 37  1  0  0  0
 19 38  1  0  0  0
 22 39  1  0  0  0
 24 40  1  0  0  0
 25 41  1  0  0  0
M  END
$$$$
