6ajz_ligand
  -I-interpret- 

 54 56  0  0  0  0  0  0  0  0999 V2000
  -14.6340    7.2240   -5.5380 O   0  0  0  0  0
  -15.7780    7.5660   -5.2500 C   0  0  0  0  0
  -16.9530    7.2120   -6.1450 C   0  0  0  0  0
  -16.0620    7.9970   -4.0530 N   0  0  0  0  0
  -15.0160    8.5940   -3.1660 C   0  0  0  0  0
  -14.5840    7.8180   -2.0070 C   0  0  0  0  0
  -15.5330    6.9060   -1.5230 C   0  0  0  0  0
  -15.4480    9.9670   -2.8200 C   0  0  0  0  0
  -14.4020   10.6550   -1.9450 C   0  0  0  0  0
  -13.0820   10.3700   -2.3830 C   0  0  0  0  0
  -12.3690   11.3950   -3.0280 C   0  0  0  0  0
  -11.0620   11.1260   -3.4830 C   0  0  0  0  0
  -10.4930    9.8960   -3.2650 C   0  0  0  0  0
  -11.2020    8.8870   -2.6170 C   0  0  0  0  0
  -10.5840    7.6770   -2.4330 O   0  0  0  0  0
  -10.6660    6.8500   -3.5790 C   0  0  0  0  0
   -9.2130    9.6360   -3.7080 O   0  0  0  0  0
   -8.2000   10.0430   -2.8280 C   0  0  0  0  0
  -10.2390   12.0440   -4.1280 O   0  0  0  0  0
  -10.8880   13.2880   -4.3850 C   0  0  0  0  0
  -12.5130    9.1030   -2.1620 C   0  0  0  0  0
  -13.2860    8.0600   -1.5230 C   0  0  0  0  0
  -12.6250    7.4250   -0.4750 C   0  0  0  0  0
  -13.0980    6.3710    0.3160 C   0  0  0  0  0
  -14.3390    5.7070    0.3390 C   0  0  0  0  0
  -15.4710    6.0010   -0.4490 C   0  0  0  0  0
  -16.5040    5.3610   -0.1530 O   0  0  0  0  0
  -14.5530    4.6550    1.1920 O   0  0  0  0  0
  -13.4750    4.0300    1.8940 C   0  0  0  0  0
  -16.8002    7.6477   -7.1324 H   0  0  0  0  0
  -17.0279    6.1281   -6.2324 H   0  0  0  0  0
  -17.8712    7.6071   -5.7103 H   0  0  0  0  0
  -17.0210    7.9254   -3.7129 H   0  0  0  0  0
  -14.0916    8.5981   -3.7436 H   0  0  0  0  0
  -16.4754    6.8974   -2.0706 H   0  0  0  0  0
  -16.3881    9.9137   -2.2710 H   0  0  0  0  0
  -15.5724   10.5403   -3.7387 H   0  0  0  0  0
  -14.5123   10.2878   -0.9247 H   0  0  0  0  0
  -14.5588   11.7320   -2.0046 H   0  0  0  0  0
  -12.8173   12.3778   -3.1735 H   0  0  0  0  0
  -11.7133    6.6616   -3.8153 H   0  0  0  0  0
  -10.1864    7.3493   -4.4209 H   0  0  0  0  0
  -10.1613    5.9046   -3.3801 H   0  0  0  0  0
   -8.2691   11.1192   -2.6693 H   0  0  0  0  0
   -8.3181    9.5257   -1.8759 H   0  0  0  0  0
   -7.2281    9.7994   -3.2572 H   0  0  0  0  0
  -11.7578   13.1183   -5.0196 H   0  0  0  0  0
  -11.2060   13.7322   -3.4417 H   0  0  0  0  0
  -10.1944   13.9608   -4.8893 H   0  0  0  0  0
  -11.6244    7.7904   -0.2438 H   0  0  0  0  0
  -12.3769    5.9983    1.0435 H   0  0  0  0  0
  -12.7608    3.6268    1.1760 H   0  0  0  0  0
  -12.9796    4.7665    2.5267 H   0  0  0  0  0
  -13.8658    3.2220    2.5125 H   0  0  0  0  0
  1  2  2  0  0  0
  2  3  1  0  0  0
  2  4  1  0  0  0
  4  5  1  0  0  0
  5  6  1  0  0  0
  5  8  1  0  0  0
  6  7  2  0  0  0
  6 22  1  0  0  0
  7 26  1  0  0  0
  8  9  1  0  0  0
  9 10  1  0  0  0
 10 11  4  0  0  0
 10 21  4  0  0  0
 11 12  4  0  0  0
 12 13  4  0  0  0
 12 19  1  0  0  0
 13 14  4  0  0  0
 13 17  1  0  0  0
 14 15  1  0  0  0
 14 21  4  0  0  0
 15 16  1  0  0  0
 17 18  1  0  0  0
 19 20  1  0  0  0
 21 22  1  0  0  0
 22 23  2  0  0  0
 23 24  1  0  0  0
 24 25  2  0  0  0
 25 26  1  0  0  0
 25 28  1  0  0  0
 26 27  2  0  0  0
 28 29  1  0  0  0
  3 30  1  0  0  0
  3 31  1  0  0  0
  3 32  1  0  0  0
  4 33  1  0  0  0
  5 34  1  0  0  0
  7 35  1  0  0  0
  8 36  1  0  0  0
  8 37  1  0  0  0
  9 38  1  0  0  0
  9 39  1  0  0  0
 11 40  1  0  0  0
 16 41  1  0  0  0
 16 42  1  0  0  0
 16 43  1  0  0  0
 18 44  1  0  0  0
 18 45  1  0  0  0
 18 46  1  0  0  0
 20 47  1  0  0  0
 20 48  1  0  0  0
 20 49  1  0  0  0
 23 50  1  0  0  0
 24 51  1  0  0  0
 29 52  1  0  0  0
 29 53  1  0  0  0
 29 54  1  0  0  0
M  END
$$$$
