4b6q_ligand
  -I-interpret- 

 39 41  0  0  0  0  0  0  0  0999 V2000
   18.7850    2.0030   36.0950 C   0  0  0  0  0
   17.5020    1.7350   36.3290 C   0  0  0  0  0
   16.5040    2.5880   36.8230 C   0  0  0  0  0
   15.2280    2.1240   36.9840 C   0  0  0  0  0
   14.9300    0.8050   36.5900 C   0  0  0  0  0
   15.8890   -0.0610   36.0800 C   0  0  0  0  0
   17.1750    0.4050   35.9460 C   0  0  0  0  0
   18.5790   -0.3810   35.3420 S   0  0  0  0  0
   19.5130    1.0090   35.6300 C   0  0  0  0  0
   14.6370    4.0320   40.0500 O   0  0  0  0  0
   13.8110    3.1250   40.0510 C   0  0  0  0  0
   11.9030    2.4300   38.7040 C   0  0  0  0  0
   11.4200    1.6500   37.4850 C   0  0  0  0  0
   13.4340    2.4110   38.7620 C   0  0  0  0  0
   11.4720    0.4090   37.5480 O   0  0  0  0  0
   11.0520    2.3070   36.4950 O   0  0  0  0  0
   11.4780    3.8010   38.5940 O   0  0  0  0  0
   11.3290    1.7900   39.9700 C   0  0  0  0  0
   11.6870    2.5790   41.2280 C   0  0  0  0  0
   11.1510    1.9240   42.4260 O   0  0  0  0  0
   13.1930    2.6460   41.3620 C   0  0  0  0  0
   13.5540    3.5520   42.4580 O   0  0  0  0  0
   14.1120    3.0220   37.5360 C   0  0  0  0  0
   19.2092    2.9902   36.2781 H   0  0  0  0  0
   16.7455    3.6198   37.0783 H   0  0  0  0  0
   13.9046    0.4491   36.6894 H   0  0  0  0  0
   15.6292   -1.0803   35.7944 H   0  0  0  0  0
   20.5865    1.0706   35.4512 H   0  0  0  0  0
   13.7932    1.3819   38.7533 H   0  0  0  0  0
   11.1018    3.2440   36.6977 H   0  0  0  0  0
   11.7820    4.2916   39.3611 H   0  0  0  0  0
   11.7507    0.7894   40.0655 H   0  0  0  0  0
   10.2430    1.7717   39.8785 H   0  0  0  0  0
   11.2577    3.5769   41.1393 H   0  0  0  0  0
   11.3878    2.4364   43.2025 H   0  0  0  0  0
   13.5788    1.6516   41.5866 H   0  0  0  0  0
   13.1586    3.2381   43.2745 H   0  0  0  0  0
   13.3590    3.1450   36.7576 H   0  0  0  0  0
   14.5561    3.9724   37.8320 H   0  0  0  0  0
  2  1  4  0  0  0
  1  9  4  0  0  0
  3  2  4  0  0  0
  2  7  4  0  0  0
  4  3  4  0  0  0
  4  5  4  0  0  0
 23  4  1  0  0  0
  5  6  4  0  0  0
  6  7  4  0  0  0
  7  8  4  0  0  0
  8  9  4  0  0  0
 11 10  2  0  0  0
 14 11  1  0  0  0
 11 21  1  0  0  0
 12 13  1  0  0  0
 14 12  1  0  0  0
 12 17  1  0  0  0
 12 18  1  0  0  0
 13 15  2  0  0  0
 13 16  1  0  0  0
 14 23  1  0  0  0
 18 19  1  0  0  0
 19 20  1  0  0  0
 19 21  1  0  0  0
 21 22  1  0  0  0
  1 24  1  0  0  0
  3 25  1  0  0  0
  5 26  1  0  0  0
  6 27  1  0  0  0
  9 28  1  0  0  0
 14 29  1  0  0  0
 16 30  1  0  0  0
 17 31  1  0  0  0
 18 32  1  0  0  0
 18 33  1  0  0  0
 19 34  1  0  0  0
 20 35  1  0  0  0
 21 36  1  0  0  0
 22 37  1  0  0  0
 23 38  1  0  0  0
 23 39  1  0  0  0
M  END
$$$$
