6d4r_ligand
  -I-interpret- 

 48 51  0  0  0  0  0  0  0  0999 V2000
   12.8430  -44.0550    3.3890 C   0  0  0  0  0
   13.5360  -43.5340    4.5780 N   0  0  0  0  0
   12.9380  -42.5220    5.3640 C   0  0  0  0  0
   14.8230  -43.9900    5.0160 C   0  0  0  0  0
   16.9550  -39.3390    5.0050 C   0  0  0  0  0
   18.0580  -39.5800    4.0420 C   0  0  0  0  0
   19.7920  -40.9820    3.0240 C   0  0  0  0  0
   19.5120  -38.7630    2.2580 C   0  0  0  0  0
   17.8240  -37.3370    3.2150 C   0  0  0  0  0
   14.0350  -46.2450   -2.1990 O   0  0  0  0  0
   13.8400  -45.3620   -1.1680 N   0  0  0  0  0
   13.5240  -44.1980   -1.4110 O   0  0  0  0  0
   13.9520  -45.7620    0.1680 C   0  0  0  0  0
   14.5390  -46.9700    0.5830 C   0  0  0  0  0
   14.5850  -47.2480    1.9480 C   0  0  0  0  0
   14.0350  -46.3190    2.9070 C   0  0  0  0  0
   13.4670  -45.1460    2.4730 C   0  0  0  0  0
   13.4260  -44.8620    1.0910 C   0  0  0  0  0
   11.7670  -43.5970    3.0960 O   0  0  0  0  0
   13.9500  -41.5520    5.9490 C   0  0  0  0  0
   15.2960  -41.5720    5.3470 N   0  0  0  0  0
   15.8460  -42.8700    5.0090 C   0  0  0  0  0
   16.4000  -40.5620    6.1180 S   0  0  0  0  0
   17.4570  -41.3450    6.7030 O   0  0  0  0  0
   15.7750  -39.9640    7.2450 O   0  0  0  0  0
   18.7430  -40.8200    3.9440 C   0  0  0  0  0
   20.1610  -39.9610    2.2010 N   0  0  0  0  0
   18.4510  -38.5610    3.1860 C   0  0  0  0  0
   16.7490  -37.1070    4.1460 C   0  0  0  0  0
   16.3390  -38.1410    5.0290 C   0  0  0  0  0
   12.4227  -43.0059    6.1937 H   0  0  0  0  0
   12.2662  -41.9541    4.7204 H   0  0  0  0  0
   15.1620  -44.7696    4.3338 H   0  0  0  0  0
   14.7272  -44.3618    6.0361 H   0  0  0  0  0
   20.3169  -41.9357    2.9679 H   0  0  0  0  0
   19.8073  -37.9548    1.5889 H   0  0  0  0  0
   18.1392  -36.5444    2.5364 H   0  0  0  0  0
   14.9478  -47.6715   -0.1443 H   0  0  0  0  0
   15.0405  -48.1755    2.2949 H   0  0  0  0  0
   14.0704  -46.5479    3.9721 H   0  0  0  0  0
   12.9789  -43.9306    0.7435 H   0  0  0  0  0
   14.0793  -41.8401    6.9923 H   0  0  0  0  0
   13.5520  -40.5531    5.7705 H   0  0  0  0  0
   16.2443  -42.8003    3.9968 H   0  0  0  0  0
   16.5963  -43.1108    5.7621 H   0  0  0  0  0
   18.4530  -41.6513    4.5867 H   0  0  0  0  0
   16.2498  -36.1384    4.1728 H   0  0  0  0  0
   15.5224  -37.9646    5.7292 H   0  0  0  0  0
  2  1  1  0  0  0
  1 17  1  0  0  0
  1 19  2  0  0  0
  3  2  1  0  0  0
  4  2  1  0  0  0
 20  3  1  0  0  0
 22  4  1  0  0  0
  5  6  4  0  0  0
 23  5  1  0  0  0
  5 30  4  0  0  0
  6 26  4  0  0  0
  6 28  4  0  0  0
 26  7  4  0  0  0
  7 27  4  0  0  0
  8 27  4  0  0  0
 28  8  4  0  0  0
 28  9  4  0  0  0
  9 29  4  0  0  0
 11 10  2  0  0  0
 11 12  2  0  0  0
 13 11  1  0  0  0
 13 14  4  0  0  0
 18 13  4  0  0  0
 15 14  4  0  0  0
 16 15  4  0  0  0
 17 16  4  0  0  0
 17 18  4  0  0  0
 21 20  1  0  0  0
 21 22  1  0  0  0
 21 23  1  0  0  0
 23 24  2  0  0  0
 23 25  2  0  0  0
 29 30  4  0  0  0
  3 31  1  0  0  0
  3 32  1  0  0  0
  4 33  1  0  0  0
  4 34  1  0  0  0
  7 35  1  0  0  0
  8 36  1  0  0  0
  9 37  1  0  0  0
 14 38  1  0  0  0
 15 39  1  0  0  0
 16 40  1  0  0  0
 18 41  1  0  0  0
 20 42  1  0  0  0
 20 43  1  0  0  0
 22 44  1  0  0  0
 22 45  1  0  0  0
 26 46  1  0  0  0
 29 47  1  0  0  0
 30 48  1  0  0  0
M  END
$$$$
