3le6_ligand
  -I-interpret- 

 35 38  0  0  0  0  0  0  0  0999 V2000
    2.5380   29.0900    6.2220 N   0  0  0  0  0
    2.9130   27.8110    6.6900 C   0  0  0  0  0
    2.1670   26.9850    7.6090 C   0  0  0  0  0
    0.8050   27.3850    8.2440 C   0  0  0  0  0
    0.0770   26.3800    9.1380 C   0  0  0  0  0
    4.7070   26.0440    6.5340 C   0  0  0  0  0
   -0.2710   30.7930    7.5360 C   0  0  0  0  0
   -0.5180   25.2110    8.5370 C   0  0  0  0  0
   -1.1910   24.2650    9.3580 C   0  0  0  0  0
   -1.2800   24.4690   10.7620 C   0  0  0  0  0
   -0.0210   26.5810   10.5560 C   0  0  0  0  0
    0.4800   29.6430    7.4580 C   0  0  0  0  0
    1.5470   29.9330    6.5870 C   0  0  0  0  0
    0.1130   28.4980    8.1720 N   0  0  0  0  0
    4.1770   27.3150    6.1740 C   0  0  0  0  0
    3.9750   25.2270    7.4340 C   0  0  0  0  0
    2.7360   25.6930    7.9570 C   0  0  0  0  0
   -1.5030   31.1300    8.2810 C   0  0  0  0  0
    0.3730   31.6850    6.7280 N   0  0  0  0  0
    1.4750   31.1930    6.1400 N   0  0  0  0  0
    4.4790   23.8830    7.8310 N   0  0  0  0  0
    3.7970   23.2160    8.6280 O   0  0  0  0  0
    5.5460   23.4790    7.3310 O   0  0  0  0  0
   -0.7000   25.6210   11.3610 C   0  0  0  0  0
    0.6580   27.9630   11.3420 Cl  0  0  0  0  0
    5.6587   25.7042    6.1254 H   0  0  0  0  0
   -0.4520   25.0540    7.4604 H   0  0  0  0  0
   -1.6406   23.3795    8.9088 H   0  0  0  0  0
   -1.7963   23.7375   11.3836 H   0  0  0  0  0
    4.7422   27.9411    5.4836 H   0  0  0  0  0
    2.1893   25.0527    8.6493 H   0  0  0  0  0
   -2.3075   30.4632    7.9708 H   0  0  0  0  0
   -1.3235   31.0123    9.3497 H   0  0  0  0  0
   -1.7829   32.1621    8.0698 H   0  0  0  0  0
   -0.7750   25.7700   12.4382 H   0  0  0  0  0
  1  2  4  0  0  0
 13  1  4  0  0  0
  2  3  4  0  0  0
  2 15  4  0  0  0
  3  4  4  0  0  0
  3 17  4  0  0  0
  4  5  1  0  0  0
  4 14  4  0  0  0
  5  8  4  0  0  0
  5 11  4  0  0  0
 15  6  4  0  0  0
  6 16  4  0  0  0
 12  7  4  0  0  0
  7 18  1  0  0  0
  7 19  4  0  0  0
  8  9  4  0  0  0
  9 10  4  0  0  0
 24 10  4  0  0  0
 11 24  4  0  0  0
 11 25  1  0  0  0
 12 13  4  0  0  0
 12 14  4  0  0  0
 13 20  4  0  0  0
 16 17  4  0  0  0
 16 21  1  0  0  0
 19 20  4  0  0  0
 21 22  2  0  0  0
 21 23  2  0  0  0
  6 26  1  0  0  0
  8 27  1  0  0  0
  9 28  1  0  0  0
 10 29  1  0  0  0
 15 30  1  0  0  0
 17 31  1  0  0  0
 18 32  1  0  0  0
 18 33  1  0  0  0
 18 34  1  0  0  0
 24 35  1  0  0  0
M  END
$$$$
