6q6m_ligand
  -I-interpret- 

 41 42  0  0  0  0  0  0  0  0999 V2000
    3.6170  -33.1620   -7.4480 C   0  0  0  0  0
    3.7860  -33.5030   -8.8110 C   0  0  0  0  0
    4.5030  -32.8170  -11.2220 C   0  0  0  0  0
    2.2100  -35.3720   -9.6850 C   0  0  0  0  0
    1.2980  -34.1830  -10.0510 C   0  0  0  0  0
    2.3550  -36.3160  -10.8710 C   0  0  0  0  0
    1.5280  -38.4060  -11.8390 C   0  0  0  0  0
    2.1300  -39.6780  -11.1790 C   0  0  0  0  0
    3.0730  -34.4120   -6.3270 Cl  0  0  0  0  0
    4.2720  -32.5050   -9.7300 C   0  0  0  0  0
    4.5210  -31.1870   -9.2700 C   0  0  0  0  0
    4.3140  -30.8570   -7.9080 C   0  0  0  0  0
    3.8670  -31.8490   -7.0000 C   0  0  0  0  0
    3.5580  -34.8890   -9.1850 N   0  0  0  0  0
    3.1730  -36.1020  -11.7550 O   0  0  0  0  0
    1.5030  -37.3720  -10.8290 O   0  0  0  0  0
    4.5930  -35.7860   -9.0540 C   0  0  0  0  0
    4.4210  -36.9550   -9.3530 O   0  0  0  0  0
    5.9870  -35.5880   -8.5450 C   0  0  0  0  0
    6.6890  -34.0260   -8.3150 S   0  0  0  0  0
    8.1550  -34.7200   -7.7090 C   0  0  0  0  0
    8.1000  -36.0520   -7.6880 C   0  0  0  0  0
    6.8260  -36.5720   -8.1710 C   0  0  0  0  0
    5.2387  -33.6158  -11.3152 H   0  0  0  0  0
    3.5633  -33.1320  -11.6757 H   0  0  0  0  0
    4.8697  -31.9230  -11.7263 H   0  0  0  0  0
    1.7445  -35.9283   -8.8714 H   0  0  0  0  0
    1.1423  -33.5613   -9.1693 H   0  0  0  0  0
    1.7711  -33.5918  -10.8351 H   0  0  0  0  0
    0.3385  -34.5587  -10.4063 H   0  0  0  0  0
    0.5225  -38.6050  -12.2098 H   0  0  0  0  0
    2.1302  -38.0946  -12.6925 H   0  0  0  0  0
    3.1383  -39.4605  -10.8268 H   0  0  0  0  0
    1.5066  -39.9785  -10.3369 H   0  0  0  0  0
    2.1657  -40.4839  -11.9121 H   0  0  0  0  0
    4.8726  -30.4257   -9.9663 H   0  0  0  0  0
    4.4984  -29.8411   -7.5587 H   0  0  0  0  0
    3.7158  -31.5956   -5.9507 H   0  0  0  0  0
    9.0179  -34.1386   -7.3842 H   0  0  0  0  0
    8.9194  -36.6845   -7.3464 H   0  0  0  0  0
    6.5818  -37.6330   -8.2231 H   0  0  0  0  0
  2  1  4  0  0  0
  1  9  1  0  0  0
  1 13  4  0  0  0
  2 10  4  0  0  0
 14  2  1  0  0  0
 10  3  1  0  0  0
  4  5  1  0  0  0
  6  4  1  0  0  0
  4 14  1  0  0  0
  6 15  2  0  0  0
 16  6  1  0  0  0
  7  8  1  0  0  0
  7 16  1  0  0  0
 10 11  4  0  0  0
 11 12  4  0  0  0
 12 13  4  0  0  0
 14 17  1  0  0  0
 17 18  2  0  0  0
 17 19  1  0  0  0
 19 20  4  0  0  0
 19 23  4  0  0  0
 20 21  4  0  0  0
 21 22  4  0  0  0
 22 23  4  0  0  0
  3 24  1  0  0  0
  3 25  1  0  0  0
  3 26  1  0  0  0
  4 27  1  0  0  0
  5 28  1  0  0  0
  5 29  1  0  0  0
  5 30  1  0  0  0
  7 31  1  0  0  0
  7 32  1  0  0  0
  8 33  1  0  0  0
  8 34  1  0  0  0
  8 35  1  0  0  0
 11 36  1  0  0  0
 12 37  1  0  0  0
 13 38  1  0  0  0
 21 39  1  0  0  0
 22 40  1  0  0  0
 23 41  1  0  0  0
M  END
$$$$
