4hvb_ligand
  -I-interpret- 

 59 63  0  0  0  0  0  0  0  0999 V2000
   43.7750   13.2670   30.4740 C   0  0  0  0  0
   44.1880   12.2790   29.5670 C   0  0  0  0  0
   45.4720   12.2730   29.1080 C   0  0  0  0  0
   46.3540   13.2720   29.5640 C   0  0  0  0  0
   45.8720   14.2400   30.4800 C   0  0  0  0  0
   44.6070   14.2000   30.8960 N   0  0  0  0  0
   47.6230   13.3110   29.1440 N   0  0  0  0  0
   48.4620   14.2310   29.5560 C   0  0  0  0  0
   48.0690   15.2230   30.4570 C   0  0  0  0  0
   46.7630   15.2380   30.9320 C   0  0  0  0  0
   42.3750   13.2670   30.9610 C   0  0  0  0  0
   41.3370   12.8390   30.1340 C   0  0  0  0  0
   40.0930   12.8370   30.5660 N   0  0  0  0  0
   39.7780   13.2360   31.7830 C   0  0  0  0  0
   40.7500   13.6770   32.6640 C   0  0  0  0  0
   42.0740   13.6920   32.2590 C   0  0  0  0  0
   38.3370   13.2130   32.2220 C   0  0  0  0  0
   48.7240   16.2970   31.0510 N   0  0  0  0  0
   47.8480   16.9340   31.8520 C   0  0  0  0  0
   46.6550   16.3110   31.7970 N   0  0  0  0  0
   45.4480   16.7060   32.5270 C   0  0  0  0  0
   44.3420   17.3360   31.6780 C   0  0  0  0  0
   43.4400   18.1920   32.5750 C   0  0  0  0  0
   42.9500   17.3600   33.6820 N   0  0  0  0  0
   43.9270   16.6350   34.5080 C   0  0  0  0  0
   44.8230   15.7980   33.5900 C   0  0  0  0  0
   48.0960   17.9190   32.5220 O   0  0  0  0  0
   50.1250   16.6700   30.8430 C   0  0  0  0  0
   41.6310   17.2650   33.9380 C   0  0  0  0  0
   41.2320   16.5100   34.8000 O   0  0  0  0  0
   40.6490   18.0950   33.1520 C   0  0  0  0  0
   39.3170   17.6930   33.4780 O   0  0  0  0  0
   40.8360   19.5730   33.5020 C   0  0  0  0  0
   43.4840   11.5181   29.2302 H   0  0  0  0  0
   45.8084   11.5120   28.4038 H   0  0  0  0  0
   49.4877   14.2211   29.1874 H   0  0  0  0  0
   41.5573   12.5030   29.1207 H   0  0  0  0  0
   40.4763   14.0088   33.6655 H   0  0  0  0  0
   42.8614   14.0264   32.9344 H   0  0  0  0  0
   37.7488   13.8561   31.5674 H   0  0  0  0  0
   37.9580   12.1925   32.1670 H   0  0  0  0  0
   38.2653   13.5738   33.2481 H   0  0  0  0  0
   45.9605   17.4585   33.1264 H   0  0  0  0  0
   43.7499   16.5503   31.2087 H   0  0  0  0  0
   44.7874   17.9620   30.9048 H   0  0  0  0  0
   42.5978   18.5728   31.9973 H   0  0  0  0  0
   44.0046   19.0371   32.9689 H   0  0  0  0  0
   43.4066   15.9841   35.2106 H   0  0  0  0  0
   44.5339   17.3441   35.0709 H   0  0  0  0  0
   45.6116   15.3291   34.1786 H   0  0  0  0  0
   44.2272   15.0249   33.1048 H   0  0  0  0  0
   50.7685   15.8446   31.1477 H   0  0  0  0  0
   50.2884   16.8895   29.7879 H   0  0  0  0  0
   50.3571   17.5525   31.4392 H   0  0  0  0  0
   40.8215   17.9493   32.0857 H   0  0  0  0  0
   38.6924   18.2224   32.9767 H   0  0  0  0  0
   40.6631   19.7172   34.5685 H   0  0  0  0  0
   41.8523   19.8783   33.2529 H   0  0  0  0  0
   40.1254   20.1725   32.9331 H   0  0  0  0  0
  1  2  4  0  0  0
  1  6  4  0  0  0
  1 11  1  0  0  0
  2  3  4  0  0  0
  3  4  4  0  0  0
  4  5  4  0  0  0
  4  7  4  0  0  0
  5  6  4  0  0  0
  5 10  4  0  0  0
  7  8  4  0  0  0
  8  9  4  0  0  0
  9 10  4  0  0  0
  9 18  1  0  0  0
 10 20  1  0  0  0
 11 12  4  0  0  0
 11 16  4  0  0  0
 12 13  4  0  0  0
 13 14  4  0  0  0
 14 15  4  0  0  0
 14 17  1  0  0  0
 15 16  4  0  0  0
 18 19  1  0  0  0
 18 28  1  0  0  0
 19 20  1  0  0  0
 19 27  2  0  0  0
 20 21  1  0  0  0
 21 22  1  0  0  0
 21 26  1  0  0  0
 22 23  1  0  0  0
 23 24  1  0  0  0
 24 25  1  0  0  0
 24 29  1  0  0  0
 25 26  1  0  0  0
 29 30  2  0  0  0
 29 31  1  0  0  0
 31 32  1  0  0  0
 31 33  1  0  0  0
  2 34  1  0  0  0
  3 35  1  0  0  0
  8 36  1  0  0  0
 12 37  1  0  0  0
 15 38  1  0  0  0
 16 39  1  0  0  0
 17 40  1  0  0  0
 17 41  1  0  0  0
 17 42  1  0  0  0
 21 43  1  0  0  0
 22 44  1  0  0  0
 22 45  1  0  0  0
 23 46  1  0  0  0
 23 47  1  0  0  0
 25 48  1  0  0  0
 25 49  1  0  0  0
 26 50  1  0  0  0
 26 51  1  0  0  0
 28 52  1  0  0  0
 28 53  1  0  0  0
 28 54  1  0  0  0
 31 55  1  0  0  0
 32 56  1  0  0  0
 33 57  1  0  0  0
 33 58  1  0  0  0
 33 59  1  0  0  0
M  END
$$$$
