4irx_ligand
  -I-interpret- 

 24 24  0  0  0  0  0  0  0  0999 V2000
    0.9180   30.4400   66.5930 C   0  0  0  0  0
    1.3980   31.3470   65.5090 C   0  0  0  0  0
    1.9560   32.5970   66.1390 C   0  0  0  0  0
    3.1080   32.2580   67.0300 C   0  0  0  0  0
    2.6540   31.3930   68.1450 C   0  0  0  0  0
    1.9950   30.1400   67.6170 C   0  0  0  0  0
    0.4190   29.2470   66.0420 O   0  0  0  0  0
    2.3580   30.6900   64.7380 O   0  0  0  0  0
    2.3400   33.5230   65.1520 O   0  0  0  0  0
    3.7160   33.4130   67.5140 O   0  0  0  0  0
    3.7390   31.0920   68.9630 O   0  0  0  0  0
    1.5840   29.2920   68.6580 O   0  0  0  0  0
    0.1162   30.9599   67.1174 H   0  0  0  0  0
    0.5763   31.6246   64.8488 H   0  0  0  0  0
    1.1765   33.0579   66.7456 H   0  0  0  0  0
    3.8486   31.7107   66.4468 H   0  0  0  0  0
    1.9074   31.9240   68.7355 H   0  0  0  0  0
    2.7482   29.5777   67.0651 H   0  0  0  0  0
   -0.2609   29.4538   65.3966 H   0  0  0  0  0
    1.9714   29.9006   64.3521 H   0  0  0  0  0
    1.5858   33.7249   64.5935 H   0  0  0  0  0
    4.0012   33.9565   66.7759 H   0  0  0  0  0
    4.1343   31.9070   69.2811 H   0  0  0  0  0
    1.1710   28.5088   68.2871 H   0  0  0  0  0
  1  2  1  0  0  0
  1  6  1  0  0  0
  1  7  1  0  0  0
  2  3  1  0  0  0
  2  8  1  0  0  0
  3  4  1  0  0  0
  3  9  1  0  0  0
  4  5  1  0  0  0
  4 10  1  0  0  0
  5  6  1  0  0  0
  5 11  1  0  0  0
  6 12  1  0  0  0
  1 13  1  0  0  0
  2 14  1  0  0  0
  3 15  1  0  0  0
  4 16  1  0  0  0
  5 17  1  0  0  0
  6 18  1  0  0  0
  7 19  1  0  0  0
  8 20  1  0  0  0
  9 21  1  0  0  0
 10 22  1  0  0  0
 11 23  1  0  0  0
 12 24  1  0  0  0
M  END
$$$$
