6bs5_ligand
  -I-interpret- 

 48 50  0  0  0  0  0  0  0  0999 V2000
   75.6170   41.0800   12.4790 P   0  0  0  0  0
   75.9780   40.1790   13.6020 O   0  0  0  0  0
   74.1820   41.3890   12.4090 O   0  0  0  0  0
   76.2910   40.7280   11.1790 O   0  0  0  0  0
   77.6700   43.2250   12.3080 P   0  0  0  0  0
   78.5980   43.2040   13.4400 O   0  0  0  0  0
   78.0600   42.5280   11.0580 O   0  0  0  0  0
   76.1820   42.6390   12.9020 N   0  0  0  0  0
   77.4550   45.4440   10.5800 P   0  0  0  0  0
   76.3530   44.9630    9.7970 O   0  0  0  0  0
   78.7400   45.7400    9.9390 O   0  0  0  0  0
   77.5720   44.7490   11.9730 O   0  0  0  0  0
   77.0820   46.8900   11.0070 O   0  0  0  0  0
   75.8640   47.1980   11.6210 C   0  0  0  0  0
   75.4260   48.5090   11.0320 C   0  0  0  0  0
   76.3620   49.5080   11.3640 O   0  0  0  0  0
   75.4490   48.4440    9.5450 C   0  0  0  0  0
   74.2580   49.0290    9.0770 O   0  0  0  0  0
   76.6640   49.2200    9.1350 C   0  0  0  0  0
   76.4680   49.7170    7.8240 O   0  0  0  0  0
   76.7890   50.2380   10.2390 C   0  0  0  0  0
   78.1390   50.6860   10.6160 N   0  0  0  0  0
   79.1530   49.9070   10.9550 C   0  0  0  0  0
   80.2420   50.6260   11.2670 N   0  0  0  0  0
   79.9140   51.9010   11.1370 C   0  0  0  0  0
   80.5760   53.1700   11.3290 C   0  0  0  0  0
   81.8550   53.2680   11.7220 N   0  0  0  0  0
   79.8600   54.2430   11.0900 N   0  0  0  0  0
   78.5950   54.2300   10.7220 C   0  0  0  0  0
   77.9350   53.1130   10.5370 N   0  0  0  0  0
   78.5280   51.9370   10.7270 C   0  0  0  0  0
   76.9244   40.0183   13.5903 H   0  0  0  0  0
   77.2197   40.5460   11.3403 H   0  0  0  0  0
   77.3606   42.6246   10.4075 H   0  0  0  0  0
   75.6207   43.2266   13.5185 H   0  0  0  0  0
   79.3628   46.0492   10.6009 H   0  0  0  0  0
   75.9728   47.2672   12.7033 H   0  0  0  0  0
   75.1235   46.4179   11.4446 H   0  0  0  0  0
   74.4274   48.7218   11.4136 H   0  0  0  0  0
   75.5020   47.4338    9.1390 H   0  0  0  0  0
   74.2447   49.0013    8.1175 H   0  0  0  0  0
   77.6008   48.6696    9.0483 H   0  0  0  0  0
   77.2422   50.2158    7.5530 H   0  0  0  0  0
   76.2557   51.1316    9.9147 H   0  0  0  0  0
   79.1093   48.8181   10.9780 H   0  0  0  0  0
   82.4006   52.4243   11.8979 H   0  0  0  0  0
   82.2819   54.1862   11.8449 H   0  0  0  0  0
   78.0810   55.1785   10.5665 H   0  0  0  0  0
  1  2  1  0  0  0
  1  3  2  0  0  0
  1  4  1  0  0  0
  8  1  1  0  0  0
  5  6  2  0  0  0
  5  7  1  0  0  0
  5  8  1  0  0  0
 12  5  1  0  0  0
  9 10  2  0  0  0
  9 11  1  0  0  0
  9 12  1  0  0  0
  9 13  1  0  0  0
 13 14  1  0  0  0
 14 15  1  0  0  0
 15 16  1  0  0  0
 15 17  1  0  0  0
 16 21  1  0  0  0
 17 18  1  0  0  0
 17 19  1  0  0  0
 19 20  1  0  0  0
 19 21  1  0  0  0
 21 22  1  0  0  0
 22 23  4  0  0  0
 22 31  4  0  0  0
 23 24  4  0  0  0
 24 25  4  0  0  0
 25 26  4  0  0  0
 25 31  4  0  0  0
 26 27  1  0  0  0
 26 28  4  0  0  0
 28 29  4  0  0  0
 29 30  4  0  0  0
 30 31  4  0  0  0
  2 32  1  0  0  0
  4 33  1  0  0  0
  7 34  1  0  0  0
  8 35  1  0  0  0
 11 36  1  0  0  0
 14 37  1  0  0  0
 14 38  1  0  0  0
 15 39  1  0  0  0
 17 40  1  0  0  0
 18 41  1  0  0  0
 19 42  1  0  0  0
 20 43  1  0  0  0
 21 44  1  0  0  0
 23 45  1  0  0  0
 27 46  1  0  0  0
 27 47  1  0  0  0
 29 48  1  0  0  0
M  END
$$$$
