### 
### Created by X-TOOL on Mon Aug  2 16:12:41 2021
### 

@<TRIPOS>MOLECULE
6bs5_ligand
   44    46     1     0     0
SMALL
GAST_HUCK


@<TRIPOS>ATOM
      1 PG         75.6170   41.0800   12.4790 P.3       1 ANP         0.1803
      2 O1G        75.9780   40.1790   13.6020 O.co2     1 ANP        -0.5454
      3 O2G        74.1820   41.3890   12.4090 O.co2     1 ANP        -0.5454
      4 O3G        76.2910   40.7280   11.1790 O.co2     1 ANP        -0.5454
      5 PB         77.6700   43.2250   12.3080 P.3       1 ANP         0.2543
      6 O1B        78.5980   43.2040   13.4400 O.co2     1 ANP        -0.6257
      7 O2B        78.0600   42.5280   11.0580 O.co2     1 ANP        -0.6257
      8 N3B        76.1820   42.6390   12.9020 N.am      1 ANP        -0.1803
      9 PA         77.4550   45.4440   10.5800 P.3       1 ANP         0.2949
     10 O1A        76.3530   44.9630    9.7970 O.co2     1 ANP        -0.6129
     11 O2A        78.7400   45.7400    9.9390 O.co2     1 ANP        -0.6129
     12 O3A        77.5720   44.7490   11.9730 O.3       1 ANP        -0.1431
     13 O5'        77.0820   46.8900   11.0070 O.3       1 ANP        -0.2478
     14 C5'        75.8640   47.1980   11.6210 C.3       1 ANP         0.1128
     15 C4'        75.4260   48.5090   11.0320 C.3       1 ANP         0.1189
     16 O4'        76.3620   49.5080   11.3640 O.3       1 ANP        -0.3364
     17 C3'        75.4490   48.4440    9.5450 C.3       1 ANP         0.1149
     18 O3'        74.2580   49.0290    9.0770 O.3       1 ANP        -0.3864
     19 C2'        76.6640   49.2200    9.1350 C.3       1 ANP         0.1385
     20 O2'        76.4680   49.7170    7.8240 O.3       1 ANP        -0.3836
     21 C1'        76.7890   50.2380   10.2390 C.3       1 ANP         0.2010
     22 N9         78.1390   50.6860   10.6160 N.pl3     1 ANP        -0.1919
     23 C8         79.1530   49.9070   10.9550 C.2       1 ANP         0.1123
     24 N7         80.2420   50.6260   11.2670 N.2       1 ANP        -0.2958
     25 C5         79.9140   51.9010   11.1370 C.ar      1 ANP         0.1045
     26 C6         80.5760   53.1700   11.3290 C.ar      1 ANP         0.1298
     27 N6         81.8550   53.2680   11.7220 N.pl3     1 ANP        -0.3152
     28 N1         79.8600   54.2430   11.0900 N.ar      1 ANP        -0.2698
     29 C2         78.5950   54.2300   10.7220 C.ar      1 ANP         0.0533
     30 N3         77.9350   53.1130   10.5370 N.ar      1 ANP        -0.2714
     31 C4         78.5280   51.9370   10.7270 C.ar      1 ANP         0.1613
     32 H1         75.6317   43.2151   13.5064 H         1 ANP         0.2132
     33 H2         75.9970   47.2927   12.7088 H         1 ANP         0.0648
     34 H3         75.1201   46.4158   11.4092 H         1 ANP         0.0648
     35 H4         74.4219   48.7692   11.3981 H         1 ANP         0.0651
     36 H5         75.5208   47.4052    9.1905 H         1 ANP         0.0648
     37 H6         73.5141   48.5473    9.4192 H         1 ANP         0.2100
     38 H7         77.5579   48.5791    9.1280 H         1 ANP         0.0676
     39 H8         75.7050   50.2829    7.8118 H         1 ANP         0.2101
     40 H9         76.1538   51.1095   10.0223 H         1 ANP         0.0996
     41 H10        79.1094   48.8191   10.9779 H         1 ANP         0.1349
     42 H11        82.2860   54.1952   11.8461 H         1 ANP         0.1820
     43 H12        82.4059   52.4160   11.8997 H         1 ANP         0.1820
     44 H13        78.0838   55.1733   10.5673 H         1 ANP         0.0996
@<TRIPOS>BOND
     1    1    2 ar 
     2    1    3 ar 
     3    1    4 ar 
     4    8    1 am 
     5    5    6 ar 
     6    5    7 ar 
     7    5    8 1  
     8   12    5 1  
     9    9   10 ar 
    10    9   11 ar 
    11    9   12 1  
    12    9   13 1  
    13   13   14 1  
    14   14   15 1  
    15   15   16 1  
    16   15   17 1  
    17   16   21 1  
    18   17   18 1  
    19   17   19 1  
    20   19   20 1  
    21   19   21 1  
    22   21   22 1  
    23   22   23 1  
    24   22   31 1  
    25   23   24 2  
    26   24   25 1  
    27   25   26 ar 
    28   25   31 ar 
    29   26   27 1  
    30   26   28 ar 
    31   28   29 ar 
    32   29   30 ar 
    33   30   31 ar 
    34    8   32 1  
    35   14   33 1  
    36   14   34 1  
    37   15   35 1  
    38   17   36 1  
    39   18   37 1  
    40   19   38 1  
    41   20   39 1  
    42   21   40 1  
    43   23   41 1  
    44   27   42 1  
    45   27   43 1  
    46   29   44 1  
@<TRIPOS>SUBSTRUCTURE
     1 ANP         1

