5tkb_ligand
  -I-interpret- 

 49 51  0  0  0  0  0  0  0  0999 V2000
   19.3860   -3.4270   28.8560 C   0  0  0  0  0
   20.9110   -1.9890   27.7730 C   0  0  0  0  0
   20.3980   -2.3810   26.5540 C   0  0  0  0  0
   19.3900   -3.3090   26.4540 C   0  0  0  0  0
   21.1820   -8.9190   28.1770 C   0  0  0  0  0
   20.4140   -2.4930   28.9740 C   0  0  0  0  0
   18.8000   -3.9120   29.9630 F   0  0  0  0  0
   18.9040   -3.8270   27.6290 C   0  0  0  0  0
   17.9130   -4.7510   27.5910 F   0  0  0  0  0
   20.8960   -1.8150   25.4300 F   0  0  0  0  0
   21.9140   -1.0930   27.8010 F   0  0  0  0  0
   20.9000   -2.0350   30.2450 N   0  0  0  0  0
   21.4590   -2.8460   31.2590 C   0  0  0  0  0
   21.7910   -4.1100   30.9160 N   0  0  0  0  0
   22.2870   -4.8870   31.9570 N   0  0  0  0  0
   22.6990   -6.2140   31.8710 C   0  0  0  0  0
   22.8390   -7.0130   30.6150 C   0  0  0  0  0
   22.3960   -6.4250   29.5010 N   0  0  0  0  0
   22.7090   -6.8200   28.1350 C   0  0  0  0  0
   21.5830   -7.6430   27.4480 C   0  0  0  0  0
   20.4840   -6.7250   27.3540 O   0  0  0  0  0
   22.1130   -7.9810   26.0390 C   0  0  0  0  0
   21.0040   -8.4430   25.2780 O   0  0  0  0  0
   23.3960   -8.1060   30.6150 O   0  0  0  0  0
   23.0720   -6.5630   33.1410 C   0  0  0  0  0
   22.9330   -5.4960   33.9940 N   0  0  0  0  0
   22.4690   -4.4900   33.2650 C   0  0  0  0  0
   22.1450   -3.0720   33.6250 C   0  0  0  0  0
   21.6250   -2.2790   32.6250 C   0  0  0  0  0
   22.4620   -2.6970   34.9360 N   0  0  0  0  0
   22.2680   -1.3810   35.5150 C   0  0  0  0  0
   18.9945   -3.6196   25.4869 H   0  0  0  0  0
   22.0469   -9.5776   28.2565 H   0  0  0  0  0
   20.8219   -8.6680   29.1747 H   0  0  0  0  0
   20.3913   -9.4212   27.6196 H   0  0  0  0  0
   20.8362   -1.0346   30.4332 H   0  0  0  0  0
   21.7787   -5.6215   29.6183 H   0  0  0  0  0
   23.5965   -7.4516   28.1739 H   0  0  0  0  0
   22.8452   -5.9071   27.5551 H   0  0  0  0  0
   19.7386   -7.1618   26.9354 H   0  0  0  0  0
   22.8896   -8.7440   26.0916 H   0  0  0  0  0
   22.5608   -7.1026   25.5742 H   0  0  0  0  0
   21.2961   -8.6642   24.3907 H   0  0  0  0  0
   23.4294   -7.5501   33.4342 H   0  0  0  0  0
   21.3385   -1.2480   32.8322 H   0  0  0  0  0
   22.8659   -3.4139   35.5387 H   0  0  0  0  0
   22.8424   -0.6480   34.9485 H   0  0  0  0  0
   21.2098   -1.1220   35.4789 H   0  0  0  0  0
   22.6065   -1.3878   36.5511 H   0  0  0  0  0
  6  1  4  0  0  0
  1  7  1  0  0  0
  1  8  4  0  0  0
  2  3  4  0  0  0
  6  2  4  0  0  0
  2 11  1  0  0  0
  3  4  4  0  0  0
  3 10  1  0  0  0
  8  4  4  0  0  0
 20  5  1  0  0  0
 12  6  1  0  0  0
  8  9  1  0  0  0
 13 12  1  0  0  0
 14 13  4  0  0  0
 13 29  4  0  0  0
 15 14  4  0  0  0
 16 15  4  0  0  0
 15 27  4  0  0  0
 17 16  1  0  0  0
 16 25  4  0  0  0
 18 17  1  0  0  0
 17 24  2  0  0  0
 19 18  1  0  0  0
 19 20  1  0  0  0
 20 21  1  0  0  0
 20 22  1  0  0  0
 22 23  1  0  0  0
 25 26  4  0  0  0
 26 27  4  0  0  0
 27 28  4  0  0  0
 28 29  4  0  0  0
 28 30  1  0  0  0
 30 31  1  0  0  0
  4 32  1  0  0  0
  5 33  1  0  0  0
  5 34  1  0  0  0
  5 35  1  0  0  0
 12 36  1  0  0  0
 18 37  1  0  0  0
 19 38  1  0  0  0
 19 39  1  0  0  0
 21 40  1  0  0  0
 22 41  1  0  0  0
 22 42  1  0  0  0
 23 43  1  0  0  0
 25 44  1  0  0  0
 29 45  1  0  0  0
 30 46  1  0  0  0
 31 47  1  0  0  0
 31 48  1  0  0  0
 31 49  1  0  0  0
M  END
$$$$
