6g91_ligand
  -I-interpret- 

 26 27  0  0  0  0  0  0  0  0999 V2000
   10.4540    6.5390   44.7240 C   0  0  0  0  0
   11.6640    6.0000   44.3650 C   0  0  0  0  0
   12.5510    6.6720   43.6180 N   0  0  0  0  0
   12.1790    7.9110   43.2440 C   0  0  0  0  0
   12.7810    9.8770   41.8340 C   0  0  0  0  0
   14.0850   10.5260   41.4290 C   0  0  0  0  0
   11.7410   11.0000   39.8520 C   0  0  0  0  0
   11.8710    9.7000   40.6180 C   0  0  0  0  0
   10.1640    7.8190   44.2870 C   0  0  0  0  0
    9.3120    5.6380   45.6850 Cl  0  0  0  0  0
   13.0660    8.6040   42.5040 N   0  0  0  0  0
   13.8160   11.7850   40.6460 C   0  0  0  0  0
   13.0290   11.5190   39.4810 O   0  0  0  0  0
   11.0250    8.5230   43.5470 N   0  0  0  0  0
   11.9118    4.9922   44.6983 H   0  0  0  0  0
   12.2470   10.5183   42.5352 H   0  0  0  0  0
   14.6517    9.8326   40.8075 H   0  0  0  0  0
   14.6531   10.7766   42.3249 H   0  0  0  0  0
   11.2435   11.7303   40.4901 H   0  0  0  0  0
   11.1682   10.8117   38.9439 H   0  0  0  0  0
   10.8827    9.3923   40.9596 H   0  0  0  0  0
   12.3042    8.9459   39.9609 H   0  0  0  0  0
    9.2062    8.2657   44.5539 H   0  0  0  0  0
   14.0035    8.2153   42.4023 H   0  0  0  0  0
   14.7704   12.2057   40.3296 H   0  0  0  0  0
   13.2665   12.4776   41.2835 H   0  0  0  0  0
  2  1  4  0  0  0
  1  9  4  0  0  0
  1 10  1  0  0  0
  3  2  4  0  0  0
  4  3  4  0  0  0
 11  4  1  0  0  0
  4 14  4  0  0  0
  5  6  1  0  0  0
  5  8  1  0  0  0
  5 11  1  0  0  0
  6 12  1  0  0  0
  8  7  1  0  0  0
  7 13  1  0  0  0
  9 14  4  0  0  0
 12 13  1  0  0  0
  2 15  1  0  0  0
  5 16  1  0  0  0
  6 17  1  0  0  0
  6 18  1  0  0  0
  7 19  1  0  0  0
  7 20  1  0  0  0
  8 21  1  0  0  0
  8 22  1  0  0  0
  9 23  1  0  0  0
 11 24  1  0  0  0
 12 25  1  0  0  0
 12 26  1  0  0  0
M  END
$$$$
