6ap6_ligand
  -I-interpret- 

 30 31  0  0  0  0  0  0  0  0999 V2000
  -18.5380   48.8310   -9.3250 C   0  0  0  0  0
  -18.3570   49.6420  -10.4530 C   0  0  0  0  0
  -17.9350   49.0920  -11.6820 C   0  0  0  0  0
  -18.6070   50.8540  -13.2550 C   0  0  0  0  0
  -19.7230   51.4190  -12.6000 C   0  0  0  0  0
  -20.3540   52.5420  -13.0770 C   0  0  0  0  0
  -19.9500   53.1350  -14.2580 C   0  0  0  0  0
  -18.8810   52.6020  -14.9800 C   0  0  0  0  0
  -18.1850   51.4880  -14.5340 C   0  0  0  0  0
  -16.9970   50.9640  -15.3280 C   0  0  0  0  0
  -16.4010   49.9480  -14.9800 O   0  0  0  0  0
  -16.6190   51.6760  -16.3850 O   0  0  0  0  0
  -17.8650   49.8080  -12.8390 N   0  0  0  0  0
  -17.6830   47.6550  -11.7490 C   0  0  0  0  0
  -17.2040   46.9140  -12.9940 C   0  0  0  0  0
  -17.8840   46.8610  -10.5220 C   0  0  0  0  0
  -17.5640   45.1280  -10.5880 Cl  0  0  0  0  0
  -18.3100   47.4770   -9.3550 C   0  0  0  0  0
  -18.8705   49.2894   -8.3936 H   0  0  0  0  0
  -18.5449   50.7132  -10.3802 H   0  0  0  0  0
  -20.0948   50.9502  -11.6889 H   0  0  0  0  0
  -21.1845   52.9711  -12.5165 H   0  0  0  0  0
  -20.4673   54.0209  -14.6265 H   0  0  0  0  0
  -18.5857   53.0728  -15.9177 H   0  0  0  0  0
  -17.2077   52.4269  -16.4907 H   0  0  0  0  0
  -17.1402   49.5065  -13.4903 H   0  0  0  0  0
  -17.9318   47.0437  -13.7950 H   0  0  0  0  0
  -16.2411   47.3174  -13.3074 H   0  0  0  0  0
  -17.0981   45.8534  -12.7658 H   0  0  0  0  0
  -18.4651   46.8822   -8.4548 H   0  0  0  0  0
  2  1  4  0  0  0
  1 18  4  0  0  0
  3  2  4  0  0  0
 13  3  1  0  0  0
  3 14  4  0  0  0
  4  5  4  0  0  0
  4  9  4  0  0  0
  4 13  1  0  0  0
  5  6  4  0  0  0
  6  7  4  0  0  0
  7  8  4  0  0  0
  8  9  4  0  0  0
  9 10  1  0  0  0
 10 11  2  0  0  0
 10 12  1  0  0  0
 14 15  1  0  0  0
 14 16  4  0  0  0
 16 17  1  0  0  0
 16 18  4  0  0  0
  1 19  1  0  0  0
  2 20  1  0  0  0
  5 21  1  0  0  0
  6 22  1  0  0  0
  7 23  1  0  0  0
  8 24  1  0  0  0
 12 25  1  0  0  0
 13 26  1  0  0  0
 15 27  1  0  0  0
 15 28  1  0  0  0
 15 29  1  0  0  0
 18 30  1  0  0  0
M  END
$$$$
