### 
### Created by X-TOOL on Mon Sep 10 21:13:21 2018
### 

@<TRIPOS>MOLECULE
4x0z_ligand
  129   133     1     0     0
SMALL
GAST_HUCK


@<TRIPOS>ATOM
      1 C1         18.6890  -21.8310   10.6110 C.2       1 SIA         0.1041
      2 C2         18.8880  -23.3400   10.5470 C.3       1 SIA         0.2208
      3 C3         20.2570  -23.7550    9.9700 C.3       1 SIA         0.0353
      4 C4         21.4060  -23.4940   10.9710 C.3       1 SIA         0.0850
      5 C5         21.1080  -24.0720   12.3520 C.3       1 SIA         0.0964
      6 C6         19.7390  -23.5750   12.8020 C.3       1 SIA         0.1143
      7 C7         19.2730  -24.1180   14.1390 C.3       1 SIA         0.1114
      8 C8         17.8390  -23.7000   14.4750 C.3       1 SIA         0.1065
      9 C9         17.5970  -23.8030   15.9730 C.3       1 SIA         0.0727
     10 C10        22.5620  -24.4970   14.2660 C.2       1 SIA         0.1733
     11 C11        23.6820  -23.9850   15.1310 C.3       1 SIA         0.0257
     12 N5         22.1710  -23.7130   13.2850 N.am      1 SIA        -0.2790
     13 O1A        19.3260  -21.0790    9.8420 O.co2     1 SIA        -0.5426
     14 O1B        17.8340  -21.3540   11.3970 O.co2     1 SIA        -0.5426
     15 O4         22.6590  -24.0240   10.4860 O.3       1 SIA        -0.3893
     16 O6         18.7650  -23.9810   11.8270 O.3       1 SIA        -0.3384
     17 O7         19.3270  -25.5560   14.1210 O.3       1 SIA        -0.3865
     18 O8         17.5270  -22.3820   14.0350 O.3       1 SIA        -0.3869
     19 O9         16.2450  -23.3880   16.3060 O.3       1 SIA        -0.3924
     20 O10        22.0240  -25.5820   14.4600 O.2       1 SIA        -0.3974
     21 C1         16.4480  -26.7250    7.9920 C.3       1 GAL         0.1884
     22 C2         17.1290  -25.3650    8.1540 C.3       1 GAL         0.1344
     23 C3         17.4790  -25.0600    9.6090 C.3       1 GAL         0.1200
     24 C4         16.2650  -25.3310   10.4780 C.3       1 GAL         0.1186
     25 C5         15.7840  -26.7640   10.2830 C.3       1 GAL         0.1134
     26 C6         14.5720  -27.0730   11.1650 C.3       1 GAL         0.0730
     27 O2         18.3260  -25.3450    7.4120 O.3       1 GAL        -0.3841
     28 O3         17.8190  -23.6960    9.6340 O.3       1 GAL        -0.3380
     29 O4         15.2350  -24.4630   10.0630 O.3       1 GAL        -0.3404
     30 O5         15.4150  -26.9560    8.9290 O.3       1 GAL        -0.3405
     31 O6         14.4150  -28.4790   11.1370 O.3       1 GAL        -0.3924
     32 C1         14.9940  -23.4990   11.0810 C.3       1 NGA         0.1854
     33 C2         14.3520  -22.2770   10.4650 C.3       1 NGA         0.1213
     34 C3         13.8840  -21.2550   11.4990 C.3       1 NGA         0.1176
     35 C4         13.1330  -21.9470   12.6290 C.3       1 NGA         0.1120
     36 C5         13.9720  -23.1150   13.1560 C.3       1 NGA         0.1130
     37 C6         13.3470  -23.8840   14.3090 C.3       1 NGA         0.0730
     38 C7         15.3050  -21.8890    8.2360 C.2       1 NGA         0.1733
     39 C8         16.3970  -21.2270    7.4380 C.3       1 NGA         0.0257
     40 N2         15.3380  -21.6930    9.5640 N.am      1 NGA        -0.2766
     41 O3         13.0190  -20.3420   10.8270 O.3       1 NGA        -0.3403
     42 O4         11.8630  -22.4050   12.1470 O.3       1 NGA        -0.3865
     43 O5         14.1950  -24.0620   12.1140 O.3       1 NGA        -0.3408
     44 O6         13.5910  -23.1430   15.4990 O.3       1 NGA        -0.3924
     45 O7         14.4370  -22.5650    7.6990 O.2       1 NGA        -0.3974
     46 C1         13.3490  -18.9490   10.9830 C.3       1 GAL         0.1884
     47 C2         12.4740  -18.1310   10.0250 C.3       1 GAL         0.1341
     48 C3         12.7170  -16.6240   10.1840 C.3       1 GAL         0.1141
     49 C4         12.7010  -16.1650   11.6450 C.3       1 GAL         0.1119
     50 C5         13.5320  -17.1400   12.4600 C.3       1 GAL         0.1130
     51 C6         13.4180  -16.7750   13.9170 C.3       1 GAL         0.0730
     52 O2         12.6620  -18.5180    8.6710 O.3       1 GAL        -0.3841
     53 O3         11.7580  -15.8890    9.4510 O.3       1 GAL        -0.3864
     54 O4         11.3910  -16.1090   12.1880 O.3       1 GAL        -0.3865
     55 O5         13.1190  -18.4870   12.2980 O.3       1 GAL        -0.3405
     56 O6         14.7070  -16.9580   14.4520 O.3       1 GAL        -0.3924
     57 C2         13.7450  -29.3060    5.1320 C.3       1 BGC         0.1339
     58 C3         14.0780  -28.0310    5.8960 C.3       1 BGC         0.1144
     59 C4         15.5580  -28.0320    6.2690 C.3       1 BGC         0.1184
     60 C5         16.4600  -28.3640    5.0770 C.3       1 BGC         0.1134
     61 C6         17.9400  -28.4520    5.4650 C.3       1 BGC         0.0730
     62 C1         14.7330  -29.5120    3.9860 C.3       1 BGC         0.1854
     63 O1         14.4160  -30.7210    3.3460 O.3       1 BGC        -0.3649
     64 O2         12.4370  -29.1660    4.6110 O.3       1 BGC        -0.3841
     65 O3         13.2260  -27.9370    7.0290 O.3       1 BGC        -0.3864
     66 O4         15.8910  -26.7260    6.6770 O.3       1 BGC        -0.3401
     67 O5         16.0600  -29.5800    4.4740 O.3       1 BGC        -0.3407
     68 O6         18.1520  -29.4840    6.4030 O.3       1 BGC        -0.3924
     69 H1         20.4463  -23.1781    9.0527 H         1 SIA         0.0336
     70 H2         20.2314  -24.8281    9.7296 H         1 SIA         0.0336
     71 H3         21.5140  -22.4044   11.0758 H         1 SIA         0.0618
     72 H4         21.0726  -25.1690   12.2796 H         1 SIA         0.0608
     73 H5         19.7732  -22.4772   12.8620 H         1 SIA         0.0646
     74 H6         19.9449  -23.7379   14.9226 H         1 SIA         0.0647
     75 H7         17.1585  -24.3969   13.9640 H         1 SIA         0.0643
     76 H8         18.3132  -23.1552   16.4996 H         1 SIA         0.0584
     77 H9         17.7430  -24.8458   16.2912 H         1 SIA         0.0584
     78 H10        23.9137  -24.7278   15.9085 H         1 SIA         0.0467
     79 H11        23.3767  -23.0407   15.6054 H         1 SIA         0.0467
     80 H12        24.5743  -23.8123   14.5114 H         1 SIA         0.0467
     81 H13        22.6239  -22.8285   13.1732 H         1 SIA         0.1856
     82 H14        23.3558  -23.7859   11.0862 H         1 SIA         0.2099
     83 H15        18.7266  -25.8861   13.4630 H         1 SIA         0.2100
     84 H16        17.6782  -22.3176   13.0993 H         1 SIA         0.2100
     85 H17        15.6232  -23.9473   15.8553 H         1 SIA         0.2095
     86 H18        17.1988  -27.5230    8.0895 H         1 SIA         0.0938
     87 H19        16.4501  -24.5853    7.7783 H         1 SIA         0.0671
     88 H20        18.3255  -25.6756    9.9473 H         1 SIA         0.0650
     89 H21        16.5120  -25.1577   11.5358 H         1 SIA         0.0651
     90 H22        16.6018  -27.4527   10.5417 H         1 SIA         0.0647
     91 H23        13.6733  -26.5805   10.7653 H         1 SIA         0.0584
     92 H24        14.7513  -26.7293   12.1944 H         1 SIA         0.0584
     93 H25        18.1353  -25.5324    6.5004 H         1 SIA         0.2101
     94 H26        14.2692  -28.7625   10.2420 H         1 SIA         0.2095
     95 H27        15.9577  -23.1998   11.5189 H         1 SIA         0.0935
     96 H28        13.4744  -22.5950    9.8830 H         1 SIA         0.0633
     97 H29        14.7500  -20.7175   11.9126 H         1 SIA         0.0649
     98 H30        12.9667  -21.2297   13.4462 H         1 SIA         0.0647
     99 H31        14.9370  -22.7085   13.4929 H         1 SIA         0.0647
    100 H32        13.8044  -24.8813   14.3871 H         1 SIA         0.0584
    101 H33        12.2640  -23.9889   14.1473 H         1 SIA         0.0584
    102 H34        16.2638  -21.4593    6.3711 H         1 SIA         0.0467
    103 H35        17.3753  -21.6002    7.7751 H         1 SIA         0.0467
    104 H36        16.3496  -20.1379    7.5848 H         1 SIA         0.0467
    105 H37        16.0658  -21.1255    9.9491 H         1 SIA         0.1857
    106 H38        11.3617  -21.6647   11.8261 H         1 SIA         0.2100
    107 H39        14.5279  -23.0531   15.6283 H         1 SIA         0.2095
    108 H40        14.4103  -18.8033   10.7332 H         1 SIA         0.0938
    109 H41        11.4244  -18.3308   10.2867 H         1 SIA         0.0671
    110 H42        13.7124  -16.4019    9.7720 H         1 SIA         0.0648
    111 H43        13.1486  -15.1620   11.7050 H         1 SIA         0.0647
    112 H44        14.5819  -17.0548   12.1429 H         1 SIA         0.0647
    113 H45        12.6950  -17.4320   14.4226 H         1 SIA         0.0584
    114 H46        13.1011  -15.7274   14.0273 H         1 SIA         0.0584
    115 H47        12.5090  -19.4517    8.5855 H         1 SIA         0.2101
    116 H48        10.8959  -16.0376    9.8215 H         1 SIA         0.2100
    117 H49        10.8655  -15.5002   11.6822 H         1 SIA         0.2100
    118 H50        15.3202  -16.3914   13.9987 H         1 SIA         0.2095
    119 H51        13.7879  -30.1697    5.8118 H         1 SIA         0.0671
    120 H52        13.8873  -27.1640    5.2464 H         1 SIA         0.0648
    121 H53        15.7343  -28.7522    7.0816 H         1 SIA         0.0651
    122 H54        16.3498  -27.5570    4.3377 H         1 SIA         0.0647
    123 H55        18.2548  -27.4944    5.9053 H         1 SIA         0.0584
    124 H56        18.5374  -28.6554    4.5641 H         1 SIA         0.0584
    125 H57        14.6489  -28.6784    3.2733 H         1 SIA         0.0935
    126 H58        13.5259  -30.6798    3.0168 H         1 SIA         0.2126
    127 H59        11.8246  -29.0380    5.3259 H         1 SIA         0.2101
    128 H60        13.4092  -27.1300    7.4955 H         1 SIA         0.2100
    129 H61        17.8842  -30.3135    6.0254 H         1 SIA         0.2095
@<TRIPOS>BOND
     1    2    1 1  
     2    1   13 ar 
     3    1   14 ar 
     4    2    3 1  
     5    2   16 1  
     6   28    2 1  
     7    3    4 1  
     8    4    5 1  
     9    4   15 1  
    10    6    5 1  
    11    5   12 1  
    12    6    7 1  
    13   16    6 1  
    14    7    8 1  
    15    7   17 1  
    16    8    9 1  
    17    8   18 1  
    18    9   19 1  
    19   10   11 1  
    20   12   10 am 
    21   10   20 2  
    22   21   22 1  
    23   21   30 1  
    24   66   21 1  
    25   22   23 1  
    26   22   27 1  
    27   23   24 1  
    28   23   28 1  
    29   25   24 1  
    30   24   29 1  
    31   25   26 1  
    32   30   25 1  
    33   26   31 1  
    34   29   32 1  
    35   32   33 1  
    36   32   43 1  
    37   33   34 1  
    38   33   40 1  
    39   34   35 1  
    40   34   41 1  
    41   36   35 1  
    42   35   42 1  
    43   36   37 1  
    44   43   36 1  
    45   37   44 1  
    46   38   39 1  
    47   40   38 am 
    48   38   45 2  
    49   41   46 1  
    50   46   47 1  
    51   46   55 1  
    52   47   48 1  
    53   47   52 1  
    54   48   49 1  
    55   48   53 1  
    56   50   49 1  
    57   49   54 1  
    58   50   51 1  
    59   55   50 1  
    60   51   56 1  
    61   58   57 1  
    62   57   62 1  
    63   57   64 1  
    64   59   58 1  
    65   58   65 1  
    66   59   60 1  
    67   59   66 1  
    68   60   61 1  
    69   60   67 1  
    70   61   68 1  
    71   62   63 1  
    72   62   67 1  
    73    3   69 1  
    74    3   70 1  
    75    4   71 1  
    76    5   72 1  
    77    6   73 1  
    78    7   74 1  
    79    8   75 1  
    80    9   76 1  
    81    9   77 1  
    82   11   78 1  
    83   11   79 1  
    84   11   80 1  
    85   12   81 1  
    86   15   82 1  
    87   17   83 1  
    88   18   84 1  
    89   19   85 1  
    90   21   86 1  
    91   22   87 1  
    92   23   88 1  
    93   24   89 1  
    94   25   90 1  
    95   26   91 1  
    96   26   92 1  
    97   27   93 1  
    98   31   94 1  
    99   32   95 1  
   100   33   96 1  
   101   34   97 1  
   102   35   98 1  
   103   36   99 1  
   104   37  100 1  
   105   37  101 1  
   106   39  102 1  
   107   39  103 1  
   108   39  104 1  
   109   40  105 1  
   110   42  106 1  
   111   44  107 1  
   112   46  108 1  
   113   47  109 1  
   114   48  110 1  
   115   49  111 1  
   116   50  112 1  
   117   51  113 1  
   118   51  114 1  
   119   52  115 1  
   120   53  116 1  
   121   54  117 1  
   122   56  118 1  
   123   57  119 1  
   124   58  120 1  
   125   59  121 1  
   126   60  122 1  
   127   61  123 1  
   128   61  124 1  
   129   62  125 1  
   130   63  126 1  
   131   64  127 1  
   132   65  128 1  
   133   68  129 1  
@<TRIPOS>SUBSTRUCTURE
     1 SIA         1

