4x0z_ligand
  -I-interpret- 

130134  0  0  0  0  0  0  0  0999 V2000
   18.6890  -21.8310   10.6110 C   0  0  0  0  0
   18.8880  -23.3400   10.5470 C   0  0  0  0  0
   20.2570  -23.7550    9.9700 C   0  0  0  0  0
   21.4060  -23.4940   10.9710 C   0  0  0  0  0
   21.1080  -24.0720   12.3520 C   0  0  0  0  0
   19.7390  -23.5750   12.8020 C   0  0  0  0  0
   19.2730  -24.1180   14.1390 C   0  0  0  0  0
   17.8390  -23.7000   14.4750 C   0  0  0  0  0
   17.5970  -23.8030   15.9730 C   0  0  0  0  0
   22.5620  -24.4970   14.2660 C   0  0  0  0  0
   23.6820  -23.9850   15.1310 C   0  0  0  0  0
   22.1710  -23.7130   13.2850 N   0  0  0  0  0
   19.3260  -21.0790    9.8420 O   0  0  0  0  0
   17.8340  -21.3540   11.3970 O   0  0  0  0  0
   22.6590  -24.0240   10.4860 O   0  0  0  0  0
   18.7650  -23.9810   11.8270 O   0  0  0  0  0
   19.3270  -25.5560   14.1210 O   0  0  0  0  0
   17.5270  -22.3820   14.0350 O   0  0  0  0  0
   16.2450  -23.3880   16.3060 O   0  0  0  0  0
   22.0240  -25.5820   14.4600 O   0  0  0  0  0
   16.4480  -26.7250    7.9920 C   0  0  0  0  0
   17.1290  -25.3650    8.1540 C   0  0  0  0  0
   17.4790  -25.0600    9.6090 C   0  0  0  0  0
   16.2650  -25.3310   10.4780 C   0  0  0  0  0
   15.7840  -26.7640   10.2830 C   0  0  0  0  0
   14.5720  -27.0730   11.1650 C   0  0  0  0  0
   18.3260  -25.3450    7.4120 O   0  0  0  0  0
   17.8190  -23.6960    9.6340 O   0  0  0  0  0
   15.2350  -24.4630   10.0630 O   0  0  0  0  0
   15.4150  -26.9560    8.9290 O   0  0  0  0  0
   14.4150  -28.4790   11.1370 O   0  0  0  0  0
   14.9940  -23.4990   11.0810 C   0  0  0  0  0
   14.3520  -22.2770   10.4650 C   0  0  0  0  0
   13.8840  -21.2550   11.4990 C   0  0  0  0  0
   13.1330  -21.9470   12.6290 C   0  0  0  0  0
   13.9720  -23.1150   13.1560 C   0  0  0  0  0
   13.3470  -23.8840   14.3090 C   0  0  0  0  0
   15.3050  -21.8890    8.2360 C   0  0  0  0  0
   16.3970  -21.2270    7.4380 C   0  0  0  0  0
   15.3380  -21.6930    9.5640 N   0  0  0  0  0
   13.0190  -20.3420   10.8270 O   0  0  0  0  0
   11.8630  -22.4050   12.1470 O   0  0  0  0  0
   14.1950  -24.0620   12.1140 O   0  0  0  0  0
   13.5910  -23.1430   15.4990 O   0  0  0  0  0
   14.4370  -22.5650    7.6990 O   0  0  0  0  0
   13.3490  -18.9490   10.9830 C   0  0  0  0  0
   12.4740  -18.1310   10.0250 C   0  0  0  0  0
   12.7170  -16.6240   10.1840 C   0  0  0  0  0
   12.7010  -16.1650   11.6450 C   0  0  0  0  0
   13.5320  -17.1400   12.4600 C   0  0  0  0  0
   13.4180  -16.7750   13.9170 C   0  0  0  0  0
   12.6620  -18.5180    8.6710 O   0  0  0  0  0
   11.7580  -15.8890    9.4510 O   0  0  0  0  0
   11.3910  -16.1090   12.1880 O   0  0  0  0  0
   13.1190  -18.4870   12.2980 O   0  0  0  0  0
   14.7070  -16.9580   14.4520 O   0  0  0  0  0
   13.7450  -29.3060    5.1320 C   0  0  0  0  0
   14.0780  -28.0310    5.8960 C   0  0  0  0  0
   15.5580  -28.0320    6.2690 C   0  0  0  0  0
   16.4600  -28.3640    5.0770 C   0  0  0  0  0
   17.9400  -28.4520    5.4650 C   0  0  0  0  0
   14.7330  -29.5120    3.9860 C   0  0  0  0  0
   14.4160  -30.7210    3.3460 O   0  0  0  0  0
   12.4370  -29.1660    4.6110 O   0  0  0  0  0
   13.2260  -27.9370    7.0290 O   0  0  0  0  0
   15.8910  -26.7260    6.6770 O   0  0  0  0  0
   16.0600  -29.5800    4.4740 O   0  0  0  0  0
   18.1520  -29.4840    6.4030 O   0  0  0  0  0
   20.4437  -23.1644    9.0731 H   0  0  0  0  0
   20.2277  -24.8229    9.7535 H   0  0  0  0  0
   21.4899  -22.4112   11.0640 H   0  0  0  0  0
   21.0787  -25.1611   12.3178 H   0  0  0  0  0
   19.8364  -22.4943   12.9050 H   0  0  0  0  0
   19.9380  -23.7044   14.8971 H   0  0  0  0  0
   17.1835  -24.3864   13.9391 H   0  0  0  0  0
   18.3022  -23.1514   16.4889 H   0  0  0  0  0
   17.7327  -24.8398   16.2808 H   0  0  0  0  0
   23.3342  -23.8993   16.1605 H   0  0  0  0  0
   24.5207  -24.6797   15.0861 H   0  0  0  0  0
   23.9994  -23.0065   14.7707 H   0  0  0  0  0
   22.6330  -22.8108   13.1709 H   0  0  0  0  0
   17.4422  -22.0639   11.9110 H   0  0  0  0  0
   22.8446  -23.6594    9.6176 H   0  0  0  0  0
   20.2201  -25.8390   13.9116 H   0  0  0  0  0
   16.6201  -22.1734   14.2708 H   0  0  0  0  0
   16.1136  -23.4605   17.2542 H   0  0  0  0  0
   17.1824  -27.5133    8.1573 H   0  0  0  0  0
   16.4239  -24.6138    7.7981 H   0  0  0  0  0
   18.2968  -25.6747    9.9852 H   0  0  0  0  0
   16.5243  -25.1775   11.5255 H   0  0  0  0  0
   16.5996  -27.4313   10.5616 H   0  0  0  0  0
   13.6782  -26.5693   10.7969 H   0  0  0  0  0
   14.7236  -26.7137   12.1828 H   0  0  0  0  0
   18.7511  -24.4905    7.5155 H   0  0  0  0  0
   13.6623  -28.7267   11.6789 H   0  0  0  0  0
   15.9353  -23.1936   11.5380 H   0  0  0  0  0
   13.4476  -22.5744    9.9342 H   0  0  0  0  0
   14.7368  -20.7355   11.9359 H   0  0  0  0  0
   12.9604  -21.2475   13.4470 H   0  0  0  0  0
   14.8888  -22.6494   13.5177 H   0  0  0  0  0
   13.7832  -24.8801   14.3839 H   0  0  0  0  0
   12.2758  -24.0069   14.1492 H   0  0  0  0  0
   16.9688  -21.9876    6.9063 H   0  0  0  0  0
   15.9535  -20.5364    6.7207 H   0  0  0  0  0
   17.0564  -20.6795    8.1114 H   0  0  0  0  0
   16.0803  -21.1142    9.9568 H   0  0  0  0  0
   11.3899  -22.8411   12.8595 H   0  0  0  0  0
   13.2065  -23.6056   16.2472 H   0  0  0  0  0
   14.4104  -18.8310   10.7647 H   0  0  0  0  0
   11.4394  -18.3427   10.2951 H   0  0  0  0  0
   13.7163  -16.4328    9.7928 H   0  0  0  0  0
   13.1098  -15.1553   11.6837 H   0  0  0  0  0
   14.5598  -17.0665   12.1045 H   0  0  0  0  0
   12.6816  -17.3953   14.4279 H   0  0  0  0  0
   13.0738  -15.7489   14.0461 H   0  0  0  0  0
   12.0987  -17.9844    8.1057 H   0  0  0  0  0
   11.9239  -14.9498    9.5609 H   0  0  0  0  0
   11.4366  -15.8171   13.1014 H   0  0  0  0  0
   14.6983  -16.7392   15.3867 H   0  0  0  0  0
   13.8083  -30.1680    5.7961 H   0  0  0  0  0
   13.9051  -27.1495    5.2787 H   0  0  0  0  0
   15.7103  -28.7836    7.0436 H   0  0  0  0  0
   16.3499  -27.5438    4.3675 H   0  0  0  0  0
   18.2432  -27.5046    5.9106 H   0  0  0  0  0
   18.5256  -28.6646    4.5706 H   0  0  0  0  0
   14.6629  -28.6734    3.2933 H   0  0  0  0  0
   15.0278  -30.8680    2.6210 H   0  0  0  0  0
   12.2015  -29.9586    4.1232 H   0  0  0  0  0
   13.4302  -27.1352    7.5159 H   0  0  0  0  0
   19.0837  -29.5210    6.6313 H   0  0  0  0  0
  2  1  1  0  0  0
  1 13  2  0  0  0
  1 14  1  0  0  0
  2  3  1  0  0  0
  2 16  1  0  0  0
 28  2  1  0  0  0
  3  4  1  0  0  0
  4  5  1  0  0  0
  4 15  1  0  0  0
  6  5  1  0  0  0
  5 12  1  0  0  0
  6  7  1  0  0  0
 16  6  1  0  0  0
  7  8  1  0  0  0
  7 17  1  0  0  0
  8  9  1  0  0  0
  8 18  1  0  0  0
  9 19  1  0  0  0
 10 11  1  0  0  0
 12 10  1  0  0  0
 10 20  2  0  0  0
 21 22  1  0  0  0
 21 30  1  0  0  0
 66 21  1  0  0  0
 22 23  1  0  0  0
 22 27  1  0  0  0
 23 24  1  0  0  0
 23 28  1  0  0  0
 25 24  1  0  0  0
 24 29  1  0  0  0
 25 26  1  0  0  0
 30 25  1  0  0  0
 26 31  1  0  0  0
 29 32  1  0  0  0
 32 33  1  0  0  0
 32 43  1  0  0  0
 33 34  1  0  0  0
 33 40  1  0  0  0
 34 35  1  0  0  0
 34 41  1  0  0  0
 36 35  1  0  0  0
 35 42  1  0  0  0
 36 37  1  0  0  0
 43 36  1  0  0  0
 37 44  1  0  0  0
 38 39  1  0  0  0
 40 38  1  0  0  0
 38 45  2  0  0  0
 41 46  1  0  0  0
 46 47  1  0  0  0
 46 55  1  0  0  0
 47 48  1  0  0  0
 47 52  1  0  0  0
 48 49  1  0  0  0
 48 53  1  0  0  0
 50 49  1  0  0  0
 49 54  1  0  0  0
 50 51  1  0  0  0
 55 50  1  0  0  0
 51 56  1  0  0  0
 58 57  1  0  0  0
 57 62  1  0  0  0
 57 64  1  0  0  0
 59 58  1  0  0  0
 58 65  1  0  0  0
 59 60  1  0  0  0
 59 66  1  0  0  0
 60 61  1  0  0  0
 60 67  1  0  0  0
 61 68  1  0  0  0
 62 63  1  0  0  0
 62 67  1  0  0  0
  3 69  1  0  0  0
  3 70  1  0  0  0
  4 71  1  0  0  0
  5 72  1  0  0  0
  6 73  1  0  0  0
  7 74  1  0  0  0
  8 75  1  0  0  0
  9 76  1  0  0  0
  9 77  1  0  0  0
 11 78  1  0  0  0
 11 79  1  0  0  0
 11 80  1  0  0  0
 12 81  1  0  0  0
 14 82  1  0  0  0
 15 83  1  0  0  0
 17 84  1  0  0  0
 18 85  1  0  0  0
 19 86  1  0  0  0
 21 87  1  0  0  0
 22 88  1  0  0  0
 23 89  1  0  0  0
 24 90  1  0  0  0
 25 91  1  0  0  0
 26 92  1  0  0  0
 26 93  1  0  0  0
 27 94  1  0  0  0
 31 95  1  0  0  0
 32 96  1  0  0  0
 33 97  1  0  0  0
 34 98  1  0  0  0
 35 99  1  0  0  0
 36100  1  0  0  0
 37101  1  0  0  0
 37102  1  0  0  0
 39103  1  0  0  0
 39104  1  0  0  0
 39105  1  0  0  0
 40106  1  0  0  0
 42107  1  0  0  0
 44108  1  0  0  0
 46109  1  0  0  0
 47110  1  0  0  0
 48111  1  0  0  0
 49112  1  0  0  0
 50113  1  0  0  0
 51114  1  0  0  0
 51115  1  0  0  0
 52116  1  0  0  0
 53117  1  0  0  0
 54118  1  0  0  0
 56119  1  0  0  0
 57120  1  0  0  0
 58121  1  0  0  0
 59122  1  0  0  0
 60123  1  0  0  0
 61124  1  0  0  0
 61125  1  0  0  0
 62126  1  0  0  0
 63127  1  0  0  0
 64128  1  0  0  0
 65129  1  0  0  0
 68130  1  0  0  0
M  END
$$$$
