1nmk_ligand
  -I-interpret- 

110112  0  0  0  0  0  0  0  0999 V2000
   27.8380    5.6340   32.7020 C   0  0  0  0  0
   27.5010    6.4410   33.9600 C   0  0  0  0  0
   27.1550    7.5980   33.7390 O   0  0  0  0  0
   27.6110    5.8630   35.3420 C   0  0  0  0  0
   28.1550    6.8620   36.3530 C   0  0  0  0  0
   28.1170    6.2850   37.7750 C   0  0  0  0  0
   29.0640    5.0850   37.7090 C   0  0  0  0  0
   28.5830    3.9800   37.6250 O   0  0  0  0  0
   30.3780    5.2470   37.7380 N   0  0  0  0  0
   31.2170    4.0640   37.7240 C   0  0  0  0  0
   32.3310    4.1370   36.6350 C   0  0  0  0  0
   31.7200    3.9290   35.2230 C   0  0  0  0  0
   33.3100    2.9780   36.8280 C   0  0  0  0  0
   31.8460    4.1150   39.1090 C   0  0  0  0  0
   31.5600    3.1610   39.9820 N   0  0  0  0  0
   31.9630    3.2470   41.3930 C   0  0  0  0  0
   30.7430    2.6800   42.1440 C   0  0  0  0  0
   30.8610    2.5490   43.6250 C   0  0  0  0  0
   30.4170    3.5690   44.4520 C   0  0  0  0  0
   30.5330    3.4920   45.8270 C   0  0  0  0  0
   31.0570    2.3450   46.4130 C   0  0  0  0  0
   31.4660    1.3070   45.5810 C   0  0  0  0  0
   31.9700    0.1660   46.1170 O   0  0  0  0  0
   31.3840    1.4030   44.2120 C   0  0  0  0  0
   33.2660    2.4810   41.7130 C   0  0  0  0  0
   33.4490    1.3730   41.2290 O   0  0  0  0  0
   34.1880    3.0900   42.5230 N   0  0  0  0  0
   35.3090    2.3480   43.1220 C   0  0  0  0  0
   35.2830    2.2460   44.6610 C   0  0  0  0  0
   34.9370    3.5910   45.2810 C   0  0  0  0  0
   33.7100    4.2440   44.6230 C   0  0  0  0  0
   33.8650    4.3080   43.1460 N   0  3  0  0  0
   33.5610    5.6340   45.1930 C   0  0  0  0  0
   34.0120    6.6090   44.6210 O   0  0  0  0  0
   32.9140    5.6220   46.3470 O   0  0  0  0  0
   32.6740    6.8870   46.9970 C   0  0  0  0  0
   31.2590    7.4410   46.6930 C   0  0  0  0  0
   31.0630    7.8560   45.2470 C   0  0  0  0  0
   29.9400    7.6140   44.6150 C   0  0  0  0  0
   29.7820    7.9770   43.3570 C   0  0  0  0  0
   28.6440    7.7250   42.7490 C   0  0  0  0  0
   28.5040    8.1460   41.2680 C   0  0  0  0  0
   27.4510    9.0860   41.0550 O   0  0  0  0  0
   28.3590    6.9060   40.3600 C   0  0  0  0  0
   29.4970    5.9620   40.7650 C   0  0  0  0  0
   28.5660    7.3500   38.8600 C   0  0  0  0  0
   29.9420    7.6940   38.6310 O   0  0  0  0  0
   32.8100    6.6060   48.4680 C   0  0  0  0  0
   32.3610    5.2380   48.9290 C   0  0  0  0  0
   33.2320    7.4770   49.3040 C   0  0  0  0  0
   33.2950    7.0770   50.7500 C   0  0  0  0  0
   33.8500    8.1390   51.4440 O   0  0  0  0  0
   32.6290    5.0190   39.4130 O   0  0  0  0  0
   26.9615    5.5881   32.0557 H   0  0  0  0  0
   28.6579    6.1173   32.1706 H   0  0  0  0  0
   28.1336    4.6245   32.9878 H   0  0  0  0  0
   28.3008    5.0201   35.2990 H   0  0  0  0  0
   26.6114    5.5709   35.6638 H   0  0  0  0  0
   27.5370    7.7594   36.3240 H   0  0  0  0  0
   29.1896    7.0898   36.0964 H   0  0  0  0  0
   27.1116    5.9993   38.0842 H   0  0  0  0  0
   30.7895    6.1798   37.7694 H   0  0  0  0  0
   30.6597    3.1546   37.4993 H   0  0  0  0  0
   32.8156    5.1094   36.7231 H   0  0  0  0  0
   31.2401    2.9514   35.1766 H   0  0  0  0  0
   30.9816    4.7072   35.0298 H   0  0  0  0  0
   32.5108    3.9829   34.4748 H   0  0  0  0  0
   33.7629    3.0475   37.8170 H   0  0  0  0  0
   32.7745    2.0329   36.7378 H   0  0  0  0  0
   34.0879    3.0304   36.0662 H   0  0  0  0  0
   31.0436    2.3404   39.6651 H   0  0  0  0  0
   32.2093    4.2674   41.6866 H   0  0  0  0  0
   30.6047    1.6672   41.7656 H   0  0  0  0  0
   29.9319    3.3874   41.9714 H   0  0  0  0  0
   29.9646    4.4549   44.0062 H   0  0  0  0  0
   30.2147    4.3278   46.4502 H   0  0  0  0  0
   31.1452    2.2610   47.4962 H   0  0  0  0  0
   32.2016   -0.4425   45.4115 H   0  0  0  0  0
   31.7294    0.5798   43.5866 H   0  0  0  0  0
   36.2179    2.8897   42.8600 H   0  0  0  0  0
   35.2487    1.3288   42.7402 H   0  0  0  0  0
   36.2684    1.9387   45.0112 H   0  0  0  0  0
   34.5272    1.5173   44.9539 H   0  0  0  0  0
   35.7888    4.2561   45.1390 H   0  0  0  0  0
   34.7069    3.4270   46.3337 H   0  0  0  0  0
   32.8215    3.6478   44.8311 H   0  0  0  0  0
   32.9625    4.5983   42.7698 H   0  0  0  0  0
   34.6395    4.9454   42.9608 H   0  0  0  0  0
   33.3756    7.6422   46.6427 H   0  0  0  0  0
   31.1181    8.3294   47.3086 H   0  0  0  0  0
   30.5455    6.6441   46.9025 H   0  0  0  0  0
   31.8718    8.3654   44.7231 H   0  0  0  0  0
   29.1275    7.1069   45.1354 H   0  0  0  0  0
   30.5886    8.4820   42.8256 H   0  0  0  0  0
   27.8240    7.2341   43.2731 H   0  0  0  0  0
   29.4235    8.6635   40.9944 H   0  0  0  0  0
   27.4089    9.3118   40.1229 H   0  0  0  0  0
   27.3822    6.4326   40.4592 H   0  0  0  0  0
   30.4538    6.4600   40.6079 H   0  0  0  0  0
   29.3916    5.6985   41.8174 H   0  0  0  0  0
   29.4519    5.0587   40.1567 H   0  0  0  0  0
   27.9104    8.2112   38.7312 H   0  0  0  0  0
   30.0557    7.9622   37.7163 H   0  0  0  0  0
   33.1897    4.7332   49.4255 H   0  0  0  0  0
   31.5296    5.3455   49.6256 H   0  0  0  0  0
   32.0411    4.6524   48.0671 H   0  0  0  0  0
   33.5346    8.4725   48.9790 H   0  0  0  0  0
   33.9000    6.1788   50.8741 H   0  0  0  0  0
   32.2989    6.8489   51.1292 H   0  0  0  0  0
   33.9055    7.9166   52.3762 H   0  0  0  0  0
  1  2  1  0  0  0
  2  3  2  0  0  0
  2  4  1  0  0  0
  4  5  1  0  0  0
  5  6  1  0  0  0
  6  7  1  0  0  0
  6 46  1  0  0  0
  7  8  2  0  0  0
  7  9  1  0  0  0
  9 10  1  0  0  0
 10 11  1  0  0  0
 10 14  1  0  0  0
 11 12  1  0  0  0
 11 13  1  0  0  0
 14 15  1  0  0  0
 14 53  2  0  0  0
 15 16  1  0  0  0
 16 17  1  0  0  0
 16 25  1  0  0  0
 17 18  1  0  0  0
 18 19  4  0  0  0
 18 24  4  0  0  0
 19 20  4  0  0  0
 20 21  4  0  0  0
 21 22  4  0  0  0
 22 23  1  0  0  0
 22 24  4  0  0  0
 25 26  2  0  0  0
 25 27  1  0  0  0
 27 28  1  0  0  0
 27 32  1  0  0  0
 28 29  1  0  0  0
 29 30  1  0  0  0
 30 31  1  0  0  0
 31 32  1  0  0  0
 31 33  1  0  0  0
 33 34  2  0  0  0
 33 35  1  0  0  0
 35 36  1  0  0  0
 36 37  1  0  0  0
 36 48  1  0  0  0
 37 38  1  0  0  0
 38 39  2  0  0  0
 39 40  1  0  0  0
 40 41  2  0  0  0
 41 42  1  0  0  0
 42 43  1  0  0  0
 42 44  1  0  0  0
 44 45  1  0  0  0
 44 46  1  0  0  0
 46 47  1  0  0  0
 48 49  1  0  0  0
 48 50  2  0  0  0
 50 51  1  0  0  0
 51 52  1  0  0  0
  1 54  1  0  0  0
  1 55  1  0  0  0
  1 56  1  0  0  0
  4 57  1  0  0  0
  4 58  1  0  0  0
  5 59  1  0  0  0
  5 60  1  0  0  0
  6 61  1  0  0  0
  9 62  1  0  0  0
 10 63  1  0  0  0
 11 64  1  0  0  0
 12 65  1  0  0  0
 12 66  1  0  0  0
 12 67  1  0  0  0
 13 68  1  0  0  0
 13 69  1  0  0  0
 13 70  1  0  0  0
 15 71  1  0  0  0
 16 72  1  0  0  0
 17 73  1  0  0  0
 17 74  1  0  0  0
 19 75  1  0  0  0
 20 76  1  0  0  0
 21 77  1  0  0  0
 23 78  1  0  0  0
 24 79  1  0  0  0
 28 80  1  0  0  0
 28 81  1  0  0  0
 29 82  1  0  0  0
 29 83  1  0  0  0
 30 84  1  0  0  0
 30 85  1  0  0  0
 31 86  1  0  0  0
 32 87  1  0  0  0
 32 88  1  0  0  0
 36 89  1  0  0  0
 37 90  1  0  0  0
 37 91  1  0  0  0
 38 92  1  0  0  0
 39 93  1  0  0  0
 40 94  1  0  0  0
 41 95  1  0  0  0
 42 96  1  0  0  0
 43 97  1  0  0  0
 44 98  1  0  0  0
 45 99  1  0  0  0
 45100  1  0  0  0
 45101  1  0  0  0
 46102  1  0  0  0
 47103  1  0  0  0
 49104  1  0  0  0
 49105  1  0  0  0
 49106  1  0  0  0
 50107  1  0  0  0
 51108  1  0  0  0
 51109  1  0  0  0
 52110  1  0  0  0
M  END
$$$$
