6qef_ligand
  -I-interpret- 

 41 43  0  0  0  0  0  0  0  0999 V2000
  -24.4370  -18.2510   15.3740 C   0  0  0  0  0
  -23.5930  -19.4960   15.3690 C   0  0  0  0  0
  -23.0640  -22.1950   15.4770 O   0  0  0  0  0
  -25.8450  -22.1470   17.7240 C   0  0  0  0  0
  -24.6370  -21.8220   19.7370 C   0  0  0  0  0
  -23.6550  -22.4760   18.7760 C   0  0  0  0  0
  -27.1130  -21.4140   19.7270 C   0  0  0  0  0
  -28.2220  -22.2450   19.6570 C   0  0  0  0  0
  -29.3660  -21.9230   20.3630 C   0  0  0  0  0
  -29.4110  -20.7850   21.1320 C   0  0  0  0  0
  -25.8110  -18.3470   15.5450 C   0  0  0  0  0
  -26.5680  -17.2020   15.6440 C   0  0  0  0  0
  -26.0050  -15.9480   15.5670 C   0  0  0  0  0
  -24.6490  -15.8920   15.3920 C   0  0  0  0  0
  -23.9990  -20.4080   16.4250 N   0  0  0  0  0
  -23.7580  -21.7120   16.3550 C   0  0  0  0  0
  -24.4010  -22.5920   17.4300 C   0  0  0  0  0
  -25.9230  -21.7630   19.0300 N   0  0  0  0  0
  -26.7610  -22.1430   16.9300 O   0  0  0  0  0
  -24.6020  -23.9320   17.0070 O   0  0  0  0  0
  -28.3150  -19.9590   21.2010 C   0  0  0  0  0
  -27.1630  -20.2650   20.5000 C   0  0  0  0  0
  -23.8490  -16.9970   15.2850 C   0  0  0  0  0
  -28.2840  -17.3440   15.8960 Cl  0  0  0  0  0
  -24.0600  -14.6770   15.3510 F   0  0  0  0  0
  -22.5533  -19.2130   15.5334 H   0  0  0  0  0
  -23.7166  -19.9971   14.4089 H   0  0  0  0  0
  -24.3008  -20.8261   20.0256 H   0  0  0  0  0
  -24.7222  -22.3932   20.6614 H   0  0  0  0  0
  -23.3354  -23.4530   19.1385 H   0  0  0  0  0
  -22.7443  -21.8855   18.6758 H   0  0  0  0  0
  -28.1912  -23.1482   19.0476 H   0  0  0  0  0
  -30.2374  -22.5755   20.3094 H   0  0  0  0  0
  -30.3159  -20.5376   21.6871 H   0  0  0  0  0
  -26.2885  -19.3253   15.6007 H   0  0  0  0  0
  -26.6097  -15.0442   15.6418 H   0  0  0  0  0
  -24.4825  -20.0362   17.2426 H   0  0  0  0  0
  -25.0060  -24.4339   17.7187 H   0  0  0  0  0
  -28.3539  -19.0572   21.8120 H   0  0  0  0  0
  -26.2974  -19.6048   20.5553 H   0  0  0  0  0
  -22.7745  -16.8947   15.1333 H   0  0  0  0  0
  2  1  1  0  0  0
  1 11  4  0  0  0
  1 23  4  0  0  0
 15  2  1  0  0  0
 16  3  2  0  0  0
 17  4  1  0  0  0
  4 18  1  0  0  0
  4 19  2  0  0  0
  6  5  1  0  0  0
  5 18  1  0  0  0
 17  6  1  0  0  0
  7  8  4  0  0  0
 18  7  1  0  0  0
  7 22  4  0  0  0
  8  9  4  0  0  0
  9 10  4  0  0  0
 10 21  4  0  0  0
 11 12  4  0  0  0
 12 13  4  0  0  0
 12 24  1  0  0  0
 14 13  4  0  0  0
 23 14  4  0  0  0
 14 25  1  0  0  0
 16 15  1  0  0  0
 16 17  1  0  0  0
 17 20  1  0  0  0
 21 22  4  0  0  0
  2 26  1  0  0  0
  2 27  1  0  0  0
  5 28  1  0  0  0
  5 29  1  0  0  0
  6 30  1  0  0  0
  6 31  1  0  0  0
  8 32  1  0  0  0
  9 33  1  0  0  0
 10 34  1  0  0  0
 11 35  1  0  0  0
 13 36  1  0  0  0
 15 37  1  0  0  0
 20 38  1  0  0  0
 21 39  1  0  0  0
 22 40  1  0  0  0
 23 41  1  0  0  0
M  END
$$$$
