### 
### Created by X-TOOL on Wed Jan  1 15:39:37 2020
### 

@<TRIPOS>MOLECULE
6eyt_ligand
   36    37     1     0     0
SMALL
GAST_HUCK


@<TRIPOS>ATOM
      1 N1        -12.2850   -9.6080  -29.9990 N.am      1 UDP        -0.1592
      2 C2        -11.6900  -10.2030  -28.9070 C.2       1 UDP         0.3328
      3 N3        -12.3420  -11.2990  -28.4150 N.am      1 UDP        -0.1865
      4 C4        -13.5070  -11.8580  -28.9000 C.2       1 UDP         0.1822
      5 C5        -14.0600  -11.1960  -30.0350 C.2       1 UDP         0.0062
      6 C6        -13.4440  -10.1110  -30.5430 C.2       1 UDP         0.0591
      7 O2        -10.6580   -9.7860  -28.4030 O.2       1 UDP        -0.3815
      8 O4        -13.9750  -12.8670  -28.3480 O.2       1 UDP        -0.4124
      9 C1'       -11.6160   -8.4310  -30.5780 C.3       1 UDP         0.2059
     10 C2'       -10.4810   -8.8020  -31.5450 C.3       1 UDP         0.1387
     11 O2'        -9.4200   -7.8670  -31.4010 O.3       1 UDP        -0.3836
     12 C3'       -11.1520   -8.6270  -32.9060 C.3       1 UDP         0.1149
     13 C4'       -12.0640   -7.4390  -32.6460 C.3       1 UDP         0.1189
     14 O4'       -12.5660   -7.6750  -31.3140 O.3       1 UDP        -0.3363
     15 O3'       -10.1880   -8.3380  -33.9130 O.3       1 UDP        -0.3864
     16 C5'       -13.2140   -7.2730  -33.6070 C.3       1 UDP         0.1132
     17 O5'       -13.7100   -8.5790  -33.9790 O.3       1 UDP        -0.2436
     18 PA        -14.7820   -8.7560  -35.1330 P.3       1 UDP         0.3276
     19 O1A       -14.2440   -8.0750  -36.3370 O.co2     1 UDP        -0.5556
     20 O2A       -15.1750  -10.2270  -35.2930 O.co2     1 UDP        -0.5556
     21 O3A       -16.0770   -7.9970  -34.5980 O.3       1 UDP        -0.1548
     22 PB        -16.8560   -6.8210  -35.3270 P.3       1 UDP         0.2069
     23 O1B       -16.1330   -6.3160  -36.5060 O.co2     1 UDP        -0.5891
     24 O2B       -17.0240   -5.7740  -34.2200 O.co2     1 UDP        -0.5891
     25 O3B       -18.2140   -7.4520  -35.6400 O.co2     1 UDP        -0.5891
     26 H1        -11.9311  -11.7431  -27.6188 H         1 UDP         0.2259
     27 H2        -14.9775  -11.5662  -30.4899 H         1 UDP         0.0258
     28 H3        -13.8771   -9.6167  -31.4114 H         1 UDP         0.1178
     29 H4        -11.2056   -7.8205  -29.7601 H         1 UDP         0.0997
     30 H5        -10.1187   -9.8290  -31.3901 H         1 UDP         0.0676
     31 H6         -8.7164   -8.0937  -31.9978 H         1 UDP         0.2101
     32 H7        -11.7272   -9.5201  -33.1914 H         1 UDP         0.0648
     33 H8        -11.4670   -6.5154  -32.6705 H         1 UDP         0.0651
     34 H9        -10.6336   -8.1188  -34.7228 H         1 UDP         0.2100
     35 H10       -12.8696   -6.7399  -34.5054 H         1 UDP         0.0648
     36 H11       -14.0175   -6.6973  -33.1244 H         1 UDP         0.0648
@<TRIPOS>BOND
     1    1    2 am 
     2    1    6 1  
     3    1    9 1  
     4    2    3 am 
     5    2    7 2  
     6    3    4 am 
     7    4    5 1  
     8    4    8 2  
     9    5    6 2  
    10    9   10 1  
    11    9   14 1  
    12   10   11 1  
    13   10   12 1  
    14   12   13 1  
    15   12   15 1  
    16   13   14 1  
    17   13   16 1  
    18   16   17 1  
    19   17   18 1  
    20   18   19 ar 
    21   18   20 ar 
    22   18   21 1  
    23   21   22 1  
    24   22   23 ar 
    25   22   24 ar 
    26   22   25 ar 
    27    3   26 1  
    28    5   27 1  
    29    6   28 1  
    30    9   29 1  
    31   10   30 1  
    32   11   31 1  
    33   12   32 1  
    34   13   33 1  
    35   15   34 1  
    36   16   35 1  
    37   16   36 1  
@<TRIPOS>SUBSTRUCTURE
     1 UDP         1

