6eyt_ligand
  -I-interpret- 

 39 40  0  0  0  0  0  0  0  0999 V2000
  -12.2850   -9.6080  -29.9990 N   0  0  0  0  0
  -11.6900  -10.2030  -28.9070 C   0  0  0  0  0
  -12.3420  -11.2990  -28.4150 N   0  0  0  0  0
  -13.5070  -11.8580  -28.9000 C   0  0  0  0  0
  -14.0600  -11.1960  -30.0350 C   0  0  0  0  0
  -13.4440  -10.1110  -30.5430 C   0  0  0  0  0
  -10.6580   -9.7860  -28.4030 O   0  0  0  0  0
  -13.9750  -12.8670  -28.3480 O   0  0  0  0  0
  -11.6160   -8.4310  -30.5780 C   0  0  0  0  0
  -10.4810   -8.8020  -31.5450 C   0  0  0  0  0
   -9.4200   -7.8670  -31.4010 O   0  0  0  0  0
  -11.1520   -8.6270  -32.9060 C   0  0  0  0  0
  -12.0640   -7.4390  -32.6460 C   0  0  0  0  0
  -12.5660   -7.6750  -31.3140 O   0  0  0  0  0
  -10.1880   -8.3380  -33.9130 O   0  0  0  0  0
  -13.2140   -7.2730  -33.6070 C   0  0  0  0  0
  -13.7100   -8.5790  -33.9790 O   0  0  0  0  0
  -14.7820   -8.7560  -35.1330 P   0  0  0  0  0
  -14.2440   -8.0750  -36.3370 O   0  0  0  0  0
  -15.1750  -10.2270  -35.2930 O   0  0  0  0  0
  -16.0770   -7.9970  -34.5980 O   0  0  0  0  0
  -16.8560   -6.8210  -35.3270 P   0  0  0  0  0
  -16.1330   -6.3160  -36.5060 O   0  0  0  0  0
  -17.0240   -5.7740  -34.2200 O   0  0  0  0  0
  -18.2140   -7.4520  -35.6400 O   0  0  0  0  0
  -11.9229  -11.7520  -27.6029 H   0  0  0  0  0
  -14.9784  -11.5666  -30.4904 H   0  0  0  0  0
  -13.8775   -9.6163  -31.4122 H   0  0  0  0  0
  -11.1914   -7.8701  -29.7454 H   0  0  0  0  0
  -10.0585   -9.7944  -31.3880 H   0  0  0  0  0
   -8.7090   -8.0961  -32.0040 H   0  0  0  0  0
  -11.6771   -9.5115  -33.2667 H   0  0  0  0  0
  -11.4992   -6.5154  -32.7729 H   0  0  0  0  0
  -10.6314   -8.2323  -34.7579 H   0  0  0  0  0
  -12.8755   -6.7417  -34.4965 H   0  0  0  0  0
  -14.0099   -6.6996  -33.1317 H   0  0  0  0  0
  -15.5074  -10.5610  -34.4566 H   0  0  0  0  0
  -17.5006   -6.1629  -33.4829 H   0  0  0  0  0
  -18.6203   -7.7550  -34.8247 H   0  0  0  0  0
  1  2  1  0  0  0
  1  6  1  0  0  0
  1  9  1  0  0  0
  2  3  1  0  0  0
  2  7  2  0  0  0
  3  4  1  0  0  0
  4  5  1  0  0  0
  4  8  2  0  0  0
  5  6  2  0  0  0
  9 10  1  0  0  0
  9 14  1  0  0  0
 10 11  1  0  0  0
 10 12  1  0  0  0
 12 13  1  0  0  0
 12 15  1  0  0  0
 13 14  1  0  0  0
 13 16  1  0  0  0
 16 17  1  0  0  0
 17 18  1  0  0  0
 18 19  2  0  0  0
 18 20  1  0  0  0
 18 21  1  0  0  0
 21 22  1  0  0  0
 22 23  2  0  0  0
 22 24  1  0  0  0
 22 25  1  0  0  0
  3 26  1  0  0  0
  5 27  1  0  0  0
  6 28  1  0  0  0
  9 29  1  0  0  0
 10 30  1  0  0  0
 11 31  1  0  0  0
 12 32  1  0  0  0
 13 33  1  0  0  0
 15 34  1  0  0  0
 16 35  1  0  0  0
 16 36  1  0  0  0
 20 37  1  0  0  0
 24 38  1  0  0  0
 25 39  1  0  0  0
M  END
$$$$
