5yqx_ligand
  -I-interpret- 

 38 41  0  0  0  0  0  0  0  0999 V2000
  -13.3010   -0.5660    5.3750 C   0  0  0  0  0
  -12.0690   -0.2580    5.9430 C   0  0  0  0  0
  -13.1590   -0.8020    6.7740 C   0  0  0  0  0
  -13.6820    0.2400    7.8190 C   0  0  0  0  0
  -15.1340   -0.1120    8.0770 C   0  0  0  0  0
  -15.6440    0.6490    9.1670 C   0  0  0  0  0
  -16.1660    1.7620    9.0300 O   0  0  0  0  0
  -15.3920    0.2190   10.4700 N   0  0  0  0  0
  -15.2250   -1.5390    8.3470 O   0  0  0  0  0
  -14.7350   -1.9760    9.5700 C   0  0  0  0  0
  -14.1340   -3.2210    9.6730 C   0  0  0  0  0
  -14.7680   -1.0860   10.6490 C   0  0  0  0  0
  -14.2650   -1.4940   11.8790 C   0  0  0  0  0
  -13.7070   -2.7710   11.9990 C   0  0  0  0  0
  -13.6850   -3.6730   10.9410 C   0  0  0  0  0
  -13.1170   -4.9340   11.0400 C   0  0  0  0  0
  -13.6150   -6.1210   10.5450 C   0  0  0  0  0
  -14.9210   -6.4170    9.8310 C   0  0  0  0  0
  -12.7940   -7.1250   10.8040 O   0  0  0  0  0
  -11.7140   -6.5570   11.5330 N   0  0  0  0  0
  -11.9540   -5.2440   11.6710 C   0  0  0  0  0
  -10.9340   -4.3630   12.3320 C   0  0  0  0  0
  -13.9311   -0.6017    4.4863 H   0  0  0  0  0
  -11.0486    0.1127    5.8455 H   0  0  0  0  0
  -13.3785   -1.6639    7.4041 H   0  0  0  0  0
  -13.5856    1.2578    7.4411 H   0  0  0  0  0
  -13.0987    0.2006    8.7389 H   0  0  0  0  0
  -15.7364    0.1281    7.2009 H   0  0  0  0  0
  -15.6367    0.7996   11.2722 H   0  0  0  0  0
  -14.0076   -3.8463    8.7891 H   0  0  0  0  0
  -14.3050   -0.8266   12.7399 H   0  0  0  0  0
  -13.2748   -3.0691   12.9542 H   0  0  0  0  0
  -15.7562   -6.1546   10.4804 H   0  0  0  0  0
  -14.9736   -5.8298    8.9142 H   0  0  0  0  0
  -14.9680   -7.4784    9.5874 H   0  0  0  0  0
  -10.5299   -3.6644   11.5994 H   0  0  0  0  0
  -11.4058   -3.8084   13.1431 H   0  0  0  0  0
  -10.1283   -4.9788   12.7317 H   0  0  0  0  0
  1  2  2  0  0  0
  1  3  1  0  0  0
  2  3  1  0  0  0
  3  4  1  0  0  0
  4  5  1  0  0  0
  5  6  1  0  0  0
  5  9  1  0  0  0
  6  7  2  0  0  0
  6  8  1  0  0  0
  8 12  1  0  0  0
  9 10  1  0  0  0
 10 11  4  0  0  0
 10 12  4  0  0  0
 11 15  4  0  0  0
 12 13  4  0  0  0
 13 14  4  0  0  0
 14 15  4  0  0  0
 15 16  1  0  0  0
 16 17  4  0  0  0
 16 21  4  0  0  0
 17 18  1  0  0  0
 17 19  4  0  0  0
 19 20  4  0  0  0
 20 21  4  0  0  0
 21 22  1  0  0  0
  1 23  1  0  0  0
  2 24  1  0  0  0
  3 25  1  0  0  0
  4 26  1  0  0  0
  4 27  1  0  0  0
  5 28  1  0  0  0
  8 29  1  0  0  0
 11 30  1  0  0  0
 13 31  1  0  0  0
 14 32  1  0  0  0
 18 33  1  0  0  0
 18 34  1  0  0  0
 18 35  1  0  0  0
 22 36  1  0  0  0
 22 37  1  0  0  0
 22 38  1  0  0  0
M  END
$$$$
