3oad_ligand
  -I-interpret- 

 83 87  0  0  0  0  0  0  0  0999 V2000
   24.4060   -6.2150    2.7660 C   0  0  0  0  0
   23.9170   -6.2260    4.2060 C   0  0  0  0  0
   24.8310   -6.8160    5.1760 N   0  3  0  0  0
   26.2760   -6.7320    5.0900 C   0  0  0  0  0
   26.7450   -6.8380    3.6500 C   0  0  0  0  0
   25.9030   -5.9530    2.7080 C   0  0  0  0  0
   28.1890   -6.3940    3.5140 C   0  0  0  0  0
   29.0470   -7.1060    2.7560 N   0  0  0  0  0
   26.1930   -4.5960    3.0710 O   0  0  0  0  0
   26.3730   -6.1550    1.2990 C   0  0  0  0  0
   25.8530   -7.1480    0.4570 C   0  0  0  0  0
   26.3100   -7.2910   -0.7920 N   0  0  0  0  0
   27.3180   -6.4800   -1.2490 C   0  0  0  0  0
   27.8600   -5.4930   -0.4440 C   0  0  0  0  0
   27.3750   -5.3090    0.8480 C   0  0  0  0  0
   27.8430   -6.5630   -2.5090 O   0  0  0  0  0
   27.6400   -7.6570   -3.3780 C   0  0  0  0  0
   28.9700   -7.8730   -4.0700 C   0  0  0  0  0
   29.5750   -8.9870   -3.4260 O   0  0  0  0  0
   30.9290   -9.1390   -3.4290 C   0  0  0  0  0
   31.6230   -9.5180   -4.5600 C   0  0  0  0  0
   33.0050   -9.6510   -4.5030 C   0  0  0  0  0
   33.6720   -9.4260   -3.3040 C   0  0  0  0  0
   32.9650   -9.0500   -2.1610 C   0  0  0  0  0
   31.5850   -8.9240   -2.2440 C   0  0  0  0  0
   30.5730   -8.4710   -0.8530 Cl  0  0  0  0  0
   30.7270   -9.8440   -6.0710 Cl  0  0  0  0  0
   35.1650   -9.5700   -3.2350 C   0  0  0  0  0
   28.5570   -5.3580    4.0840 O   0  0  0  0  0
   30.4260   -6.6640    2.5470 C   0  0  0  0  0
   28.6700   -8.3370    1.9920 C   0  0  0  0  0
   31.4730   -7.0620    3.5680 C   0  0  0  0  0
   31.2040   -7.7810    4.7290 C   0  0  0  0  0
   32.2240   -8.1330    5.6190 C   0  0  0  0  0
   33.5330   -7.7770    5.3600 C   0  0  0  0  0
   33.8070   -7.0770    4.1990 C   0  0  0  0  0
   32.7780   -6.7120    3.3220 C   0  0  0  0  0
   28.2440   -9.4630    2.9250 C   0  0  0  0  0
   29.6110   -9.5210    2.2630 C   0  0  0  0  0
   33.1740   -5.8050    1.8230 Cl  0  0  0  0  0
   31.9200   -8.9350    6.8700 C   0  0  0  0  0
   32.1490  -10.4020    6.4850 C   0  0  0  0  0
   31.7530  -11.3980    7.4380 O   0  0  0  0  0
   30.7070  -11.0300    8.3500 C   0  0  0  0  0
   23.8887   -5.4231    2.2245 H   0  0  0  0  0
   24.2009   -7.1868    2.3170 H   0  0  0  0  0
   23.0131   -6.8350    4.2217 H   0  0  0  0  0
   23.7869   -5.1837    4.4970 H   0  0  0  0  0
   24.6584   -7.8153    5.0664 H   0  0  0  0  0
   24.6267   -6.2887    6.0249 H   0  0  0  0  0
   26.7077   -7.5555    5.6589 H   0  0  0  0  0
   26.5938   -5.7693    5.4903 H   0  0  0  0  0
   26.6361   -7.8863    3.3721 H   0  0  0  0  0
   25.9017   -4.4377    3.9719 H   0  0  0  0  0
   25.0686   -7.8100    0.8237 H   0  0  0  0  0
   28.6645   -4.8614   -0.8207 H   0  0  0  0  0
   27.7722   -4.5211    1.4879 H   0  0  0  0  0
   26.8437   -7.4565   -4.0948 H   0  0  0  0  0
   27.3225   -8.5467   -2.8342 H   0  0  0  0  0
   29.6000   -6.9865   -3.9967 H   0  0  0  0  0
   28.8333   -8.0609   -5.1349 H   0  0  0  0  0
   33.5645   -9.9309   -5.3956 H   0  0  0  0  0
   33.4856   -8.8592   -1.2225 H   0  0  0  0  0
   35.4433  -10.5890   -3.5041 H   0  0  0  0  0
   35.6288   -8.8698   -3.9298 H   0  0  0  0  0
   35.5030   -9.3554   -2.2212 H   0  0  0  0  0
   30.3865   -5.5755    2.5875 H   0  0  0  0  0
   30.7398   -7.1370    1.6165 H   0  0  0  0  0
   28.2672   -7.8632    1.0968 H   0  0  0  0  0
   30.1779   -8.0757    4.9491 H   0  0  0  0  0
   34.3310   -8.0413    6.0538 H   0  0  0  0  0
   34.8363   -6.8062    3.9638 H   0  0  0  0  0
   27.3834  -10.1160    3.0697 H   0  0  0  0  0
   27.8195   -9.5742    3.9228 H   0  0  0  0  0
   30.6501   -9.6944    2.5427 H   0  0  0  0  0
   30.2197  -10.2292    1.7008 H   0  0  0  0  0
   30.8988   -8.7676    7.2124 H   0  0  0  0  0
   32.5600   -8.6363    7.7002 H   0  0  0  0  0
   33.2272  -10.5135    6.3704 H   0  0  0  0  0
   31.5345  -10.5760    5.6017 H   0  0  0  0  0
   31.0235  -10.1660    8.9344 H   0  0  0  0  0
   29.8075  -10.7800    7.7874 H   0  0  0  0  0
   30.4987  -11.8656    9.0182 H   0  0  0  0  0
  1  2  1  0  0  0
  1  6  1  0  0  0
  2  3  1  0  0  0
  3  4  1  0  0  0
  4  5  1  0  0  0
  5  6  1  0  0  0
  5  7  1  0  0  0
  6  9  1  0  0  0
  6 10  1  0  0  0
  7  8  1  0  0  0
  7 29  2  0  0  0
  8 30  1  0  0  0
  8 31  1  0  0  0
 10 11  4  0  0  0
 10 15  4  0  0  0
 11 12  4  0  0  0
 12 13  4  0  0  0
 13 14  4  0  0  0
 13 16  1  0  0  0
 14 15  4  0  0  0
 16 17  1  0  0  0
 17 18  1  0  0  0
 18 19  1  0  0  0
 19 20  1  0  0  0
 20 21  4  0  0  0
 20 25  4  0  0  0
 21 22  4  0  0  0
 21 27  1  0  0  0
 22 23  4  0  0  0
 23 24  4  0  0  0
 23 28  1  0  0  0
 24 25  4  0  0  0
 25 26  1  0  0  0
 30 32  1  0  0  0
 31 38  1  0  0  0
 31 39  1  0  0  0
 32 33  4  0  0  0
 32 37  4  0  0  0
 33 34  4  0  0  0
 34 35  4  0  0  0
 34 41  1  0  0  0
 35 36  4  0  0  0
 36 37  4  0  0  0
 37 40  1  0  0  0
 38 39  1  0  0  0
 41 42  1  0  0  0
 42 43  1  0  0  0
 43 44  1  0  0  0
  1 45  1  0  0  0
  1 46  1  0  0  0
  2 47  1  0  0  0
  2 48  1  0  0  0
  3 49  1  0  0  0
  3 50  1  0  0  0
  4 51  1  0  0  0
  4 52  1  0  0  0
  5 53  1  0  0  0
  9 54  1  0  0  0
 11 55  1  0  0  0
 14 56  1  0  0  0
 15 57  1  0  0  0
 17 58  1  0  0  0
 17 59  1  0  0  0
 18 60  1  0  0  0
 18 61  1  0  0  0
 22 62  1  0  0  0
 24 63  1  0  0  0
 28 64  1  0  0  0
 28 65  1  0  0  0
 28 66  1  0  0  0
 30 67  1  0  0  0
 30 68  1  0  0  0
 31 69  1  0  0  0
 33 70  1  0  0  0
 35 71  1  0  0  0
 36 72  1  0  0  0
 38 73  1  0  0  0
 38 74  1  0  0  0
 39 75  1  0  0  0
 39 76  1  0  0  0
 41 77  1  0  0  0
 41 78  1  0  0  0
 42 79  1  0  0  0
 42 80  1  0  0  0
 44 81  1  0  0  0
 44 82  1  0  0  0
 44 83  1  0  0  0
M  END
$$$$
