6chm_ligand
  -I-interpret- 

 41 42  0  0  0  0  0  0  0  0999 V2000
   12.1430  162.6680   35.8760 C   0  0  0  0  0
   13.1510  161.7000   35.8260 C   0  0  0  0  0
   12.9260  160.4990   35.1730 C   0  0  0  0  0
    7.8710  164.5470   32.9330 O   0  0  0  0  0
   11.1180  164.2870   31.2660 C   0  0  0  0  0
    9.2370  165.6570   30.3750 C   0  0  0  0  0
   10.1880  166.1830   32.6010 C   0  0  0  0  0
   10.6660  161.2570   34.6180 C   0  0  0  0  0
   10.9120  162.4670   35.2640 C   0  0  0  0  0
    8.7820  164.1200   32.2350 C   0  0  0  0  0
    9.8340  165.0500   31.6330 C   0  0  0  0  0
    8.8980  162.8280   31.9050 N   0  0  0  0  0
    7.9420  161.8140   32.3310 C   0  0  0  0  0
    8.1930  161.3650   33.7570 C   0  0  0  0  0
    9.5260  160.7010   33.9410 C   0  0  0  0  0
   12.2050  163.8740   36.5230 O   0  0  0  0  0
   13.3870  164.1910   37.2310 C   0  0  0  0  0
   11.6860  160.2860   34.5760 C   0  0  0  0  0
   11.1960  159.2030   33.8880 N   0  0  0  0  0
    9.9020  159.4620   33.5190 C   0  0  0  0  0
   14.1136  161.8904   36.3007 H   0  0  0  0  0
   13.7036  159.7365   35.1275 H   0  0  0  0  0
   11.8223  164.9705   30.7917 H   0  0  0  0  0
   11.5643  163.8732   32.1703 H   0  0  0  0  0
   10.8742  163.4784   30.5769 H   0  0  0  0  0
    8.3395  166.2184   30.6346 H   0  0  0  0  0
    9.9648  166.3254   29.9150 H   0  0  0  0  0
    8.9799  164.8612   29.6759 H   0  0  0  0  0
    9.2927  166.7646   32.8206 H   0  0  0  0  0
   10.5835  165.7599   33.5244 H   0  0  0  0  0
   10.9388  166.8279   32.1445 H   0  0  0  0  0
   10.1491  163.2451   35.2888 H   0  0  0  0  0
    9.6901  162.5406   31.3302 H   0  0  0  0  0
    8.0468  160.9487   31.6765 H   0  0  0  0  0
    6.9416  162.2437   32.2788 H   0  0  0  0  0
    7.4231  160.6378   34.0149 H   0  0  0  0  0
    8.1751  162.2517   34.3907 H   0  0  0  0  0
   13.5550  163.4448   38.0076 H   0  0  0  0  0
   14.2314  164.1964   36.5418 H   0  0  0  0  0
   13.2826  165.1753   37.6875 H   0  0  0  0  0
    9.2635  158.7733   32.9656 H   0  0  0  0  0
  1  2  4  0  0  0
  9  1  4  0  0  0
  1 16  1  0  0  0
  3  2  4  0  0  0
 18  3  4  0  0  0
 10  4  2  0  0  0
 11  5  1  0  0  0
 11  6  1  0  0  0
 11  7  1  0  0  0
  8  9  4  0  0  0
 15  8  4  0  0  0
  8 18  4  0  0  0
 10 11  1  0  0  0
 12 10  1  0  0  0
 13 12  1  0  0  0
 14 13  1  0  0  0
 14 15  1  0  0  0
 15 20  4  0  0  0
 16 17  1  0  0  0
 18 19  4  0  0  0
 19 20  4  0  0  0
  2 21  1  0  0  0
  3 22  1  0  0  0
  5 23  1  0  0  0
  5 24  1  0  0  0
  5 25  1  0  0  0
  6 26  1  0  0  0
  6 27  1  0  0  0
  6 28  1  0  0  0
  7 29  1  0  0  0
  7 30  1  0  0  0
  7 31  1  0  0  0
  9 32  1  0  0  0
 12 33  1  0  0  0
 13 34  1  0  0  0
 13 35  1  0  0  0
 14 36  1  0  0  0
 14 37  1  0  0  0
 17 38  1  0  0  0
 17 39  1  0  0  0
 17 40  1  0  0  0
 20 41  1  0  0  0
M  END
$$$$
