5cas_ligand
  -I-interpret- 

 59 62  0  0  0  0  0  0  0  0999 V2000
  -49.5290   -0.9330  -21.9370 C   0  0  0  0  0
  -52.7010    1.1850  -19.6160 C   0  0  0  0  0
  -53.6990    2.1450  -19.7830 C   0  0  0  0  0
  -53.9630    1.5540  -22.0310 C   0  0  0  0  0
  -52.9340    0.6070  -21.9630 C   0  0  0  0  0
  -52.3000    0.3960  -20.7280 C   0  0  0  0  0
  -50.5780   -1.4870  -20.9850 C   0  0  0  0  0
  -51.4850   -2.5990  -21.5440 C   0  0  0  0  0
  -51.1220   -0.1330  -18.9190 C   0  0  0  0  0
  -50.0070   -0.1520  -16.6200 C   0  0  0  0  0
  -50.1210   -0.8110  -17.9990 C   0  0  0  0  0
  -51.9480    0.8060  -18.5630 N   0  0  0  0  0
  -54.2950    2.2700  -20.9560 N   0  0  0  0  0
  -51.3020   -0.4340  -20.2480 N   0  0  0  0  0
  -48.7110   -0.0380  -21.2590 F   0  0  0  0  0
  -48.7580   -1.9750  -22.4320 F   0  0  0  0  0
  -50.1300   -0.2570  -22.9890 F   0  0  0  0  0
  -54.6470    1.8740  -23.2090 N   0  0  0  0  0
  -54.8220    1.1100  -24.3530 C   0  0  0  0  0
  -56.0020    1.2570  -25.1000 C   0  0  0  0  0
  -56.1520    0.4760  -26.2450 C   0  0  0  0  0
  -55.1840   -0.3760  -26.5810 N   0  0  0  0  0
  -54.0720   -0.5150  -25.8420 C   0  0  0  0  0
  -53.8870    0.2600  -24.7720 N   0  0  0  0  0
  -53.0250   -1.3500  -26.2420 N   0  0  0  0  0
  -52.0410   -1.8280  -25.2400 C   0  0  0  0  0
  -50.6300   -1.8160  -25.8790 C   0  0  0  0  0
  -50.6230   -2.6120  -27.2070 C   0  0  0  0  0
  -51.7110   -2.1110  -28.1830 C   0  0  0  0  0
  -53.0940   -2.0810  -27.5270 C   0  0  0  0  0
  -51.4170   -0.7950  -28.5290 F   0  0  0  0  0
  -49.3540   -2.4510  -27.8440 O   0  0  0  0  0
  -48.5140   -3.6060  -27.7360 C   0  0  0  0  0
  -50.5620   -2.1560  -17.8340 O   0  0  0  0  0
  -53.9857    2.7883  -18.9511 H   0  0  0  0  0
  -52.6322    0.0467  -22.8479 H   0  0  0  0  0
  -49.9874   -2.0260  -20.2442 H   0  0  0  0  0
  -52.0106   -3.0849  -20.7220 H   0  0  0  0  0
  -52.2088   -2.1637  -22.2330 H   0  0  0  0  0
  -50.8753   -3.3327  -22.0713 H   0  0  0  0  0
  -49.6895    0.8839  -16.7389 H   0  0  0  0  0
  -50.9768   -0.1814  -16.1234 H   0  0  0  0  0
  -49.2738   -0.6915  -16.0204 H   0  0  0  0  0
  -49.1326   -0.7363  -18.4523 H   0  0  0  0  0
  -55.0771    2.7987  -23.2291 H   0  0  0  0  0
  -56.7767    1.9600  -24.7940 H   0  0  0  0  0
  -57.0496    0.5612  -26.8576 H   0  0  0  0  0
  -52.2956   -2.8405  -24.9268 H   0  0  0  0  0
  -52.0563   -1.1751  -24.3673 H   0  0  0  0  0
  -49.9263   -2.2790  -25.1873 H   0  0  0  0  0
  -50.3458   -0.7842  -26.0855 H   0  0  0  0  0
  -50.8200   -3.6565  -26.9657 H   0  0  0  0  0
  -51.7237   -2.7863  -29.0385 H   0  0  0  0  0
  -53.7963   -1.5767  -28.1907 H   0  0  0  0  0
  -53.4271   -3.1023  -27.3426 H   0  0  0  0  0
  -48.3283   -3.8215  -26.6838 H   0  0  0  0  0
  -49.0091   -4.4585  -28.2010 H   0  0  0  0  0
  -47.5675   -3.4139  -28.2413 H   0  0  0  0  0
  -49.9537   -2.6224  -17.2560 H   0  0  0  0  0
  7  1  1  0  0  0
  1 15  1  0  0  0
  1 16  1  0  0  0
  1 17  1  0  0  0
  2  3  4  0  0  0
  2  6  4  0  0  0
 12  2  4  0  0  0
  3 13  4  0  0  0
  5  4  4  0  0  0
 13  4  4  0  0  0
  4 18  1  0  0  0
  6  5  4  0  0  0
  6 14  4  0  0  0
  7  8  1  0  0  0
 14  7  1  0  0  0
  9 11  1  0  0  0
  9 12  4  0  0  0
  9 14  4  0  0  0
 11 10  1  0  0  0
 11 34  1  0  0  0
 18 19  1  0  0  0
 19 20  4  0  0  0
 19 24  4  0  0  0
 20 21  4  0  0  0
 21 22  4  0  0  0
 22 23  4  0  0  0
 23 24  4  0  0  0
 23 25  1  0  0  0
 25 26  1  0  0  0
 25 30  1  0  0  0
 26 27  1  0  0  0
 27 28  1  0  0  0
 28 29  1  0  0  0
 28 32  1  0  0  0
 29 30  1  0  0  0
 29 31  1  0  0  0
 32 33  1  0  0  0
  3 35  1  0  0  0
  5 36  1  0  0  0
  7 37  1  0  0  0
  8 38  1  0  0  0
  8 39  1  0  0  0
  8 40  1  0  0  0
 10 41  1  0  0  0
 10 42  1  0  0  0
 10 43  1  0  0  0
 11 44  1  0  0  0
 18 45  1  0  0  0
 20 46  1  0  0  0
 21 47  1  0  0  0
 26 48  1  0  0  0
 26 49  1  0  0  0
 27 50  1  0  0  0
 27 51  1  0  0  0
 28 52  1  0  0  0
 29 53  1  0  0  0
 30 54  1  0  0  0
 30 55  1  0  0  0
 33 56  1  0  0  0
 33 57  1  0  0  0
 33 58  1  0  0  0
 34 59  1  0  0  0
M  END
$$$$
