2a4g_ligand
  -I-interpret- 

105106  0  0  0  0  0  0  0  0999 V2000
  192.1520  -10.5310   49.0320 C   0  0  0  0  0
  192.7820  -11.3530   49.7070 O   0  0  0  0  0
  190.9290  -10.3640   48.9220 O   0  0  0  0  0
  190.1620  -11.1160   49.8060 C   0  0  0  0  0
  188.8870  -10.3230   50.0490 C   0  0  0  0  0
  187.7360  -10.9900   49.3210 C   0  0  0  0  0
  188.6130  -10.2300   51.5370 C   0  0  0  0  0
  192.7440   -9.6270   48.2640 N   0  0  0  0  0
  194.1890   -9.4660   48.2640 C   0  0  0  0  0
  194.6450   -8.6690   47.0510 C   0  0  0  0  0
  196.1610   -8.5050   47.0410 C   0  0  0  0  0
  196.6480   -7.7270   45.8400 C   0  0  0  0  0
  196.1900   -8.4010   44.5510 C   0  0  0  0  0
  194.6760   -8.6140   44.5250 C   0  0  0  0  0
  194.2210   -9.3620   45.7600 C   0  0  0  0  0
  194.6220   -8.7120   49.5060 C   0  0  0  0  0
  194.1500   -7.6020   49.7570 O   0  0  0  0  0
  195.5130   -9.3180   50.2800 N   0  0  0  0  0
  196.0080   -8.6840   51.4890 C   0  0  0  0  0
  196.6570   -9.7140   52.4060 C   0  0  0  0  0
  195.7720  -10.8760   52.8590 C   0  0  0  0  0
  196.4900  -11.6550   53.9350 C   0  0  0  0  0
  194.4610  -10.3590   53.3870 C   0  0  0  0  0
  197.0060   -7.6010   51.1020 C   0  0  0  0  0
  198.0120   -7.8770   50.4450 O   0  0  0  0  0
  196.6970   -6.3620   51.4730 N   0  0  0  0  0
  197.5450   -5.2190   51.1620 C   0  0  0  0  0
  196.7620   -4.1940   50.3330 C   0  0  0  0  0
  196.8230   -4.4370   48.8320 C   0  0  0  0  0
  195.4420   -4.5890   48.3180 C   0  0  0  0  0
  198.7500   -5.8180   53.1790 O   0  0  0  0  0
  198.3060   -4.7280   52.3810 C   0  0  0  0  0
  199.3770   -2.8110   51.4470 O   0  0  0  0  0
  200.6880   -4.5480   51.9340 N   0  0  0  0  0
  201.9350   -3.8820   51.6090 C   0  0  0  0  0
  202.3130   -4.0080   50.1540 C   0  0  0  0  0
  201.5480   -4.5080   49.3230 O   0  0  0  0  0
  199.5100   -3.9490   51.8810 C   0  0  0  0  0
  203.5070   -3.5190   49.8490 N   0  0  0  0  0
  204.0500   -3.5630   48.5040 C   0  0  0  0  0
  203.8550   -2.2780   47.7430 C   0  0  0  0  0
  203.9310   -1.0460   48.3870 C   0  0  0  0  0
  203.7910    0.1340   47.6810 C   0  0  0  0  0
  203.5680    0.0930   46.3060 C   0  0  0  0  0
  203.4850   -1.1320   45.6450 C   0  0  0  0  0
  203.6290   -2.3100   46.3650 C   0  0  0  0  0
  205.5560   -3.7760   48.6090 C   0  0  0  0  0
  206.2090   -3.2690   49.5330 O   0  0  0  0  0
  206.1020   -4.5290   47.6600 N   0  0  0  0  0
  190.6982  -11.2904   50.7388 H   0  0  0  0  0
  189.9385  -12.0991   49.3917 H   0  0  0  0  0
  189.0013   -9.3096   49.6641 H   0  0  0  0  0
  187.5946  -11.9972   49.7131 H   0  0  0  0  0
  186.8264  -10.4088   49.4724 H   0  0  0  0  0
  187.9626  -11.0418   48.2561 H   0  0  0  0  0
  187.7091   -9.6438   51.7028 H   0  0  0  0  0
  188.4773  -11.2322   51.9435 H   0  0  0  0  0
  189.4563   -9.7473   52.0309 H   0  0  0  0  0
  192.1747   -9.0328   47.6613 H   0  0  0  0  0
  194.6351  -10.4602   48.2401 H   0  0  0  0  0
  194.1754   -7.6873   47.1137 H   0  0  0  0  0
  196.6076   -9.4986   47.0032 H   0  0  0  0  0
  196.4468   -7.9552   47.9377 H   0  0  0  0  0
  197.7374   -7.6931   45.8560 H   0  0  0  0  0
  196.2372   -6.7181   45.8793 H   0  0  0  0  0
  196.6732   -9.3758   44.4849 H   0  0  0  0  0
  196.4586   -7.7561   43.7143 H   0  0  0  0  0
  194.4171   -9.1992   43.6426 H   0  0  0  0  0
  194.1833   -7.6420   44.4996 H   0  0  0  0  0
  193.1320   -9.4070   45.7441 H   0  0  0  0  0
  194.6794  -10.3508   45.7426 H   0  0  0  0  0
  195.8556  -10.2434   50.0219 H   0  0  0  0  0
  195.1776   -8.2340   52.0331 H   0  0  0  0  0
  196.9385   -9.1773   53.3120 H   0  0  0  0  0
  197.4704  -10.1590   51.8329 H   0  0  0  0  0
  195.5691  -11.5271   52.0087 H   0  0  0  0  0
  197.4282  -12.0418   53.5371 H   0  0  0  0  0
  196.6956  -10.9990   54.7808 H   0  0  0  0  0
  195.8627  -12.4846   54.2611 H   0  0  0  0  0
  194.6468   -9.7006   54.2356 H   0  0  0  0  0
  193.9474   -9.8050   52.6012 H   0  0  0  0  0
  193.8426  -11.1983   53.7053 H   0  0  0  0  0
  195.8344   -6.2061   51.9946 H   0  0  0  0  0
  198.3646   -5.5061   50.5033 H   0  0  0  0  0
  197.2076   -3.2172   50.5211 H   0  0  0  0  0
  195.7160   -4.2681   50.6307 H   0  0  0  0  0
  197.3958   -5.3414   48.6267 H   0  0  0  0  0
  197.3101   -3.5949   48.3404 H   0  0  0  0  0
  194.9632   -5.4350   48.8111 H   0  0  0  0  0
  194.8771   -3.6797   48.5235 H   0  0  0  0  0
  195.4731   -4.7637   47.2425 H   0  0  0  0  0
  199.2270   -5.4817   53.9412 H   0  0  0  0  0
  197.6553   -4.1064   52.9960 H   0  0  0  0  0
  200.7213   -5.5272   52.2176 H   0  0  0  0  0
  202.7236   -4.3510   52.1974 H   0  0  0  0  0
  201.8103   -2.8215   51.8277 H   0  0  0  0  0
  204.0662   -3.0950   50.5892 H   0  0  0  0  0
  203.5296   -4.3626   47.9768 H   0  0  0  0  0
  204.1033   -1.0115   49.4627 H   0  0  0  0  0
  203.8547    1.0919   48.1972 H   0  0  0  0  0
  203.4581    1.0214   45.7455 H   0  0  0  0  0
  203.3082   -1.1643   44.5699 H   0  0  0  0  0
  203.5651   -3.2687   45.8503 H   0  0  0  0  0
  207.1051   -4.7139   47.6697 H   0  0  0  0  0
  205.5181   -4.9221   46.9219 H   0  0  0  0  0
  1  2  2  0  0  0
  1  3  1  0  0  0
  8  1  1  0  0  0
  3  4  1  0  0  0
  4  5  1  0  0  0
  5  6  1  0  0  0
  5  7  1  0  0  0
  9  8  1  0  0  0
  9 10  1  0  0  0
 16  9  1  0  0  0
 10 11  1  0  0  0
 10 15  1  0  0  0
 11 12  1  0  0  0
 12 13  1  0  0  0
 14 13  1  0  0  0
 15 14  1  0  0  0
 16 17  2  0  0  0
 18 16  1  0  0  0
 19 18  1  0  0  0
 19 20  1  0  0  0
 24 19  1  0  0  0
 20 21  1  0  0  0
 21 22  1  0  0  0
 21 23  1  0  0  0
 24 25  2  0  0  0
 26 24  1  0  0  0
 27 26  1  0  0  0
 27 28  1  0  0  0
 32 27  1  0  0  0
 28 29  1  0  0  0
 29 30  1  0  0  0
 32 31  1  0  0  0
 38 32  1  0  0  0
 38 33  2  0  0  0
 34 35  1  0  0  0
 34 38  1  0  0  0
 35 36  1  0  0  0
 36 37  2  0  0  0
 36 39  1  0  0  0
 39 40  1  0  0  0
 40 41  1  0  0  0
 40 47  1  0  0  0
 41 42  4  0  0  0
 41 46  4  0  0  0
 42 43  4  0  0  0
 43 44  4  0  0  0
 44 45  4  0  0  0
 45 46  4  0  0  0
 47 48  2  0  0  0
 47 49  1  0  0  0
  4 50  1  0  0  0
  4 51  1  0  0  0
  5 52  1  0  0  0
  6 53  1  0  0  0
  6 54  1  0  0  0
  6 55  1  0  0  0
  7 56  1  0  0  0
  7 57  1  0  0  0
  7 58  1  0  0  0
  8 59  1  0  0  0
  9 60  1  0  0  0
 10 61  1  0  0  0
 11 62  1  0  0  0
 11 63  1  0  0  0
 12 64  1  0  0  0
 12 65  1  0  0  0
 13 66  1  0  0  0
 13 67  1  0  0  0
 14 68  1  0  0  0
 14 69  1  0  0  0
 15 70  1  0  0  0
 15 71  1  0  0  0
 18 72  1  0  0  0
 19 73  1  0  0  0
 20 74  1  0  0  0
 20 75  1  0  0  0
 21 76  1  0  0  0
 22 77  1  0  0  0
 22 78  1  0  0  0
 22 79  1  0  0  0
 23 80  1  0  0  0
 23 81  1  0  0  0
 23 82  1  0  0  0
 26 83  1  0  0  0
 27 84  1  0  0  0
 28 85  1  0  0  0
 28 86  1  0  0  0
 29 87  1  0  0  0
 29 88  1  0  0  0
 30 89  1  0  0  0
 30 90  1  0  0  0
 30 91  1  0  0  0
 31 92  1  0  0  0
 32 93  1  0  0  0
 34 94  1  0  0  0
 35 95  1  0  0  0
 35 96  1  0  0  0
 39 97  1  0  0  0
 40 98  1  0  0  0
 42 99  1  0  0  0
 43100  1  0  0  0
 44101  1  0  0  0
 45102  1  0  0  0
 46103  1  0  0  0
 49104  1  0  0  0
 49105  1  0  0  0
M  END
$$$$
