3wc5_ligand
  -I-interpret- 

 29 28  0  0  0  0  0  0  0  0999 V2000
    4.8260  -17.6990    3.7800 O   0  0  0  0  0
    3.8990  -18.4820    3.3930 C   0  0  0  0  0
    2.7440  -18.5410    3.9530 O   0  0  0  0  0
    4.1950  -19.3060    2.1570 C   0  0  0  0  0
    5.4710  -20.1220    2.4030 C   0  0  0  0  0
    5.2450  -21.3380    3.9530 Se  0  0  0  0  0
    4.4410  -18.3750    0.9640 C   0  0  0  0  0
    3.2070  -17.5470    0.5190 C   0  0  0  0  0
    3.3800  -16.9540   -0.9110 C   0  0  0  0  0
    4.6710  -16.0860   -1.0910 C   0  0  0  0  0
    4.7060  -15.2310    0.1580 C   0  0  0  0  0
    5.2450  -13.9350   -0.1300 N   0  3  0  0  0
    2.2043  -19.1948    3.5026 H   0  0  0  0  0
    3.3507  -19.9626    1.9469 H   0  0  0  0  0
    6.2913  -19.4355    2.6126 H   0  0  0  0  0
    5.6814  -20.7198    1.5161 H   0  0  0  0  0
    4.7180  -19.0078    0.1208 H   0  0  0  0  0
    5.2060  -17.6621    1.2717 H   0  0  0  0  0
    3.0851  -16.7186    1.2169 H   0  0  0  0  0
    2.3407  -18.2085    0.5090 H   0  0  0  0  0
    2.5254  -16.3033   -1.0960 H   0  0  0  0  0
    3.4571  -17.7939   -1.6014 H   0  0  0  0  0
    4.6469  -15.4892   -2.0028 H   0  0  0  0  0
    5.5685  -16.6942   -1.2037 H   0  0  0  0  0
    5.3378  -15.7181    0.9008 H   0  0  0  0  0
    3.6894  -15.1142    0.5335 H   0  0  0  0  0
    5.2594  -13.3767    0.7235 H   0  0  0  0  0
    6.1947  -14.0350   -0.4883 H   0  0  0  0  0
    4.6632  -13.4739   -0.8295 H   0  0  0  0  0
  1  2  2  0  0  0
  2  3  1  0  0  0
  2  4  1  0  0  0
  4  5  1  0  0  0
  4  7  1  0  0  0
  5  6  1  0  0  0
  7  8  1  0  0  0
  8  9  1  0  0  0
  9 10  1  0  0  0
 10 11  1  0  0  0
 11 12  1  0  0  0
  3 13  1  0  0  0
  4 14  1  0  0  0
  5 15  1  0  0  0
  5 16  1  0  0  0
  7 17  1  0  0  0
  7 18  1  0  0  0
  8 19  1  0  0  0
  8 20  1  0  0  0
  9 21  1  0  0  0
  9 22  1  0  0  0
 10 23  1  0  0  0
 10 24  1  0  0  0
 11 25  1  0  0  0
 11 26  1  0  0  0
 12 27  1  0  0  0
 12 28  1  0  0  0
 12 29  1  0  0  0
M  END
$$$$
