### 
### Created by X-TOOL on Mon Sep 10 21:13:14 2018
### 

@<TRIPOS>MOLECULE
3wc5_ligand
   33    32     1     0     0
SMALL
GAST_HUCK


@<TRIPOS>ATOM
      1 OAB         4.8260  -17.6990    3.7800 O.co2     1 DDK        -0.5687
      2 CAK         3.8990  -18.4820    3.3930 C.2       1 DDK         0.0379
      3 OAC         2.7440  -18.5410    3.9530 O.co2     1 DDK        -0.5687
      4 CAL         4.1950  -19.3060    2.1570 C.3       1 DDK         0.0119
      5 CAF         5.4710  -20.1220    2.4030 C.3       1 DDK        -0.0368
      6 SED         5.2450  -21.3380    3.9530 Se        1 DDK         0.0000
      7 CAJ         4.4410  -18.3750    0.9640 C.3       1 DDK        -0.0386
      8 CAI         3.2070  -17.5470    0.5190 C.3       1 DDK        -0.0511
      9 CAH         3.3800  -16.9540   -0.9110 C.3       1 DDK        -0.0481
     10 CAG         4.6710  -16.0860   -1.0910 C.3       1 DDK        -0.0126
     11 CAE         4.7060  -15.2310    0.1580 C.3       1 DDK        -0.0354
     12 NAA         5.2450  -13.9350   -0.1300 N.4       1 DDK         0.2185
     13 H1          3.3504  -19.9773    1.9427 H         1 DDK         0.0466
     14 H2          6.3055  -19.4340    2.6037 H         1 DDK         0.0287
     15 H3          5.6953  -20.7189    1.5067 H         1 DDK         0.0287
     16 H4          7.1262  -22.0133    3.6975 H         1 DDK         0.0000
     17 H5          5.9295  -19.8967    5.1836 H         1 DDK         0.0000
     18 H6          3.3638  -20.6627    4.2085 H         1 DDK         0.0000
     19 H7          5.0154  -22.5736    5.5280 H         1 DDK         0.0000
     20 H8          4.5605  -22.7793    2.7224 H         1 DDK         0.0000
     21 H9          4.7659  -18.9897    0.1116 H         1 DDK         0.0286
     22 H10         5.2431  -17.6736    1.2371 H         1 DDK         0.0286
     23 H11         3.0602  -16.7204    1.2297 H         1 DDK         0.0266
     24 H12         2.3213  -18.1992    0.5271 H         1 DDK         0.0266
     25 H13         2.5062  -16.3233   -1.1316 H         1 DDK         0.0267
     26 H14         3.4212  -17.7872   -1.6279 H         1 DDK         0.0267
     27 H15         4.6003  -15.4601   -1.9928 H         1 DDK         0.0317
     28 H16         5.5658  -16.7226   -1.1557 H         1 DDK         0.0317
     29 H17         5.3343  -15.7232    0.9150 H         1 DDK         0.0813
     30 H18         3.6833  -15.1183    0.5472 H         1 DDK         0.0813
     31 H19         5.2597  -13.3824    0.7129 H         1 DDK         0.1994
     32 H20         4.6708  -13.4783   -0.8212 H         1 DDK         0.1994
     33 H21         6.1837  -14.0326   -0.4842 H         1 DDK         0.1994
@<TRIPOS>BOND
     1    1    2 ar 
     2    2    3 ar 
     3    2    4 1  
     4    4    5 1  
     5    4    7 1  
     6    5    6 1  
     7    7    8 1  
     8    8    9 1  
     9    9   10 1  
    10   10   11 1  
    11   11   12 1  
    12    4   13 1  
    13    5   14 1  
    14    5   15 1  
    15    6   16 1  
    16    6   17 1  
    17    6   18 1  
    18    6   19 1  
    19    6   20 1  
    20    7   21 1  
    21    7   22 1  
    22    8   23 1  
    23    8   24 1  
    24    9   25 1  
    25    9   26 1  
    26   10   27 1  
    27   10   28 1  
    28   11   29 1  
    29   11   30 1  
    30   12   31 1  
    31   12   32 1  
    32   12   33 1  
@<TRIPOS>SUBSTRUCTURE
     1 DDK         1

