4m2u_ligand
  -I-interpret- 

 36 37  0  0  0  0  0  0  0  0999 V2000
   15.1710    3.5450   15.6720 S   0  0  0  0  0
   16.1270    2.1520   15.8960 C   0  0  0  0  0
   17.4440    2.2250   15.2700 C   0  0  0  0  0
   17.4600    3.5510   14.6820 C   0  0  0  0  0
   18.7240    3.9180   13.9270 C   0  0  0  0  0
   18.8240    5.3970   13.5950 C   0  0  0  0  0
   17.5880    5.9550   12.9580 C   0  0  0  0  0
   16.2900    5.9180   14.2020 S   0  0  0  0  0
   16.3450    4.3020   14.8260 C   0  0  0  0  0
   15.4470    0.8200   16.8300 S   0  0  0  0  0
   15.9340    0.9220   18.2040 O   0  0  0  0  0
   13.9990    0.9660   16.7230 O   0  0  0  0  0
   16.0700   -0.5590   16.2440 N   0  0  0  0  0
   18.6830    3.1280   12.7030 N   0  3  0  0  0
   17.8730    7.3560   12.5020 C   0  0  0  0  0
   16.5980    6.7600   15.3240 O   0  0  0  0  0
   14.9960    6.2150   13.6350 O   0  0  0  0  0
   19.9070    3.1180   11.9390 C   0  0  0  0  0
   20.0380    2.0840   10.8520 C   0  0  0  0  0
   18.2263    1.4663   15.2494 H   0  0  0  0  0
   19.5983    3.7095   14.5436 H   0  0  0  0  0
   19.6407    5.5172   12.8832 H   0  0  0  0  0
   18.9783    5.9321   14.5320 H   0  0  0  0  0
   17.2747    5.3770   12.0886 H   0  0  0  0  0
   16.6671   -1.1396   16.8329 H   0  0  0  0  0
   15.8645   -0.8452   15.2868 H   0  0  0  0  0
   17.9687    3.5466   12.1073 H   0  0  0  0  0
   18.5034    2.1635   12.9821 H   0  0  0  0  0
   16.9694    7.7875   12.0715 H   0  0  0  0  0
   18.1935    7.9559   13.3538 H   0  0  0  0  0
   18.6625    7.3387   11.7506 H   0  0  0  0  0
   20.6982    2.8941   12.6545 H   0  0  0  0  0
   19.9456    4.0827   11.4331 H   0  0  0  0  0
   19.9611    1.0882   11.2884 H   0  0  0  0  0
   19.2417    2.2242   10.1210 H   0  0  0  0  0
   21.0057    2.1938   10.3625 H   0  0  0  0  0
  1  2  4  0  0  0
  1  9  4  0  0  0
  2  3  4  0  0  0
  2 10  1  0  0  0
  3  4  4  0  0  0
  4  5  1  0  0  0
  4  9  4  0  0  0
  5  6  1  0  0  0
  5 14  1  0  0  0
  6  7  1  0  0  0
  7  8  1  0  0  0
  7 15  1  0  0  0
  8  9  1  0  0  0
  8 16  2  0  0  0
  8 17  2  0  0  0
 10 11  2  0  0  0
 10 12  2  0  0  0
 10 13  1  0  0  0
 14 18  1  0  0  0
 18 19  1  0  0  0
  3 20  1  0  0  0
  5 21  1  0  0  0
  6 22  1  0  0  0
  6 23  1  0  0  0
  7 24  1  0  0  0
 13 25  1  0  0  0
 13 26  1  0  0  0
 14 27  1  0  0  0
 14 28  1  0  0  0
 15 29  1  0  0  0
 15 30  1  0  0  0
 15 31  1  0  0  0
 18 32  1  0  0  0
 18 33  1  0  0  0
 19 34  1  0  0  0
 19 35  1  0  0  0
 19 36  1  0  0  0
M  END
$$$$
