4qoc_ligand
  -I-interpret- 

 71 75  0  0  0  0  0  0  0  0999 V2000
   29.1540   -2.9120  -14.5380 C   0  0  0  0  0
   30.2030   -3.8880  -14.4540 C   0  0  0  0  0
   29.9860   -5.2320  -13.4180 Cl  0  0  0  0  0
   31.4090   -3.7440  -15.2170 C   0  0  0  0  0
   31.6380   -2.6330  -16.1020 C   0  0  0  0  0
   30.5610   -1.6520  -16.1750 C   0  0  0  0  0
   29.3270   -1.7740  -15.4120 C   0  0  0  0  0
   28.1880   -0.7830  -15.5150 C   0  0  0  0  0
   28.6540    0.6680  -15.3850 C   0  0  0  0  0
   27.4830    1.6420  -15.1790 C   0  0  0  0  0
   26.9610    1.7410  -13.7560 C   0  0  0  0  0
   27.9450    2.3450  -12.7390 C   0  0  0  0  0
   28.9220    1.5150  -12.3460 O   0  0  0  0  0
   27.8750    3.4630  -12.3010 O   0  0  0  0  0
   27.8660    3.0350  -15.6480 C   0  0  0  0  0
   26.2560    1.3230  -16.0560 C   0  0  0  0  0
   25.2930    2.0980  -15.9900 O   0  0  0  0  0
   26.3060    0.2030  -16.8660 N   0  0  0  0  0
   25.3460    0.0870  -17.9650 C   0  0  0  0  0
   25.4410    1.3320  -18.8430 C   0  0  0  0  0
   27.2720   -0.9410  -16.7710 C   0  0  0  0  0
   26.6970   -2.2890  -16.8590 C   0  0  0  0  0
   25.7400   -2.7030  -15.8660 C   0  0  0  0  0
   25.2320   -4.0280  -15.9500 C   0  0  0  0  0
   25.7440   -4.8150  -17.0360 C   0  0  0  0  0
   25.1500   -6.3890  -17.1720 Cl  0  0  0  0  0
   26.6950   -4.4190  -18.0280 C   0  0  0  0  0
   27.1960   -3.0940  -17.9430 C   0  0  0  0  0
   26.9020    1.3720  -19.8450 S   0  0  0  0  0
   27.0720    0.2300  -20.6880 O   0  0  0  0  0
   27.9870    1.7050  -18.9800 O   0  0  0  0  0
   26.7830    2.7320  -20.9420 N   0  0  0  0  0
   27.1490    4.0370  -20.3000 C   0  0  0  0  0
   26.4540    5.1280  -21.0800 C   0  0  0  0  0
   25.3680    4.4360  -21.8690 C   0  0  0  0  0
   25.6470    2.9230  -21.8640 C   0  0  0  0  0
   22.9160   -0.2780  -18.5860 C   0  0  0  0  0
   23.9340   -0.0290  -17.3970 C   0  0  0  0  0
   23.1900   -1.2870  -18.0050 C   0  0  0  0  0
   28.2420   -3.0271  -13.9523 H   0  0  0  0  0
   32.1824   -4.5063  -15.1226 H   0  0  0  0  0
   32.5564   -2.5310  -16.6802 H   0  0  0  0  0
   30.6855   -0.7895  -16.8297 H   0  0  0  0  0
   27.5664   -1.0372  -14.6564 H   0  0  0  0  0
   29.1635    0.9430  -16.3085 H   0  0  0  0  0
   29.3070    0.7363  -14.5149 H   0  0  0  0  0
   26.7552    0.7227  -13.4262 H   0  0  0  0  0
   26.0951    2.4025  -13.7852 H   0  0  0  0  0
   28.8234    0.6717  -12.7940 H   0  0  0  0  0
   28.7256    3.3857  -15.0769 H   0  0  0  0  0
   28.1205    3.0031  -16.7074 H   0  0  0  0  0
   27.0258    3.7123  -15.4951 H   0  0  0  0  0
   25.5702   -0.7997  -18.5580 H   0  0  0  0  0
   25.4697    2.1993  -18.1834 H   0  0  0  0  0
   24.5814    1.3292  -19.5133 H   0  0  0  0  0
   27.8712   -0.8683  -17.6786 H   0  0  0  0  0
   25.4163   -2.0239  -15.0772 H   0  0  0  0  0
   24.5042   -4.4193  -15.2391 H   0  0  0  0  0
   27.0197   -5.1027  -18.8124 H   0  0  0  0  0
   27.9198   -2.7066  -18.6600 H   0  0  0  0  0
   28.2291    4.1827  -20.3146 H   0  0  0  0  0
   26.8364    4.0525  -19.2559 H   0  0  0  0  0
   27.1489    5.6533  -21.7353 H   0  0  0  0  0
   26.0414    5.8895  -20.4181 H   0  0  0  0  0
   25.3583    4.8085  -22.8933 H   0  0  0  0  0
   24.3962    4.6360  -21.4177 H   0  0  0  0  0
   24.7727    2.3577  -21.5414 H   0  0  0  0  0
   25.8798    2.5575  -22.8642 H   0  0  0  0  0
   22.3441    0.1725  -19.3972 H   0  0  0  0  0
   24.0505    0.5157  -16.4601 H   0  0  0  0  0
   23.0317   -2.3634  -17.9382 H   0  0  0  0  0
  1  2  4  0  0  0
  1  7  4  0  0  0
  2  3  1  0  0  0
  2  4  4  0  0  0
  4  5  4  0  0  0
  5  6  4  0  0  0
  6  7  4  0  0  0
  7  8  1  0  0  0
  8  9  1  0  0  0
  8 21  1  0  0  0
  9 10  1  0  0  0
 10 11  1  0  0  0
 10 15  1  0  0  0
 10 16  1  0  0  0
 11 12  1  0  0  0
 12 13  1  0  0  0
 12 14  2  0  0  0
 16 17  2  0  0  0
 16 18  1  0  0  0
 18 19  1  0  0  0
 18 21  1  0  0  0
 19 20  1  0  0  0
 19 38  1  0  0  0
 20 29  1  0  0  0
 21 22  1  0  0  0
 22 23  4  0  0  0
 22 28  4  0  0  0
 23 24  4  0  0  0
 24 25  4  0  0  0
 25 26  1  0  0  0
 25 27  4  0  0  0
 27 28  4  0  0  0
 29 30  2  0  0  0
 29 31  2  0  0  0
 29 32  1  0  0  0
 32 33  1  0  0  0
 32 36  1  0  0  0
 33 34  1  0  0  0
 34 35  1  0  0  0
 35 36  1  0  0  0
 38 37  1  0  0  0
 37 39  2  0  0  0
 38 39  1  0  0  0
  1 40  1  0  0  0
  4 41  1  0  0  0
  5 42  1  0  0  0
  6 43  1  0  0  0
  8 44  1  0  0  0
  9 45  1  0  0  0
  9 46  1  0  0  0
 11 47  1  0  0  0
 11 48  1  0  0  0
 13 49  1  0  0  0
 15 50  1  0  0  0
 15 51  1  0  0  0
 15 52  1  0  0  0
 19 53  1  0  0  0
 20 54  1  0  0  0
 20 55  1  0  0  0
 21 56  1  0  0  0
 23 57  1  0  0  0
 24 58  1  0  0  0
 27 59  1  0  0  0
 28 60  1  0  0  0
 33 61  1  0  0  0
 33 62  1  0  0  0
 34 63  1  0  0  0
 34 64  1  0  0  0
 35 65  1  0  0  0
 35 66  1  0  0  0
 36 67  1  0  0  0
 36 68  1  0  0  0
 37 69  1  0  0  0
 38 70  1  0  0  0
 39 71  1  0  0  0
M  END
$$$$
