3adu_ligand
  -I-interpret- 

 25 26  0  0  0  0  0  0  0  0999 V2000
   17.6750   65.1430    9.7080 C   0  0  0  0  0
   10.7150   60.5950   13.0510 O   0  0  0  0  0
   12.0950   60.7340   14.7860 O   0  0  0  0  0
   17.4600   64.3360   12.6880 C   0  0  0  0  0
   16.9230   64.3430   14.0060 C   0  0  0  0  0
   13.6950   63.2020   15.0260 C   0  0  0  0  0
   15.3550   63.3310   11.8020 C   0  0  0  0  0
   12.3840   62.3190   12.9700 C   0  0  0  0  0
   14.8750   63.7320   15.3230 N   0  0  0  0  0
   17.3260   63.8810   10.3450 O   0  0  0  0  0
   11.6750   61.1140   13.6670 C   0  0  0  0  0
   16.7000   63.8390   11.5750 C   0  0  0  0  0
   13.5940   62.9360   13.7160 C   0  0  0  0  0
   15.6040   63.8420   14.2230 C   0  0  0  0  0
   14.8140   63.3360   13.1400 C   0  0  0  0  0
   16.7703   65.7289    9.5456 H   0  0  0  0  0
   18.3576   65.6972   10.3523 H   0  0  0  0  0
   18.1574   64.9443    8.7510 H   0  0  0  0  0
   12.8356   61.2838   15.0521 H   0  0  0  0  0
   18.4679   64.7153   12.5198 H   0  0  0  0  0
   17.5116   64.7262   14.8395 H   0  0  0  0  0
   12.9080   63.0077   15.7547 H   0  0  0  0  0
   14.7624   62.9507   10.9700 H   0  0  0  0  0
   11.6369   63.1098   12.9013 H   0  0  0  0  0
   12.7746   61.9350   12.0276 H   0  0  0  0  0
 10  1  1  0  0  0
 11  2  2  0  0  0
 11  3  1  0  0  0
  4  5  4  0  0  0
 12  4  4  0  0  0
  5 14  4  0  0  0
  9  6  4  0  0  0
  6 13  4  0  0  0
 12  7  4  0  0  0
  7 15  4  0  0  0
  8 11  1  0  0  0
 13  8  1  0  0  0
 14  9  4  0  0  0
 10 12  1  0  0  0
 13 15  4  0  0  0
 14 15  4  0  0  0
  1 16  1  0  0  0
  1 17  1  0  0  0
  1 18  1  0  0  0
  3 19  1  0  0  0
  4 20  1  0  0  0
  5 21  1  0  0  0
  6 22  1  0  0  0
  7 23  1  0  0  0
  8 24  1  0  0  0
  8 25  1  0  0  0
M  END
$$$$
