2wf1_ligand
  -I-interpret- 

 81 85  0  0  0  0  0  0  0  0999 V2000
   27.6180   -3.8540   34.2880 C   0  0  0  0  0
   29.1370   -4.0020   34.1320 C   0  0  0  0  0
   29.8660   -3.4100   35.3340 C   0  0  0  0  0
   30.3580   -4.1260   36.4280 C   0  0  0  0  0
   30.9610   -3.2910   37.3200 N   0  0  0  0  0
   31.6240   -3.6850   38.6040 C   0  0  0  0  0
   31.2920   -2.9890   39.9430 C   0  0  0  0  0
   31.1010   -1.2210   39.8640 S   0  0  0  0  0
   29.7190   -0.9570   39.6070 O   0  0  0  0  0
   31.6780   -0.6380   41.0490 O   0  0  0  0  0
   32.0030   -0.6830   38.5670 N   0  0  0  0  0
   32.7410    0.5820   38.8210 C   0  0  0  0  0
   31.3320   -0.7360   37.3450 C   0  0  0  0  0
   31.1050    0.4690   36.5710 C   0  0  0  0  0
   30.4290    0.4070   35.3070 C   0  0  0  0  0
   29.9820   -0.8620   34.8320 C   0  0  0  0  0
   30.1960   -2.0230   35.5710 C   0  0  0  0  0
   30.8840   -1.9690   36.8330 C   0  0  0  0  0
   30.2000    1.5800   34.4310 C   0  0  0  0  0
   31.0350    2.4780   34.3070 O   0  0  0  0  0
   29.0470    1.5970   33.7040 N   0  0  0  0  0
   28.7430    2.6630   32.7250 C   0  0  0  0  0
   28.1980    1.9210   31.4600 C   0  0  0  0  0
   28.8270    0.5630   31.1840 C   0  0  0  0  0
   28.0200   -0.6100   31.1280 C   0  0  0  0  0
   28.6060   -1.8780   30.8780 C   0  0  0  0  0
   30.0030   -1.9880   30.6840 C   0  0  0  0  0
   30.8180   -0.8290   30.7380 C   0  0  0  0  0
   30.2350    0.4360   30.9840 C   0  0  0  0  0
   30.0710    8.9410   30.8830 O   0  0  0  0  0
   27.8100    3.7460   33.3100 C   0  0  0  0  0
   28.7920    9.4100   30.4820 C   0  0  0  0  0
   27.4460    4.6150   32.2510 O   0  0  0  0  0
   28.4060    4.6020   34.4350 C   0  0  0  0  0
   27.6660    5.8680   34.5720 N   0  3  0  0  0
   28.4110    6.9520   35.2380 C   0  0  0  0  0
   29.5090    7.5170   34.3630 C   0  0  0  0  0
   29.2170    7.9510   33.0450 C   0  0  0  0  0
   30.2410    8.4860   32.2010 C   0  0  0  0  0
   31.5600    8.5730   32.7100 C   0  0  0  0  0
   31.8590    8.1430   34.0220 C   0  0  0  0  0
   30.8380    7.6170   34.8460 C   0  0  0  0  0
   27.2939   -4.3763   35.1881 H   0  0  0  0  0
   27.3635   -2.7972   34.3681 H   0  0  0  0  0
   27.1211   -4.2837   33.4182 H   0  0  0  0  0
   29.4513   -3.4703   33.2339 H   0  0  0  0  0
   29.3811   -5.0619   34.0603 H   0  0  0  0  0
   30.2713   -5.2055   36.5512 H   0  0  0  0  0
   32.6722   -3.4360   38.4384 H   0  0  0  0  0
   31.2925   -4.7117   38.7594 H   0  0  0  0  0
   32.1340   -3.1800   40.6083 H   0  0  0  0  0
   30.3327   -3.3897   40.2707 H   0  0  0  0  0
   32.0315    1.3719   39.0676 H   0  0  0  0  0
   33.4302    0.4382   39.6531 H   0  0  0  0  0
   33.3006    0.8603   37.9279 H   0  0  0  0  0
   31.4507    1.4297   36.9526 H   0  0  0  0  0
   29.4644   -0.9239   33.8747 H   0  0  0  0  0
   28.3691    0.8471   33.8402 H   0  0  0  0  0
   29.6231    3.2450   32.4514 H   0  0  0  0  0
   28.4293    2.5530   30.6026 H   0  0  0  0  0
   27.1365    1.7447   31.6338 H   0  0  0  0  0
   26.9432   -0.5327   31.2785 H   0  0  0  0  0
   27.9789   -2.7685   30.8354 H   0  0  0  0  0
   30.4523   -2.9626   30.4932 H   0  0  0  0  0
   31.8946   -0.9129   30.5898 H   0  0  0  0  0
   30.8672    1.3231   31.0213 H   0  0  0  0  0
   26.9722    3.2109   33.7570 H   0  0  0  0  0
   28.0611    8.6093   30.5946 H   0  0  0  0  0
   28.5047   10.2563   31.1060 H   0  0  0  0  0
   28.8319    9.7232   29.4387 H   0  0  0  0  0
   26.8640    5.3006   32.5869 H   0  0  0  0  0
   29.4457    4.8252   34.1955 H   0  0  0  0  0
   28.3374    4.0500   35.3724 H   0  0  0  0  0
   26.8490    5.6719   35.1504 H   0  0  0  0  0
   27.4550    6.1909   33.6277 H   0  0  0  0  0
   28.8721    6.5425   36.1368 H   0  0  0  0  0
   27.7099    7.7560   35.4618 H   0  0  0  0  0
   28.1967    7.8759   32.6690 H   0  0  0  0  0
   32.3540    8.9767   32.0817 H   0  0  0  0  0
   32.8788    8.2170   34.3996 H   0  0  0  0  0
   31.0737    7.2867   35.8577 H   0  0  0  0  0
  2  1  1  0  0  0
  3  2  1  0  0  0
  3  4  4  0  0  0
 17  3  4  0  0  0
  5  4  4  0  0  0
  5  6  1  0  0  0
 18  5  4  0  0  0
  6  7  1  0  0  0
  8  7  1  0  0  0
  8  9  2  0  0  0
  8 10  2  0  0  0
 11  8  1  0  0  0
 11 12  1  0  0  0
 13 11  1  0  0  0
 14 13  4  0  0  0
 13 18  4  0  0  0
 15 14  4  0  0  0
 15 16  4  0  0  0
 19 15  1  0  0  0
 16 17  4  0  0  0
 17 18  4  0  0  0
 19 20  2  0  0  0
 21 19  1  0  0  0
 22 21  1  0  0  0
 22 23  1  0  0  0
 31 22  1  0  0  0
 23 24  1  0  0  0
 24 25  4  0  0  0
 24 29  4  0  0  0
 25 26  4  0  0  0
 26 27  4  0  0  0
 28 27  4  0  0  0
 29 28  4  0  0  0
 30 32  1  0  0  0
 39 30  1  0  0  0
 31 33  1  0  0  0
 34 31  1  0  0  0
 35 34  1  0  0  0
 36 35  1  0  0  0
 37 36  1  0  0  0
 38 37  4  0  0  0
 37 42  4  0  0  0
 38 39  4  0  0  0
 39 40  4  0  0  0
 40 41  4  0  0  0
 41 42  4  0  0  0
  1 43  1  0  0  0
  1 44  1  0  0  0
  1 45  1  0  0  0
  2 46  1  0  0  0
  2 47  1  0  0  0
  4 48  1  0  0  0
  6 49  1  0  0  0
  6 50  1  0  0  0
  7 51  1  0  0  0
  7 52  1  0  0  0
 12 53  1  0  0  0
 12 54  1  0  0  0
 12 55  1  0  0  0
 14 56  1  0  0  0
 16 57  1  0  0  0
 21 58  1  0  0  0
 22 59  1  0  0  0
 23 60  1  0  0  0
 23 61  1  0  0  0
 25 62  1  0  0  0
 26 63  1  0  0  0
 27 64  1  0  0  0
 28 65  1  0  0  0
 29 66  1  0  0  0
 31 67  1  0  0  0
 32 68  1  0  0  0
 32 69  1  0  0  0
 32 70  1  0  0  0
 33 71  1  0  0  0
 34 72  1  0  0  0
 34 73  1  0  0  0
 35 74  1  0  0  0
 35 75  1  0  0  0
 36 76  1  0  0  0
 36 77  1  0  0  0
 38 78  1  0  0  0
 40 79  1  0  0  0
 41 80  1  0  0  0
 42 81  1  0  0  0
M  END
$$$$
