### 
### Created by X-TOOL on Mon Sep 10 21:13:26 2018
### 

@<TRIPOS>MOLECULE
5t1k_ligand
  216   219     1     0     0
SMALL
GAST_HUCK


@<TRIPOS>ATOM
      1 N         -15.0540   33.0110  -28.1490 N.4       1 CYS         0.2385
      2 CA        -16.4570   33.0530  -28.5400 C.3       1 CYS         0.0749
      3 C         -17.0710   34.4200  -28.3130 C.2       1 CYS         0.2275
      4 O         -16.6200   35.1780  -27.4540 O.2       1 CYS        -0.3907
      5 CB        -17.2570   32.0120  -27.7670 C.3       1 CYS         0.0643
      6 SG        -17.4080   30.4320  -28.6050 S.3       1 CYS        -0.0848
      7 N         -18.1100   34.7290  -29.0820 N.am      1 GLN        -0.2608
      8 CA        -18.7860   36.0070  -28.9480 C.3       1 GLN         0.1331
      9 C         -20.2700   35.8940  -29.1940 C.2       1 GLN         0.2042
     10 O         -20.7120   35.1610  -30.0830 O.2       1 GLN        -0.3944
     11 CB        -18.2000   37.0360  -29.9010 C.3       1 GLN         0.0045
     12 CG        -16.9460   37.6710  -29.3690 C.3       1 GLN         0.0412
     13 CD        -16.5430   38.8500  -30.1990 C.2       1 GLN         0.1737
     14 OE1       -17.0710   39.0530  -31.2960 O.2       1 GLN        -0.3973
     15 NE2       -15.6120   39.6470  -29.6870 N.am      1 GLN        -0.3009
     16 N         -21.0300   36.6290  -28.3890 N.am      1 PHE        -0.2619
     17 CA        -22.4700   36.7330  -28.5530 C.3       1 PHE         0.1404
     18 C         -22.7770   37.4020  -29.8780 C.2       1 PHE         0.2060
     19 O         -22.1520   38.3960  -30.2320 O.2       1 PHE        -0.3942
     20 CB        -23.0560   37.5680  -27.4160 C.3       1 PHE         0.0214
     21 CG        -24.5590   37.6520  -27.4310 C.ar      1 PHE        -0.0386
     22 CD1       -25.3330   36.5350  -27.1430 C.ar      1 PHE        -0.0601
     23 CD2       -25.2000   38.8480  -27.7250 C.ar      1 PHE        -0.0601
     24 CE1       -26.7210   36.6110  -27.1500 C.ar      1 PHE        -0.0686
     25 CE2       -26.5920   38.9300  -27.7330 C.ar      1 PHE        -0.0686
     26 CZ        -27.3530   37.8060  -27.4420 C.ar      1 PHE        -0.0687
     27 N         -23.7340   36.8460  -30.6110 N.am      1 ASP        -0.2620
     28 CA        -24.1480   37.3990  -31.8940 C.3       1 ASP         0.1423
     29 C         -25.6130   37.7810  -31.8110 C.2       1 ASP         0.2058
     30 O         -26.4440   36.9440  -31.4620 O.2       1 ASP        -0.3942
     31 CB        -23.9580   36.3670  -33.0090 C.3       1 ASP         0.0406
     32 CG        -24.2960   36.9200  -34.3860 C.2       1 ASP         0.0393
     33 OD1       -23.6880   37.9350  -34.7870 O.co2     1 ASP        -0.5688
     34 OD2       -25.1650   36.3390  -35.0730 O.co2     1 ASP        -0.5688
     35 C         -28.2230   38.7260  -32.9290 C.2       1 2GX         0.2083
     36 N         -25.9280   39.0340  -32.1340 N.am      1 2GX        -0.2599
     37 O         -29.3520   38.4160  -32.5280 O.2       1 2GX        -0.3940
     38 CA        -27.2970   39.5090  -32.0610 C.3       1 2GX         0.1525
     39 CB        -27.4520   40.9410  -32.4770 C.3       1 2GX         0.0658
     40 CG        -28.9270   41.2810  -32.5820 C.ar      1 2GX        -0.0243
     41 CZ        -31.6920   41.8130  -32.7460 C.ar      1 2GX        -0.0685
     42 CAE       -25.3270   43.6860  -29.9410 C.ar      1 2GX        -0.0685
     43 CAH       -25.3380   43.8680  -31.3200 C.ar      1 2GX        -0.0682
     44 CAI       -25.9940   42.6110  -29.3800 C.ar      1 2GX        -0.0682
     45 CAL       -26.0300   42.9810  -32.1460 C.ar      1 2GX        -0.0579
     46 CAM       -26.6760   41.7270  -30.2040 C.ar      1 2GX        -0.0579
     47 CAO       -26.7130   41.9140  -31.5880 C.ar      1 2GX        -0.0243
     48 CD1       -29.7120   41.4290  -31.4120 C.ar      1 2GX        -0.0579
     49 CD2       -29.5520   41.3810  -33.8370 C.ar      1 2GX        -0.0579
     50 CE1       -31.0870   41.7040  -31.4960 C.ar      1 2GX        -0.0682
     51 CE2       -30.9250   41.6470  -33.9200 C.ar      1 2GX        -0.0682
     52 N         -27.7770   38.4370  -34.1430 N.am      1 SER        -0.2613
     53 CA        -28.6150   37.8180  -35.1680 C.3       1 SER         0.1539
     54 C         -29.3580   36.5900  -34.6610 C.2       1 SER         0.2063
     55 O         -30.5520   36.4280  -34.9100 O.2       1 SER        -0.3943
     56 CB        -27.7550   37.4560  -36.3850 C.3       1 SER         0.0843
     57 OG        -26.8820   38.5280  -36.7390 O.3       1 SER        -0.3903
     58 N         -28.6480   35.7510  -33.9140 N.am      1 THR        -0.2613
     59 CA        -29.2000   34.4940  -33.4220 C.3       1 THR         0.1565
     60 C         -29.3890   34.5010  -31.9050 C.2       1 THR         0.2065
     61 O         -29.9990   33.5920  -31.3350 O.2       1 THR        -0.3943
     62 CB        -28.2810   33.3140  -33.7940 C.3       1 THR         0.0924
     63 OG1       -26.9570   33.5660  -33.3040 O.3       1 THR        -0.3874
     64 CG2       -28.2230   33.1440  -35.3110 C.3       1 THR        -0.0346
     65 N         -28.8580   35.5320  -31.2570 N.am      1 ARG        -0.2636
     66 CA        -28.7180   35.5540  -29.8020 C.3       1 ARG         0.1311
     67 C         -27.9870   34.3030  -29.3200 C.2       1 ARG         0.2039
     68 O         -28.3080   33.7430  -28.2740 O.2       1 ARG        -0.3944
     69 CB        -30.0670   35.6950  -29.1010 C.3       1 ARG        -0.0092
     70 CG        -30.7640   37.0030  -29.4010 C.3       1 ARG        -0.0156
     71 CD        -31.8890   37.2250  -28.4310 C.3       1 ARG         0.0627
     72 NE        -32.7260   38.3430  -28.8320 N.pl3     1 ARG        -0.2723
     73 CZ        -33.7160   38.8150  -28.0830 C.cat     1 ARG         0.2882
     74 NH1       -33.9730   38.2590  -26.9020 N.pl3     1 ARG        -0.2849
     75 NH2       -34.4450   39.8430  -28.5020 N.pl3     1 ARG        -0.2849
     76 N         -26.9990   33.8730  -30.0950 N.am      1 ARG        -0.2637
     77 CA        -26.2070   32.7190  -29.7340 C.3       1 ARG         0.1311
     78 C         -24.7260   33.0640  -29.7660 C.2       1 ARG         0.2039
     79 O         -24.3140   34.0450  -30.3940 O.2       1 ARG        -0.3944
     80 CB        -26.5200   31.5690  -30.6870 C.3       1 ARG        -0.0092
     81 CG        -27.9710   31.1180  -30.6160 C.3       1 ARG        -0.0156
     82 CD        -28.3020   30.4410  -29.2740 C.3       1 ARG         0.0627
     83 NE        -27.2530   29.5000  -28.9060 N.pl3     1 ARG        -0.2723
     84 CZ        -27.0770   28.3140  -29.4830 C.cat     1 ARG         0.2882
     85 NH1       -27.8970   27.9060  -30.4490 N.pl3     1 ARG        -0.2849
     86 NH2       -26.0780   27.5390  -29.0920 N.pl3     1 ARG        -0.2849
     87 N         -23.9260   32.2700  -29.0700 N.am      1 LEU        -0.2637
     88 CA        -22.4860   32.4350  -29.1430 C.3       1 LEU         0.1312
     89 C         -21.9820   31.9860  -30.5090 C.2       1 LEU         0.2039
     90 O         -22.4000   30.9440  -31.0160 O.2       1 LEU        -0.3944
     91 CB        -21.8040   31.6350  -28.0380 C.3       1 LEU        -0.0101
     92 CG        -22.0670   32.1050  -26.6070 C.3       1 LEU        -0.0425
     93 CD1       -21.4620   31.1310  -25.6190 C.3       1 LEU        -0.0625
     94 CD2       -21.5120   33.4990  -26.3900 C.3       1 LEU        -0.0625
     95 N         -21.1020   32.7860  -31.1060 N.am      1 LYS        -0.2637
     96 CA        -20.4310   32.4160  -32.3490 C.3       1 LYS         0.1309
     97 C         -18.9520   32.2320  -32.0780 C.2       1 LYS         0.2034
     98 O         -18.2800   33.1360  -31.5830 O.2       1 LYS        -0.3944
     99 CB        -20.6250   33.4780  -33.4340 C.3       1 LYS        -0.0122
    100 CG        -22.0260   33.5360  -34.0250 C.3       1 LYS        -0.0440
    101 CD        -22.0340   34.2880  -35.3490 C.3       1 LYS        -0.0124
    102 CE        -21.3620   33.4750  -36.4470 C.3       1 LYS        -0.0354
    103 NZ        -21.0280   34.3190  -37.6210 N.4       1 LYS         0.2185
    104 N         -18.4420   31.0540  -32.4010 N.am      1 CYS        -0.2687
    105 CA        -17.0540   30.7440  -32.0960 C.3       1 CYS         0.1041
    106 C         -16.1900   30.7210  -33.3580 C.2       1 CYS         0.0609
    107 O         -16.5930   30.1800  -34.3890 O.co2     1 CYS        -0.5666
    108 CB        -16.9800   29.4130  -31.3560 C.3       1 CYS         0.0388
    109 SG        -18.2240   29.2600  -30.0370 S.3       1 CYS        -0.0887
    110 OXT       -15.0760   31.2500  -33.3790 O.co2     1 CYS        -0.5666
    111 H1        -14.6862   32.0874  -28.3159 H         1 CYS         0.2015
    112 H2        -14.9714   33.2336  -27.1694 H         1 CYS         0.2015
    113 H3        -14.5338   33.6828  -28.6913 H         1 CYS         0.2015
    114 H4        -16.5195   32.8193  -29.6131 H         1 CYS         0.1107
    115 H5        -18.2680   32.4103  -27.5963 H         1 CYS         0.0466
    116 H6        -16.7610   31.8437  -26.7997 H         1 CYS         0.0466
    117 H7        -18.4311   34.0712  -29.7633 H         1 GLN         0.1885
    118 H8        -18.6347   36.3616  -27.9178 H         1 GLN         0.0801
    119 H9        -18.9483   37.8239  -30.0718 H         1 GLN         0.0337
    120 H10       -17.9660   36.5397  -30.8544 H         1 GLN         0.0337
    121 H11       -16.1344   36.9287  -29.3820 H         1 GLN         0.0504
    122 H12       -17.1225   38.0033  -28.3354 H         1 GLN         0.0504
    123 H13       -15.3046   40.4496  -30.1982 H         1 GLN         0.1814
    124 H14       -15.2184   39.4445  -28.7903 H         1 GLN         0.1814
    125 H15       -20.5940   37.1300  -27.6414 H         1 PHE         0.1885
    126 H16       -22.9150   35.7272  -28.5368 H         1 PHE         0.0823
    127 H17       -22.6516   38.5882  -27.4918 H         1 PHE         0.0474
    128 H18       -22.7440   37.1199  -26.4611 H         1 PHE         0.0474
    129 H19       -24.8491   35.5934  -26.9101 H         1 PHE         0.0557
    130 H20       -24.6108   39.7293  -27.9512 H         1 PHE         0.0557
    131 H21       -27.3107   35.7296  -26.9256 H         1 PHE         0.0599
    132 H22       -27.0791   39.8699  -27.9661 H         1 PHE         0.0599
    133 H23       -28.4354   37.8646  -27.4436 H         1 PHE         0.0559
    134 H24       -24.1855   36.0208  -30.2716 H         1 ASP         0.1884
    135 H25       -23.5454   38.2915  -32.1184 H         1 ASP         0.0819
    136 H26       -24.6111   35.5055  -32.8060 H         1 ASP         0.0478
    137 H27       -22.9080   36.0391  -33.0097 H         1 ASP         0.0478
    138 H28       -25.2071   39.6595  -32.4326 H         1 2GX         0.1887
    139 H29       -27.6232   39.4097  -31.0152 H         1 2GX         0.0849
    140 H30       -27.0167   41.0368  -33.4826 H         1 2GX         0.0667
    141 H31       -32.7526   42.0254  -32.8176 H         1 2GX         0.0561
    142 H32       -24.7961   44.3860  -29.3060 H         1 2GX         0.0561
    143 H33       -24.8051   44.7050  -31.7564 H         1 2GX         0.0600
    144 H34       -25.9838   42.4609  -28.3065 H         1 2GX         0.0600
    145 H35       -26.0326   43.1270  -33.2201 H         1 2GX         0.0561
    146 H36       -27.1883   40.8776  -29.7668 H         1 2GX         0.0561
    147 H37       -29.2453   41.3287  -30.4388 H         1 2GX         0.0561
    148 H38       -28.9704   41.2520  -34.7426 H         1 2GX         0.0561
    149 H39       -31.6738   41.8306  -30.5934 H         1 2GX         0.0600
    150 H40       -31.4011   41.7258  -34.8906 H         1 2GX         0.0600
    151 H41       -26.8264   38.6516  -34.3673 H         1 SER         0.1884
    152 H42       -29.3660   38.5578  -35.4821 H         1 SER         0.0823
    153 H43       -28.4145   37.2345  -37.2370 H         1 SER         0.0606
    154 H44       -27.1527   36.5669  -36.1467 H         1 SER         0.0606
    155 H45       -26.3630   38.2762  -37.4938 H         1 SER         0.2097
    156 H46       -27.7050   35.9892  -33.6818 H         1 THR         0.1884
    157 H47       -30.1812   34.3430  -33.8958 H         1 THR         0.0826
    158 H48       -28.6723   32.3923  -33.3387 H         1 THR         0.0639
    159 H49       -26.3916   32.8381  -33.5339 H         1 THR         0.2101
    160 H50       -27.5642   32.2992  -35.5603 H         1 THR         0.0257
    161 H51       -27.8290   34.0636  -35.7682 H         1 THR         0.0257
    162 H52       -29.2340   32.9468  -35.6968 H         1 THR         0.0257
    163 H53       -28.5427   36.3215  -31.7835 H         1 ARG         0.1883
    164 H54       -28.1082   36.4298  -29.5354 H         1 ARG         0.0800
    165 H55       -29.9049   35.6270  -28.0152 H         1 ARG         0.0313
    166 H56       -30.7176   34.8701  -29.4270 H         1 ARG         0.0313
    167 H57       -31.1668   36.9739  -30.4242 H         1 ARG         0.0301
    168 H58       -30.0416   37.8280  -29.3146 H         1 ARG         0.0301
    169 H59       -31.4675   37.4330  -27.4365 H         1 ARG         0.0689
    170 H60       -32.5058   36.3154  -28.3850 H         1 ARG         0.0689
    171 H61       -32.5427   38.7911  -29.7411 H         1 ARG         0.2642
    172 H62       -34.7398   38.6219  -26.3179 H         1 ARG         0.2615
    173 H63       -33.4051   37.4657  -26.5718 H         1 ARG         0.2615
    174 H64       -34.2482   40.2754  -29.4159 H         1 ARG         0.2615
    175 H65       -35.2072   40.2079  -27.9131 H         1 ARG         0.2615
    176 H66       -26.7984   34.3575  -30.9465 H         1 ARG         0.1883
    177 H67       -26.4725   32.4119  -28.7116 H         1 ARG         0.0800
    178 H68       -25.8746   30.7158  -30.4311 H         1 ARG         0.0313
    179 H69       -26.3044   31.8965  -31.7147 H         1 ARG         0.0313
    180 H70       -28.1604   30.4030  -31.4301 H         1 ARG         0.0301
    181 H71       -28.6218   31.9960  -30.7403 H         1 ARG         0.0301
    182 H72       -29.2563   29.9017  -29.3661 H         1 ARG         0.0689
    183 H73       -28.3893   31.2099  -28.4922 H         1 ARG         0.0689
    184 H74       -26.6063   29.7698  -28.1511 H         1 ARG         0.2642
    185 H75       -27.7547   26.9867  -30.8912 H         1 ARG         0.2615
    186 H76       -28.6738   28.5096  -30.7543 H         1 ARG         0.2615
    187 H77       -25.4435   27.8546  -28.3446 H         1 ARG         0.2615
    188 H78       -25.9350   26.6202  -29.5351 H         1 ARG         0.2615
    189 H79       -24.3162   31.5536  -28.4916 H         1 LEU         0.1883
    190 H80       -22.2441   33.4996  -29.0083 H         1 LEU         0.0800
    191 H81       -20.7188   31.6790  -28.2120 H         1 LEU         0.0315
    192 H82       -22.1462   30.5926  -28.1176 H         1 LEU         0.0315
    193 H83       -23.1545   32.1358  -26.4448 H         1 LEU         0.0298
    194 H84       -21.6575   31.4794  -24.5941 H         1 LEU         0.0232
    195 H85       -20.3763   31.0682  -25.7840 H         1 LEU         0.0232
    196 H86       -21.9125   30.1376  -25.7607 H         1 LEU         0.0232
    197 H87       -21.9634   34.1906  -27.1166 H         1 LEU         0.0232
    198 H88       -20.4206   33.4846  -26.5267 H         1 LEU         0.0232
    199 H89       -21.7493   33.8334  -25.3693 H         1 LEU         0.0232
    200 H90       -20.8931   33.6707  -30.6892 H         1 LYS         0.1883
    201 H91       -20.8527   31.4657  -32.7084 H         1 LYS         0.0800
    202 H92       -19.9177   33.2674  -34.2497 H         1 LYS         0.0312
    203 H93       -20.3973   34.4609  -32.9958 H         1 LYS         0.0312
    204 H94       -22.6933   34.0491  -33.3169 H         1 LYS         0.0269
    205 H95       -22.3876   32.5107  -34.1925 H         1 LYS         0.0269
    206 H96       -21.4947   35.2387  -35.2252 H         1 LYS         0.0317
    207 H97       -23.0751   34.4921  -35.6396 H         1 LYS         0.0317
    208 H98       -22.0436   32.6727  -36.7659 H         1 LYS         0.0813
    209 H99       -20.4364   33.0334  -36.0493 H         1 LYS         0.0813
    210 H100      -20.5858   33.7520  -38.3275 H         1 LYS         0.1994
    211 H101      -20.3993   35.0544  -37.3382 H         1 LYS         0.1994
    212 H102      -21.8720   34.7238  -37.9948 H         1 LYS         0.1994
    213 H103      -19.0145   30.3730  -32.8575 H         1 CYS         0.1876
    214 H104      -16.6637   31.5304  -31.4332 H         1 CYS         0.0734
    215 H105      -15.9803   29.3170  -30.9072 H         1 CYS         0.0425
    216 H106      -17.1363   28.6003  -32.0806 H         1 CYS         0.0425
@<TRIPOS>BOND
     1    2    1 1  
     2    3    2 1  
     3    2    5 1  
     4    3    4 2  
     5    7    3 am 
     6    5    6 1  
     7    6  109 1  
     8    8    7 1  
     9    9    8 1  
    10    8   11 1  
    11    9   10 2  
    12   16    9 am 
    13   11   12 1  
    14   12   13 1  
    15   13   14 2  
    16   13   15 am 
    17   17   16 1  
    18   18   17 1  
    19   17   20 1  
    20   18   19 2  
    21   27   18 am 
    22   20   21 1  
    23   21   22 ar 
    24   21   23 ar 
    25   22   24 ar 
    26   23   25 ar 
    27   24   26 ar 
    28   25   26 ar 
    29   28   27 1  
    30   29   28 1  
    31   28   31 1  
    32   29   30 2  
    33   36   29 am 
    34   31   32 1  
    35   32   33 ar 
    36   32   34 ar 
    37   35   37 2  
    38   38   35 1  
    39   35   52 am 
    40   38   36 1  
    41   39   38 1  
    42   40   39 1  
    43   39   47 1  
    44   48   40 ar 
    45   40   49 ar 
    46   50   41 ar 
    47   41   51 ar 
    48   43   42 ar 
    49   44   42 ar 
    50   45   43 ar 
    51   46   44 ar 
    52   47   45 ar 
    53   47   46 ar 
    54   48   50 ar 
    55   49   51 ar 
    56   52   53 1  
    57   53   54 1  
    58   53   56 1  
    59   54   55 2  
    60   54   58 am 
    61   56   57 1  
    62   58   59 1  
    63   59   60 1  
    64   59   62 1  
    65   60   61 2  
    66   60   65 am 
    67   62   63 1  
    68   62   64 1  
    69   65   66 1  
    70   66   67 1  
    71   66   69 1  
    72   67   68 2  
    73   67   76 am 
    74   69   70 1  
    75   70   71 1  
    76   71   72 1  
    77   72   73 ar 
    78   73   74 ar 
    79   73   75 ar 
    80   76   77 1  
    81   77   78 1  
    82   77   80 1  
    83   78   79 2  
    84   78   87 am 
    85   80   81 1  
    86   81   82 1  
    87   82   83 1  
    88   83   84 ar 
    89   84   85 ar 
    90   84   86 ar 
    91   87   88 1  
    92   88   89 1  
    93   88   91 1  
    94   89   90 2  
    95   89   95 am 
    96   91   92 1  
    97   92   93 1  
    98   92   94 1  
    99   95   96 1  
   100   96   97 1  
   101   96   99 1  
   102   97   98 2  
   103   97  104 am 
   104   99  100 1  
   105  100  101 1  
   106  101  102 1  
   107  102  103 1  
   108  104  105 1  
   109  105  106 1  
   110  105  108 1  
   111  106  107 ar 
   112  106  110 ar 
   113  108  109 1  
   114    1  111 1  
   115    1  112 1  
   116    1  113 1  
   117    2  114 1  
   118    5  115 1  
   119    5  116 1  
   120    7  117 1  
   121    8  118 1  
   122   11  119 1  
   123   11  120 1  
   124   12  121 1  
   125   12  122 1  
   126   15  123 1  
   127   15  124 1  
   128   16  125 1  
   129   17  126 1  
   130   20  127 1  
   131   20  128 1  
   132   22  129 1  
   133   23  130 1  
   134   24  131 1  
   135   25  132 1  
   136   26  133 1  
   137   27  134 1  
   138   28  135 1  
   139   31  136 1  
   140   31  137 1  
   141   36  138 1  
   142   38  139 1  
   143   39  140 1  
   144   41  141 1  
   145   42  142 1  
   146   43  143 1  
   147   44  144 1  
   148   45  145 1  
   149   46  146 1  
   150   48  147 1  
   151   49  148 1  
   152   50  149 1  
   153   51  150 1  
   154   52  151 1  
   155   53  152 1  
   156   56  153 1  
   157   56  154 1  
   158   57  155 1  
   159   58  156 1  
   160   59  157 1  
   161   62  158 1  
   162   63  159 1  
   163   64  160 1  
   164   64  161 1  
   165   64  162 1  
   166   65  163 1  
   167   66  164 1  
   168   69  165 1  
   169   69  166 1  
   170   70  167 1  
   171   70  168 1  
   172   71  169 1  
   173   71  170 1  
   174   72  171 1  
   175   74  172 1  
   176   74  173 1  
   177   75  174 1  
   178   75  175 1  
   179   76  176 1  
   180   77  177 1  
   181   80  178 1  
   182   80  179 1  
   183   81  180 1  
   184   81  181 1  
   185   82  182 1  
   186   82  183 1  
   187   83  184 1  
   188   85  185 1  
   189   85  186 1  
   190   86  187 1  
   191   86  188 1  
   192   87  189 1  
   193   88  190 1  
   194   91  191 1  
   195   91  192 1  
   196   92  193 1  
   197   93  194 1  
   198   93  195 1  
   199   93  196 1  
   200   94  197 1  
   201   94  198 1  
   202   94  199 1  
   203   95  200 1  
   204   96  201 1  
   205   99  202 1  
   206   99  203 1  
   207  100  204 1  
   208  100  205 1  
   209  101  206 1  
   210  101  207 1  
   211  102  208 1  
   212  102  209 1  
   213  103  210 1  
   214  103  211 1  
   215  103  212 1  
   216  104  213 1  
   217  105  214 1  
   218  108  215 1  
   219  108  216 1  
@<TRIPOS>SUBSTRUCTURE
     1 CYS         1

