5t1k_ligand
  -I-interpret- 

216219  0  0  0  0  0  0  0  0999 V2000
  -15.0540   33.0110  -28.1490 N   0  3  0  0  0
  -16.4570   33.0530  -28.5400 C   0  0  0  0  0
  -17.0710   34.4200  -28.3130 C   0  0  0  0  0
  -16.6200   35.1780  -27.4540 O   0  0  0  0  0
  -17.2570   32.0120  -27.7670 C   0  0  0  0  0
  -17.4080   30.4320  -28.6050 S   0  0  0  0  0
  -18.1100   34.7290  -29.0820 N   0  0  0  0  0
  -18.7860   36.0070  -28.9480 C   0  0  0  0  0
  -20.2700   35.8940  -29.1940 C   0  0  0  0  0
  -20.7120   35.1610  -30.0830 O   0  0  0  0  0
  -18.2000   37.0360  -29.9010 C   0  0  0  0  0
  -16.9460   37.6710  -29.3690 C   0  0  0  0  0
  -16.5430   38.8500  -30.1990 C   0  0  0  0  0
  -17.0710   39.0530  -31.2960 O   0  0  0  0  0
  -15.6120   39.6470  -29.6870 N   0  0  0  0  0
  -21.0300   36.6290  -28.3890 N   0  0  0  0  0
  -22.4700   36.7330  -28.5530 C   0  0  0  0  0
  -22.7770   37.4020  -29.8780 C   0  0  0  0  0
  -22.1520   38.3960  -30.2320 O   0  0  0  0  0
  -23.0560   37.5680  -27.4160 C   0  0  0  0  0
  -24.5590   37.6520  -27.4310 C   0  0  0  0  0
  -25.3330   36.5350  -27.1430 C   0  0  0  0  0
  -25.2000   38.8480  -27.7250 C   0  0  0  0  0
  -26.7210   36.6110  -27.1500 C   0  0  0  0  0
  -26.5920   38.9300  -27.7330 C   0  0  0  0  0
  -27.3530   37.8060  -27.4420 C   0  0  0  0  0
  -23.7340   36.8460  -30.6110 N   0  0  0  0  0
  -24.1480   37.3990  -31.8940 C   0  0  0  0  0
  -25.6130   37.7810  -31.8110 C   0  0  0  0  0
  -26.4440   36.9440  -31.4620 O   0  0  0  0  0
  -23.9580   36.3670  -33.0090 C   0  0  0  0  0
  -24.2960   36.9200  -34.3860 C   0  0  0  0  0
  -23.6880   37.9350  -34.7870 O   0  0  0  0  0
  -25.1650   36.3390  -35.0730 O   0  0  0  0  0
  -28.2230   38.7260  -32.9290 C   0  0  0  0  0
  -25.9280   39.0340  -32.1340 N   0  0  0  0  0
  -29.3520   38.4160  -32.5280 O   0  0  0  0  0
  -27.2970   39.5090  -32.0610 C   0  0  0  0  0
  -27.4520   40.9410  -32.4770 C   0  0  0  0  0
  -28.9270   41.2810  -32.5820 C   0  0  0  0  0
  -31.6920   41.8130  -32.7460 C   0  0  0  0  0
  -25.3270   43.6860  -29.9410 C   0  0  0  0  0
  -25.3380   43.8680  -31.3200 C   0  0  0  0  0
  -25.9940   42.6110  -29.3800 C   0  0  0  0  0
  -26.0300   42.9810  -32.1460 C   0  0  0  0  0
  -26.6760   41.7270  -30.2040 C   0  0  0  0  0
  -26.7130   41.9140  -31.5880 C   0  0  0  0  0
  -29.7120   41.4290  -31.4120 C   0  0  0  0  0
  -29.5520   41.3810  -33.8370 C   0  0  0  0  0
  -31.0870   41.7040  -31.4960 C   0  0  0  0  0
  -30.9250   41.6470  -33.9200 C   0  0  0  0  0
  -27.7770   38.4370  -34.1430 N   0  0  0  0  0
  -28.6150   37.8180  -35.1680 C   0  0  0  0  0
  -29.3580   36.5900  -34.6610 C   0  0  0  0  0
  -30.5520   36.4280  -34.9100 O   0  0  0  0  0
  -27.7550   37.4560  -36.3850 C   0  0  0  0  0
  -26.8820   38.5280  -36.7390 O   0  0  0  0  0
  -28.6480   35.7510  -33.9140 N   0  0  0  0  0
  -29.2000   34.4940  -33.4220 C   0  0  0  0  0
  -29.3890   34.5010  -31.9050 C   0  0  0  0  0
  -29.9990   33.5920  -31.3350 O   0  0  0  0  0
  -28.2810   33.3140  -33.7940 C   0  0  0  0  0
  -26.9570   33.5660  -33.3040 O   0  0  0  0  0
  -28.2230   33.1440  -35.3110 C   0  0  0  0  0
  -28.8580   35.5320  -31.2570 N   0  0  0  0  0
  -28.7180   35.5540  -29.8020 C   0  0  0  0  0
  -27.9870   34.3030  -29.3200 C   0  0  0  0  0
  -28.3080   33.7430  -28.2740 O   0  0  0  0  0
  -30.0670   35.6950  -29.1010 C   0  0  0  0  0
  -30.7640   37.0030  -29.4010 C   0  0  0  0  0
  -31.8890   37.2250  -28.4310 C   0  0  0  0  0
  -32.7260   38.3430  -28.8320 N   0  0  0  0  0
  -33.7160   38.8150  -28.0830 C   0  0  0  0  0
  -33.9730   38.2590  -26.9020 N   0  0  0  0  0
  -34.4450   39.8430  -28.5020 N   0  0  0  0  0
  -26.9990   33.8730  -30.0950 N   0  0  0  0  0
  -26.2070   32.7190  -29.7340 C   0  0  0  0  0
  -24.7260   33.0640  -29.7660 C   0  0  0  0  0
  -24.3140   34.0450  -30.3940 O   0  0  0  0  0
  -26.5200   31.5690  -30.6870 C   0  0  0  0  0
  -27.9710   31.1180  -30.6160 C   0  0  0  0  0
  -28.3020   30.4410  -29.2740 C   0  0  0  0  0
  -27.2530   29.5000  -28.9060 N   0  0  0  0  0
  -27.0770   28.3140  -29.4830 C   0  0  0  0  0
  -27.8970   27.9060  -30.4490 N   0  0  0  0  0
  -26.0780   27.5390  -29.0920 N   0  0  0  0  0
  -23.9260   32.2700  -29.0700 N   0  0  0  0  0
  -22.4860   32.4350  -29.1430 C   0  0  0  0  0
  -21.9820   31.9860  -30.5090 C   0  0  0  0  0
  -22.4000   30.9440  -31.0160 O   0  0  0  0  0
  -21.8040   31.6350  -28.0380 C   0  0  0  0  0
  -22.0670   32.1050  -26.6070 C   0  0  0  0  0
  -21.4620   31.1310  -25.6190 C   0  0  0  0  0
  -21.5120   33.4990  -26.3900 C   0  0  0  0  0
  -21.1020   32.7860  -31.1060 N   0  0  0  0  0
  -20.4310   32.4160  -32.3490 C   0  0  0  0  0
  -18.9520   32.2320  -32.0780 C   0  0  0  0  0
  -18.2800   33.1360  -31.5830 O   0  0  0  0  0
  -20.6250   33.4780  -33.4340 C   0  0  0  0  0
  -22.0260   33.5360  -34.0250 C   0  0  0  0  0
  -22.0340   34.2880  -35.3490 C   0  0  0  0  0
  -21.3620   33.4750  -36.4470 C   0  0  0  0  0
  -21.0280   34.3190  -37.6210 N   0  3  0  0  0
  -18.4420   31.0540  -32.4010 N   0  0  0  0  0
  -17.0540   30.7440  -32.0960 C   0  0  0  0  0
  -16.1900   30.7210  -33.3580 C   0  0  0  0  0
  -16.5930   30.1800  -34.3890 O   0  0  0  0  0
  -16.9800   29.4130  -31.3560 C   0  0  0  0  0
  -18.2240   29.2600  -30.0370 S   0  0  0  0  0
  -15.0760   31.2500  -33.3790 O   0  0  0  0  0
  -14.5344   33.7133  -28.6755 H   0  0  0  0  0
  -14.9745   33.2050  -27.1508 H   0  0  0  0  0
  -14.6744   32.0854  -28.3480 H   0  0  0  0  0
  -16.4947   32.8341  -29.6071 H   0  0  0  0  0
  -18.2648   32.4079  -27.6417 H   0  0  0  0  0
  -16.7298   31.8308  -26.8303 H   0  0  0  0  0
  -18.4375   34.0581  -29.7770 H   0  0  0  0  0
  -18.6313   36.3314  -27.9190 H   0  0  0  0  0
  -18.9408   37.8233  -30.0403 H   0  0  0  0  0
  -17.9485   36.5260  -30.8309 H   0  0  0  0  0
  -16.1433   36.9342  -29.3979 H   0  0  0  0  0
  -17.1326   38.0100  -28.3500 H   0  0  0  0  0
  -15.3036   40.4696  -30.2053 H   0  0  0  0  0
  -15.2054   39.4365  -28.7755 H   0  0  0  0  0
  -20.5853   37.1400  -27.6264 H   0  0  0  0  0
  -22.9104   35.7361  -28.5345 H   0  0  0  0  0
  -22.6740   38.5825  -27.5293 H   0  0  0  0  0
  -22.7679   37.0885  -26.4805 H   0  0  0  0  0
  -24.8464   35.5882  -26.9089 H   0  0  0  0  0
  -24.6075   39.7342  -27.9525 H   0  0  0  0  0
  -27.3140   35.7247  -26.9243 H   0  0  0  0  0
  -27.0818   39.8751  -27.9674 H   0  0  0  0  0
  -28.4414   37.8649  -27.4436 H   0  0  0  0  0
  -24.1945   36.0043  -30.2648 H   0  0  0  0  0
  -23.5388   38.2742  -32.1200 H   0  0  0  0  0
  -24.6297   35.5320  -32.8098 H   0  0  0  0  0
  -22.9089   36.0712  -33.0157 H   0  0  0  0  0
  -25.5071   35.5866  -34.5846 H   0  0  0  0  0
  -25.1927   39.6720  -32.4386 H   0  0  0  0  0
  -27.5508   39.3901  -31.0077 H   0  0  0  0  0
  -26.9853   41.0481  -33.4562 H   0  0  0  0  0
  -32.7584   42.0266  -32.8180 H   0  0  0  0  0
  -24.7932   44.3899  -29.3025 H   0  0  0  0  0
  -24.8022   44.7097  -31.7588 H   0  0  0  0  0
  -25.9837   42.4600  -28.3006 H   0  0  0  0  0
  -26.0326   43.1278  -33.2261 H   0  0  0  0  0
  -27.1912   40.8729  -29.7644 H   0  0  0  0  0
  -29.2427   41.3281  -30.4334 H   0  0  0  0  0
  -28.9672   41.2513  -34.7476 H   0  0  0  0  0
  -31.6770   41.8313  -30.5884 H   0  0  0  0  0
  -31.4038   41.7262  -34.8960 H   0  0  0  0  0
  -26.8074   38.6559  -34.3718 H   0  0  0  0  0
  -29.3749   38.5463  -35.4512 H   0  0  0  0  0
  -28.4148   37.2523  -37.2284 H   0  0  0  0  0
  -27.1507   36.5836  -36.1362 H   0  0  0  0  0
  -26.3576   38.2735  -37.5018 H   0  0  0  0  0
  -27.6861   35.9940  -33.6772 H   0  0  0  0  0
  -30.1749   34.3785  -33.8957 H   0  0  0  0  0
  -28.6807   32.4048  -33.3449 H   0  0  0  0  0
  -26.3856   32.8304  -33.5363 H   0  0  0  0  0
  -29.2254   32.9487  -35.6920 H   0  0  0  0  0
  -27.8325   34.0558  -35.7628 H   0  0  0  0  0
  -27.5699   32.3066  -35.5568 H   0  0  0  0  0
  -28.5364   36.3373  -31.7940 H   0  0  0  0  0
  -28.1261   36.4313  -29.5413 H   0  0  0  0  0
  -29.8853   35.6576  -28.0269 H   0  0  0  0  0
  -30.7094   34.8902  -29.4584 H   0  0  0  0  0
  -31.1669   36.9689  -30.4132 H   0  0  0  0  0
  -30.0471   37.8189  -29.3090 H   0  0  0  0  0
  -31.4624   37.4469  -27.4528 H   0  0  0  0  0
  -32.5042   36.3256  -28.4044 H   0  0  0  0  0
  -32.5445   38.7868  -29.7323 H   0  0  0  0  0
  -34.7284   38.6224  -26.3208 H   0  0  0  0  0
  -33.4147   37.4694  -26.5777 H   0  0  0  0  0
  -34.2461   40.2752  -29.4042 H   0  0  0  0  0
  -26.7943   34.3672  -30.9635 H   0  0  0  0  0
  -26.4572   32.4110  -28.7188 H   0  0  0  0  0
  -25.8945   30.7226  -30.4034 H   0  0  0  0  0
  -26.3293   31.9172  -31.7021 H   0  0  0  0  0
  -28.1414   30.3942  -31.4130 H   0  0  0  0  0
  -28.6059   31.9980  -30.7185 H   0  0  0  0  0
  -29.2439   29.9013  -29.3721 H   0  0  0  0  0
  -28.3796   31.2055  -28.5009 H   0  0  0  0  0
  -26.6125   29.7671  -28.1584 H   0  0  0  0  0
  -27.7553   26.9962  -30.8878 H   0  0  0  0  0
  -28.6670   28.5032  -30.7504 H   0  0  0  0  0
  -25.4489   27.8521  -28.3527 H   0  0  0  0  0
  -24.3240   31.5393  -28.4800 H   0  0  0  0  0
  -22.2439   33.4888  -29.0055 H   0  0  0  0  0
  -20.7316   31.7410  -28.2019 H   0  0  0  0  0
  -22.2015   30.6222  -28.1046 H   0  0  0  0  0
  -23.1445   32.1411  -26.4462 H   0  0  0  0  0
  -21.9092   30.1471  -25.7605 H   0  0  0  0  0
  -20.3862   31.0696  -25.7836 H   0  0  0  0  0
  -21.6564   31.4773  -24.6039 H   0  0  0  0  0
  -20.4365   33.4921  -26.5670 H   0  0  0  0  0
  -21.9911   34.1913  -27.0824 H   0  0  0  0  0
  -21.7108   33.8124  -25.3651 H   0  0  0  0  0
  -20.8889   33.6884  -30.6809 H   0  0  0  0  0
  -20.8702   31.4863  -32.7107 H   0  0  0  0  0
  -19.9472   33.2255  -34.2495 H   0  0  0  0  0
  -20.4374   34.4453  -32.9679 H   0  0  0  0  0
  -22.6780   34.0578  -33.3244 H   0  0  0  0  0
  -22.3719   32.5175  -34.2011 H   0  0  0  0  0
  -21.4863   35.2219  -35.2224 H   0  0  0  0  0
  -23.0685   34.4745  -35.6373 H   0  0  0  0  0
  -22.0502   32.6931  -36.7682 H   0  0  0  0  0
  -20.4381   33.0549  -36.0495 H   0  0  0  0  0
  -20.5806   33.7443  -38.3351 H   0  0  0  0  0
  -21.8828   34.7281  -37.9984 H   0  0  0  0  0
  -20.3918   35.0627  -37.3336 H   0  0  0  0  0
  -19.0260   30.3593  -32.8667 H   0  0  0  0  0
  -16.6565   31.5311  -31.4553 H   0  0  0  0  0
  -15.9957   29.3459  -30.8925 H   0  0  0  0  0
  -17.1661   28.6203  -32.0806 H   0  0  0  0  0
  -14.8874   31.6306  -32.5181 H   0  0  0  0  0
  2  1  1  0  0  0
  3  2  1  0  0  0
  2  5  1  0  0  0
  3  4  2  0  0  0
  7  3  1  0  0  0
  5  6  1  0  0  0
  6109  1  0  0  0
  8  7  1  0  0  0
  9  8  1  0  0  0
  8 11  1  0  0  0
  9 10  2  0  0  0
 16  9  1  0  0  0
 11 12  1  0  0  0
 12 13  1  0  0  0
 13 14  2  0  0  0
 13 15  1  0  0  0
 17 16  1  0  0  0
 18 17  1  0  0  0
 17 20  1  0  0  0
 18 19  2  0  0  0
 27 18  1  0  0  0
 20 21  1  0  0  0
 21 22  4  0  0  0
 21 23  4  0  0  0
 22 24  4  0  0  0
 23 25  4  0  0  0
 24 26  4  0  0  0
 25 26  4  0  0  0
 28 27  1  0  0  0
 29 28  1  0  0  0
 28 31  1  0  0  0
 29 30  2  0  0  0
 36 29  1  0  0  0
 31 32  1  0  0  0
 32 33  2  0  0  0
 32 34  1  0  0  0
 35 37  2  0  0  0
 38 35  1  0  0  0
 35 52  1  0  0  0
 38 36  1  0  0  0
 39 38  1  0  0  0
 40 39  1  0  0  0
 39 47  1  0  0  0
 48 40  4  0  0  0
 40 49  4  0  0  0
 50 41  4  0  0  0
 41 51  4  0  0  0
 43 42  4  0  0  0
 44 42  4  0  0  0
 45 43  4  0  0  0
 46 44  4  0  0  0
 47 45  4  0  0  0
 47 46  4  0  0  0
 48 50  4  0  0  0
 49 51  4  0  0  0
 52 53  1  0  0  0
 53 54  1  0  0  0
 53 56  1  0  0  0
 54 55  2  0  0  0
 54 58  1  0  0  0
 56 57  1  0  0  0
 58 59  1  0  0  0
 59 60  1  0  0  0
 59 62  1  0  0  0
 60 61  2  0  0  0
 60 65  1  0  0  0
 62 63  1  0  0  0
 62 64  1  0  0  0
 65 66  1  0  0  0
 66 67  1  0  0  0
 66 69  1  0  0  0
 67 68  2  0  0  0
 67 76  1  0  0  0
 69 70  1  0  0  0
 70 71  1  0  0  0
 71 72  1  0  0  0
 72 73  1  0  0  0
 73 74  1  0  0  0
 73 75  2  0  0  0
 76 77  1  0  0  0
 77 78  1  0  0  0
 77 80  1  0  0  0
 78 79  2  0  0  0
 78 87  1  0  0  0
 80 81  1  0  0  0
 81 82  1  0  0  0
 82 83  1  0  0  0
 83 84  1  0  0  0
 84 85  1  0  0  0
 84 86  2  0  0  0
 87 88  1  0  0  0
 88 89  1  0  0  0
 88 91  1  0  0  0
 89 90  2  0  0  0
 89 95  1  0  0  0
 91 92  1  0  0  0
 92 93  1  0  0  0
 92 94  1  0  0  0
 95 96  1  0  0  0
 96 97  1  0  0  0
 96 99  1  0  0  0
 97 98  2  0  0  0
 97104  1  0  0  0
 99100  1  0  0  0
100101  1  0  0  0
101102  1  0  0  0
102103  1  0  0  0
104105  1  0  0  0
105106  1  0  0  0
105108  1  0  0  0
106107  2  0  0  0
106110  1  0  0  0
108109  1  0  0  0
  1111  1  0  0  0
  1112  1  0  0  0
  1113  1  0  0  0
  2114  1  0  0  0
  5115  1  0  0  0
  5116  1  0  0  0
  7117  1  0  0  0
  8118  1  0  0  0
 11119  1  0  0  0
 11120  1  0  0  0
 12121  1  0  0  0
 12122  1  0  0  0
 15123  1  0  0  0
 15124  1  0  0  0
 16125  1  0  0  0
 17126  1  0  0  0
 20127  1  0  0  0
 20128  1  0  0  0
 22129  1  0  0  0
 23130  1  0  0  0
 24131  1  0  0  0
 25132  1  0  0  0
 26133  1  0  0  0
 27134  1  0  0  0
 28135  1  0  0  0
 31136  1  0  0  0
 31137  1  0  0  0
 34138  1  0  0  0
 36139  1  0  0  0
 38140  1  0  0  0
 39141  1  0  0  0
 41142  1  0  0  0
 42143  1  0  0  0
 43144  1  0  0  0
 44145  1  0  0  0
 45146  1  0  0  0
 46147  1  0  0  0
 48148  1  0  0  0
 49149  1  0  0  0
 50150  1  0  0  0
 51151  1  0  0  0
 52152  1  0  0  0
 53153  1  0  0  0
 56154  1  0  0  0
 56155  1  0  0  0
 57156  1  0  0  0
 58157  1  0  0  0
 59158  1  0  0  0
 62159  1  0  0  0
 63160  1  0  0  0
 64161  1  0  0  0
 64162  1  0  0  0
 64163  1  0  0  0
 65164  1  0  0  0
 66165  1  0  0  0
 69166  1  0  0  0
 69167  1  0  0  0
 70168  1  0  0  0
 70169  1  0  0  0
 71170  1  0  0  0
 71171  1  0  0  0
 72172  1  0  0  0
 74173  1  0  0  0
 74174  1  0  0  0
 75175  1  0  0  0
 76176  1  0  0  0
 77177  1  0  0  0
 80178  1  0  0  0
 80179  1  0  0  0
 81180  1  0  0  0
 81181  1  0  0  0
 82182  1  0  0  0
 82183  1  0  0  0
 83184  1  0  0  0
 85185  1  0  0  0
 85186  1  0  0  0
 86187  1  0  0  0
 87188  1  0  0  0
 88189  1  0  0  0
 91190  1  0  0  0
 91191  1  0  0  0
 92192  1  0  0  0
 93193  1  0  0  0
 93194  1  0  0  0
 93195  1  0  0  0
 94196  1  0  0  0
 94197  1  0  0  0
 94198  1  0  0  0
 95199  1  0  0  0
 96200  1  0  0  0
 99201  1  0  0  0
 99202  1  0  0  0
100203  1  0  0  0
100204  1  0  0  0
101205  1  0  0  0
101206  1  0  0  0
102207  1  0  0  0
102208  1  0  0  0
103209  1  0  0  0
103210  1  0  0  0
103211  1  0  0  0
104212  1  0  0  0
105213  1  0  0  0
108214  1  0  0  0
108215  1  0  0  0
110216  1  0  0  0
M  END
$$$$
