4ksp_ligand
  -I-interpret- 

 57 61  0  0  0  0  0  0  0  0999 V2000
   49.9760  -34.2650    1.4510 C   0  0  0  0  0
   41.3900  -36.9030    9.7940 C   0  0  0  0  0
   42.7480  -36.7990    9.5570 C   0  0  0  0  0
   45.8020  -35.9750   10.6580 C   0  0  0  0  0
   46.6630  -34.9010   10.7100 C   0  0  0  0  0
   46.6170  -36.4960    8.4580 C   0  0  0  0  0
   48.8300  -33.5630    1.7860 C   0  0  0  0  0
   47.4730  -35.4160    8.5090 C   0  0  0  0  0
   43.5820  -37.8850    9.7060 C   0  0  0  0  0
   39.3860  -39.6520   10.8170 C   0  0  0  0  0
   38.0120  -41.6110   11.4680 C   0  0  0  0  0
   47.9620  -34.8610    6.1710 C   0  0  0  0  0
   35.4460  -41.4570   11.5050 C   0  0  0  0  0
   48.8130  -33.8290    5.5220 C   0  0  0  0  0
   43.9390  -40.2690   10.2420 C   0  0  0  0  0
   50.7630  -34.8430    2.4300 C   0  0  0  0  0
   50.3920  -34.7060    3.7510 C   0  0  0  0  0
   48.4660  -33.4390    3.1070 C   0  0  0  0  0
   43.0940  -39.1160   10.0870 C   0  0  0  0  0
   49.2370  -34.0160    4.0940 C   0  0  0  0  0
   40.8730  -38.1250   10.1900 C   0  0  0  0  0
   45.7800  -36.7590    9.5300 C   0  0  0  0  0
   47.4920  -34.6330    9.6380 C   0  0  0  0  0
   41.7410  -39.2000   10.3280 C   0  0  0  0  0
   35.8090  -42.9120   11.4810 C   0  0  0  0  0
   36.7290  -41.9200   12.1320 C   0  0  0  0  0
   47.9600  -32.9140    0.7630 C   0  0  0  0  0
   44.5880  -41.2340   10.3220 N   0  0  0  0  0
   39.5490  -38.3900   10.4690 N   0  0  0  0  0
   48.3620  -35.0730    7.4690 N   0  0  0  0  0
   38.1760  -40.2530   11.1640 N   0  0  0  0  0
   38.7710  -42.5510   11.2570 O   0  0  0  0  0
   47.0260  -35.3960    5.5990 O   0  0  0  0  0
   44.9500  -37.8650    9.4610 O   0  0  0  0  0
   48.3440  -33.5920    9.6550 F   0  0  0  0  0
   48.6770  -32.4320   -0.2930 F   0  0  0  0  0
   46.9800  -33.6920    0.2420 F   0  0  0  0  0
   47.2540  -31.8870    1.3060 F   0  0  0  0  0
   40.8400  -40.5720   10.8250 S   0  0  0  0  0
   50.2608  -34.3630    0.4034 H   0  0  0  0  0
   40.7378  -36.0383    9.6713 H   0  0  0  0  0
   43.1659  -35.8412    9.2469 H   0  0  0  0  0
   45.1473  -36.1997   11.5000 H   0  0  0  0  0
   46.6901  -34.2645   11.5944 H   0  0  0  0  0
   46.5991  -37.1396    7.5785 H   0  0  0  0  0
   34.5902  -40.8324   11.7610 H   0  0  0  0  0
   35.1065  -40.6879   10.8112 H   0  0  0  0  0
   49.7426  -33.8375    6.0911 H   0  0  0  0  0
   48.1995  -32.9281    5.5138 H   0  0  0  0  0
   51.6620  -35.3979    2.1619 H   0  0  0  0  0
   51.0116  -35.1437    4.5337 H   0  0  0  0  0
   47.5668  -32.8838    3.3738 H   0  0  0  0  0
   35.8651  -43.7286   10.7612 H   0  0  0  0  0
   35.3489  -43.8730   11.7108 H   0  0  0  0  0
   37.1826  -41.8116   13.1172 H   0  0  0  0  0
   49.3528  -34.9773    7.6915 H   0  0  0  0  0
   37.3477  -39.6588   11.1991 H   0  0  0  0  0
  7  1  4  0  0  0
 16  1  4  0  0  0
  3  2  4  0  0  0
  2 21  4  0  0  0
  9  3  4  0  0  0
  4  5  4  0  0  0
 22  4  4  0  0  0
  5 23  4  0  0  0
  6  8  4  0  0  0
 22  6  4  0  0  0
 18  7  4  0  0  0
  7 27  1  0  0  0
  8 23  4  0  0  0
  8 30  1  0  0  0
  9 19  4  0  0  0
 34  9  1  0  0  0
 29 10  4  0  0  0
 10 31  1  0  0  0
 10 39  4  0  0  0
 11 26  1  0  0  0
 31 11  1  0  0  0
 11 32  2  0  0  0
 12 14  1  0  0  0
 30 12  1  0  0  0
 12 33  2  0  0  0
 13 25  1  0  0  0
 26 13  1  0  0  0
 14 20  1  0  0  0
 19 15  1  0  0  0
 15 28  3  0  0  0
 17 16  4  0  0  0
 20 17  4  0  0  0
 20 18  4  0  0  0
 19 24  4  0  0  0
 24 21  4  0  0  0
 21 29  4  0  0  0
 22 34  1  0  0  0
 23 35  1  0  0  0
 24 39  4  0  0  0
 25 26  1  0  0  0
 27 36  1  0  0  0
 27 37  1  0  0  0
 27 38  1  0  0  0
  1 40  1  0  0  0
  2 41  1  0  0  0
  3 42  1  0  0  0
  4 43  1  0  0  0
  5 44  1  0  0  0
  6 45  1  0  0  0
 13 46  1  0  0  0
 13 47  1  0  0  0
 14 48  1  0  0  0
 14 49  1  0  0  0
 16 50  1  0  0  0
 17 51  1  0  0  0
 18 52  1  0  0  0
 25 53  1  0  0  0
 25 54  1  0  0  0
 26 55  1  0  0  0
 30 56  1  0  0  0
 31 57  1  0  0  0
M  END
$$$$
