4mw2_ligand
  -I-interpret- 

 48 49  0  0  0  0  0  0  0  0999 V2000
  -45.1200   13.7520   13.5000 O   0  0  0  0  0
  -43.9600   13.8320   13.1090 C   0  0  0  0  0
  -43.1290   14.8210   13.5930 N   0  0  0  0  0
  -43.5630   15.8280   14.4720 C   0  0  0  0  0
  -42.6110   16.7710   14.9690 C   0  0  0  0  0
  -43.1650   17.7130   15.7660 C   0  0  0  0  0
  -44.8580   17.4710   15.9120 S   0  0  0  0  0
  -44.8460   16.0970   14.9250 C   0  0  0  0  0
  -43.4380   12.9620   12.2310 N   0  0  0  0  0
  -44.2870   11.9880   11.5580 C   0  0  0  0  0
  -43.7100   11.4810   10.2700 C   0  0  0  0  0
  -43.8760   12.4530    9.1240 C   0  0  0  0  0
  -43.5840   11.8210    7.8320 N   0  3  0  0  0
  -43.4010   12.7810    6.7430 C   0  0  0  0  0
  -42.2820   13.7750    6.9640 C   0  0  0  0  0
  -40.9920   13.3270    7.2750 C   0  0  0  0  0
  -40.7800   11.9970    7.4400 O   0  0  0  0  0
  -42.4930   15.1360    6.8030 C   0  0  0  0  0
  -41.4380   16.0110    6.9290 C   0  0  0  0  0
  -41.7170   17.7110    6.6750 Cl  0  0  0  0  0
  -40.1630   15.5770    7.2310 C   0  0  0  0  0
  -39.9170   14.2190    7.4080 C   0  0  0  0  0
  -38.5070   13.7310    7.7010 C   0  0  0  0  0
  -37.4520   14.5310    6.9700 C   0  0  0  0  0
  -36.8050   15.5390    7.4440 C   0  0  0  0  0
  -42.1524   14.8214   13.2987 H   0  0  0  0  0
  -41.5481   16.7348   14.7304 H   0  0  0  0  0
  -42.6111   18.5173   16.2502 H   0  0  0  0  0
  -45.7267   15.5039   14.6786 H   0  0  0  0  0
  -42.4376   12.9827   12.0329 H   0  0  0  0  0
  -45.2298   12.4820   11.3229 H   0  0  0  0  0
  -44.3988   11.1338   12.2258 H   0  0  0  0  0
  -44.2392   10.5650   10.0073 H   0  0  0  0  0
  -42.6417   11.3277   10.4228 H   0  0  0  0  0
  -43.1787   13.2781    9.2689 H   0  0  0  0  0
  -44.9099   12.7980    9.1124 H   0  0  0  0  0
  -44.3808   11.2315    7.5913 H   0  0  0  0  0
  -42.7118   11.3021    7.9339 H   0  0  0  0  0
  -44.3251   13.3535    6.6639 H   0  0  0  0  0
  -43.1467   12.2075    5.8516 H   0  0  0  0  0
  -39.8552   11.8449    7.6476 H   0  0  0  0  0
  -43.4910   15.5117    6.5774 H   0  0  0  0  0
  -39.3505   16.2967    7.3306 H   0  0  0  0  0
  -38.4340   12.6957    7.3679 H   0  0  0  0  0
  -38.3296   13.8399    8.7709 H   0  0  0  0  0
  -37.2179   14.2271    5.9497 H   0  0  0  0  0
  -37.0009   15.8838    8.4593 H   0  0  0  0  0
  -36.0616   16.0471    6.8298 H   0  0  0  0  0
  1  2  2  0  0  0
  2  3  1  0  0  0
  2  9  1  0  0  0
  3  4  1  0  0  0
  4  5  4  0  0  0
  4  8  4  0  0  0
  5  6  4  0  0  0
  6  7  4  0  0  0
  7  8  4  0  0  0
  9 10  1  0  0  0
 10 11  1  0  0  0
 11 12  1  0  0  0
 12 13  1  0  0  0
 13 14  1  0  0  0
 14 15  1  0  0  0
 15 16  4  0  0  0
 15 18  4  0  0  0
 16 17  1  0  0  0
 16 22  4  0  0  0
 18 19  4  0  0  0
 19 20  1  0  0  0
 19 21  4  0  0  0
 21 22  4  0  0  0
 22 23  1  0  0  0
 23 24  1  0  0  0
 24 25  2  0  0  0
  3 26  1  0  0  0
  5 27  1  0  0  0
  6 28  1  0  0  0
  8 29  1  0  0  0
  9 30  1  0  0  0
 10 31  1  0  0  0
 10 32  1  0  0  0
 11 33  1  0  0  0
 11 34  1  0  0  0
 12 35  1  0  0  0
 12 36  1  0  0  0
 13 37  1  0  0  0
 13 38  1  0  0  0
 14 39  1  0  0  0
 14 40  1  0  0  0
 17 41  1  0  0  0
 18 42  1  0  0  0
 21 43  1  0  0  0
 23 44  1  0  0  0
 23 45  1  0  0  0
 24 46  1  0  0  0
 25 47  1  0  0  0
 25 48  1  0  0  0
M  END
$$$$
