5wzr_ligand
  -I-interpret- 

 31 31  0  0  0  0  0  0  0  0999 V2000
   18.5050    3.3740   57.1650 O   0  0  0  0  0
   18.3210    4.5720   57.3710 C   0  0  0  0  0
   16.8880    5.0650   57.3620 C   0  0  0  0  0
   19.2890    5.5170   57.6020 N   0  0  0  0  0
   20.7390    5.1990   57.6590 C   0  0  0  0  0
   21.3410    5.5890   58.9910 C   0  0  0  0  0
   20.6280    4.9680   60.0370 O   0  0  0  0  0
   22.7990    5.1450   59.0530 C   0  0  0  0  0
   22.9160    3.6780   58.9590 O   0  0  0  0  0
   23.5260    5.8670   57.9210 C   0  0  0  0  0
   24.9410    5.3930   57.7820 C   0  0  0  0  0
   25.3920    5.8730   56.4860 O   0  0  0  0  0
   22.8830    5.6040   56.6420 N   0  3  0  0  0
   21.4460    5.9460   56.6040 C   0  0  0  0  0
   16.4424    4.8650   56.3875 H   0  0  0  0  0
   16.3217    4.5460   58.1353 H   0  0  0  0  0
   16.8728    6.1374   57.5567 H   0  0  0  0  0
   18.9987    6.4848   57.7413 H   0  0  0  0  0
   20.8470    4.1232   57.5205 H   0  0  0  0  0
   21.2838    6.6722   59.0983 H   0  0  0  0  0
   19.7089    5.2433   60.0038 H   0  0  0  0  0
   23.2518    5.4061   60.0095 H   0  0  0  0  0
   22.4441    3.2730   59.6903 H   0  0  0  0  0
   23.4974    6.9272   58.1725 H   0  0  0  0  0
   25.0043    4.3068   57.8473 H   0  0  0  0  0
   25.5687    5.7746   58.5873 H   0  0  0  0  0
   26.3000    5.5965   56.3419 H   0  0  0  0  0
   22.9583    4.6018   56.4681 H   0  0  0  0  0
   23.3491    6.1858   55.9459 H   0  0  0  0  0
   21.3214    7.0162   56.7690 H   0  0  0  0  0
   21.0336    5.6807   55.6305 H   0  0  0  0  0
  1  2  2  0  0  0
  2  3  1  0  0  0
  2  4  1  0  0  0
  4  5  1  0  0  0
  5  6  1  0  0  0
  5 14  1  0  0  0
  6  7  1  0  0  0
  6  8  1  0  0  0
  8  9  1  0  0  0
  8 10  1  0  0  0
 10 11  1  0  0  0
 10 13  1  0  0  0
 11 12  1  0  0  0
 13 14  1  0  0  0
  3 15  1  0  0  0
  3 16  1  0  0  0
  3 17  1  0  0  0
  4 18  1  0  0  0
  5 19  1  0  0  0
  6 20  1  0  0  0
  7 21  1  0  0  0
  8 22  1  0  0  0
  9 23  1  0  0  0
 10 24  1  0  0  0
 11 25  1  0  0  0
 11 26  1  0  0  0
 12 27  1  0  0  0
 13 28  1  0  0  0
 13 29  1  0  0  0
 14 30  1  0  0  0
 14 31  1  0  0  0
M  END
$$$$
