4ebv_ligand
  -I-interpret- 

 40 43  0  0  0  0  0  0  0  0999 V2000
   -8.0970    9.4540  -19.3230 C   0  0  0  0  0
   -8.9670    9.6000  -18.0830 C   0  0  0  0  0
   -9.3760    8.2090  -17.6400 C   0  0  0  0  0
  -10.3520    7.5220  -18.3540 C   0  0  0  0  0
  -10.7710    6.2450  -17.9820 C   0  0  0  0  0
  -10.2040    5.6370  -16.8490 C   0  0  0  0  0
   -9.2010    6.3470  -16.1420 C   0  0  0  0  0
   -8.7830    7.6220  -16.5230 C   0  0  0  0  0
  -10.5810    4.2550  -16.3930 C   0  0  0  0  0
  -10.8130    3.2300  -17.3270 C   0  0  0  0  0
  -11.1100    1.9260  -16.9370 C   0  0  0  0  0
  -11.2050    1.5980  -15.5830 C   0  0  0  0  0
  -11.4870    0.2640  -15.2660 N   0  0  0  0  0
  -11.1960   -0.8170  -16.2160 C   0  0  0  0  0
  -12.1920   -0.1090  -13.8060 S   0  0  0  0  0
  -13.5780    0.1550  -14.0790 O   0  0  0  0  0
  -11.7810   -1.4270  -13.3920 O   0  0  0  0  0
  -11.6040    1.0990  -12.6820 C   0  0  0  0  0
  -11.5770    1.1150  -11.3510 C   0  0  0  0  0
  -11.0760    2.3020  -10.9930 N   0  0  0  0  0
  -10.7580    3.0430  -12.1300 N   0  0  0  0  0
  -11.0890    2.3260  -13.1660 C   0  0  0  0  0
  -10.9890    2.6250  -14.6150 C   0  0  0  0  0
  -10.6700    3.9310  -15.0260 C   0  0  0  0  0
   -7.2167    8.8590  -19.0797 H   0  0  0  0  0
   -8.6667    8.9577  -20.1086 H   0  0  0  0  0
   -7.7866   10.4410  -19.6658 H   0  0  0  0  0
   -9.8483   10.2011  -18.3068 H   0  0  0  0  0
   -8.4148   10.1036  -17.2895 H   0  0  0  0  0
  -10.8014    7.9943  -19.2276 H   0  0  0  0  0
  -11.5308    5.7236  -18.5643 H   0  0  0  0  0
   -8.7408    5.8806  -15.2709 H   0  0  0  0  0
   -8.0109    8.1471  -15.9607 H   0  0  0  0  0
  -10.7587    3.4631  -18.3904 H   0  0  0  0  0
  -11.2692    1.1573  -17.6932 H   0  0  0  0  0
  -10.5104   -1.5286  -15.7559 H   0  0  0  0  0
  -12.1233   -1.3242  -16.4825 H   0  0  0  0  0
  -10.7390   -0.3979  -17.1125 H   0  0  0  0  0
  -11.9002    0.3163  -10.6834 H   0  0  0  0  0
  -10.4894    4.7021  -14.2771 H   0  0  0  0  0
  1  2  1  0  0  0
  2  3  1  0  0  0
  3  4  4  0  0  0
  3  8  4  0  0  0
  4  5  4  0  0  0
  5  6  4  0  0  0
  6  7  4  0  0  0
  6  9  1  0  0  0
  7  8  4  0  0  0
  9 10  4  0  0  0
  9 24  4  0  0  0
 10 11  4  0  0  0
 11 12  4  0  0  0
 12 13  1  0  0  0
 12 23  4  0  0  0
 13 14  1  0  0  0
 13 15  1  0  0  0
 15 16  2  0  0  0
 15 17  2  0  0  0
 15 18  1  0  0  0
 18 19  4  0  0  0
 18 22  4  0  0  0
 19 20  4  0  0  0
 20 21  4  0  0  0
 21 22  4  0  0  0
 22 23  1  0  0  0
 23 24  4  0  0  0
  1 25  1  0  0  0
  1 26  1  0  0  0
  1 27  1  0  0  0
  2 28  1  0  0  0
  2 29  1  0  0  0
  4 30  1  0  0  0
  5 31  1  0  0  0
  7 32  1  0  0  0
  8 33  1  0  0  0
 10 34  1  0  0  0
 11 35  1  0  0  0
 14 36  1  0  0  0
 14 37  1  0  0  0
 14 38  1  0  0  0
 19 39  1  0  0  0
 24 40  1  0  0  0
M  END
$$$$
