### 
### Created by X-TOOL on Mon Sep 10 21:13:04 2018
### 

@<TRIPOS>MOLECULE
3otf_ligand
   33    36     1     0     0
SMALL
GAST_HUCK


@<TRIPOS>ATOM
      1 P         -20.0210  -17.1830   13.4290 P.3       1 CMP         0.2557
      2 O1P       -20.8030  -16.9690   12.1580 O.co2     1 CMP        -0.6177
      3 O2P       -18.7120  -16.4340   13.3810 O.co2     1 CMP        -0.6177
      4 O5'       -20.9740  -16.7660   14.6380 O.3       1 CMP        -0.2514
      5 C5'       -22.1280  -17.5550   14.9150 C.3       1 CMP         0.1128
      6 C4'       -21.5840  -18.9570   15.1040 C.3       1 CMP         0.1242
      7 O4'       -22.5290  -19.9610   15.4140 O.3       1 CMP        -0.3360
      8 C3'       -20.9650  -19.4840   13.8440 C.3       1 CMP         0.1540
      9 O3'       -19.7820  -18.7420   13.6620 O.3       1 CMP        -0.2453
     10 C2'       -20.7750  -20.9580   14.1530 C.3       1 CMP         0.1439
     11 O2'       -19.5420  -21.2420   14.8310 O.3       1 CMP        -0.3832
     12 C1'       -21.9380  -21.2230   15.0890 C.3       1 CMP         0.2014
     13 N9        -22.9350  -21.9520   14.3010 N.pl3     1 CMP        -0.1919
     14 C8        -23.6240  -21.4600   13.2530 C.2       1 CMP         0.1123
     15 N7        -24.4660  -22.4030   12.7600 N.2       1 CMP        -0.2958
     16 C5        -24.3180  -23.5170   13.5090 C.ar      1 CMP         0.1045
     17 C6        -24.8890  -24.8860   13.5410 C.ar      1 CMP         0.1298
     18 N6        -25.8330  -25.2710   12.6520 N.pl3     1 CMP        -0.3152
     19 N1        -24.4660  -25.7380   14.5010 N.ar      1 CMP        -0.2698
     20 C2        -23.5400  -25.3700   15.4020 C.ar      1 CMP         0.0533
     21 N3        -22.9740  -24.1520   15.4270 N.ar      1 CMP        -0.2714
     22 C4        -23.3100  -23.2050   14.5260 C.ar      1 CMP         0.1613
     23 H         -22.8632  -17.5041   14.1119 H         1 CMP         0.0647
     24 H         -22.6666  -17.2011   15.7940 H         1 CMP         0.0647
     25 H         -20.8974  -18.8041   15.9367 H         1 CMP         0.0655
     26 H         -21.5264  -19.3898   12.9145 H         1 CMP         0.0712
     27 H         -20.7411  -21.5677   13.2501 H         1 CMP         0.0680
     28 H         -18.8050  -20.9638   14.2824 H         1 CMP         0.2101
     29 H         -21.6235  -21.7616   15.9829 H         1 CMP         0.0996
     30 H         -23.5200  -20.4495   12.8578 H         1 CMP         0.1349
     31 H         -26.1641  -24.6158   11.9439 H         1 CMP         0.1820
     32 H         -26.2137  -26.2165   12.6898 H         1 CMP         0.1820
     33 H         -23.2317  -26.0981   16.1523 H         1 CMP         0.0996
@<TRIPOS>BOND
     1    1    2 ar 
     2    1    3 ar 
     3    1    4 1  
     4    1    9 1  
     5    4    5 1  
     6    5    6 1  
     7    6    7 1  
     8    6    8 1  
     9    7   12 1  
    10    8    9 1  
    11    8   10 1  
    12   10   11 1  
    13   10   12 1  
    14   12   13 1  
    15   13   14 1  
    16   13   22 1  
    17   14   15 2  
    18   15   16 1  
    19   16   17 ar 
    20   16   22 ar 
    21   17   18 1  
    22   17   19 ar 
    23   19   20 ar 
    24   20   21 ar 
    25   21   22 ar 
    26    5   23 1  
    27    5   24 1  
    28    6   25 1  
    29    8   26 1  
    30   10   27 1  
    31   11   28 1  
    32   12   29 1  
    33   14   30 1  
    34   18   31 1  
    35   18   32 1  
    36   20   33 1  
@<TRIPOS>SUBSTRUCTURE
     1 CMP         1

