3otf_ligand
  -I-interpret- 

 34 37  0  0  0  0  0  0  0  0999 V2000
  -20.0210  -17.1830   13.4290 P   0  0  0  0  0
  -20.8030  -16.9690   12.1580 O   0  0  0  0  0
  -18.7120  -16.4340   13.3810 O   0  0  0  0  0
  -20.9740  -16.7660   14.6380 O   0  0  0  0  0
  -22.1280  -17.5550   14.9150 C   0  0  0  0  0
  -21.5840  -18.9570   15.1040 C   0  0  0  0  0
  -22.5290  -19.9610   15.4140 O   0  0  0  0  0
  -20.9650  -19.4840   13.8440 C   0  0  0  0  0
  -19.7820  -18.7420   13.6620 O   0  0  0  0  0
  -20.7750  -20.9580   14.1530 C   0  0  0  0  0
  -19.5420  -21.2420   14.8310 O   0  0  0  0  0
  -21.9380  -21.2230   15.0890 C   0  0  0  0  0
  -22.9350  -21.9520   14.3010 N   0  0  0  0  0
  -23.6240  -21.4600   13.2530 C   0  0  0  0  0
  -24.4660  -22.4030   12.7600 N   0  0  0  0  0
  -24.3180  -23.5170   13.5090 C   0  0  0  0  0
  -24.8890  -24.8860   13.5410 C   0  0  0  0  0
  -25.8330  -25.2710   12.6520 N   0  0  0  0  0
  -24.4660  -25.7380   14.5010 N   0  0  0  0  0
  -23.5400  -25.3700   15.4020 C   0  0  0  0  0
  -22.9740  -24.1520   15.4270 N   0  0  0  0  0
  -23.3100  -23.2050   14.5260 C   0  0  0  0  0
  -18.2295  -16.5825   14.1976 H   0  0  0  0  0
  -22.8632  -17.5041   14.1119 H   0  0  0  0  0
  -22.6666  -17.2011   15.7940 H   0  0  0  0  0
  -20.8974  -18.8041   15.9367 H   0  0  0  0  0
  -21.5264  -19.3898   12.9145 H   0  0  0  0  0
  -20.7411  -21.5677   13.2501 H   0  0  0  0  0
  -19.4799  -22.1853   14.9980 H   0  0  0  0  0
  -21.6235  -21.7616   15.9829 H   0  0  0  0  0
  -23.5200  -20.4495   12.8578 H   0  0  0  0  0
  -26.1641  -24.6158   11.9439 H   0  0  0  0  0
  -26.2137  -26.2165   12.6898 H   0  0  0  0  0
  -23.2317  -26.0981   16.1523 H   0  0  0  0  0
  1  2  2  0  0  0
  1  3  1  0  0  0
  1  4  1  0  0  0
  1  9  1  0  0  0
  4  5  1  0  0  0
  5  6  1  0  0  0
  6  7  1  0  0  0
  6  8  1  0  0  0
  7 12  1  0  0  0
  8  9  1  0  0  0
  8 10  1  0  0  0
 10 11  1  0  0  0
 10 12  1  0  0  0
 12 13  1  0  0  0
 13 14  4  0  0  0
 13 22  4  0  0  0
 14 15  4  0  0  0
 15 16  4  0  0  0
 16 17  4  0  0  0
 16 22  4  0  0  0
 17 18  1  0  0  0
 17 19  4  0  0  0
 19 20  4  0  0  0
 20 21  4  0  0  0
 21 22  4  0  0  0
  3 23  1  0  0  0
  5 24  1  0  0  0
  5 25  1  0  0  0
  6 26  1  0  0  0
  8 27  1  0  0  0
 10 28  1  0  0  0
 11 29  1  0  0  0
 12 30  1  0  0  0
 14 31  1  0  0  0
 18 32  1  0  0  0
 18 33  1  0  0  0
 20 34  1  0  0  0
M  END
$$$$
