3qbc_ligand
  -I-interpret- 

 15 16  0  0  0  0  0  0  0  0999 V2000
    0.7840   -1.6030   11.1050 O   0  0  0  0  0
    1.4320   -2.1050   12.0240 C   0  0  0  0  0
    1.5760   -1.5410   13.3630 C   0  0  0  0  0
    1.0910   -0.3620   13.9010 N   0  0  0  0  0
    2.0960   -3.3220   11.9820 N   0  0  0  0  0
    2.8220   -3.9250   13.0040 C   0  0  0  0  0
    3.4010   -5.1210   12.7400 N   0  0  0  0  0
    2.9280   -3.4320   14.2030 N   0  0  0  0  0
    2.2940   -2.2300   14.2640 C   0  0  0  0  0
    2.2610   -1.4570   15.4320 N   0  0  0  0  0
    1.5130   -0.3840   15.1440 C   0  0  0  0  0
    1.1930    0.8130   16.3880 S   0  0  0  0  0
    3.2960   -5.5462   11.8188 H   0  0  0  0  0
    3.4135   -3.8794   14.9805 H   0  0  0  0  0
    1.7887    0.4451   17.5188 H   0  0  0  0  0
  1  2  2  0  0  0
  2  3  1  0  0  0
  2  5  1  0  0  0
  3  4  4  0  0  0
  3  9  4  0  0  0
  4 11  4  0  0  0
  5  6  4  0  0  0
  6  7  2  0  0  0
  6  8  1  0  0  0
  8  9  1  0  0  0
  9 10  4  0  0  0
 10 11  4  0  0  0
 11 12  1  0  0  0
  7 13  1  0  0  0
  8 14  1  0  0  0
 12 15  1  0  0  0
M  END
$$$$
