5cnm_ligand
  -I-interpret- 

 31 33  0  0  0  0  0  0  0  0999 V2000
    3.2740   21.5530   16.9310 C   0  0  0  0  0
    4.5820   22.2020   17.2650 C   0  0  0  0  0
   -1.7430   23.6130   19.1620 C   0  0  0  0  0
    2.5760   20.9180   19.1360 C   0  0  0  0  0
    3.6380   18.8680   18.9880 C   0  0  0  0  0
    5.4560   22.5610   16.1770 C   0  0  0  0  0
    0.3940   23.3460   19.0080 C   0  0  0  0  0
    4.3670   20.7470   17.5440 C   0  0  0  0  0
    2.1590   21.6730   17.8920 C   0  0  0  0  0
    3.9570   20.3420   18.9040 C   0  0  0  0  0
   -1.3270   23.0240   20.2620 N   0  0  0  0  0
    0.0300   22.8530   20.1680 N   0  0  0  0  0
   -0.6830   23.8360   18.3370 N   0  0  0  0  0
    4.8410   20.8270   19.9870 N   0  3  0  0  0
    6.4980   23.2110   16.4610 O   0  0  0  0  0
    4.4590   18.1900   19.6630 O   0  0  0  0  0
    5.1170   22.1990   15.0170 O   0  0  0  0  0
    2.5950   18.5190   18.3720 O   0  0  0  0  0
    1.9870   23.4140   18.3300 S   0  0  0  0  0
    2.6719   21.5717   16.0226 H   0  0  0  0  0
    4.8883   23.0651   17.8560 H   0  0  0  0  0
   -2.7768   23.8812   18.9444 H   0  0  0  0  0
    1.8668   20.1162   19.3413 H   0  0  0  0  0
    2.5914   21.5908   19.9934 H   0  0  0  0  0
    4.9785   19.8739   17.3164 H   0  0  0  0  0
    1.2263   21.2886   17.4791 H   0  0  0  0  0
    4.4848   20.5025   20.8860 H   0  0  0  0  0
    5.7836   20.4650   19.8427 H   0  0  0  0  0
    4.8618   21.8467   19.9763 H   0  0  0  0  0
    5.1478   18.7672   20.0006 H   0  0  0  0  0
    4.2867   21.7194   15.0625 H   0  0  0  0  0
  1  2  1  0  0  0
  1  8  1  0  0  0
  9  1  1  0  0  0
  2  6  1  0  0  0
  8  2  1  0  0  0
  3 11  4  0  0  0
 13  3  4  0  0  0
  9  4  1  0  0  0
  4 10  1  0  0  0
 10  5  1  0  0  0
  5 16  1  0  0  0
  5 18  2  0  0  0
  6 15  2  0  0  0
  6 17  1  0  0  0
  7 12  4  0  0  0
  7 13  4  0  0  0
 19  7  1  0  0  0
 10  8  1  0  0  0
  9 19  1  0  0  0
 10 14  1  0  0  0
 11 12  4  0  0  0
  1 20  1  0  0  0
  2 21  1  0  0  0
  3 22  1  0  0  0
  4 23  1  0  0  0
  4 24  1  0  0  0
  8 25  1  0  0  0
  9 26  1  0  0  0
 14 27  1  0  0  0
 14 28  1  0  0  0
 14 29  1  0  0  0
 16 30  1  0  0  0
 17 31  1  0  0  0
M  END
$$$$
