6apz_ligand
  -I-interpret- 

 25 25  0  0  0  0  0  0  0  0999 V2000
   32.9190   78.0070   61.7970 C   0  0  0  0  0
   33.5800   75.9660   63.5690 C   0  0  0  0  0
   34.4230   77.0860   63.4480 C   0  0  0  0  0
   37.8630   80.8130   64.4730 C   0  0  0  0  0
   36.6590   80.8410   63.5060 C   0  0  0  0  0
   35.6470   79.9420   63.5540 C   0  0  0  0  0
   35.0220   79.3150   62.4280 C   0  0  0  0  0
   34.0960   78.1280   62.5660 C   0  0  0  0  0
   32.0690   76.8750   61.9220 C   0  0  0  0  0
   32.3920   75.8440   62.8130 C   0  0  0  0  0
   38.9690   81.0290   63.9430 O   0  0  0  0  0
   37.6190   80.5760   65.6730 O   0  0  0  0  0
   36.8170   81.5220   62.3510 O   0  0  0  0  0
   35.2530   79.6990   61.2670 O   0  0  0  0  0
   33.9380   74.9590   64.4640 O   0  0  0  0  0
   32.6567   78.7971   61.0935 H   0  0  0  0  0
   35.3348   77.1449   64.0423 H   0  0  0  0  0
   36.1204   81.4806   64.2052 H   0  0  0  0  0
   34.8319   80.5433   63.9567 H   0  0  0  0  0
   36.1233   79.0944   64.0468 H   0  0  0  0  0
   31.1616   76.8089   61.3217 H   0  0  0  0  0
   31.7460   74.9727   62.9204 H   0  0  0  0  0
   36.6741   80.4506   65.7876 H   0  0  0  0  0
   37.5592   82.1250   62.4353 H   0  0  0  0  0
   33.2769   74.2633   64.4423 H   0  0  0  0  0
  8  1  4  0  0  0
  1  9  4  0  0  0
  3  2  4  0  0  0
  2 10  4  0  0  0
  2 15  1  0  0  0
  8  3  4  0  0  0
  5  4  1  0  0  0
  4 11  2  0  0  0
  4 12  1  0  0  0
  6  5  1  0  0  0
  5 13  1  0  0  0
  7  6  1  0  0  0
  7  8  1  0  0  0
  7 14  2  0  0  0
  9 10  4  0  0  0
  1 16  1  0  0  0
  3 17  1  0  0  0
  5 18  1  0  0  0
  6 19  1  0  0  0
  6 20  1  0  0  0
  9 21  1  0  0  0
 10 22  1  0  0  0
 12 23  1  0  0  0
 13 24  1  0  0  0
 15 25  1  0  0  0
M  END
$$$$
