3kgu_ligand
  -I-interpret- 

 30 32  0  0  0  0  0  0  0  0999 V2000
   -0.8920    0.4980   -2.5460 C   0  0  0  0  0
    0.0280   -0.0750   -1.6780 C   0  0  0  0  0
   -0.1520    0.0340   -0.3340 O   0  0  0  0  0
    1.1220   -0.7650   -2.1840 C   0  0  0  0  0
    1.3000   -0.8730   -3.5580 C   0  0  0  0  0
    2.3770   -1.5490   -4.0480 O   0  0  0  0  0
    0.3760   -0.2970   -4.4240 C   0  0  0  0  0
    0.5490   -0.4020   -5.7940 C   0  0  0  0  0
    1.5170   -0.9970   -6.2650 O   0  0  0  0  0
   -0.3770    0.1900   -6.6300 C   0  0  0  0  0
   -1.4620    0.8580   -6.0810 C   0  0  0  0  0
   -1.6540    0.9730   -4.7330 O   0  0  0  0  0
   -0.7230    0.3920   -3.9200 C   0  0  0  0  0
   -0.2280    0.1090   -8.0100 C   0  0  0  0  0
   -0.1090    1.2690   -8.7670 C   0  0  0  0  0
    0.0380    1.1870  -10.1450 C   0  0  0  0  0
    0.0710   -0.0560  -10.7680 C   0  0  0  0  0
    0.2180   -0.1400  -12.1220 O   0  0  0  0  0
   -0.0450   -1.2160  -10.0100 C   0  0  0  0  0
   -0.1970   -1.1330   -8.6320 C   0  0  0  0  0
   -1.7524    1.0345   -2.1461 H   0  0  0  0  0
    0.5657   -0.4125    0.1211 H   0  0  0  0  0
    1.8408   -1.2217   -1.5036 H   0  0  0  0  0
    2.3545   -1.5321   -5.0076 H   0  0  0  0  0
   -2.1917    1.3099   -6.7529 H   0  0  0  0  0
   -0.1311    2.2431   -8.2784 H   0  0  0  0  0
    0.1276    2.0968  -10.7387 H   0  0  0  0  0
    0.2206   -1.0630  -12.3858 H   0  0  0  0  0
   -0.0166   -2.1906  -10.4974 H   0  0  0  0  0
   -0.2920   -2.0423   -8.0384 H   0  0  0  0  0
  1  2  4  0  0  0
  1 13  4  0  0  0
  2  3  1  0  0  0
  2  4  4  0  0  0
  4  5  4  0  0  0
  5  6  1  0  0  0
  5  7  4  0  0  0
  7  8  1  0  0  0
  7 13  4  0  0  0
  8  9  2  0  0  0
  8 10  1  0  0  0
 10 11  2  0  0  0
 10 14  1  0  0  0
 11 12  1  0  0  0
 12 13  1  0  0  0
 14 15  4  0  0  0
 14 20  4  0  0  0
 15 16  4  0  0  0
 16 17  4  0  0  0
 17 18  1  0  0  0
 17 19  4  0  0  0
 19 20  4  0  0  0
  1 21  1  0  0  0
  3 22  1  0  0  0
  4 23  1  0  0  0
  6 24  1  0  0  0
 11 25  1  0  0  0
 15 26  1  0  0  0
 16 27  1  0  0  0
 18 28  1  0  0  0
 19 29  1  0  0  0
 20 30  1  0  0  0
M  END
$$$$
