5wg4_ligand
  -I-interpret- 

 60 64  0  0  0  0  0  0  0  0999 V2000
  -16.4410   26.2180   15.9400 C   0  0  0  0  0
  -25.9760   25.8590   17.0810 N   0  0  0  0  0
  -17.7880   26.5120   15.2840 C   0  0  0  0  0
  -13.7570   26.2820   16.8930 O   0  0  0  0  0
  -18.5040   27.5440   15.6820 C   0  0  0  0  0
  -20.9250   28.2420   17.4380 O   0  0  0  0  0
  -25.7590   24.7640   17.8440 N   0  0  0  0  0
  -18.3320   31.5600   19.3990 N   0  3  0  0  0
  -17.9870   28.4490   16.7970 C   0  0  0  0  0
  -14.4360   26.9850   18.9640 N   0  0  0  0  0
  -18.8140   29.6520   17.2620 C   0  0  0  0  0
  -11.6070   24.6780   20.0490 N   0  0  0  0  0
  -19.2420   29.4090   18.7060 C   0  0  0  0  0
  -20.5880   28.6360   18.7400 C   0  0  0  0  0
  -22.2170   27.7210   17.2980 C   0  0  0  0  0
  -23.1730   28.4140   16.5170 C   0  0  0  0  0
  -24.4580   27.8930   16.3710 C   0  0  0  0  0
  -24.7710   26.7150   16.9860 C   0  0  0  0  0
  -24.5630   24.9100   18.1880 C   0  0  0  0  0
  -23.8090   25.9960   17.7840 C   0  0  0  0  0
  -22.5420   26.5090   17.9270 C   0  0  0  0  0
  -19.4390   30.6830   19.4570 C   0  0  0  0  0
  -18.2680   32.1070   18.0600 C   0  0  0  0  0
  -17.9440   30.9150   17.0700 C   0  0  0  0  0
  -16.8230   28.1970   17.3630 C   0  0  0  0  0
  -15.9990   26.9950   16.9040 C   0  0  0  0  0
  -14.6430   26.7140   17.5520 C   0  0  0  0  0
  -13.1370   26.7240   19.5570 C   0  0  0  0  0
  -12.9670   25.2360   19.8360 C   0  0  0  0  0
  -11.4580   23.4250   20.2850 C   0  0  0  0  0
  -12.6760   22.5140   20.3470 C   0  0  0  0  0
  -13.8490   22.9920   20.1650 C   0  0  0  0  0
  -14.0220   24.4500   19.8900 C   0  0  0  0  0
  -15.6970   25.1480   15.5290 F   0  0  0  0  0
  -18.1575   25.8679   14.4861 H   0  0  0  0  0
  -19.4665   27.7516   15.2145 H   0  0  0  0  0
  -17.4714   31.0578   19.6171 H   0  0  0  0  0
  -18.4388   32.3097   20.0823 H   0  0  0  0  0
  -15.1967   27.3554   19.5337 H   0  0  0  0  0
  -19.7280   29.7936   16.6852 H   0  0  0  0  0
  -18.4424   28.8355   19.1748 H   0  0  0  0  0
  -20.4887   27.7556   19.3749 H   0  0  0  0  0
  -21.3702   29.2802   19.1417 H   0  0  0  0  0
  -22.9052   29.3523   16.0312 H   0  0  0  0  0
  -25.2027   28.4192   15.7738 H   0  0  0  0  0
  -24.1022   24.1563   18.8265 H   0  0  0  0  0
  -21.7976   25.9804   18.5224 H   0  0  0  0  0
  -20.2851   31.1990   19.0031 H   0  0  0  0  0
  -19.5905   30.4215   20.5043 H   0  0  0  0  0
  -17.4945   32.8725   17.9989 H   0  0  0  0  0
  -19.2165   32.5741   17.7947 H   0  0  0  0  0
  -18.1388   31.2812   16.0620 H   0  0  0  0  0
  -16.9126   30.6187   17.2609 H   0  0  0  0  0
  -16.4496   28.8446   18.1563 H   0  0  0  0  0
  -13.0602   27.2714   20.4964 H   0  0  0  0  0
  -12.3601   27.0452   18.8632 H   0  0  0  0  0
  -10.4606   23.0139   20.4408 H   0  0  0  0  0
  -12.5485   21.4502   20.5472 H   0  0  0  0  0
  -14.7192   22.3372   20.2105 H   0  0  0  0  0
  -15.0190   24.8622   19.7344 H   0  0  0  0  0
  1  3  4  0  0  0
 26  1  4  0  0  0
  1 34  1  0  0  0
  7  2  4  0  0  0
 18  2  4  0  0  0
  3  5  4  0  0  0
 27  4  2  0  0  0
  9  5  4  0  0  0
 14  6  1  0  0  0
  6 15  1  0  0  0
 19  7  4  0  0  0
 22  8  1  0  0  0
 23  8  1  0  0  0
  9 11  1  0  0  0
 25  9  4  0  0  0
 10 27  1  0  0  0
 28 10  1  0  0  0
 11 13  1  0  0  0
 11 24  1  0  0  0
 29 12  4  0  0  0
 12 30  4  0  0  0
 13 14  1  0  0  0
 13 22  1  0  0  0
 15 16  4  0  0  0
 15 21  4  0  0  0
 16 17  4  0  0  0
 17 18  4  0  0  0
 20 18  4  0  0  0
 20 19  4  0  0  0
 21 20  4  0  0  0
 24 23  1  0  0  0
 26 25  4  0  0  0
 27 26  1  0  0  0
 28 29  1  0  0  0
 29 33  4  0  0  0
 30 31  4  0  0  0
 31 32  4  0  0  0
 32 33  4  0  0  0
  3 35  1  0  0  0
  5 36  1  0  0  0
  8 37  1  0  0  0
  8 38  1  0  0  0
 10 39  1  0  0  0
 11 40  1  0  0  0
 13 41  1  0  0  0
 14 42  1  0  0  0
 14 43  1  0  0  0
 16 44  1  0  0  0
 17 45  1  0  0  0
 19 46  1  0  0  0
 21 47  1  0  0  0
 22 48  1  0  0  0
 22 49  1  0  0  0
 23 50  1  0  0  0
 23 51  1  0  0  0
 24 52  1  0  0  0
 24 53  1  0  0  0
 25 54  1  0  0  0
 28 55  1  0  0  0
 28 56  1  0  0  0
 30 57  1  0  0  0
 31 58  1  0  0  0
 32 59  1  0  0  0
 33 60  1  0  0  0
M  END
$$$$
