4ozj_ligand
  -I-interpret- 

 42 44  0  0  0  0  0  0  0  0999 V2000
  -19.6130    2.5360   10.8390 P   0  0  0  0  0
  -20.0720    1.8830    9.5500 O   0  0  0  0  0
  -19.7990    1.6520   12.0740 O   0  0  0  0  0
  -20.1560    3.9400   11.0250 O   0  0  0  0  0
  -17.1070    3.5770   11.5460 P   0  0  0  0  0
  -17.2930    5.0360   11.1790 O   0  0  0  0  0
  -17.3770    3.0720   12.9460 O   0  0  0  0  0
  -18.0200    2.6810   10.5850 O   0  0  0  0  0
  -15.6830    3.1110   11.1320 O   0  0  0  0  0
  -15.0270    3.5370    9.9490 C   0  0  0  0  0
  -13.7160    2.7610    9.8880 C   0  0  0  0  0
  -12.9500    2.8390   11.1040 O   0  0  0  0  0
  -13.9260    1.2650    9.6500 C   0  0  0  0  0
  -14.1370    1.0150    8.2680 O   0  0  0  0  0
  -12.6370    0.6660   10.1920 C   0  0  0  0  0
  -11.5780    0.8410    9.2570 O   0  0  0  0  0
  -12.3700    1.5570   11.3820 C   0  0  0  0  0
  -12.9160    1.0390   12.6660 N   0  0  0  0  0
  -14.0660    1.4280   13.2750 C   0  0  0  0  0
  -14.2330    0.8100   14.4660 N   0  0  0  0  0
  -13.1560   -0.0160   14.6050 C   0  0  0  0  0
  -12.7000   -0.9620   15.6180 C   0  0  0  0  0
  -13.4270   -1.1830   16.7320 N   0  0  0  0  0
  -11.5230   -1.6180   15.3950 N   0  0  0  0  0
  -10.7950   -1.4130   14.2800 C   0  0  0  0  0
  -11.1460   -0.5550   13.3050 N   0  0  0  0  0
  -12.3260    0.1340   13.4210 C   0  0  0  0  0
  -19.4905    2.1221   12.8521 H   0  0  0  0  0
  -19.8326    4.2997   11.8542 H   0  0  0  0  0
  -17.0742    5.1622   10.2528 H   0  0  0  0  0
  -14.8475    4.6120    9.9641 H   0  0  0  0  0
  -15.6396    3.3442    9.0683 H   0  0  0  0  0
  -13.1877    3.2326    9.0594 H   0  0  0  0  0
  -14.8035    0.8363   10.1340 H   0  0  0  0  0
  -14.2675    0.0739    8.1305 H   0  0  0  0  0
  -12.7077   -0.3999   10.4090 H   0  0  0  0  0
  -10.7724    0.4586    9.6124 H   0  0  0  0  0
  -11.2896    1.6073   11.5176 H   0  0  0  0  0
  -14.7675    2.1491   12.8555 H   0  0  0  0  0
  -14.3065   -0.6863   16.8739 H   0  0  0  0  0
  -13.0974   -1.8469   17.4328 H   0  0  0  0  0
   -9.8684   -1.9746   14.1610 H   0  0  0  0  0
  1  2  2  0  0  0
  1  3  1  0  0  0
  1  4  1  0  0  0
  8  1  1  0  0  0
  5  6  1  0  0  0
  5  7  2  0  0  0
  5  8  1  0  0  0
  5  9  1  0  0  0
  9 10  1  0  0  0
 10 11  1  0  0  0
 11 12  1  0  0  0
 11 13  1  0  0  0
 12 17  1  0  0  0
 13 14  1  0  0  0
 13 15  1  0  0  0
 15 16  1  0  0  0
 15 17  1  0  0  0
 17 18  1  0  0  0
 18 19  4  0  0  0
 18 27  4  0  0  0
 19 20  4  0  0  0
 20 21  4  0  0  0
 21 22  4  0  0  0
 21 27  4  0  0  0
 22 23  1  0  0  0
 22 24  4  0  0  0
 24 25  4  0  0  0
 25 26  4  0  0  0
 26 27  4  0  0  0
  3 28  1  0  0  0
  4 29  1  0  0  0
  6 30  1  0  0  0
 10 31  1  0  0  0
 10 32  1  0  0  0
 11 33  1  0  0  0
 13 34  1  0  0  0
 14 35  1  0  0  0
 15 36  1  0  0  0
 16 37  1  0  0  0
 17 38  1  0  0  0
 19 39  1  0  0  0
 23 40  1  0  0  0
 23 41  1  0  0  0
 25 42  1  0  0  0
M  END
$$$$
