5dts_ligand
  -I-interpret- 

 24 25  0  0  0  0  0  0  0  0999 V2000
    6.6230  -17.5510   67.7830 O   0  0  0  0  0
    5.4290  -17.9310   67.7160 C   0  0  0  0  0
    4.4520  -17.1720   67.5130 O   0  0  0  0  0
    5.1500  -19.4050   67.8860 C   0  0  0  0  0
    3.8490  -19.8690   68.0160 C   0  0  0  0  0
    3.6040  -21.2230   68.1550 C   0  0  0  0  0
    4.6550  -22.1250   68.1650 C   0  0  0  0  0
    5.9710  -21.6860   68.0340 C   0  0  0  0  0
    6.2000  -20.3170   67.9010 C   0  0  0  0  0
    7.1030  -22.6470   68.0080 C   0  0  0  0  0
    8.3910  -22.2750   68.3730 C   0  0  0  0  0
    9.4480  -23.0930   68.3440 N   0  0  0  0  0
    9.2390  -24.3500   67.9380 C   0  0  0  0  0
    8.0040  -24.8250   67.5580 C   0  0  0  0  0
    6.9260  -23.9620   67.5960 C   0  0  0  0  0
    7.1901  -18.3085   67.9447 H   0  0  0  0  0
    3.0175  -19.1643   68.0086 H   0  0  0  0  0
    2.5798  -21.5817   68.2571 H   0  0  0  0  0
    4.4505  -23.1898   68.2766 H   0  0  0  0  0
    7.2234  -19.9539   67.8068 H   0  0  0  0  0
    8.5500  -21.2490   68.7047 H   0  0  0  0  0
   10.0885  -25.0322   67.9064 H   0  0  0  0  0
    7.8796  -25.8584   67.2345 H   0  0  0  0  0
    5.9365  -24.3127   67.3027 H   0  0  0  0  0
  1  2  1  0  0  0
  2  3  2  0  0  0
  2  4  1  0  0  0
  4  5  4  0  0  0
  4  9  4  0  0  0
  5  6  4  0  0  0
  6  7  4  0  0  0
  7  8  4  0  0  0
  8  9  4  0  0  0
  8 10  1  0  0  0
 10 11  4  0  0  0
 10 15  4  0  0  0
 11 12  4  0  0  0
 12 13  4  0  0  0
 13 14  4  0  0  0
 14 15  4  0  0  0
  1 16  1  0  0  0
  5 17  1  0  0  0
  6 18  1  0  0  0
  7 19  1  0  0  0
  9 20  1  0  0  0
 11 21  1  0  0  0
 13 22  1  0  0  0
 14 23  1  0  0  0
 15 24  1  0  0  0
M  END
$$$$
