### 
### Created by X-TOOL on Mon Aug  2 16:14:30 2021
### 

@<TRIPOS>MOLECULE
6jdl_ligand
   44    46     1     0     0
SMALL
GAST_HUCK


@<TRIPOS>ATOM
      1 PG         26.7490  -12.8720   -1.4090 P.3       1 AGS         0.2197
      2 S1G        26.4860  -11.0220   -0.8450 S.3       1 AGS        -0.0461
      3 O2G        27.0970  -12.9020   -2.9300 O.co2     1 AGS        -0.6077
      4 O3G        25.4100  -13.6340   -1.1850 O.co2     1 AGS        -0.6077
      5 PB         28.6420  -14.9150   -0.8700 P.3       1 AGS         0.3347
      6 O1B        28.6170  -15.7320    0.3650 O.co2     1 AGS        -0.6076
      7 O2B        27.9580  -15.6020   -2.0670 O.co2     1 AGS        -0.6076
      8 O3B        27.9030  -13.5150   -0.5570 O.3       1 AGS        -0.1434
      9 PA         30.7630  -15.0420   -2.7410 P.3       1 AGS         0.2978
     10 O1A        31.1510  -16.4770   -2.7860 O.co2     1 AGS        -0.6127
     11 O2A        29.7380  -14.6990   -3.8270 O.co2     1 AGS        -0.6127
     12 O3A        30.1590  -14.6140   -1.3190 O.3       1 AGS        -0.1263
     13 O5'        32.0430  -14.1470   -3.0080 O.3       1 AGS        -0.2476
     14 C5'        33.0540  -13.7730   -2.0590 C.3       1 AGS         0.1128
     15 C4'        34.2520  -13.3250   -2.8650 C.3       1 AGS         0.1189
     16 O4'        35.4600  -13.7940   -2.2320 O.3       1 AGS        -0.3364
     17 C3'        34.3270  -13.8820   -4.2800 C.3       1 AGS         0.1149
     18 O3'        35.1370  -13.0520   -5.1050 O.3       1 AGS        -0.3864
     19 C2'        34.9780  -15.2490   -4.0540 C.3       1 AGS         0.1385
     20 O2'        35.6880  -15.7150   -5.1990 O.3       1 AGS        -0.3836
     21 C1'        35.9290  -14.9630   -2.8840 C.3       1 AGS         0.2010
     22 N9         36.0410  -16.0300   -1.8820 N.pl3     1 AGS        -0.1919
     23 C8         35.2090  -16.2520   -0.8160 C.2       1 AGS         0.1123
     24 N7         35.5720  -17.2580   -0.0560 N.2       1 AGS        -0.2958
     25 C5         36.7340  -17.7230   -0.6600 C.ar      1 AGS         0.1045
     26 C6         37.6140  -18.7770   -0.3390 C.ar      1 AGS         0.1298
     27 N6         37.4560  -19.5870    0.7090 N.pl3     1 AGS        -0.3152
     28 N1         38.6790  -18.9720   -1.1510 N.ar      1 AGS        -0.2698
     29 C2         38.8440  -18.1650   -2.2020 C.ar      1 AGS         0.0533
     30 N3         38.0840  -17.1410   -2.5980 N.ar      1 AGS        -0.2714
     31 C4         37.0360  -16.9710   -1.7810 C.ar      1 AGS         0.1613
     32 H1         26.2611  -11.0002    0.1374 H         1 AGS         0.1255
     33 H2         33.3205  -14.6337   -1.4281 H         1 AGS         0.0648
     34 H3         32.6938  -12.9503   -1.4239 H         1 AGS         0.0648
     35 H4         34.2447  -12.2259   -2.9093 H         1 AGS         0.0651
     36 H5         33.3268  -13.9839   -4.7263 H         1 AGS         0.0648
     37 H6         35.1711  -13.4158   -5.9819 H         1 AGS         0.2100
     38 H7         34.2228  -15.9981   -3.7737 H         1 AGS         0.0676
     39 H8         36.3755  -15.0967   -5.4172 H         1 AGS         0.2101
     40 H9         36.9319  -14.7786   -3.2964 H         1 AGS         0.0996
     41 H10        34.3253  -15.6473   -0.6174 H         1 AGS         0.1349
     42 H11        38.1375  -20.3387    0.8862 H         1 AGS         0.1820
     43 H12        36.6525  -19.4607    1.3410 H         1 AGS         0.1820
     44 H13        39.7129  -18.3689   -2.8172 H         1 AGS         0.0996
@<TRIPOS>BOND
     1    1    2 1  
     2    1    3 ar 
     3    1    4 ar 
     4    8    1 1  
     5    5    6 ar 
     6    5    7 ar 
     7    5    8 1  
     8   12    5 1  
     9    9   10 ar 
    10    9   11 ar 
    11    9   12 1  
    12    9   13 1  
    13   13   14 1  
    14   14   15 1  
    15   15   16 1  
    16   15   17 1  
    17   16   21 1  
    18   17   18 1  
    19   17   19 1  
    20   19   20 1  
    21   19   21 1  
    22   21   22 1  
    23   22   23 1  
    24   22   31 1  
    25   23   24 2  
    26   24   25 1  
    27   25   26 ar 
    28   25   31 ar 
    29   26   27 1  
    30   26   28 ar 
    31   28   29 ar 
    32   29   30 ar 
    33   30   31 ar 
    34    2   32 1  
    35   14   33 1  
    36   14   34 1  
    37   15   35 1  
    38   17   36 1  
    39   18   37 1  
    40   19   38 1  
    41   20   39 1  
    42   21   40 1  
    43   23   41 1  
    44   27   42 1  
    45   27   43 1  
    46   29   44 1  
@<TRIPOS>SUBSTRUCTURE
     1 AGS         1

