6jdl_ligand
  -I-interpret- 

 47 49  0  0  0  0  0  0  0  0999 V2000
   26.7490  -12.8720   -1.4090 P   0  0  0  0  0
   26.4860  -11.0220   -0.8450 S   0  0  0  0  0
   27.0970  -12.9020   -2.9300 O   0  0  0  0  0
   25.4100  -13.6340   -1.1850 O   0  0  0  0  0
   28.6420  -14.9150   -0.8700 P   0  0  0  0  0
   28.6170  -15.7320    0.3650 O   0  0  0  0  0
   27.9580  -15.6020   -2.0670 O   0  0  0  0  0
   27.9030  -13.5150   -0.5570 O   0  0  0  0  0
   30.7630  -15.0420   -2.7410 P   0  0  0  0  0
   31.1510  -16.4770   -2.7860 O   0  0  0  0  0
   29.7380  -14.6990   -3.8270 O   0  0  0  0  0
   30.1590  -14.6140   -1.3190 O   0  0  0  0  0
   32.0430  -14.1470   -3.0080 O   0  0  0  0  0
   33.0540  -13.7730   -2.0590 C   0  0  0  0  0
   34.2520  -13.3250   -2.8650 C   0  0  0  0  0
   35.4600  -13.7940   -2.2320 O   0  0  0  0  0
   34.3270  -13.8820   -4.2800 C   0  0  0  0  0
   35.1370  -13.0520   -5.1050 O   0  0  0  0  0
   34.9780  -15.2490   -4.0540 C   0  0  0  0  0
   35.6880  -15.7150   -5.1990 O   0  0  0  0  0
   35.9290  -14.9630   -2.8840 C   0  0  0  0  0
   36.0410  -16.0300   -1.8820 N   0  0  0  0  0
   35.2090  -16.2520   -0.8160 C   0  0  0  0  0
   35.5720  -17.2580   -0.0560 N   0  0  0  0  0
   36.7340  -17.7230   -0.6600 C   0  0  0  0  0
   37.6140  -18.7770   -0.3390 C   0  0  0  0  0
   37.4560  -19.5870    0.7090 N   0  0  0  0  0
   38.6790  -18.9720   -1.1510 N   0  0  0  0  0
   38.8440  -18.1650   -2.2020 C   0  0  0  0  0
   38.0840  -17.1410   -2.5980 N   0  0  0  0  0
   37.0360  -16.9710   -1.7810 C   0  0  0  0  0
   27.6144  -10.3410   -1.0237 H   0  0  0  0  0
   27.9221  -12.4340   -3.0776 H   0  0  0  0  0
   28.0057  -15.0272   -2.8344 H   0  0  0  0  0
   29.5111  -13.7680   -3.7687 H   0  0  0  0  0
   33.3103  -14.6106   -1.4104 H   0  0  0  0  0
   32.7012  -12.9745   -1.4063 H   0  0  0  0  0
   34.1483  -12.2410   -2.9119 H   0  0  0  0  0
   33.3637  -13.9391   -4.7869 H   0  0  0  0  0
   35.1715  -13.4197   -5.9911 H   0  0  0  0  0
   34.2521  -16.0378   -3.8565 H   0  0  0  0  0
   36.0759  -16.5719   -5.0068 H   0  0  0  0  0
   36.9243  -14.8617   -3.3166 H   0  0  0  0  0
   34.3245  -15.6468   -0.6172 H   0  0  0  0  0
   36.6603  -19.4619    1.3348 H   0  0  0  0  0
   38.1308  -20.3314    0.8845 H   0  0  0  0  0
   39.7177  -18.3700   -2.8207 H   0  0  0  0  0
  1  2  1  0  0  0
  1  3  1  0  0  0
  1  4  2  0  0  0
  8  1  1  0  0  0
  5  6  2  0  0  0
  5  7  1  0  0  0
  5  8  1  0  0  0
 12  5  1  0  0  0
  9 10  2  0  0  0
  9 11  1  0  0  0
  9 12  1  0  0  0
  9 13  1  0  0  0
 13 14  1  0  0  0
 14 15  1  0  0  0
 15 16  1  0  0  0
 15 17  1  0  0  0
 16 21  1  0  0  0
 17 18  1  0  0  0
 17 19  1  0  0  0
 19 20  1  0  0  0
 19 21  1  0  0  0
 21 22  1  0  0  0
 22 23  4  0  0  0
 22 31  4  0  0  0
 23 24  4  0  0  0
 24 25  4  0  0  0
 25 26  4  0  0  0
 25 31  4  0  0  0
 26 27  1  0  0  0
 26 28  4  0  0  0
 28 29  4  0  0  0
 29 30  4  0  0  0
 30 31  4  0  0  0
  2 32  1  0  0  0
  3 33  1  0  0  0
  7 34  1  0  0  0
 11 35  1  0  0  0
 14 36  1  0  0  0
 14 37  1  0  0  0
 15 38  1  0  0  0
 17 39  1  0  0  0
 18 40  1  0  0  0
 19 41  1  0  0  0
 20 42  1  0  0  0
 21 43  1  0  0  0
 23 44  1  0  0  0
 27 45  1  0  0  0
 27 46  1  0  0  0
 29 47  1  0  0  0
M  END
$$$$
