3s7l_ligand
  -I-interpret- 

 46 49  0  0  0  0  0  0  0  0999 V2000
   17.5530  -11.1500   18.7230 C   0  0  0  0  0
   15.4940  -10.1650   17.9930 N   0  0  0  0  0
   14.1940   -6.0490   18.9220 O   0  0  0  0  0
   16.0590  -11.0770   18.9610 C   0  0  0  0  0
   15.3080  -10.5770   16.7340 N   0  0  0  0  0
   15.1170   -8.8810   18.2090 C   0  0  0  0  0
   15.1850   -5.0630   17.0950 N   0  0  0  0  0
   14.6440   -8.4220   17.0050 C   0  0  0  0  0
   14.8540   -6.5860   15.4850 N   0  0  0  0  0
   14.7910   -9.5180   16.1320 C   0  0  0  0  0
   16.2330   -4.8690   15.0200 N   0  0  0  0  0
   14.1210   -7.0650   16.6860 C   0  0  0  0  0
    9.6540   -2.9330   13.8610 N   0  0  0  0  0
   14.4900   -6.0280   17.7410 C   0  0  0  0  0
    8.2430   -2.9410   15.7830 N   0  0  0  0  0
   15.2950   -5.4200   15.7960 C   0  0  0  0  0
   15.7030   -3.8990   17.7710 C   0  0  0  0  0
   12.5900   -7.1210   16.5840 C   0  0  0  0  0
   11.8280   -8.2480   16.9570 C   0  0  0  0  0
   10.4420   -8.2380   16.8440 C   0  0  0  0  0
    9.7850   -7.1070   16.3670 C   0  0  0  0  0
   10.5050   -5.9600   15.9850 C   0  0  0  0  0
   11.8980   -5.9940   16.1090 C   0  0  0  0  0
    9.8730   -4.7240   15.4980 C   0  0  0  0  0
   10.2300   -4.0780   14.3190 C   0  0  0  0  0
    8.6780   -2.4150   14.6260 C   0  0  0  0  0
    8.8560   -4.0840   16.1890 C   0  0  0  0  0
   17.7413  -11.5108   17.7118 H   0  0  0  0  0
   17.9876  -10.1576   18.8429 H   0  0  0  0  0
   18.0014  -11.8340   19.4436 H   0  0  0  0  0
   15.8566  -10.7242   19.9722 H   0  0  0  0  0
   15.6125  -12.0653   18.8512 H   0  0  0  0  0
   15.1771   -8.3271   19.1458 H   0  0  0  0  0
   14.9802   -7.0787   14.6009 H   0  0  0  0  0
   14.5104   -9.4961   15.0790 H   0  0  0  0  0
   16.8717   -4.1743   15.4071 H   0  0  0  0  0
   16.7894   -3.8835   17.6842 H   0  0  0  0  0
   15.2879   -3.0005   17.3144 H   0  0  0  0  0
   15.4218   -3.9364   18.8234 H   0  0  0  0  0
   12.3312   -9.1366   17.3381 H   0  0  0  0  0
    9.8677   -9.1192   17.1300 H   0  0  0  0  0
    8.6978   -7.1101   16.2884 H   0  0  0  0  0
   12.4699   -5.1104   15.8256 H   0  0  0  0  0
   11.0266   -4.5195   13.7201 H   0  0  0  0  0
    8.2025   -1.4969   14.2809 H   0  0  0  0  0
    8.5237   -4.5300   17.1264 H   0  0  0  0  0
  4  1  1  0  0  0
  2  4  1  0  0  0
  5  2  4  0  0  0
  6  2  4  0  0  0
 14  3  2  0  0  0
 10  5  4  0  0  0
  8  6  4  0  0  0
 14  7  1  0  0  0
  7 16  4  0  0  0
  7 17  1  0  0  0
  8 10  4  0  0  0
 12  8  1  0  0  0
 12  9  1  0  0  0
  9 16  1  0  0  0
 16 11  2  0  0  0
 12 14  1  0  0  0
 18 12  1  0  0  0
 25 13  4  0  0  0
 13 26  4  0  0  0
 26 15  4  0  0  0
 15 27  4  0  0  0
 18 19  4  0  0  0
 23 18  4  0  0  0
 20 19  4  0  0  0
 21 20  4  0  0  0
 22 21  4  0  0  0
 22 23  4  0  0  0
 24 22  1  0  0  0
 24 25  4  0  0  0
 24 27  4  0  0  0
  1 28  1  0  0  0
  1 29  1  0  0  0
  1 30  1  0  0  0
  4 31  1  0  0  0
  4 32  1  0  0  0
  6 33  1  0  0  0
  9 34  1  0  0  0
 10 35  1  0  0  0
 11 36  1  0  0  0
 17 37  1  0  0  0
 17 38  1  0  0  0
 17 39  1  0  0  0
 19 40  1  0  0  0
 20 41  1  0  0  0
 21 42  1  0  0  0
 23 43  1  0  0  0
 25 44  1  0  0  0
 26 45  1  0  0  0
 27 46  1  0  0  0
M  END
$$$$
