3rxj_ligand
  -I-interpret- 

 22 22  0  0  0  0  0  0  0  0999 V2000
   -0.2630  -15.1340   13.4860 C   0  0  0  0  0
   -0.5370  -16.2780   12.7900 O   0  0  0  0  0
   -0.9620  -14.9950   14.7640 C   0  0  0  0  0
   -0.7010  -13.9270   15.6300 C   0  0  0  0  0
   -1.9090  -15.9640   15.1260 C   0  0  0  0  0
   -1.2860  -13.8840   16.8890 C   0  0  0  0  0
   -2.4990  -15.9310   16.3820 C   0  0  0  0  0
   -2.1520  -14.9190   17.3100 C   0  0  0  0  0
   -2.7620  -14.8980   18.5790 N   0  0  0  0  0
   -2.5200  -13.7590   19.4550 C   0  0  0  0  0
   -2.1750  -12.6040   18.9560 N   0  0  0  0  0
   -2.6050  -14.0820   20.8430 N   0  0  0  0  0
    0.5440  -14.3600   12.9560 O   0  0  0  0  0
   -1.1692  -16.8070   13.2821 H   0  0  0  0  0
   -0.0346  -13.1242   15.3146 H   0  0  0  0  0
   -2.1829  -16.7463   14.4181 H   0  0  0  0  0
   -1.0762  -13.0478   17.5560 H   0  0  0  0  0
   -3.2336  -16.6883   16.6556 H   0  0  0  0  0
   -3.3622  -15.6660   18.8795 H   0  0  0  0  0
   -2.0732  -12.4942   17.9470 H   0  0  0  0  0
   -2.3848  -13.3759   21.5454 H   0  0  0  0  0
   -2.8859  -15.0189   21.1323 H   0  0  0  0  0
  1  2  1  0  0  0
  1  3  1  0  0  0
  1 13  2  0  0  0
  3  4  4  0  0  0
  3  5  4  0  0  0
  4  6  4  0  0  0
  5  7  4  0  0  0
  6  8  4  0  0  0
  7  8  4  0  0  0
  8  9  1  0  0  0
  9 10  1  0  0  0
 10 11  2  0  0  0
 10 12  1  0  0  0
  2 14  1  0  0  0
  4 15  1  0  0  0
  5 16  1  0  0  0
  6 17  1  0  0  0
  7 18  1  0  0  0
  9 19  1  0  0  0
 11 20  1  0  0  0
 12 21  1  0  0  0
 12 22  1  0  0  0
M  END
$$$$
