1clu_ligand
  -I-interpret- 

 53 55  0  0  0  0  0  0  0  0999 V2000
    5.6850   33.3690   24.7920 C   0  0  0  0  0
    5.4530   33.3920   23.4430 N   0  0  0  0  0
    5.6370   32.6640   22.1030 P   0  0  0  0  0
    5.4220   31.2260   22.3480 O   0  0  0  0  0
    4.6450   33.1780   21.1760 O   0  0  0  0  0
    7.1290   32.9080   21.5480 N   0  0  0  0  0
    7.5520   32.3960   20.0850 P   0  0  0  0  0
    7.6270   30.9150   20.0000 O   0  0  0  0  0
    6.7110   32.9950   19.0510 O   0  0  0  0  0
    9.0390   32.9840   19.9020 O   0  0  0  0  0
    9.5350   34.4850   19.5530 P   0  0  0  0  0
    9.5520   34.7300   18.0710 O   0  0  0  0  0
    8.7410   35.4670   20.3200 O   0  0  0  0  0
   11.0240   34.4410   20.0970 O   0  0  0  0  0
   11.3590   34.1760   21.4430 C   0  0  0  0  0
   12.7400   34.6550   21.7240 C   0  0  0  0  0
   13.7150   33.9180   20.9460 O   0  0  0  0  0
   13.5560   36.0260   19.9230 C   0  0  0  0  0
   14.3140   37.1610   19.5760 O   0  0  0  0  0
   12.9730   36.1350   21.3500 C   0  0  0  0  0
   13.8980   36.7400   22.2500 O   0  0  0  0  0
   14.4370   34.8000   20.0490 C   0  0  0  0  0
   14.6250   34.0700   18.7920 N   0  0  0  0  0
   15.7880   33.5970   18.3170 C   0  0  0  0  0
   16.9900   33.7790   18.8720 N   0  0  0  0  0
   18.0140   33.2770   18.1650 C   0  0  0  0  0
   19.2830   33.5280   18.5300 N   0  0  0  0  0
   17.7890   32.4900   17.0170 N   0  0  0  0  0
   16.5770   32.4560   16.3380 C   0  0  0  0  0
   16.5080   31.8990   15.2410 O   0  0  0  0  0
   15.5050   32.9840   17.1350 C   0  0  0  0  0
   14.1160   32.9560   16.9170 N   0  0  0  0  0
   13.6690   33.5400   17.9640 C   0  0  0  0  0
    5.2158   32.4856   25.2251 H   0  0  0  0  0
    6.7592   33.3376   24.9741 H   0  0  0  0  0
    5.2641   34.2656   25.2471 H   0  0  0  0  0
    4.9450   34.2539   23.2445 H   0  0  0  0  0
    6.0861   30.9044   22.9621 H   0  0  0  0  0
    7.8119   33.3922   22.1308 H   0  0  0  0  0
    8.1912   30.5835   20.7024 H   0  0  0  0  0
   10.0845   34.0559   17.6424 H   0  0  0  0  0
   11.3072   33.1021   21.6220 H   0  0  0  0  0
   10.6581   34.6946   22.0971 H   0  0  0  0  0
   12.8554   34.5130   22.7985 H   0  0  0  0  0
   12.7959   35.9572   19.1448 H   0  0  0  0  0
   13.7334   37.9220   19.5027 H   0  0  0  0  0
   12.0771   36.7537   21.4010 H   0  0  0  0  0
   14.0300   37.6580   22.0022 H   0  0  0  0  0
   15.4270   35.1090   20.3845 H   0  0  0  0  0
   19.4734   34.1040   19.3500 H   0  0  0  0  0
   20.0556   33.1425   17.9870 H   0  0  0  0  0
   18.5557   31.9157   16.6666 H   0  0  0  0  0
   12.6035   33.6112   18.1824 H   0  0  0  0  0
  1  2  1  0  0  0
  2  3  1  0  0  0
  3  6  1  0  0  0
  3  5  2  0  0  0
  3  4  1  0  0  0
  6  7  1  0  0  0
  7 10  1  0  0  0
  7  9  2  0  0  0
  7  8  1  0  0  0
 10 11  1  0  0  0
 11 14  1  0  0  0
 11 13  2  0  0  0
 11 12  1  0  0  0
 14 15  1  0  0  0
 15 16  1  0  0  0
 16 20  1  0  0  0
 16 17  1  0  0  0
 17 22  1  0  0  0
 22 23  1  0  0  0
 22 18  1  0  0  0
 18 20  1  0  0  0
 18 19  1  0  0  0
 20 21  1  0  0  0
 23 33  4  0  0  0
 23 24  4  0  0  0
 24 31  4  0  0  0
 24 25  1  0  0  0
 25 26  2  0  0  0
 26 28  1  0  0  0
 26 27  1  0  0  0
 28 29  1  0  0  0
 29 31  1  0  0  0
 29 30  2  0  0  0
 31 32  4  0  0  0
 32 33  4  0  0  0
  1 34  1  0  0  0
  1 35  1  0  0  0
  1 36  1  0  0  0
  2 37  1  0  0  0
  4 38  1  0  0  0
  6 39  1  0  0  0
  8 40  1  0  0  0
 12 41  1  0  0  0
 15 42  1  0  0  0
 15 43  1  0  0  0
 16 44  1  0  0  0
 18 45  1  0  0  0
 19 46  1  0  0  0
 20 47  1  0  0  0
 21 48  1  0  0  0
 22 49  1  0  0  0
 27 50  1  0  0  0
 27 51  1  0  0  0
 28 52  1  0  0  0
 33 53  1  0  0  0
M  END
$$$$
