### 
### Created by X-TOOL on Mon Sep 10 21:12:47 2018
### 

@<TRIPOS>MOLECULE
1clu_ligand
   50    52     1     0     0
SMALL
GAST_HUCK


@<TRIPOS>ATOM
      1 H1          5.2607   34.2734   25.2525 H         1 DBG         0.0439
      2 C3G         5.6850   33.3690   24.7920 C.3       1 DBG         0.0130
      3 N3G         5.4530   33.3920   23.4430 N.am      1 DBG        -0.2825
      4 PG          5.6370   32.6640   22.1030 P.3       1 DBG         0.1806
      5 O1G         5.4220   31.2260   22.3480 O.co2     1 DBG        -0.5903
      6 O2G         4.6450   33.1780   21.1760 O.co2     1 DBG        -0.5903
      7 N3B         7.1290   32.9080   21.5480 N.am      1 DBG        -0.1696
      8 PB          7.5520   32.3960   20.0850 P.3       1 DBG         0.2567
      9 O1B         7.6270   30.9150   20.0000 O.co2     1 DBG        -0.6256
     10 O2B         6.7110   32.9950   19.0510 O.co2     1 DBG        -0.6256
     11 O3A         9.0390   32.9840   19.9020 O.3       1 DBG        -0.1429
     12 PA          9.5350   34.4850   19.5530 P.3       1 DBG         0.2949
     13 O1A         9.5520   34.7300   18.0710 O.co2     1 DBG        -0.6129
     14 O2A         8.7410   35.4670   20.3200 O.co2     1 DBG        -0.6129
     15 O5'        11.0240   34.4410   20.0970 O.3       1 DBG        -0.2478
     16 C5'        11.3590   34.1760   21.4430 C.3       1 DBG         0.1128
     17 C4'        12.7400   34.6550   21.7240 C.3       1 DBG         0.1189
     18 O4'        13.7150   33.9180   20.9460 O.3       1 DBG        -0.3363
     19 C2'        13.5560   36.0260   19.9230 C.3       1 DBG         0.1387
     20 O2'        14.3140   37.1610   19.5760 O.3       1 DBG        -0.3836
     21 C3'        12.9730   36.1350   21.3500 C.3       1 DBG         0.1150
     22 O3'        13.8980   36.7400   22.2500 O.3       1 DBG        -0.3864
     23 C1'        14.4370   34.8000   20.0490 C.3       1 DBG         0.1992
     24 N9         14.6250   34.0700   18.7920 N.pl3     1 DBG        -0.2101
     25 C4         15.7880   33.5970   18.3170 C.2       1 DBG         0.1159
     26 N3         16.9900   33.7790   18.8720 N.2       1 DBG        -0.2765
     27 C2         18.0140   33.2770   18.1650 C.2       1 DBG         0.2340
     28 N2         19.2830   33.5280   18.5300 N.pl3     1 DBG        -0.2807
     29 N1         17.7890   32.4900   17.0170 N.am      1 DBG        -0.1839
     30 C6         16.5770   32.4560   16.3380 C.2       1 DBG         0.2135
     31 O6         16.5080   31.8990   15.2410 O.2       1 DBG        -0.4091
     32 C5         15.5050   32.9840   17.1350 C.2       1 DBG         0.0926
     33 N7         14.1160   32.9560   16.9170 N.2       1 DBG        -0.3235
     34 C8         13.6690   33.5400   17.9640 C.2       1 DBG         0.0957
     35 H2          6.7688   33.3373   24.9772 H         1 DBG         0.0439
     36 H3          5.2119   32.4779   25.2303 H         1 DBG         0.0439
     37 H4          4.9549   34.2370   23.2484 H         1 DBG         0.1649
     38 H5          7.7985   33.3827   22.1194 H         1 DBG         0.2167
     39 H6         11.3042   33.0928   21.6263 H         1 DBG         0.0648
     40 H7         10.6507   34.6962   22.1046 H         1 DBG         0.0648
     41 H8         12.9373   34.5164   22.7972 H         1 DBG         0.0651
     42 H9         12.7612   35.8756   19.1775 H         1 DBG         0.0676
     43 H10        13.7616   37.9330   19.6137 H         1 DBG         0.2101
     44 H11        12.0311   36.7031   21.3527 H         1 DBG         0.0648
     45 H12        14.1098   37.6143   21.9444 H         1 DBG         0.2100
     46 H13        15.4168   35.0811   20.4625 H         1 DBG         0.0998
     47 H14        19.4752   34.1002   19.3646 H         1 DBG         0.1897
     48 H15        20.0632   33.1482   17.9751 H         1 DBG         0.1897
     49 H16        18.5407   31.9270   16.6735 H         1 DBG         0.2515
     50 H17        12.6045   33.6111   18.1822 H         1 DBG         0.1179
@<TRIPOS>BOND
     1    2    3 1  
     2    3    4 am 
     3    4    7 am 
     4    4    6 ar 
     5    4    5 ar 
     6    7    8 1  
     7    8   11 1  
     8    8   10 ar 
     9    8    9 ar 
    10   11   12 1  
    11   12   15 1  
    12   12   14 ar 
    13   12   13 ar 
    14   15   16 1  
    15   16   17 1  
    16   17   21 1  
    17   17   18 1  
    18   18   23 1  
    19   23   24 1  
    20   23   19 1  
    21   19   21 1  
    22   19   20 1  
    23   21   22 1  
    24   24   34 1  
    25   24   25 1  
    26   25   32 2  
    27   25   26 1  
    28   26   27 2  
    29   27   29 am 
    30   27   28 1  
    31   29   30 am 
    32   30   32 1  
    33   30   31 2  
    34   32   33 1  
    35   33   34 2  
    36    2    1 1  
    37    2   35 1  
    38    2   36 1  
    39    3   37 1  
    40    7   38 1  
    41   16   39 1  
    42   16   40 1  
    43   17   41 1  
    44   19   42 1  
    45   20   43 1  
    46   21   44 1  
    47   22   45 1  
    48   23   46 1  
    49   28   47 1  
    50   28   48 1  
    51   29   49 1  
    52   34   50 1  
@<TRIPOS>SUBSTRUCTURE
     1 DBG         1

