5q1i_ligand
  -I-interpret- 

 53 56  0  0  0  0  0  0  0  0999 V2000
   39.2590   14.4900    0.1470 C   0  0  0  0  0
   38.3930   14.9250    1.1380 C   0  0  0  0  0
   38.8700   15.2130    2.4030 C   0  0  0  0  0
   41.5340   13.8680   -0.6650 C   0  0  0  0  0
   42.9370   12.7860   -2.0030 C   0  0  0  0  0
   43.1900   11.0170   -3.7730 C   0  0  0  0  0
   42.4780   11.5100    0.1670 C   0  0  0  0  0
   42.0460   10.6860    3.5130 C   0  0  0  0  0
   40.1770    9.6330    2.1730 C   0  0  0  0  0
   42.8100    9.7740    4.2530 C   0  0  0  0  0
   41.7600   11.9120    4.0710 C   0  0  0  0  0
   43.0010   11.3300    6.0980 C   0  0  0  0  0
   43.1720   12.9150    7.9300 C   0  0  0  0  0
   43.9310   11.8880   -2.8210 C   0  0  0  0  0
   44.8910   12.7220   -3.6660 C   0  0  0  0  0
   42.5650   13.9440   -2.5860 O   0  0  0  0  0
   41.6680   14.6320   -1.7260 N   0  0  0  0  0
   40.6360   14.3360    0.4160 C   0  0  0  0  0
   40.2200   15.0690    2.6930 C   0  0  0  0  0
   41.0890   14.6350    1.7020 C   0  0  0  0  0
   42.7530   14.4760    2.1130 Cl  0  0  0  0  0
   42.3240   12.6660   -0.7830 C   0  0  0  0  0
   43.4240   10.7340    0.0550 O   0  0  0  0  0
   41.5350   11.3740    1.1290 N   0  0  0  0  0
   41.5540   10.2800    2.1280 C   0  0  0  0  0
   43.2770   10.0750    5.5010 C   0  0  0  0  0
   43.4660   11.6880    7.3940 C   0  0  0  0  0
   42.4120   13.8370    7.2140 C   0  0  0  0  0
   41.9430   13.5310    5.9590 C   0  0  0  0  0
   42.2250   12.2690    5.3660 C   0  0  0  0  0
   38.8737   14.2652   -0.8475 H   0  0  0  0  0
   37.3315   15.0404    0.9189 H   0  0  0  0  0
   38.1827   15.5549    3.1768 H   0  0  0  0  0
   42.6476   11.6386   -4.4854 H   0  0  0  0  0
   43.8963   10.3816   -4.3073 H   0  0  0  0  0
   42.4852   10.3950   -3.2212 H   0  0  0  0  0
   40.2175    8.7382    2.7941 H   0  0  0  0  0
   39.4597   10.3372    2.5945 H   0  0  0  0  0
   39.8711    9.3619    1.1625 H   0  0  0  0  0
   43.0376    8.7991    3.8218 H   0  0  0  0  0
   41.1620   12.6267    3.5055 H   0  0  0  0  0
   43.5360   13.1713    8.9249 H   0  0  0  0  0
   44.4820   11.3036   -2.0841 H   0  0  0  0  0
   45.5703   12.0595   -4.2024 H   0  0  0  0  0
   44.3215   13.3164   -4.3805 H   0  0  0  0  0
   45.4641   13.3834   -3.0163 H   0  0  0  0  0
   40.5944   15.2951    3.6914 H   0  0  0  0  0
   40.7772   12.0556    1.1677 H   0  0  0  0  0
   42.2981    9.5550    1.7983 H   0  0  0  0  0
   43.8700    9.3397    6.0449 H   0  0  0  0  0
   44.0628   10.9786    7.9673 H   0  0  0  0  0
   42.1874   14.8092    7.6527 H   0  0  0  0  0
   41.3486   14.2630    5.4122 H   0  0  0  0  0
  1  2  4  0  0  0
 18  1  4  0  0  0
  2  3  4  0  0  0
 19  3  4  0  0  0
  4 17  4  0  0  0
  4 18  1  0  0  0
 22  4  4  0  0  0
  5 14  1  0  0  0
  5 16  4  0  0  0
 22  5  4  0  0  0
 14  6  1  0  0  0
  7 22  1  0  0  0
  7 23  2  0  0  0
 24  7  1  0  0  0
  8 10  4  0  0  0
  8 11  4  0  0  0
 25  8  1  0  0  0
 25  9  1  0  0  0
 10 26  4  0  0  0
 11 30  4  0  0  0
 26 12  4  0  0  0
 12 27  4  0  0  0
 30 12  4  0  0  0
 27 13  4  0  0  0
 13 28  4  0  0  0
 14 15  1  0  0  0
 16 17  4  0  0  0
 18 20  4  0  0  0
 20 19  4  0  0  0
 20 21  1  0  0  0
 24 25  1  0  0  0
 28 29  4  0  0  0
 29 30  4  0  0  0
  1 31  1  0  0  0
  2 32  1  0  0  0
  3 33  1  0  0  0
  6 34  1  0  0  0
  6 35  1  0  0  0
  6 36  1  0  0  0
  9 37  1  0  0  0
  9 38  1  0  0  0
  9 39  1  0  0  0
 10 40  1  0  0  0
 11 41  1  0  0  0
 13 42  1  0  0  0
 14 43  1  0  0  0
 15 44  1  0  0  0
 15 45  1  0  0  0
 15 46  1  0  0  0
 19 47  1  0  0  0
 24 48  1  0  0  0
 25 49  1  0  0  0
 26 50  1  0  0  0
 27 51  1  0  0  0
 28 52  1  0  0  0
 29 53  1  0  0  0
M  END
$$$$
