4ty6_ligand
  -I-interpret- 

 64 67  0  0  0  0  0  0  0  0999 V2000
   39.0220  -16.4390   27.8590 C   0  0  0  0  0
   38.2340  -17.5600   28.5660 C   0  0  0  0  0
   39.1690  -18.6170   29.1360 C   0  0  0  0  0
   38.0840  -15.3340   27.3360 C   0  0  0  0  0
   37.2080  -14.7530   28.4410 C   0  0  0  0  0
   36.4210  -15.8830   29.0870 C   0  0  0  0  0
   37.3430  -16.9660   29.6630 C   0  0  0  0  0
   36.2910  -13.6380   27.9290 C   0  0  0  0  0
   41.4320  -20.7600   28.9200 C   0  0  0  0  0
   39.9430  -20.9140   28.9150 C   0  0  0  0  0
   47.0600  -20.8330   30.6920 C   0  0  0  0  0
   40.2460  -23.4010   28.5920 C   0  0  0  0  0
   40.0220  -23.9040   29.8670 C   0  0  0  0  0
   40.7590  -24.9770   30.3470 C   0  0  0  0  0
   41.7310  -25.5590   29.5590 C   0  0  0  0  0
   41.9760  -25.0590   28.2940 C   0  0  0  0  0
   41.2350  -23.9870   27.8140 C   0  0  0  0  0
   42.2290  -21.0200   29.9430 N   0  0  0  0  0
   43.5090  -20.8470   29.4510 C   0  0  0  0  0
   43.4500  -20.4850   28.1350 C   0  0  0  0  0
   42.1290  -20.4180   27.8140 N   0  0  0  0  0
   39.2590  -19.7350   28.4120 N   0  0  0  0  0
   39.5270  -22.1610   28.1150 C   0  0  0  0  0
   39.7520  -18.4660   30.2140 O   0  0  0  0  0
   37.0100  -12.4680   27.4140 N   0  3  0  0  0
   44.6840  -21.0560   30.3130 C   0  0  0  0  0
   45.9240  -20.5300   29.9580 C   0  0  0  0  0
   46.9840  -21.6320   31.8310 C   0  0  0  0  0
   45.7340  -22.1270   32.2070 C   0  0  0  0  0
   44.6050  -21.8520   31.4530 C   0  0  0  0  0
   48.2820  -21.9580   32.5610 C   0  0  0  0  0
   49.3750  -21.5590   32.0880 O   0  0  0  0  0
   48.2210  -22.6690   33.6790 N   0  0  0  0  0
   39.5529  -16.8716   27.0110 H   0  0  0  0  0
   39.7117  -15.9955   28.5772 H   0  0  0  0  0
   37.5986  -18.0504   27.8285 H   0  0  0  0  0
   37.4317  -15.7718   26.5804 H   0  0  0  0  0
   38.6989  -14.5298   26.9319 H   0  0  0  0  0
   37.8476  -14.2855   29.1897 H   0  0  0  0  0
   35.7912  -16.3406   28.3241 H   0  0  0  0  0
   35.8319  -15.4659   29.9037 H   0  0  0  0  0
   37.9775  -16.5179   30.4277 H   0  0  0  0  0
   36.7299  -17.7610   30.0875 H   0  0  0  0  0
   35.6865  -13.3024   28.7717 H   0  0  0  0  0
   35.7086  -14.0497   27.1047 H   0  0  0  0  0
   39.6377  -21.0392   29.9538 H   0  0  0  0  0
   48.0260  -20.4409   30.3739 H   0  0  0  0  0
   39.2579  -23.4503   30.4982 H   0  0  0  0  0
   40.5698  -25.3614   31.3493 H   0  0  0  0  0
   42.3026  -26.4087   29.9323 H   0  0  0  0  0
   42.7516  -25.5065   27.6725 H   0  0  0  0  0
   41.4325  -23.6010   26.8139 H   0  0  0  0  0
   44.2936  -20.2887   27.4733 H   0  0  0  0  0
   38.8375  -19.7621   27.4836 H   0  0  0  0  0
   39.7843  -21.9976   27.0685 H   0  0  0  0  0
   38.4562  -22.3130   28.2507 H   0  0  0  0  0
   36.3376  -11.7715   27.0928 H   0  0  0  0  0
   37.5853  -12.0700   28.1564 H   0  0  0  0  0
   37.6054  -12.7517   26.6359 H   0  0  0  0  0
   46.0019  -19.8721   29.0924 H   0  0  0  0  0
   45.6453  -22.7377   33.1055 H   0  0  0  0  0
   43.6424  -22.2639   31.7559 H   0  0  0  0  0
   49.0773  -22.9062   34.1799 H   0  0  0  0  0
   47.3178  -22.9785   34.0379 H   0  0  0  0  0
  2  1  1  0  0  0
  1  4  1  0  0  0
  3  2  1  0  0  0
  2  7  1  0  0  0
 22  3  1  0  0  0
  3 24  2  0  0  0
  4  5  1  0  0  0
  6  5  1  0  0  0
  5  8  1  0  0  0
  7  6  1  0  0  0
  8 25  1  0  0  0
  9 10  1  0  0  0
 18  9  4  0  0  0
 21  9  4  0  0  0
 10 22  1  0  0  0
 10 23  1  0  0  0
 27 11  4  0  0  0
 11 28  4  0  0  0
 12 13  4  0  0  0
 12 17  4  0  0  0
 23 12  1  0  0  0
 13 14  4  0  0  0
 14 15  4  0  0  0
 16 15  4  0  0  0
 17 16  4  0  0  0
 19 18  4  0  0  0
 19 20  4  0  0  0
 26 19  1  0  0  0
 20 21  4  0  0  0
 26 27  4  0  0  0
 26 30  4  0  0  0
 28 29  4  0  0  0
 28 31  1  0  0  0
 29 30  4  0  0  0
 31 32  2  0  0  0
 31 33  1  0  0  0
  1 34  1  0  0  0
  1 35  1  0  0  0
  2 36  1  0  0  0
  4 37  1  0  0  0
  4 38  1  0  0  0
  5 39  1  0  0  0
  6 40  1  0  0  0
  6 41  1  0  0  0
  7 42  1  0  0  0
  7 43  1  0  0  0
  8 44  1  0  0  0
  8 45  1  0  0  0
 10 46  1  0  0  0
 11 47  1  0  0  0
 13 48  1  0  0  0
 14 49  1  0  0  0
 15 50  1  0  0  0
 16 51  1  0  0  0
 17 52  1  0  0  0
 20 53  1  0  0  0
 22 54  1  0  0  0
 23 55  1  0  0  0
 23 56  1  0  0  0
 25 57  1  0  0  0
 25 58  1  0  0  0
 25 59  1  0  0  0
 27 60  1  0  0  0
 29 61  1  0  0  0
 30 62  1  0  0  0
 33 63  1  0  0  0
 33 64  1  0  0  0
M  END
$$$$
