3h5b_ligand
  -I-interpret- 

 81 85  0  0  0  0  0  0  0  0999 V2000
   10.7870   17.3300   20.6370 O   0  0  0  0  0
   10.0330   16.7010   19.6060 C   0  0  0  0  0
   11.7690   18.0790   20.0770 C   0  0  0  0  0
   12.2170   17.8560   18.7860 C   0  0  0  0  0
   13.3070   18.5590   18.2630 C   0  0  0  0  0
   13.9460   19.5160   19.0380 C   0  0  0  0  0
   13.4850   19.7030   20.3250 C   0  0  0  0  0
   12.4420   18.9930   20.8820 C   0  0  0  0  0
   15.2730   20.5030   18.4590 S   0  0  0  0  0
   16.1720   20.8560   19.6060 O   0  0  0  0  0
   16.0390   19.7150   17.4480 O   0  0  0  0  0
   14.7470   21.8880   17.8040 N   0  0  0  0  0
   13.7280   21.7280   16.7890 C   0  0  0  0  0
   13.7910   22.8660   15.7780 C   0  0  0  0  0
   15.2190   23.1470   15.2950 C   0  0  0  0  0
   13.0600   22.5300   14.5520 N   0  0  0  0  0
   13.8880   22.0130   13.6720 C   0  0  0  0  0
   13.5220   21.3760   12.7020 O   0  0  0  0  0
   15.3340   22.3110   14.0230 C   0  0  0  0  0
   14.4740   22.9350   18.7850 C   0  0  0  0  0
   15.2570   24.1770   18.4230 C   0  0  0  0  0
   14.7880   25.4020   18.9350 O   0  0  0  0  0
   16.7620   24.0450   18.5520 C   0  0  0  0  0
   17.3830   25.0910   17.7460 N   0  0  0  0  0
   18.2660   24.9670   16.7700 C   0  0  0  0  0
   18.5260   23.8980   16.2130 O   0  0  0  0  0
   18.8980   26.1120   16.3990 O   0  0  0  0  0
   21.0740   25.2830   15.6730 C   0  0  0  0  0
   19.7570   25.9410   15.2720 C   0  0  0  0  0
   20.1740   27.3410   14.7960 C   0  0  0  0  0
   21.3230   27.7160   15.7290 C   0  0  0  0  0
   20.8430   28.1420   17.0020 O   0  0  0  0  0
   21.8780   27.8070   17.9310 C   0  0  0  0  0
   22.4350   26.4630   17.4510 C   0  0  0  0  0
   22.0600   26.4070   15.9710 C   0  0  0  0  0
   17.1870   24.1910   20.0130 C   0  0  0  0  0
   19.5360   24.9640   20.4930 C   0  0  0  0  0
   20.9030   24.7520   20.5430 C   0  0  0  0  0
   21.3820   23.4640   20.3940 C   0  0  0  0  0
   20.5320   22.4220   20.0550 C   0  0  0  0  0
   19.1650   22.6370   19.9300 C   0  0  0  0  0
   18.6860   23.9250   20.1400 C   0  0  0  0  0
    9.5917   17.4632   18.9638 H   0  0  0  0  0
   10.6897   16.0622   19.0155 H   0  0  0  0  0
    9.2424   16.0978   20.0522 H   0  0  0  0  0
   11.7099   17.1177   18.1648 H   0  0  0  0  0
   13.6534   18.3557   17.2497 H   0  0  0  0  0
   13.9753   20.4583   20.9392 H   0  0  0  0  0
   12.1533   19.1434   21.9223 H   0  0  0  0  0
   12.7491   21.7365   17.2683 H   0  0  0  0  0
   13.8943   20.7849   16.2685 H   0  0  0  0  0
   13.3685   23.7219   16.3042 H   0  0  0  0  0
   15.9715   22.8836   16.0383 H   0  0  0  0  0
   15.3994   24.2071   15.1167 H   0  0  0  0  0
   12.0612   22.6754   14.4047 H   0  0  0  0  0
   15.9268   21.4075   14.1658 H   0  0  0  0  0
   15.8619   22.8316   13.2240 H   0  0  0  0  0
   14.7716   22.5925   19.7761 H   0  0  0  0  0
   13.4083   23.1637   18.7870 H   0  0  0  0  0
   15.0375   24.2365   17.3570 H   0  0  0  0  0
   15.3624   26.1121   18.6393 H   0  0  0  0  0
   17.0780   23.0616   18.2039 H   0  0  0  0  0
   17.0976   26.0455   17.9649 H   0  0  0  0  0
   21.4466   24.6450   14.8716 H   0  0  0  0  0
   20.9373   24.6473   16.5478 H   0  0  0  0  0
   19.2258   25.3429   14.5316 H   0  0  0  0  0
   19.3527   28.0562   14.8410 H   0  0  0  0  0
   20.4709   27.3513   13.7473 H   0  0  0  0  0
   21.9220   28.5152   15.2924 H   0  0  0  0  0
   21.4960   27.7414   18.9498 H   0  0  0  0  0
   22.6523   28.5736   17.9616 H   0  0  0  0  0
   22.0226   25.6239   18.0112 H   0  0  0  0  0
   23.5113   26.3858   17.6052 H   0  0  0  0  0
   22.9460   26.2472   15.3565 H   0  0  0  0  0
   16.6389   23.4730   20.6230 H   0  0  0  0  0
   16.9687   25.2029   20.3542 H   0  0  0  0  0
   19.1274   25.9462   20.7307 H   0  0  0  0  0
   21.5888   25.5851   20.6970 H   0  0  0  0  0
   22.4429   23.2645   20.5451 H   0  0  0  0  0
   20.9399   21.4256   19.8851 H   0  0  0  0  0
   18.4890   21.8208   19.6751 H   0  0  0  0  0
  1  2  1  0  0  0
  3  1  1  0  0  0
  4  3  4  0  0  0
  8  3  4  0  0  0
  5  4  4  0  0  0
  6  5  4  0  0  0
  6  7  4  0  0  0
  9  6  1  0  0  0
  7  8  4  0  0  0
  9 10  2  0  0  0
  9 11  2  0  0  0
 12  9  1  0  0  0
 12 13  1  0  0  0
 20 12  1  0  0  0
 13 14  1  0  0  0
 14 15  1  0  0  0
 14 16  1  0  0  0
 15 19  1  0  0  0
 16 17  1  0  0  0
 17 18  2  0  0  0
 17 19  1  0  0  0
 21 20  1  0  0  0
 21 22  1  0  0  0
 23 21  1  0  0  0
 23 24  1  0  0  0
 36 23  1  0  0  0
 24 25  1  0  0  0
 25 26  2  0  0  0
 25 27  1  0  0  0
 27 29  1  0  0  0
 29 28  1  0  0  0
 28 35  1  0  0  0
 29 30  1  0  0  0
 30 31  1  0  0  0
 31 32  1  0  0  0
 31 35  1  0  0  0
 32 33  1  0  0  0
 34 33  1  0  0  0
 35 34  1  0  0  0
 42 36  1  0  0  0
 37 38  4  0  0  0
 37 42  4  0  0  0
 38 39  4  0  0  0
 39 40  4  0  0  0
 40 41  4  0  0  0
 41 42  4  0  0  0
  2 43  1  0  0  0
  2 44  1  0  0  0
  2 45  1  0  0  0
  4 46  1  0  0  0
  5 47  1  0  0  0
  7 48  1  0  0  0
  8 49  1  0  0  0
 13 50  1  0  0  0
 13 51  1  0  0  0
 14 52  1  0  0  0
 15 53  1  0  0  0
 15 54  1  0  0  0
 16 55  1  0  0  0
 19 56  1  0  0  0
 19 57  1  0  0  0
 20 58  1  0  0  0
 20 59  1  0  0  0
 21 60  1  0  0  0
 22 61  1  0  0  0
 23 62  1  0  0  0
 24 63  1  0  0  0
 28 64  1  0  0  0
 28 65  1  0  0  0
 29 66  1  0  0  0
 30 67  1  0  0  0
 30 68  1  0  0  0
 31 69  1  0  0  0
 33 70  1  0  0  0
 33 71  1  0  0  0
 34 72  1  0  0  0
 34 73  1  0  0  0
 35 74  1  0  0  0
 36 75  1  0  0  0
 36 76  1  0  0  0
 37 77  1  0  0  0
 38 78  1  0  0  0
 39 79  1  0  0  0
 40 80  1  0  0  0
 41 81  1  0  0  0
M  END
$$$$
