5ow1_ligand
  -I-interpret- 

 47 49  0  0  0  0  0  0  0  0999 V2000
    9.1730  -19.0060  -17.9710 C   0  0  0  0  0
    8.2130  -19.9400  -18.3120 C   0  0  0  0  0
    9.7760  -18.2800  -18.9870 C   0  0  0  0  0
    9.4410  -18.4680  -20.3170 C   0  0  0  0  0
    8.4820  -19.4150  -20.6270 C   0  0  0  0  0
    7.8680  -20.1530  -19.6310 C   0  0  0  0  0
   10.0900  -17.6620  -21.4060 C   0  0  0  0  0
    9.4950  -18.7770  -16.5720 C   0  0  0  0  0
    9.9580  -18.2510  -13.8830 C   0  0  0  0  0
    9.4080  -17.2810  -14.6940 C   0  0  0  0  0
    9.1690  -17.5510  -16.0230 C   0  0  0  0  0
   10.0550  -19.7390  -15.7360 C   0  0  0  0  0
   10.2850  -19.4910  -14.3860 C   0  0  0  0  0
   10.8570  -20.4620  -13.3910 C   0  0  0  0  0
   12.3280  -20.8020  -13.5640 C   0  0  0  0  0
   12.8350  -21.5970  -12.3690 C   0  0  0  0  0
   11.9530  -22.7940  -12.0330 C   0  0  0  0  0
   10.4770  -22.4350  -11.9190 C   0  0  0  0  0
    9.9920  -21.6920  -13.1560 C   0  0  0  0  0
    9.4670  -15.9860  -21.8120 P   0  0  0  0  0
   10.2190  -15.3900  -22.9680 O   0  0  0  0  0
    9.5820  -15.1470  -20.4310 O   0  0  0  0  0
    7.8540  -16.1080  -21.9560 O   0  0  0  0  0
   11.4090  -17.3790  -21.1960 F   0  0  0  0  0
   10.0030  -18.2000  -22.6570 F   0  0  0  0  0
   10.3740  -20.9730  -16.2740 O   0  0  0  0  0
    7.7216  -20.5164  -17.5281 H   0  0  0  0  0
   10.5350  -17.5406  -18.7313 H   0  0  0  0  0
    8.2067  -19.5819  -21.6684 H   0  0  0  0  0
    7.1155  -20.8990  -19.8868 H   0  0  0  0  0
   10.1364  -18.0337  -12.8299 H   0  0  0  0  0
    9.1626  -16.3015  -14.2836 H   0  0  0  0  0
    8.7153  -16.7854  -16.6524 H   0  0  0  0  0
   10.8285  -19.8870  -12.4655 H   0  0  0  0  0
   12.8988  -19.8767  -13.6419 H   0  0  0  0  0
   12.4493  -21.4019  -14.4659 H   0  0  0  0  0
   12.8369  -20.9328  -11.5048 H   0  0  0  0  0
   13.8268  -21.9746  -12.6178 H   0  0  0  0  0
   12.2752  -23.1821  -11.0667 H   0  0  0  0  0
   12.0563  -23.5187  -12.8406 H   0  0  0  0  0
   10.3427  -21.7892  -11.0512 H   0  0  0  0  0
    9.9024  -23.3559  -11.8195 H   0  0  0  0  0
   10.0597  -22.3508  -14.0217 H   0  0  0  0  0
    8.9576  -21.3821  -13.0077 H   0  0  0  0  0
    9.0772  -15.5906  -19.7454 H   0  0  0  0  0
    7.4915  -16.5011  -21.1587 H   0  0  0  0  0
   10.7487  -21.5321  -15.5894 H   0  0  0  0  0
  1  2  4  0  0  0
  1  3  4  0  0  0
  8  1  1  0  0  0
  2  6  4  0  0  0
  3  4  4  0  0  0
  4  5  4  0  0  0
  4  7  1  0  0  0
  6  5  4  0  0  0
  7 20  1  0  0  0
  7 24  1  0  0  0
  7 25  1  0  0  0
 11  8  4  0  0  0
  8 12  4  0  0  0
 10  9  4  0  0  0
  9 13  4  0  0  0
 10 11  4  0  0  0
 12 13  4  0  0  0
 12 26  1  0  0  0
 13 14  1  0  0  0
 14 15  1  0  0  0
 14 19  1  0  0  0
 15 16  1  0  0  0
 16 17  1  0  0  0
 17 18  1  0  0  0
 18 19  1  0  0  0
 20 21  2  0  0  0
 20 22  1  0  0  0
 20 23  1  0  0  0
  2 27  1  0  0  0
  3 28  1  0  0  0
  5 29  1  0  0  0
  6 30  1  0  0  0
  9 31  1  0  0  0
 10 32  1  0  0  0
 11 33  1  0  0  0
 14 34  1  0  0  0
 15 35  1  0  0  0
 15 36  1  0  0  0
 16 37  1  0  0  0
 16 38  1  0  0  0
 17 39  1  0  0  0
 17 40  1  0  0  0
 18 41  1  0  0  0
 18 42  1  0  0  0
 19 43  1  0  0  0
 19 44  1  0  0  0
 22 45  1  0  0  0
 23 46  1  0  0  0
 26 47  1  0  0  0
M  END
$$$$
