### 
### Created by X-TOOL on Mon Sep 10 21:13:32 2018
### 

@<TRIPOS>MOLECULE
5ow1_ligand
   45    47     1     0     0
SMALL
GAST_HUCK


@<TRIPOS>ATOM
      1 C1          9.1730  -19.0060  -17.9710 C.ar      1 AY8         0.0060
      2 C2          8.2130  -19.9400  -18.3120 C.ar      1 AY8        -0.0290
      3 C3          9.7760  -18.2800  -18.9870 C.ar      1 AY8        -0.0283
      4 C4          9.4410  -18.4680  -20.3170 C.ar      1 AY8         0.0299
      5 C5          8.4820  -19.4150  -20.6270 C.ar      1 AY8        -0.0343
      6 C6          7.8680  -20.1530  -19.6310 C.ar      1 AY8        -0.0333
      7 C7         10.0900  -17.6620  -21.4060 C.3       1 AY8         0.3008
      8 C14         9.4950  -18.7770  -16.5720 C.ar      1 AY8         0.0128
      9 C15         9.9580  -18.2510  -13.8830 C.ar      1 AY8        -0.0679
     10 C16         9.4080  -17.2810  -14.6940 C.ar      1 AY8        -0.0784
     11 C17         9.1690  -17.5510  -16.0230 C.ar      1 AY8        -0.0680
     12 C18        10.0550  -19.7390  -15.7360 C.ar      1 AY8         0.1006
     13 C19        10.2850  -19.4910  -14.3860 C.ar      1 AY8        -0.0090
     14 C21        10.8570  -20.4620  -13.3910 C.3       1 AY8        -0.0091
     15 C22        12.3280  -20.8020  -13.5640 C.3       1 AY8        -0.0420
     16 C23        12.8350  -21.5970  -12.3690 C.3       1 AY8        -0.0512
     17 C24        11.9530  -22.7940  -12.0330 C.3       1 AY8        -0.0528
     18 C25        10.4770  -22.4350  -11.9190 C.3       1 AY8        -0.0512
     19 C26         9.9920  -21.6920  -13.1560 C.3       1 AY8        -0.0420
     20 P8          9.4670  -15.9860  -21.8120 P.3       1 AY8         0.1016
     21 O9         10.2190  -15.3900  -22.9680 O.co2     1 AY8        -0.5657
     22 O10         9.5820  -15.1470  -20.4310 O.co2     1 AY8        -0.5657
     23 O11         7.8540  -16.1080  -21.9560 O.co2     1 AY8        -0.5657
     24 F12        11.4090  -17.3790  -21.1960 F         1 AY8        -0.2346
     25 F13        10.0030  -18.2000  -22.6570 F         1 AY8        -0.2346
     26 O20        10.3740  -20.9730  -16.2740 O.3       1 AY8        -0.3342
     27 H1          7.7243  -20.5132  -17.5325 H         1 AY8         0.0847
     28 H2         10.5308  -17.5447  -18.7327 H         1 AY8         0.0839
     29 H3          8.2082  -19.5809  -21.6627 H         1 AY8         0.0840
     30 H4          7.1197  -20.8948  -19.8854 H         1 AY8         0.0694
     31 H5         10.1354  -18.0349  -12.8357 H         1 AY8         0.0530
     32 H6          9.1640  -16.3069  -14.2858 H         1 AY8         0.0509
     33 H7          8.7178  -16.7896  -16.6489 H         1 AY8         0.0538
     34 H8         10.8194  -19.9142  -12.4378 H         1 AY8         0.0438
     35 H9         12.9070  -19.8708  -13.6514 H         1 AY8         0.0287
     36 H10        12.4562  -21.4007  -14.4779 H         1 AY8         0.0287
     37 H11        12.8703  -20.9310  -11.4943 H         1 AY8         0.0267
     38 H12        13.8485  -21.9605  -12.5942 H         1 AY8         0.0267
     39 H13        12.2859  -23.2158  -11.0732 H         1 AY8         0.0265
     40 H14        12.0697  -23.5482  -12.8251 H         1 AY8         0.0265
     41 H15        10.3309  -21.7951  -11.0363 H         1 AY8         0.0267
     42 H16         9.8913  -23.3589  -11.8032 H         1 AY8         0.0267
     43 H17        10.0571  -22.3566  -14.0301 H         1 AY8         0.0287
     44 H18         8.9472  -21.3810  -13.0089 H         1 AY8         0.0287
     45 H19        10.1573  -20.9795  -17.1989 H         1 AY8         0.2472
@<TRIPOS>BOND
     1    1    2 ar 
     2    1    3 ar 
     3    8    1 1  
     4    2    6 ar 
     5    3    4 ar 
     6    4    5 ar 
     7    4    7 1  
     8    6    5 ar 
     9    7   20 1  
    10    7   24 1  
    11    7   25 1  
    12   11    8 ar 
    13    8   12 ar 
    14   10    9 ar 
    15    9   13 ar 
    16   10   11 ar 
    17   12   13 ar 
    18   12   26 1  
    19   13   14 1  
    20   14   15 1  
    21   14   19 1  
    22   15   16 1  
    23   16   17 1  
    24   17   18 1  
    25   18   19 1  
    26   20   21 ar 
    27   20   22 ar 
    28   20   23 ar 
    29    2   27 1  
    30    3   28 1  
    31    5   29 1  
    32    6   30 1  
    33    9   31 1  
    34   10   32 1  
    35   11   33 1  
    36   14   34 1  
    37   15   35 1  
    38   15   36 1  
    39   16   37 1  
    40   16   38 1  
    41   17   39 1  
    42   17   40 1  
    43   18   41 1  
    44   18   42 1  
    45   19   43 1  
    46   19   44 1  
    47   26   45 1  
@<TRIPOS>SUBSTRUCTURE
     1 AY8         1

