4m5o_ligand
  -I-interpret- 

 23 24  0  0  0  0  0  0  0  0999 V2000
   10.0220   22.1940   -8.4190 O   0  0  0  0  0
   10.2310   21.7550   -9.5390 C   0  0  0  0  0
   10.9020   22.5190  -10.4350 N   0  0  0  0  0
   11.1570   22.0500  -11.6930 C   0  0  0  0  0
   10.7370   20.7760  -12.0760 C   0  0  0  0  0
   10.0460   20.0020  -11.1710 C   0  0  0  0  0
    9.7910   20.4860   -9.9190 C   0  0  0  0  0
    9.0960   19.7140   -8.9910 O   0  0  0  0  0
   11.9390   22.9560  -12.6160 C   0  0  0  0  0
   12.9830   23.7050  -12.0680 C   0  0  0  0  0
   13.7220   24.5480  -12.8810 C   0  0  0  0  0
   13.4180   24.6310  -14.2380 C   0  0  0  0  0
   12.3820   23.8850  -14.7880 C   0  0  0  0  0
   11.6350   23.0430  -13.9740 C   0  0  0  0  0
   10.9525   20.3993  -13.0759 H   0  0  0  0  0
    9.7034   19.0062  -11.4524 H   0  0  0  0  0
    9.6493   20.4540  -10.9993 H   0  0  0  0  0
    9.0067   20.2049   -8.1708 H   0  0  0  0  0
   13.2148   23.6263  -11.0058 H   0  0  0  0  0
   14.5348   25.1417  -12.4626 H   0  0  0  0  0
   14.0020   25.2916  -14.8789 H   0  0  0  0  0
   12.1571   23.9603  -15.8519 H   0  0  0  0  0
   10.8183   22.4554  -14.3932 H   0  0  0  0  0
  1  2  2  0  0  0
  2  3  1  0  0  0
  2  7  1  0  0  0
  3  4  2  0  0  0
  4  5  1  0  0  0
  4  9  1  0  0  0
  5  6  2  0  0  0
  6  7  1  0  0  0
  7  8  1  0  0  0
  9 10  4  0  0  0
  9 14  4  0  0  0
 10 11  4  0  0  0
 11 12  4  0  0  0
 12 13  4  0  0  0
 13 14  4  0  0  0
  5 15  1  0  0  0
  6 16  1  0  0  0
  7 17  1  0  0  0
  8 18  1  0  0  0
 10 19  1  0  0  0
 11 20  1  0  0  0
 12 21  1  0  0  0
 13 22  1  0  0  0
 14 23  1  0  0  0
M  END
$$$$
