4ncm_ligand
  -I-interpret- 

 40 42  0  0  0  0  0  0  0  0999 V2000
  -45.0600   -5.5460    2.5870 Cl  0  0  0  0  0
  -49.4820   -4.4860    7.5170 C   0  0  0  0  0
  -49.4520   -4.5950    5.9910 C   0  0  0  0  0
  -48.7970   -5.9050    5.6000 C   0  0  0  0  0
  -49.5250   -6.8750    5.3920 O   0  0  0  0  0
  -47.4350   -6.0180    5.4950 N   0  0  0  0  0
  -46.8290   -7.3060    5.1230 C   0  0  0  0  0
  -46.5200   -4.8800    5.7260 C   0  0  0  0  0
  -50.8410   -4.5850    5.5520 N   0  0  0  0  0
  -51.1880   -4.2860    4.2520 C   0  0  0  0  0
  -52.5410   -4.0610    3.9850 C   0  0  0  0  0
  -52.9250   -3.6920    2.7090 C   0  0  0  0  0
  -51.9850   -3.6000    1.7620 N   0  0  0  0  0
  -50.7090   -3.8560    2.0330 C   0  0  0  0  0
  -50.2960   -4.1770    3.2600 N   0  0  0  0  0
  -49.7360   -3.6470    0.9710 C   0  0  0  0  0
  -49.9900   -3.0310   -0.2110 C   0  0  0  0  0
  -48.8410   -3.0030   -0.9600 N   0  0  0  0  0
  -47.8010   -3.5770   -0.2740 C   0  0  0  0  0
  -48.3160   -4.0080    0.9710 C   0  0  0  0  0
  -47.4790   -4.6580    1.8640 C   0  0  0  0  0
  -46.1670   -4.8410    1.4720 C   0  0  0  0  0
  -45.7080   -4.3400    0.2610 C   0  0  0  0  0
  -46.5310   -3.7660   -0.5940 N   0  0  0  0  0
  -53.4260   -4.1830    4.9890 F   0  0  0  0  0
  -49.9766   -3.5580    7.8040 H   0  0  0  0  0
  -50.0291   -5.3336    7.9298 H   0  0  0  0  0
  -48.4616   -4.4890    7.9003 H   0  0  0  0  0
  -48.8904   -3.7790    5.5363 H   0  0  0  0  0
  -46.2706   -7.1886    4.1943 H   0  0  0  0  0
  -46.1547   -7.6311    5.9153 H   0  0  0  0  0
  -47.6143   -8.0491    4.9848 H   0  0  0  0  0
  -45.8356   -5.1248    6.5382 H   0  0  0  0  0
  -45.9515   -4.6823    4.8173 H   0  0  0  0  0
  -47.1007   -3.9968    5.9922 H   0  0  0  0  0
  -51.5760   -4.8050    6.2242 H   0  0  0  0  0
  -53.9696   -3.4810    2.4802 H   0  0  0  0  0
  -50.9535   -2.6233   -0.5167 H   0  0  0  0  0
  -47.8393   -5.0087    2.8311 H   0  0  0  0  0
  -44.6498   -4.4227    0.0133 H   0  0  0  0  0
 22  1  1  0  0  0
  3  2  1  0  0  0
  3  4  1  0  0  0
  9  3  1  0  0  0
  4  5  2  0  0  0
  4  6  1  0  0  0
  6  7  1  0  0  0
  6  8  1  0  0  0
 10  9  1  0  0  0
 10 11  4  0  0  0
 15 10  4  0  0  0
 12 11  4  0  0  0
 11 25  1  0  0  0
 13 12  4  0  0  0
 14 13  4  0  0  0
 14 15  4  0  0  0
 16 14  1  0  0  0
 16 17  4  0  0  0
 20 16  4  0  0  0
 18 17  4  0  0  0
 19 18  4  0  0  0
 20 19  4  0  0  0
 19 24  4  0  0  0
 21 20  4  0  0  0
 21 22  4  0  0  0
 22 23  4  0  0  0
 23 24  4  0  0  0
  2 26  1  0  0  0
  2 27  1  0  0  0
  2 28  1  0  0  0
  3 29  1  0  0  0
  7 30  1  0  0  0
  7 31  1  0  0  0
  7 32  1  0  0  0
  8 33  1  0  0  0
  8 34  1  0  0  0
  8 35  1  0  0  0
  9 36  1  0  0  0
 12 37  1  0  0  0
 17 38  1  0  0  0
 21 39  1  0  0  0
 23 40  1  0  0  0
M  END
$$$$
