4eft_ligand
  -I-interpret- 

 38 40  0  0  0  0  0  0  0  0999 V2000
   65.1870   34.2210   24.1670 C   0  0  0  0  0
   64.0520   33.9760   24.9560 C   0  0  0  0  0
   64.1210   33.4060   26.2170 C   0  0  0  0  0
   66.4230   33.9000   24.6560 C   0  0  0  0  0
   65.7990   32.4950   27.9210 N   0  0  0  0  0
   67.1820   32.4090   27.8850 N   0  0  0  0  0
   67.6560   32.8360   26.7330 C   0  0  0  0  0
   66.5350   33.3090   25.9350 C   0  0  0  0  0
   65.3780   33.0590   26.7340 C   0  0  0  0  0
   69.1110   32.9060   26.3380 C   0  0  0  0  0
   69.4230   32.2210   25.0000 C   0  0  0  0  0
   69.5200   34.3190   26.2950 C   0  0  0  0  0
   69.8330   35.4100   26.2960 N   0  0  0  0  0
   62.8460   34.2490   24.4420 O   0  0  0  0  0
   70.6710   31.3330   25.0240 C   0  0  0  0  0
   70.7330   30.6670   23.6440 C   0  0  0  0  0
   71.9400   29.7400   23.5150 C   0  0  0  0  0
   73.2480   30.5010   23.7840 C   0  0  0  0  0
   73.1960   31.1890   25.1620 C   0  0  0  0  0
   71.9740   32.1270   25.2580 C   0  0  0  0  0
   65.0842   34.6622   23.1756 H   0  0  0  0  0
   63.2149   33.2304   26.7968 H   0  0  0  0  0
   67.3160   34.0986   24.0633 H   0  0  0  0  0
   69.6785   32.3565   27.0890 H   0  0  0  0  0
   69.6040   33.0098   24.2698 H   0  0  0  0  0
   68.5755   31.5777   24.7631 H   0  0  0  0  0
   62.1683   34.0341   25.0871 H   0  0  0  0  0
   70.5958   30.6223   25.8470 H   0  0  0  0  0
   70.8197   31.4492   22.8898 H   0  0  0  0  0
   69.8290   30.0730   23.5094 H   0  0  0  0  0
   71.9688   29.3414   22.5009 H   0  0  0  0  0
   71.8450   28.9373   24.2463 H   0  0  0  0  0
   73.3820   31.2600   23.0132 H   0  0  0  0  0
   74.0784   29.7951   23.7709 H   0  0  0  0  0
   74.1034   31.7778   25.2962 H   0  0  0  0  0
   73.1148   30.4244   25.9346 H   0  0  0  0  0
   71.9452   32.5741   26.2517 H   0  0  0  0  0
   72.0599   32.9030   24.4973 H   0  0  0  0  0
  2  1  4  0  0  0
  1  4  4  0  0  0
  3  2  4  0  0  0
  2 14  1  0  0  0
  9  3  4  0  0  0
  4  8  4  0  0  0
  5  6  4  0  0  0
  5  9  4  0  0  0
  6  7  4  0  0  0
  7  8  4  0  0  0
  7 10  1  0  0  0
  8  9  4  0  0  0
 10 11  1  0  0  0
 10 12  1  0  0  0
 11 15  1  0  0  0
 12 13  3  0  0  0
 15 16  1  0  0  0
 15 20  1  0  0  0
 16 17  1  0  0  0
 17 18  1  0  0  0
 18 19  1  0  0  0
 19 20  1  0  0  0
  1 21  1  0  0  0
  3 22  1  0  0  0
  4 23  1  0  0  0
 10 24  1  0  0  0
 11 25  1  0  0  0
 11 26  1  0  0  0
 14 27  1  0  0  0
 15 28  1  0  0  0
 16 29  1  0  0  0
 16 30  1  0  0  0
 17 31  1  0  0  0
 17 32  1  0  0  0
 18 33  1  0  0  0
 18 34  1  0  0  0
 19 35  1  0  0  0
 19 36  1  0  0  0
 20 37  1  0  0  0
 20 38  1  0  0  0
M  END
$$$$
