6e1y_ligand
  -I-interpret- 

 48 50  0  0  0  0  0  0  0  0999 V2000
   -4.3660   -3.6970    6.6840 C   0  0  0  0  0
   -2.9410   -3.7960    4.8260 N   0  0  0  0  0
   -1.6630   -3.2480    4.5920 C   0  0  0  0  0
    0.1690   -1.8250    4.5800 C   0  0  0  0  0
   -0.2800   -2.5040   13.2940 C   0  0  0  0  0
    1.2310   -2.3500   13.1710 C   0  0  0  0  0
    2.0000   -3.2980   12.2580 C   0  0  0  0  0
   -3.1560   -4.3690   13.9240 C   0  0  0  0  0
   -2.5330   -3.7110   12.7110 C   0  0  0  0  0
   -3.1410   -3.5120   10.3310 C   0  0  0  0  0
   -3.9750   -3.9560    9.1790 C   0  0  0  0  0
   -4.9930   -5.0690    9.2530 C   0  0  0  0  0
   -5.7440   -5.4550    7.9860 C   0  0  0  0  0
   -5.4100   -4.7840    6.6780 C   0  0  0  0  0
   -4.0120   -2.9890    5.4060 C   0  0  0  0  0
    0.5290   -3.0640    3.8390 C   0  0  0  0  0
   -3.6750   -3.2600    7.9160 C   0  0  0  0  0
   -1.0100   -3.6560   12.6030 C   0  0  0  0  0
    1.2720   -4.4260   11.5300 C   0  0  0  0  0
   -0.2300   -4.6290   11.7240 C   0  0  0  0  0
   -2.9850   -4.3700   11.4550 N   0  0  0  0  0
   -1.1620   -2.0000    5.1010 N   0  0  0  0  0
   -0.6300   -3.9010    3.8270 N   0  0  0  0  0
   -2.6290   -2.4510   10.3420 O   0  0  0  0  0
    2.1920   -5.5220   10.4780 Cl  0  0  0  0  0
   -2.7745   -4.5227    5.5222 H   0  0  0  0  0
   -2.7359   -3.4265    4.6641 H   0  0  0  0  0
    0.2069   -0.9609    3.9167 H   0  0  0  0  0
    0.8748   -1.6490    5.3918 H   0  0  0  0  0
   -0.8479   -1.7833   13.8824 H   0  0  0  0  0
    1.7545   -1.5730   13.7280 H   0  0  0  0  0
    3.0742   -3.1702   12.1242 H   0  0  0  0  0
   -2.8384   -5.4105   13.9741 H   0  0  0  0  0
   -2.8345   -3.8460   14.8247 H   0  0  0  0  0
   -4.2420   -4.3225   13.8434 H   0  0  0  0  0
   -2.8764   -2.6857   12.8490 H   0  0  0  0  0
   -5.1860   -5.5851   10.1935 H   0  0  0  0  0
   -6.5230   -6.2164    8.0247 H   0  0  0  0  0
   -5.9093   -5.0766    5.7543 H   0  0  0  0  0
   -3.6989   -1.9599    5.5820 H   0  0  0  0  0
   -4.8674   -2.9027    4.7360 H   0  0  0  0  0
    1.3640   -3.5714    4.3221 H   0  0  0  0  0
    0.8414   -2.8262    2.8222 H   0  0  0  0  0
   -2.9581   -2.4394    7.8901 H   0  0  0  0  0
   -0.7396   -5.4614   11.2388 H   0  0  0  0  0
   -3.1708   -5.3716   11.4036 H   0  0  0  0  0
   -1.1480   -2.0099    6.1209 H   0  0  0  0  0
   -0.9447   -4.0515    2.8685 H   0  0  0  0  0
  1 14  4  0  0  0
  1 15  1  0  0  0
 17  1  4  0  0  0
  2  3  1  0  0  0
 15  2  1  0  0  0
  3 22  1  0  0  0
  3 23  1  0  0  0
  4 16  1  0  0  0
 22  4  1  0  0  0
  5  6  4  0  0  0
 18  5  4  0  0  0
  6  7  4  0  0  0
  7 19  4  0  0  0
  9  8  1  0  0  0
  9 18  1  0  0  0
 21  9  1  0  0  0
 11 10  1  0  0  0
 10 21  1  0  0  0
 10 24  2  0  0  0
 11 12  4  0  0  0
 11 17  4  0  0  0
 12 13  4  0  0  0
 13 14  4  0  0  0
 16 23  1  0  0  0
 18 20  4  0  0  0
 19 20  4  0  0  0
 19 25  1  0  0  0
  2 26  1  0  0  0
  3 27  1  0  0  0
  4 28  1  0  0  0
  4 29  1  0  0  0
  5 30  1  0  0  0
  6 31  1  0  0  0
  7 32  1  0  0  0
  8 33  1  0  0  0
  8 34  1  0  0  0
  8 35  1  0  0  0
  9 36  1  0  0  0
 12 37  1  0  0  0
 13 38  1  0  0  0
 14 39  1  0  0  0
 15 40  1  0  0  0
 15 41  1  0  0  0
 16 42  1  0  0  0
 16 43  1  0  0  0
 17 44  1  0  0  0
 20 45  1  0  0  0
 21 46  1  0  0  0
 22 47  1  0  0  0
 23 48  1  0  0  0
M  END
$$$$
