4gcj_ligand
  -I-interpret- 

 41 43  0  0  0  0  0  0  0  0999 V2000
  -51.2180  101.2970  -64.8540 N   0  0  0  0  0
  -49.8080   99.5220  -65.2420 N   0  0  0  0  0
  -52.8710  102.8060  -64.1830 N   0  0  0  0  0
  -47.0450   93.7690  -62.9890 N   0  0  0  0  0
  -56.5950   99.3690  -62.4800 N   0  0  0  0  0
  -52.9070  100.5910  -63.3690 C   0  0  0  0  0
  -52.3620  101.6220  -64.1410 C   0  0  0  0  0
  -50.8790  100.0290  -64.6510 C   0  0  0  0  0
  -49.0490   98.4750  -64.8730 C   0  0  0  0  0
  -54.0230  100.6840  -62.5330 C   0  0  0  0  0
  -54.3680   99.6530  -61.6320 C   0  0  0  0  0
  -55.6720   99.0340  -61.6450 C   0  0  0  0  0
  -55.9640   98.0270  -60.6990 C   0  0  0  0  0
  -55.0040   97.6190  -59.7520 C   0  0  0  0  0
  -53.7310   98.2070  -59.7320 C   0  0  0  0  0
  -53.4120   99.2210  -60.6610 C   0  0  0  0  0
  -49.1770   97.7870  -63.6320 C   0  0  0  0  0
  -48.3310   96.7100  -63.3050 C   0  0  0  0  0
  -47.3310   96.3020  -64.2150 C   0  0  0  0  0
  -47.1820   96.9650  -65.4510 C   0  0  0  0  0
  -48.0380   98.0450  -65.7790 C   0  0  0  0  0
  -54.6770  101.7380  -62.4730 O   0  0  0  0  0
  -45.2850   95.5630  -62.8670 O   0  0  0  0  0
  -45.5850   94.4650  -64.9600 O   0  0  0  0  0
  -57.8400   99.3560  -62.0910 O   0  0  0  0  0
  -56.3120   99.7280  -63.7080 O   0  0  0  0  0
  -51.9390   99.1570  -63.6060 S   0  0  0  0  0
  -46.2390   94.9820  -63.7780 S   0  0  0  0  0
  -49.5173   99.9925  -66.0990 H   0  0  0  0  0
  -52.4312  103.5304  -64.7507 H   0  0  0  0  0
  -53.7135  103.0182  -63.6486 H   0  0  0  0  0
  -46.8202   93.5552  -62.0173 H   0  0  0  0  0
  -47.7662   93.2358  -63.4748 H   0  0  0  0  0
  -56.9479   97.5579  -60.7015 H   0  0  0  0  0
  -55.2524   96.8411  -59.0300 H   0  0  0  0  0
  -52.9902   97.8821  -59.0014 H   0  0  0  0  0
  -52.4239   99.6805  -60.6376 H   0  0  0  0  0
  -49.9435   98.1000  -62.9230 H   0  0  0  0  0
  -48.4475   96.1928  -62.3526 H   0  0  0  0  0
  -46.4102   96.6472  -66.1520 H   0  0  0  0  0
  -47.9214   98.5530  -66.7363 H   0  0  0  0  0
  1  7  4  0  0  0
  8  1  4  0  0  0
  2  8  1  0  0  0
  9  2  1  0  0  0
  7  3  1  0  0  0
 28  4  1  0  0  0
 12  5  1  0  0  0
  5 25  2  0  0  0
  5 26  2  0  0  0
  6  7  4  0  0  0
  6 10  1  0  0  0
 27  6  4  0  0  0
  8 27  4  0  0  0
 17  9  4  0  0  0
  9 21  4  0  0  0
 10 11  1  0  0  0
 10 22  2  0  0  0
 11 12  4  0  0  0
 11 16  4  0  0  0
 12 13  4  0  0  0
 13 14  4  0  0  0
 15 14  4  0  0  0
 16 15  4  0  0  0
 18 17  4  0  0  0
 19 18  4  0  0  0
 19 20  4  0  0  0
 19 28  1  0  0  0
 20 21  4  0  0  0
 28 23  2  0  0  0
 28 24  2  0  0  0
  2 29  1  0  0  0
  3 30  1  0  0  0
  3 31  1  0  0  0
  4 32  1  0  0  0
  4 33  1  0  0  0
 13 34  1  0  0  0
 14 35  1  0  0  0
 15 36  1  0  0  0
 16 37  1  0  0  0
 17 38  1  0  0  0
 18 39  1  0  0  0
 20 40  1  0  0  0
 21 41  1  0  0  0
M  END
$$$$
