4w9k_ligand
  -I-interpret- 

 85 88  0  0  0  0  0  0  0  0999 V2000
   12.4020   50.4820   80.6110 C   0  0  0  0  0
   13.7790   51.0930   80.9260 C   0  0  0  0  0
   14.7530   51.0620   79.9900 N   0  0  0  0  0
   15.9000   51.6190   80.3590 C   0  0  0  0  0
   15.7360   52.1760   81.8590 S   0  0  0  0  0
   14.1390   51.6750   82.0860 C   0  0  0  0  0
   13.3900   51.8610   83.1890 C   0  0  0  0  0
   13.4810   53.0500   83.9040 C   0  0  0  0  0
   12.7020   53.2680   85.0520 C   0  0  0  0  0
   12.5000   50.8770   83.6600 C   0  0  0  0  0
   11.7140   51.0910   84.7950 C   0  0  0  0  0
   11.8070   52.2880   85.5150 C   0  0  0  0  0
   11.0000   52.4300   86.6430 C   0  0  0  0  0
   11.4640   53.5910   87.4510 N   0  0  0  0  0
   12.3150   53.4780   88.4770 C   0  0  0  0  0
   12.7830   52.4090   88.8210 O   0  0  0  0  0
   12.7350   54.6750   89.0760 C   0  0  0  0  0
   14.0480   55.1170   88.3870 C   0  0  0  0  0
   14.9050   55.6890   89.4830 C   0  0  0  0  0
   14.5370   57.0720   89.7420 O   0  0  0  0  0
   14.5530   54.7910   90.6810 C   0  0  0  0  0
   13.0720   54.5300   90.5360 N   0  0  0  0  0
   12.0920   54.2990   91.4430 C   0  0  0  0  0
   10.9170   54.1760   91.1150 O   0  0  0  0  0
   12.4600   54.2160   92.9440 C   0  0  0  0  0
   12.6750   52.7720   93.4310 C   0  0  0  0  0
   11.3560   51.9470   93.4330 C   0  0  0  0  0
   13.2170   52.8110   94.8750 C   0  0  0  0  0
   13.7170   52.0500   92.5710 C   0  0  0  0  0
   11.3320   54.7700   93.6960 N   0  0  0  0  0
   11.3260   55.9320   94.3580 C   0  0  0  0  0
   12.2950   56.6910   94.4700 O   0  0  0  0  0
    9.9740   56.1850   95.0840 C   0  0  0  0  0
    9.8240   55.1070   96.0840 N   0  0  0  0  0
    8.8720   54.1540   96.0220 C   0  0  0  0  0
    7.9790   54.0850   95.1760 O   0  0  0  0  0
    8.9460   53.1230   97.1460 C   0  0  0  0  0
    9.9390   57.5110   95.8010 C   0  0  0  0  0
    8.6370   57.6150   96.3520 C   0  0  0  0  0
    7.5280   57.8130   95.5250 C   0  0  0  0  0
    6.2460   57.9190   96.0520 C   0  0  0  0  0
    6.0510   57.8350   97.4240 C   0  0  0  0  0
    7.1400   57.6310   98.2630 C   0  0  0  0  0
    8.4260   57.5210   97.7350 C   0  0  0  0  0
   11.9661   50.9945   79.7534 H   0  0  0  0  0
   12.5197   49.4229   80.3816 H   0  0  0  0  0
   11.7484   50.5973   81.4756 H   0  0  0  0  0
   16.8006   51.6874   79.7488 H   0  0  0  0  0
   14.1686   53.8261   83.5678 H   0  0  0  0  0
   12.7927   54.2106   85.5917 H   0  0  0  0  0
   12.4226   49.9287   83.1282 H   0  0  0  0  0
   11.0204   50.3171   85.1237 H   0  0  0  0  0
   11.0601   51.5239   87.2459 H   0  0  0  0  0
    9.9692   52.5970   86.3304 H   0  0  0  0  0
   11.1157   54.5190   87.2103 H   0  0  0  0  0
   11.9119   55.3819   88.9721 H   0  0  0  0  0
   13.8600   55.8508   87.6032 H   0  0  0  0  0
   14.5399   54.2801   87.8913 H   0  0  0  0  0
   15.9701   55.7024   89.2517 H   0  0  0  0  0
   15.0912   57.4236   90.4426 H   0  0  0  0  0
   14.7928   55.2663   91.6322 H   0  0  0  0  0
   15.1322   53.8676   90.6835 H   0  0  0  0  0
   13.3926   54.7599   93.0943 H   0  0  0  0  0
   10.6323   52.4229   94.0948 H   0  0  0  0  0
   10.9530   51.9062   92.4211 H   0  0  0  0  0
   11.5618   50.9360   93.7846 H   0  0  0  0  0
   14.1629   53.3524   94.8922 H   0  0  0  0  0
   12.4964   53.3155   95.5187 H   0  0  0  0  0
   13.3732   51.7926   95.2307 H   0  0  0  0  0
   13.3761   52.0227   91.5360 H   0  0  0  0  0
   14.6660   52.5831   92.6284 H   0  0  0  0  0
   13.8477   51.0323   92.9388 H   0  0  0  0  0
   10.4733   54.2199   93.7167 H   0  0  0  0  0
    9.1721   56.1986   94.3459 H   0  0  0  0  0
   10.4783   55.0825   96.8661 H   0  0  0  0  0
    8.0270   53.1586   97.7311 H   0  0  0  0  0
    9.0670   52.1281   96.7174 H   0  0  0  0  0
    9.7966   53.3489   97.7891 H   0  0  0  0  0
   10.1499   58.3363   95.1209 H   0  0  0  0  0
   10.7039   57.5643   96.5757 H   0  0  0  0  0
    7.6709   57.8857   94.4468 H   0  0  0  0  0
    5.3943   58.0680   95.3883 H   0  0  0  0  0
    5.0484   57.9286   97.8412 H   0  0  0  0  0
    6.9881   57.5566   99.3398 H   0  0  0  0  0
    9.2730   57.3608   98.4020 H   0  0  0  0  0
  1  2  1  0  0  0
  2  3  4  0  0  0
  2  6  4  0  0  0
  3  4  4  0  0  0
  4  5  4  0  0  0
  5  6  4  0  0  0
  6  7  1  0  0  0
  7  8  4  0  0  0
  7 10  4  0  0  0
  8  9  4  0  0  0
  9 12  4  0  0  0
 10 11  4  0  0  0
 11 12  4  0  0  0
 12 13  1  0  0  0
 13 14  1  0  0  0
 14 15  1  0  0  0
 15 16  2  0  0  0
 15 17  1  0  0  0
 17 18  1  0  0  0
 17 22  1  0  0  0
 18 19  1  0  0  0
 19 20  1  0  0  0
 19 21  1  0  0  0
 21 22  1  0  0  0
 22 23  1  0  0  0
 23 24  2  0  0  0
 23 25  1  0  0  0
 25 26  1  0  0  0
 25 30  1  0  0  0
 26 27  1  0  0  0
 26 28  1  0  0  0
 26 29  1  0  0  0
 30 31  1  0  0  0
 31 32  2  0  0  0
 31 33  1  0  0  0
 33 34  1  0  0  0
 33 38  1  0  0  0
 34 35  1  0  0  0
 35 36  2  0  0  0
 35 37  1  0  0  0
 38 39  1  0  0  0
 39 40  4  0  0  0
 39 44  4  0  0  0
 40 41  4  0  0  0
 41 42  4  0  0  0
 42 43  4  0  0  0
 43 44  4  0  0  0
  1 45  1  0  0  0
  1 46  1  0  0  0
  1 47  1  0  0  0
  4 48  1  0  0  0
  8 49  1  0  0  0
  9 50  1  0  0  0
 10 51  1  0  0  0
 11 52  1  0  0  0
 13 53  1  0  0  0
 13 54  1  0  0  0
 14 55  1  0  0  0
 17 56  1  0  0  0
 18 57  1  0  0  0
 18 58  1  0  0  0
 19 59  1  0  0  0
 20 60  1  0  0  0
 21 61  1  0  0  0
 21 62  1  0  0  0
 25 63  1  0  0  0
 27 64  1  0  0  0
 27 65  1  0  0  0
 27 66  1  0  0  0
 28 67  1  0  0  0
 28 68  1  0  0  0
 28 69  1  0  0  0
 29 70  1  0  0  0
 29 71  1  0  0  0
 29 72  1  0  0  0
 30 73  1  0  0  0
 33 74  1  0  0  0
 34 75  1  0  0  0
 37 76  1  0  0  0
 37 77  1  0  0  0
 37 78  1  0  0  0
 38 79  1  0  0  0
 38 80  1  0  0  0
 40 81  1  0  0  0
 41 82  1  0  0  0
 42 83  1  0  0  0
 43 84  1  0  0  0
 44 85  1  0  0  0
M  END
$$$$
