5q1b_ligand
  -I-interpret- 

 67 72  0  0  0  0  0  0  0  0999 V2000
   12.9490   24.1540    3.8350 N   0  0  0  0  0
   13.2270   25.8230    2.3660 N   0  0  0  0  0
   11.7580   24.8740    3.8500 C   0  0  0  0  0
   11.9360   25.8980    2.9380 C   0  0  0  0  0
   12.3540   21.7960    4.4160 C   0  0  0  0  0
   13.3060   22.9730    4.6620 C   0  0  0  0  0
   10.5890   24.6990    4.5740 C   0  0  0  0  0
   10.8980   26.8030    2.7130 C   0  0  0  0  0
   11.9890   21.6180    3.1250 N   0  0  0  0  0
    9.5860   25.5960    4.3420 C   0  0  0  0  0
    9.7340   26.6260    3.4300 C   0  0  0  0  0
    9.4720   18.5500    1.6590 C   0  0  0  0  0
   21.1390   22.4340    1.1930 C   0  0  0  0  0
   20.7680   21.2850    0.6080 C   0  0  0  0  0
   15.2340   23.1430    1.8580 C   0  0  0  0  0
   16.4600   22.6190    1.4940 C   0  0  0  0  0
   13.4180   23.3380    6.1540 C   0  0  0  0  0
   13.7900   24.7860    2.9380 C   0  0  0  0  0
    8.7090   27.4820    3.2450 F   0  0  0  0  0
    8.4220   25.4710    5.0170 F   0  0  0  0  0
   15.1500   24.3230    2.6090 C   0  0  0  0  0
   17.6460   23.2570    1.8550 C   0  0  0  0  0
   18.9640   22.6630    1.4510 C   0  0  0  0  0
   20.1200   23.2270    1.6780 N   0  0  0  0  0
   19.0620   21.1360    0.6400 S   0  0  0  0  0
   17.5720   24.4390    2.6030 C   0  0  0  0  0
   16.3370   24.9680    2.9770 C   0  0  0  0  0
   11.9730   21.0850    5.3450 O   0  0  0  0  0
   11.1290   20.5900    2.6300 C   0  0  0  0  0
   10.9550   20.4170    1.2560 C   0  0  0  0  0
   10.1330   19.4110    0.7810 C   0  0  0  0  0
    8.5760   17.4480    1.1420 C   0  0  0  0  0
    8.2930   16.4770    1.8290 O   0  0  0  0  0
    8.1370   17.6070   -0.0760 O   0  0  0  0  0
    9.6560   18.7240    3.0320 C   0  0  0  0  0
   10.4760   19.7290    3.5110 C   0  0  0  0  0
   13.9340   24.7950    6.3530 C   0  0  0  0  0
   14.0400   25.1660    7.8430 C   0  0  0  0  0
   14.9300   24.1850    8.5970 C   0  0  0  0  0
   14.4400   22.7390    8.4050 C   0  0  0  0  0
   14.3380   22.3770    6.9050 C   0  0  0  0  0
   14.2950   22.6409    4.3464 H   0  0  0  0  0
   10.4762   23.8867    5.2920 H   0  0  0  0  0
   11.0035   27.6187    1.9977 H   0  0  0  0  0
   12.3620   22.2782    2.4429 H   0  0  0  0  0
   22.1860   22.7243    1.2800 H   0  0  0  0  0
   21.4515   20.5541    0.1760 H   0  0  0  0  0
   14.3199   22.6313    1.5568 H   0  0  0  0  0
   16.5002   21.6950    0.9172 H   0  0  0  0  0
   12.4109   23.2574    6.5630 H   0  0  0  0  0
   18.4889   24.9505    2.8957 H   0  0  0  0  0
   16.2956   25.8887    3.5590 H   0  0  0  0  0
   11.4680   21.0761    0.5557 H   0  0  0  0  0
    9.9995   19.2888   -0.2939 H   0  0  0  0  0
    8.4767   18.4311   -0.4324 H   0  0  0  0  0
    9.1484   18.0613    3.7330 H   0  0  0  0  0
   10.6130   19.8491    4.5857 H   0  0  0  0  0
   13.2267   25.4763    5.8800 H   0  0  0  0  0
   14.9271   24.8700    5.9100 H   0  0  0  0  0
   13.0419   25.1348    8.2799 H   0  0  0  0  0
   14.4767   26.1616    7.9221 H   0  0  0  0  0
   14.8977   24.4277    9.6591 H   0  0  0  0  0
   15.9459   24.2650    8.2101 H   0  0  0  0  0
   13.4511   22.6445    8.8535 H   0  0  0  0  0
   15.1537   22.0643    8.8778 H   0  0  0  0  0
   15.3341   22.4420    6.4672 H   0  0  0  0  0
   13.9264   21.3712    6.8214 H   0  0  0  0  0
  1  3  4  0  0  0
  6  1  1  0  0  0
  1 18  4  0  0  0
  2  4  4  0  0  0
 18  2  4  0  0  0
  3  4  4  0  0  0
  3  7  4  0  0  0
  4  8  4  0  0  0
  5  6  1  0  0  0
  9  5  1  0  0  0
  5 28  2  0  0  0
  6 17  1  0  0  0
  7 10  4  0  0  0
  8 11  4  0  0  0
 29  9  1  0  0  0
 10 11  4  0  0  0
 10 20  1  0  0  0
 11 19  1  0  0  0
 31 12  4  0  0  0
 12 32  1  0  0  0
 12 35  4  0  0  0
 14 13  4  0  0  0
 24 13  4  0  0  0
 25 14  4  0  0  0
 15 16  4  0  0  0
 21 15  4  0  0  0
 16 22  4  0  0  0
 17 37  1  0  0  0
 17 41  1  0  0  0
 18 21  1  0  0  0
 21 27  4  0  0  0
 22 23  1  0  0  0
 26 22  4  0  0  0
 23 24  4  0  0  0
 23 25  4  0  0  0
 27 26  4  0  0  0
 30 29  4  0  0  0
 29 36  4  0  0  0
 30 31  4  0  0  0
 32 33  2  0  0  0
 32 34  1  0  0  0
 35 36  4  0  0  0
 37 38  1  0  0  0
 38 39  1  0  0  0
 39 40  1  0  0  0
 40 41  1  0  0  0
  6 42  1  0  0  0
  7 43  1  0  0  0
  8 44  1  0  0  0
  9 45  1  0  0  0
 13 46  1  0  0  0
 14 47  1  0  0  0
 15 48  1  0  0  0
 16 49  1  0  0  0
 17 50  1  0  0  0
 26 51  1  0  0  0
 27 52  1  0  0  0
 30 53  1  0  0  0
 31 54  1  0  0  0
 34 55  1  0  0  0
 35 56  1  0  0  0
 36 57  1  0  0  0
 37 58  1  0  0  0
 37 59  1  0  0  0
 38 60  1  0  0  0
 38 61  1  0  0  0
 39 62  1  0  0  0
 39 63  1  0  0  0
 40 64  1  0  0  0
 40 65  1  0  0  0
 41 66  1  0  0  0
 41 67  1  0  0  0
M  END
$$$$
