4r3b_ligand
  -I-interpret- 

 37 36  0  0  0  0  0  0  0  0999 V2000
    9.1870   34.1860    6.2020 O   0  0  0  0  0
    8.3060   33.8400    5.4150 C   0  0  0  0  0
    7.6660   34.9380    4.6740 C   0  0  0  0  0
    6.4330   34.6170    3.8710 C   0  0  0  0  0
    5.3840   34.7360    4.8190 O   0  0  0  0  0
    8.1470   36.2020    4.7600 C   0  0  0  0  0
    7.6180   37.1780    4.1470 N   0  3  0  0  0
    8.1390   38.5450    4.2500 C   0  0  0  0  0
    9.4180   38.7420    3.4710 C   0  0  0  0  0
    9.6480   38.0150    2.4810 O   0  0  0  0  0
   10.2150   39.6290    3.8560 O   0  0  0  0  0
    7.0680   39.6510    4.0060 C   0  0  0  0  0
    7.4550   40.6260    2.9010 C   0  0  0  0  0
    6.9720   40.4200    5.3150 C   0  0  0  0  0
    5.5340   39.0910    3.6240 S   0  0  0  0  0
    5.0650   38.1570    4.6100 O   0  0  0  0  0
    5.5150   38.4610    2.3260 O   0  0  0  0  0
    9.5470   33.4106    6.6386 H   0  0  0  0  0
    7.5249   33.3637    6.0075 H   0  0  0  0  0
    8.7812   33.1964    4.6746 H   0  0  0  0  0
    8.2693   35.4999    3.9610 H   0  0  0  0  0
    6.4756   33.6278    3.4152 H   0  0  0  0  0
    6.3039   35.2824    3.0174 H   0  0  0  0  0
    4.5453   34.5463    4.3921 H   0  0  0  0  0
    9.1351   36.1262    4.3062 H   0  0  0  0  0
    8.0005   36.4556    5.8099 H   0  0  0  0  0
    6.6902   37.2458    4.5653 H   0  0  0  0  0
    7.7580   36.9444    3.1640 H   0  0  0  0  0
    8.4146   38.6749    5.2965 H   0  0  0  0  0
    9.8523   40.0705    4.6275 H   0  0  0  0  0
    7.4551   40.1060    1.9430 H   0  0  0  0  0
    6.7354   41.4442    2.8717 H   0  0  0  0  0
    8.4504   41.0229    3.1006 H   0  0  0  0  0
    6.2835   41.2563    5.1939 H   0  0  0  0  0
    6.6057   39.7567    6.0986 H   0  0  0  0  0
    7.9582   40.7961    5.5872 H   0  0  0  0  0
    4.7267   40.1477    3.6037 H   0  0  0  0  0
  1  2  1  0  0  0
  2  3  1  0  0  0
  3  4  1  0  0  0
  3  6  1  0  0  0
  4  5  1  0  0  0
  6  7  1  0  0  0
  7  8  1  0  0  0
  8  9  1  0  0  0
  8 12  1  0  0  0
  9 10  2  0  0  0
  9 11  1  0  0  0
 12 13  1  0  0  0
 12 14  1  0  0  0
 12 15  1  0  0  0
 15 16  2  0  0  0
 15 17  2  0  0  0
  1 18  1  0  0  0
  2 19  1  0  0  0
  2 20  1  0  0  0
  3 21  1  0  0  0
  4 22  1  0  0  0
  4 23  1  0  0  0
  5 24  1  0  0  0
  6 25  1  0  0  0
  6 26  1  0  0  0
  7 27  1  0  0  0
  7 28  1  0  0  0
  8 29  1  0  0  0
 11 30  1  0  0  0
 13 31  1  0  0  0
 13 32  1  0  0  0
 13 33  1  0  0  0
 14 34  1  0  0  0
 14 35  1  0  0  0
 14 36  1  0  0  0
 15 37  1  0  0  0
M  END
$$$$
