5le1_ligand
  -I-interpret- 

 33 35  0  0  0  0  0  0  0  0999 V2000
  111.8080   70.8670    9.8390 C   0  0  0  0  0
  111.7250   69.6940   10.1690 O   0  0  0  0  0
  112.4720   73.0370    9.9010 C   0  0  0  0  0
  114.9900   71.6490   11.4890 C   0  0  0  0  0
  113.4790   71.4150   11.6370 C   0  0  0  0  0
  115.5840   72.8520   11.8030 C   0  0  0  0  0
  116.9540   73.0580   11.7050 C   0  0  0  0  0
  109.9350   73.2200    6.8840 C   0  0  0  0  0
  110.8570   73.6780    7.7980 C   0  0  0  0  0
  111.3950   72.8100    8.7210 C   0  0  0  0  0
  111.0250   71.4430    8.7470 C   0  0  0  0  0
  110.1020   70.9860    7.8170 C   0  0  0  0  0
  109.5710   71.8540    6.8790 C   0  0  0  0  0
  109.6730   69.5350    7.7730 C   0  0  0  0  0
  109.1240   69.0170    8.7670 O   0  0  0  0  0
  109.8470   68.8760    6.6980 O   0  0  0  0  0
  112.6510   71.7110   10.4950 N   0  0  0  0  0
  117.7600   72.0200   11.3010 C   0  0  0  0  0
  117.1910   70.8000   10.9920 C   0  0  0  0  0
  115.8200   70.6220   11.0930 C   0  0  0  0  0
  115.2690   69.4320   10.7760 F   0  0  0  0  0
  114.5920   74.1710   12.3370 Cl  0  0  0  0  0
  112.1284   73.7688   10.6321 H   0  0  0  0  0
  113.4098   73.4458    9.5247 H   0  0  0  0  0
  113.1504   72.0935   12.4243 H   0  0  0  0  0
  113.3616   70.3466   11.8184 H   0  0  0  0  0
  117.3847   74.0301   11.9453 H   0  0  0  0  0
  109.4873   73.9080    6.1669 H   0  0  0  0  0
  111.1601   74.7250    7.7908 H   0  0  0  0  0
  108.8687   71.4826    6.1327 H   0  0  0  0  0
  110.2813   69.4340    6.0487 H   0  0  0  0  0
  118.8385   72.1587   11.2252 H   0  0  0  0  0
  117.8229   69.9734   10.6672 H   0  0  0  0  0
  1  2  2  0  0  0
  1 11  1  0  0  0
 17  1  1  0  0  0
 10  3  1  0  0  0
  3 17  1  0  0  0
  5  4  1  0  0  0
  4  6  4  0  0  0
  4 20  4  0  0  0
 17  5  1  0  0  0
  6  7  4  0  0  0
  6 22  1  0  0  0
  7 18  4  0  0  0
  9  8  4  0  0  0
  8 13  4  0  0  0
  9 10  4  0  0  0
 10 11  4  0  0  0
 11 12  4  0  0  0
 12 13  4  0  0  0
 12 14  1  0  0  0
 14 15  2  0  0  0
 14 16  1  0  0  0
 18 19  4  0  0  0
 19 20  4  0  0  0
 20 21  1  0  0  0
  3 23  1  0  0  0
  3 24  1  0  0  0
  5 25  1  0  0  0
  5 26  1  0  0  0
  7 27  1  0  0  0
  8 28  1  0  0  0
  9 29  1  0  0  0
 13 30  1  0  0  0
 16 31  1  0  0  0
 18 32  1  0  0  0
 19 33  1  0  0  0
M  END
$$$$
