2wec_ligand
  -I-interpret- 

 71 73  0  0  0  0  0  0  0  0999 V2000
   17.3100    4.0380   19.5450 O   0  0  0  0  0
   14.4910    4.2810   19.1430 C   0  0  0  0  0
   13.6660    3.1820   18.9680 C   0  0  0  0  0
   12.6620    2.8580   19.9120 C   0  0  0  0  0
   12.4470    3.6170   21.0620 C   0  0  0  0  0
   13.2870    4.7830   21.2830 C   0  0  0  0  0
   14.2990    5.1100   20.3310 C   0  0  0  0  0
   15.1100    6.2540   20.5700 C   0  0  0  0  0
   14.9470    7.0550   21.6940 C   0  0  0  0  0
   13.9450    6.7400   22.6320 C   0  0  0  0  0
   13.1420    5.6320   22.4200 C   0  0  0  0  0
   15.5510    4.5630   18.0780 C   0  0  0  0  0
   16.9450    4.7810   18.6330 C   0  0  0  0  0
   20.1920    8.8230   21.0700 C   0  0  0  0  0
   18.0100    5.5590   18.4580 N   0  0  0  0  0
   19.3460    5.8100   19.0050 C   0  0  0  0  0
   19.2600    7.2470   19.5720 C   0  0  0  0  0
   18.3940    8.0880   19.2090 O   0  0  0  0  0
   20.4930    5.9580   17.9970 C   0  0  0  0  0
   20.4440    4.5830   17.3320 C   0  0  0  0  0
   20.2190    6.8970   16.8240 C   0  0  0  0  0
   20.2080    7.4740   20.4850 N   0  0  0  0  0
   21.6660    9.1360   22.0970 P   0  0  0  0  0
   22.5810   10.0710   21.4550 O   0  0  0  0  0
   22.2520    7.8940   22.5710 O   0  0  0  0  0
   20.7550   11.1110   23.4310 C   0  0  0  0  0
   19.3880   11.3950   24.0660 C   0  0  0  0  0
   19.2920   11.0050   25.5130 C   0  0  0  0  0
   20.0320   11.6790   26.4900 C   0  0  0  0  0
   18.4530    9.9690   25.9060 C   0  0  0  0  0
   19.9430   11.3160   27.8270 C   0  0  0  0  0
   18.3540    9.6040   27.2480 C   0  0  0  0  0
   19.1000   10.2770   28.2080 C   0  0  0  0  0
   21.8670   11.8460   24.1640 C   0  0  0  0  0
   22.5700   14.1300   24.3970 C   0  0  0  0  0
   21.0200    9.7180   23.3980 O   0  0  0  0  0
   21.5390   13.1650   24.0740 O   0  0  0  0  0
   22.9460   11.3900   24.4870 O   0  0  0  0  0
   13.7924    2.5543   18.0859 H   0  0  0  0  0
   12.0349    1.9845   19.7337 H   0  0  0  0  0
   11.6701    3.3435   21.7760 H   0  0  0  0  0
   15.8849    6.5109   19.8477 H   0  0  0  0  0
   15.5904    7.9212   21.8485 H   0  0  0  0  0
   13.8030    7.3620   23.5158 H   0  0  0  0  0
   12.3680    5.3992   23.1513 H   0  0  0  0  0
   15.2597    5.4817   17.5689 H   0  0  0  0  0
   15.5959    3.6886   17.4288 H   0  0  0  0  0
   20.1819    9.5483   20.2564 H   0  0  0  0  0
   19.3092    8.9105   21.7033 H   0  0  0  0  0
   17.8385    6.1961   17.6801 H   0  0  0  0  0
   19.5630    4.9667   19.6606 H   0  0  0  0  0
   21.3882    6.3141   18.5068 H   0  0  0  0  0
   20.6117    3.8113   18.0833 H   0  0  0  0  0
   19.4665    4.4379   16.8721 H   0  0  0  0  0
   21.2190    4.5225   16.5679 H   0  0  0  0  0
   19.3592    6.5327   16.2617 H   0  0  0  0  0
   20.0098    7.8976   17.2024 H   0  0  0  0  0
   21.0932    6.9286   16.1736 H   0  0  0  0  0
   20.8906    6.7661   20.7557 H   0  0  0  0  0
   22.0969   10.8533   21.1806 H   0  0  0  0  0
   20.7238   11.4797   22.4057 H   0  0  0  0  0
   18.6507   10.8038   23.5228 H   0  0  0  0  0
   19.2235   12.4711   24.0102 H   0  0  0  0  0
   20.6870   12.4998   26.1978 H   0  0  0  0  0
   17.8664    9.4364   25.1574 H   0  0  0  0  0
   20.5324   11.8440   28.5767 H   0  0  0  0  0
   17.6914    8.7907   27.5441 H   0  0  0  0  0
   19.0248    9.9914   29.2572 H   0  0  0  0  0
   22.8955   13.9811   25.4266 H   0  0  0  0  0
   23.4165   13.9945   23.7238 H   0  0  0  0  0
   22.1711   15.1379   24.2829 H   0  0  0  0  0
 13  1  2  0  0  0
  2  3  4  0  0  0
  2  7  4  0  0  0
 12  2  1  0  0  0
  3  4  4  0  0  0
  4  5  4  0  0  0
  6  5  4  0  0  0
  7  6  4  0  0  0
  6 11  4  0  0  0
  7  8  4  0  0  0
  8  9  4  0  0  0
  9 10  4  0  0  0
 11 10  4  0  0  0
 13 12  1  0  0  0
 15 13  1  0  0  0
 16 15  1  0  0  0
 17 16  1  0  0  0
 16 19  1  0  0  0
 17 18  2  0  0  0
 22 17  1  0  0  0
 19 20  1  0  0  0
 19 21  1  0  0  0
 23 24  1  0  0  0
 23 25  2  0  0  0
 23 36  1  0  0  0
 26 27  1  0  0  0
 26 34  1  0  0  0
 36 26  1  0  0  0
 27 28  1  0  0  0
 28 29  4  0  0  0
 28 30  4  0  0  0
 29 31  4  0  0  0
 30 32  4  0  0  0
 31 33  4  0  0  0
 32 33  4  0  0  0
 34 37  1  0  0  0
 34 38  2  0  0  0
 37 35  1  0  0  0
 14 23  1  0  0  0
 22 14  1  0  0  0
  3 39  1  0  0  0
  4 40  1  0  0  0
  5 41  1  0  0  0
  8 42  1  0  0  0
  9 43  1  0  0  0
 10 44  1  0  0  0
 11 45  1  0  0  0
 12 46  1  0  0  0
 12 47  1  0  0  0
 14 48  1  0  0  0
 14 49  1  0  0  0
 15 50  1  0  0  0
 16 51  1  0  0  0
 19 52  1  0  0  0
 20 53  1  0  0  0
 20 54  1  0  0  0
 20 55  1  0  0  0
 21 56  1  0  0  0
 21 57  1  0  0  0
 21 58  1  0  0  0
 22 59  1  0  0  0
 24 60  1  0  0  0
 26 61  1  0  0  0
 27 62  1  0  0  0
 27 63  1  0  0  0
 29 64  1  0  0  0
 30 65  1  0  0  0
 31 66  1  0  0  0
 32 67  1  0  0  0
 33 68  1  0  0  0
 35 69  1  0  0  0
 35 70  1  0  0  0
 35 71  1  0  0  0
M  END
$$$$
