### 
### Created by X-TOOL on Mon Sep 10 21:12:46 2018
### 

@<TRIPOS>MOLECULE
1d3v_ligand
   28    27     1     0     0
SMALL
GAST_HUCK


@<TRIPOS>ATOM
      1 N          23.0800   12.3040   -3.9240 N.4       1 ABH         0.2327
      2 CA         22.9300   12.2520   -5.4030 C.3       1 ABH         0.0283
      3 C          23.8930   13.3440   -5.9190 C.2       1 ABH         0.0844
      4 O          24.1780   13.5660   -7.0630 O.co2     1 ABH        -0.5643
      5 OT         24.3900   14.0690   -4.8950 O.co2     1 ABH        -0.5643
      6 CB         21.4730   12.6040   -5.7980 C.3       1 ABH         0.0024
      7 CG         20.9930   13.9780   -5.3450 C.3       1 ABH        -0.0449
      8 CD         19.4760   14.1420   -5.3740 C.3       1 ABH        -0.0328
      9 CE         19.0450   15.6080   -5.3240 C.3       1 ABH         0.0768
     10 B          18.0707   15.7946   -5.1981 B         1 NON         1.0129
     11 O2         17.9307   16.7662   -5.0071 O.3       1 NON        -0.3003
     12 O1         17.7308   15.3096   -4.3924 O.3       1 NON        -0.3003
     13 O3         17.4897   15.5424   -5.9720 O.3       1 NON        -0.3003
     14 H1         22.4787   11.6145   -3.5009 H         1 ABH         0.2010
     15 H2         22.8249   13.2211   -3.5924 H         1 ABH         0.2010
     16 H3         24.0380   12.1116   -3.6764 H         1 ABH         0.2010
     17 H4         23.2008   11.2616   -5.7975 H         1 ABH         0.1024
     18 H5         20.8080   11.8479   -5.3552 H         1 ABH         0.0339
     19 H6         21.3977   12.5615   -6.8946 H         1 ABH         0.0339
     20 H7         21.4363   14.7359   -6.0077 H         1 ABH         0.0269
     21 H8         21.3399   14.1440   -4.3144 H         1 ABH         0.0269
     22 H9         19.0478   13.6186   -4.5064 H         1 ABH         0.0280
     23 H10        19.0901   13.6922   -6.3007 H         1 ABH         0.0280
     24 H11        19.3514   16.0753   -6.2715 H         1 ABH         0.0503
     25 H12        19.5830   16.0826   -4.4902 H         1 ABH         0.0503
     26 H13        17.0174   16.9175   -4.7939 H         1 NON         0.2287
     27 H14        18.2213   15.5863   -3.6273 H         1 NON         0.2287
     28 H15        16.5804   15.7048   -5.7500 H         1 NON         0.2287
@<TRIPOS>BOND
     1    1    2 1  
     2    2    3 1  
     3    2    6 1  
     4    3    4 ar 
     5    3    5 ar 
     6    6    7 1  
     7    7    8 1  
     8    8    9 1  
     9    9   10 1  
    10   10   11 1  
    11   10   13 1  
    12   10   12 1  
    13    1   14 1  
    14    1   15 1  
    15    1   16 1  
    16    2   17 1  
    17    6   18 1  
    18    6   19 1  
    19    7   20 1  
    20    7   21 1  
    21    8   22 1  
    22    8   23 1  
    23    9   24 1  
    24    9   25 1  
    25   11   26 1  
    26   12   27 1  
    27   13   28 1  
@<TRIPOS>SUBSTRUCTURE
     1 ABH         1

