1d3v_ligand
  -I-interpret- 

 29 28  0  0  0  0  0  0  0  0999 V2000
   23.0800   12.3040   -3.9240 N   0  3  0  0  0
   22.9300   12.2520   -5.4030 C   0  0  0  0  0
   23.8930   13.3440   -5.9190 C   0  0  0  0  0
   24.1780   13.5660   -7.0630 O   0  0  0  0  0
   24.3900   14.0690   -4.8950 O   0  0  0  0  0
   21.4730   12.6040   -5.7980 C   0  0  0  0  0
   20.9930   13.9780   -5.3450 C   0  0  0  0  0
   19.4760   14.1420   -5.3740 C   0  0  0  0  0
   19.0450   15.6080   -5.3240 C   0  0  0  0  0
   18.0707   15.7946   -5.1981 B   0  0  0  0  0
   17.9307   16.7662   -5.0071 O   0  0  0  0  0
   17.7308   15.3096   -4.3924 O   0  0  0  0  0
   17.4897   15.5424   -5.9720 O   0  0  0  0  0
   24.0407   12.0713   -3.6725 H   0  0  0  0  0
   22.8588   13.2434   -3.5938 H   0  0  0  0  0
   22.4429   11.6328   -3.4950 H   0  0  0  0  0
   23.1492   11.2670   -5.8151 H   0  0  0  0  0
   24.0404   13.7323   -4.0667 H   0  0  0  0  0
   20.8303   11.8710   -5.3104 H   0  0  0  0  0
   21.4344   12.6020   -6.8873 H   0  0  0  0  0
   21.4121   14.7117   -6.0336 H   0  0  0  0  0
   21.3141   14.1097   -4.3117 H   0  0  0  0  0
   19.0666   13.6408   -4.4969 H   0  0  0  0  0
   19.1092   13.7151   -6.3075 H   0  0  0  0  0
   19.3024   16.0251   -6.2976 H   0  0  0  0  0
   19.5423   16.0327   -4.4520 H   0  0  0  0  0
   16.9934   16.9359   -4.8878 H   0  0  0  0  0
   16.7956   15.4947   -4.2798 H   0  0  0  0  0
   16.5761   15.7545   -5.7673 H   0  0  0  0  0
  1  2  1  0  0  0
  2  3  1  0  0  0
  2  6  1  0  0  0
  3  4  2  0  0  0
  3  5  1  0  0  0
  6  7  1  0  0  0
  7  8  1  0  0  0
  8  9  1  0  0  0
  9 10  1  0  0  0
 10 11  1  0  0  0
 10 13  1  0  0  0
 10 12  1  0  0  0
  1 14  1  0  0  0
  1 15  1  0  0  0
  1 16  1  0  0  0
  2 17  1  0  0  0
  5 18  1  0  0  0
  6 19  1  0  0  0
  6 20  1  0  0  0
  7 21  1  0  0  0
  7 22  1  0  0  0
  8 23  1  0  0  0
  8 24  1  0  0  0
  9 25  1  0  0  0
  9 26  1  0  0  0
 11 27  1  0  0  0
 12 28  1  0  0  0
 13 29  1  0  0  0
M  END
$$$$
