2jdy_ligand
  -I-interpret- 

 27 27  0  0  0  0  0  0  0  0999 V2000
   -4.4630  -17.8730   -5.8620 C   0  0  0  0  0
   -3.7120  -17.2790   -4.6580 C   0  0  0  0  0
   -4.6820  -16.6970   -3.6280 C   0  0  0  0  0
   -5.6640  -15.7360   -4.2980 C   0  0  0  0  0
   -6.4030  -16.5370   -5.3640 C   0  0  0  0  0
   -7.5240  -15.7430   -6.0400 C   0  0  0  0  0
   -5.5150  -19.9010   -6.5190 C   0  0  0  0  0
   -5.1300  -19.0560   -5.4150 O   0  0  0  0  0
   -2.8330  -16.2240   -5.1120 O   0  0  0  0  0
   -3.9410  -15.9340   -2.6550 O   0  0  0  0  0
   -6.5470  -15.1530   -3.3100 O   0  0  0  0  0
   -5.4450  -16.9560   -6.3560 O   0  0  0  0  0
   -8.3180  -16.6950   -6.7870 O   0  0  0  0  0
   -3.7543  -18.0856   -6.6624 H   0  0  0  0  0
   -3.1419  -18.0809   -4.1889 H   0  0  0  0  0
   -5.2197  -17.5238   -3.1638 H   0  0  0  0  0
   -5.1573  -14.8943   -4.7702 H   0  0  0  0  0
   -6.8754  -17.3899   -4.8766 H   0  0  0  0  0
   -7.1141  -14.9779   -6.6993 H   0  0  0  0  0
   -8.1340  -15.2258   -5.2993 H   0  0  0  0  0
   -6.1905  -19.3530   -7.1759 H   0  0  0  0  0
   -4.6258  -20.1973   -7.0754 H   0  0  0  0  0
   -6.0186  -20.7889   -6.1368 H   0  0  0  0  0
   -2.2187  -16.5773   -5.7596 H   0  0  0  0  0
   -3.3114  -16.5077   -2.2121 H   0  0  0  0  0
   -6.0280  -14.6631   -2.6680 H   0  0  0  0  0
   -9.0357  -16.2349   -7.2283 H   0  0  0  0  0
  1  2  1  0  0  0
  1  8  1  0  0  0
  1 12  1  0  0  0
  2  3  1  0  0  0
  2  9  1  0  0  0
  3  4  1  0  0  0
  3 10  1  0  0  0
  4  5  1  0  0  0
  4 11  1  0  0  0
  5  6  1  0  0  0
  5 12  1  0  0  0
  6 13  1  0  0  0
  8  7  1  0  0  0
  1 14  1  0  0  0
  2 15  1  0  0  0
  3 16  1  0  0  0
  4 17  1  0  0  0
  5 18  1  0  0  0
  6 19  1  0  0  0
  6 20  1  0  0  0
  7 21  1  0  0  0
  7 22  1  0  0  0
  7 23  1  0  0  0
  9 24  1  0  0  0
 10 25  1  0  0  0
 11 26  1  0  0  0
 13 27  1  0  0  0
M  END
$$$$
