4fjz_ligand
  -I-interpret- 

 68 74  0  0  0  0  0  0  0  0999 V2000
   22.2990   17.8390   21.5940 C   0  0  0  0  0
   17.9210   19.7070   22.3140 C   0  0  0  0  0
   18.5780   20.9090   22.5530 C   0  0  0  0  0
   24.4700   16.1860   18.9580 C   0  0  0  0  0
   25.4250   15.1050   19.4690 C   0  0  0  0  0
   23.3720   14.9590   20.6190 C   0  0  0  0  0
   22.9370   13.4690   22.4490 C   0  0  0  0  0
   22.5010   14.4610   21.5820 C   0  0  0  0  0
   25.7330   14.0460   18.3930 C   0  0  0  0  0
   26.8010   14.5500   17.4180 C   0  0  0  0  0
   27.5480   16.2420   18.8420 C   0  0  0  0  0
   22.3300   11.6770   24.0350 C   0  0  0  0  0
   21.0340   10.9050   24.0250 C   0  0  0  0  0
   20.8700   13.7140   23.8170 C   0  0  0  0  0
   27.9490   15.0920   18.0870 O   0  0  0  0  0
   26.7140   15.7330   20.0130 C   0  0  0  0  0
   24.6630   14.4280   20.5760 C   0  0  0  0  0
   25.0590   13.4670   21.4260 N   0  0  0  0  0
   24.2430   12.9880   22.3480 C   0  0  0  0  0
   22.0700   12.9660   23.4080 N   0  0  0  0  0
   20.0510   11.6220   24.7780 O   0  0  0  0  0
   19.6660   12.7880   24.0490 C   0  0  0  0  0
   23.2140   15.9090   19.6810 N   0  0  0  0  0
   22.0520   16.5460   19.4270 C   0  0  0  0  0
   21.5320   17.5010   20.3080 C   0  0  0  0  0
   21.3220   16.2630   18.2680 C   0  0  0  0  0
   21.7910   15.3240   17.3540 C   0  0  0  0  0
   21.0690   15.0440   16.2000 C   0  0  0  0  0
   19.8730   15.7040   15.9490 C   0  0  0  0  0
   19.1890   15.4280   14.8190 F   0  0  0  0  0
   19.4010   16.6440   16.8580 C   0  0  0  0  0
   20.1190   16.9230   18.0150 C   0  0  0  0  0
   19.6460   17.8330   18.8740 N   0  0  0  0  0
   20.3150   18.1410   19.9980 C   0  0  0  0  0
   19.7440   19.0850   20.8530 C   0  0  0  0  0
   18.5150   18.7880   21.4540 C   0  0  0  0  0
   19.8030   21.1560   21.9270 C   0  0  0  0  0
   20.3490   20.2610   21.1080 N   0  0  0  0  0
   22.4015   16.9397   22.2014 H   0  0  0  0  0
   23.2874   18.2198   21.3366 H   0  0  0  0  0
   21.7508   18.5966   22.1540 H   0  0  0  0  0
   16.9641   19.4898   22.7886 H   0  0  0  0  0
   18.1421   21.6511   23.2218 H   0  0  0  0  0
   24.3440   16.1533   17.8758 H   0  0  0  0  0
   24.8436   17.1933   19.1421 H   0  0  0  0  0
   21.4842   14.8467   21.6552 H   0  0  0  0  0
   24.8200   13.8381   17.8351 H   0  0  0  0  0
   26.1038   13.1461   18.8837 H   0  0  0  0  0
   26.3578   15.3439   16.8168 H   0  0  0  0  0
   27.1323   13.7031   16.8171 H   0  0  0  0  0
   26.9691   16.9283   18.2239 H   0  0  0  0  0
   28.4179   16.7943   19.1975 H   0  0  0  0  0
   23.1033   11.1350   23.4907 H   0  0  0  0  0
   22.6877   11.8124   25.0557 H   0  0  0  0  0
   21.1907    9.9229   24.4711 H   0  0  0  0  0
   20.6897   10.7831   22.9980 H   0  0  0  0  0
   20.6148   14.4116   23.0193 H   0  0  0  0  0
   21.0907   14.2272   24.7530 H   0  0  0  0  0
   27.2798   14.9875   20.5717 H   0  0  0  0  0
   26.4683   16.5611   20.6778 H   0  0  0  0  0
   24.5912   12.2143   23.0323 H   0  0  0  0  0
   19.2693   12.4806   23.0814 H   0  0  0  0  0
   18.9147   13.3285   24.6248 H   0  0  0  0  0
   22.7304   14.8050   17.5445 H   0  0  0  0  0
   21.4420   14.3052   15.4907 H   0  0  0  0  0
   18.4635   17.1646   16.6625 H   0  0  0  0  0
   18.0234   17.8371   21.2484 H   0  0  0  0  0
   20.3196   22.0976   22.1129 H   0  0  0  0  0
 25  1  1  0  0  0
  2  3  4  0  0  0
 36  2  4  0  0  0
  3 37  4  0  0  0
  4  5  1  0  0  0
 23  4  1  0  0  0
  5  9  1  0  0  0
  5 16  1  0  0  0
 17  5  1  0  0  0
  6  8  4  0  0  0
  6 17  4  0  0  0
 23  6  1  0  0  0
  8  7  4  0  0  0
  7 19  4  0  0  0
  7 20  1  0  0  0
  9 10  1  0  0  0
 10 15  1  0  0  0
 11 15  1  0  0  0
 16 11  1  0  0  0
 12 13  1  0  0  0
 20 12  1  0  0  0
 13 21  1  0  0  0
 20 14  1  0  0  0
 14 22  1  0  0  0
 17 18  4  0  0  0
 18 19  4  0  0  0
 22 21  1  0  0  0
 24 23  1  0  0  0
 25 24  4  0  0  0
 24 26  4  0  0  0
 34 25  4  0  0  0
 26 27  4  0  0  0
 32 26  4  0  0  0
 27 28  4  0  0  0
 29 28  4  0  0  0
 29 30  1  0  0  0
 31 29  4  0  0  0
 32 31  4  0  0  0
 33 32  4  0  0  0
 34 33  4  0  0  0
 35 34  1  0  0  0
 35 36  4  0  0  0
 35 38  4  0  0  0
 37 38  4  0  0  0
  1 39  1  0  0  0
  1 40  1  0  0  0
  1 41  1  0  0  0
  2 42  1  0  0  0
  3 43  1  0  0  0
  4 44  1  0  0  0
  4 45  1  0  0  0
  8 46  1  0  0  0
  9 47  1  0  0  0
  9 48  1  0  0  0
 10 49  1  0  0  0
 10 50  1  0  0  0
 11 51  1  0  0  0
 11 52  1  0  0  0
 12 53  1  0  0  0
 12 54  1  0  0  0
 13 55  1  0  0  0
 13 56  1  0  0  0
 14 57  1  0  0  0
 14 58  1  0  0  0
 16 59  1  0  0  0
 16 60  1  0  0  0
 19 61  1  0  0  0
 22 62  1  0  0  0
 22 63  1  0  0  0
 27 64  1  0  0  0
 28 65  1  0  0  0
 31 66  1  0  0  0
 36 67  1  0  0  0
 37 68  1  0  0  0
M  END
$$$$
