1jlq_ligand
  -I-interpret- 

 34 35  0  0  0  0  0  0  0  0999 V2000
   -3.9010  -33.5840   22.5330 C   0  0  0  0  0
   -2.8990  -34.3040   21.8250 C   0  0  0  0  0
   -2.0400  -35.2210   22.5310 C   0  0  0  0  0
   -2.1770  -35.4350   23.9750 C   0  0  0  0  0
   -3.2100  -34.6770   24.6290 C   0  0  0  0  0
   -4.0550  -33.7710   23.9240 C   0  0  0  0  0
   -1.2120  -36.5520   24.8930 S   0  0  0  0  0
   -1.8200  -36.7460   26.2190 O   0  0  0  0  0
   -0.9970  -37.7880   24.1380 O   0  0  0  0  0
    0.2830  -35.7500   25.1550 C   0  0  0  0  0
    0.3400  -34.6140   26.0450 C   0  0  0  0  0
    1.5550  -33.9050   26.2480 C   0  0  0  0  0
    2.7350  -34.3310   25.5610 C   0  0  0  0  0
    2.7120  -35.4660   24.6790 C   0  0  0  0  0
    1.4720  -36.1590   24.4930 C   0  0  0  0  0
   -0.2340  -36.4910   21.2010 N   0  0  0  0  0
   -1.0370  -35.9250   21.7910 C   0  0  0  0  0
   -2.7780  -34.1260   20.4120 N   0  0  0  0  0
    1.5710  -32.7000   27.1980 C   0  0  0  0  0
    3.9780  -35.9500   23.9690 C   0  0  0  0  0
   -4.5499  -32.8879   22.0016 H   0  0  0  0  0
   -3.3517  -34.7999   25.7027 H   0  0  0  0  0
   -4.8253  -33.2188   24.4624 H   0  0  0  0  0
   -0.5616  -34.2958   26.5685 H   0  0  0  0  0
    3.6673  -33.7859   25.7087 H   0  0  0  0  0
    1.4398  -37.0214   23.8272 H   0  0  0  0  0
   -3.4061  -33.4885   19.9226 H   0  0  0  0  0
   -2.0636  -34.6365   19.8930 H   0  0  0  0  0
    0.8732  -31.9447   26.8365 H   0  0  0  0  0
    1.2747  -33.0220   28.1963 H   0  0  0  0  0
    2.5764  -32.2804   27.2336 H   0  0  0  0  0
    4.3672  -35.1509   23.3381 H   0  0  0  0  0
    4.7267  -36.2256   24.7117 H   0  0  0  0  0
    3.7388  -36.8170   23.3533 H   0  0  0  0  0
  1  2  4  0  0  0
  1  6  4  0  0  0
  2  3  4  0  0  0
  2 18  1  0  0  0
  3  4  4  0  0  0
  3 17  1  0  0  0
  4  5  4  0  0  0
  4  7  1  0  0  0
  5  6  4  0  0  0
  7  8  2  0  0  0
  7  9  2  0  0  0
  7 10  1  0  0  0
 10 11  4  0  0  0
 10 15  4  0  0  0
 11 12  4  0  0  0
 12 13  4  0  0  0
 12 19  1  0  0  0
 13 14  4  0  0  0
 14 15  4  0  0  0
 14 20  1  0  0  0
 17 16  3  0  0  0
  1 21  1  0  0  0
  5 22  1  0  0  0
  6 23  1  0  0  0
 11 24  1  0  0  0
 13 25  1  0  0  0
 15 26  1  0  0  0
 18 27  1  0  0  0
 18 28  1  0  0  0
 19 29  1  0  0  0
 19 30  1  0  0  0
 19 31  1  0  0  0
 20 32  1  0  0  0
 20 33  1  0  0  0
 20 34  1  0  0  0
M  END
$$$$
