### 
### Created by X-TOOL on Mon Aug  2 16:15:04 2021
### 

@<TRIPOS>MOLECULE
6mt6_ligand
  159   160     1     0     0
SMALL
GAST_HUCK


@<TRIPOS>ATOM
      1 N         -13.0860   14.8030  -36.5180 N.4       1 PHE         0.2394
      2 CA        -12.0600   14.2490  -37.4170 C.3       1 PHE         0.0744
      3 C         -10.6600   14.5570  -36.8720 C.2       1 PHE         0.2288
      4 O         -10.4250   15.6980  -36.4470 O.2       1 PHE        -0.3905
      5 CB        -12.2040   14.8780  -38.8300 C.3       1 PHE         0.0416
      6 CG        -11.4280   14.1510  -39.9080 C.ar      1 PHE        -0.0353
      7 CD1       -12.0320   13.1530  -40.6700 C.ar      1 PHE        -0.0600
      8 CD2       -10.0790   14.4500  -40.1540 C.ar      1 PHE        -0.0600
      9 CE1       -11.3090   12.4560  -41.6510 C.ar      1 PHE        -0.0686
     10 CE2        -9.3690   13.7630  -41.1610 C.ar      1 PHE        -0.0686
     11 CZ         -9.9830   12.7540  -41.8730 C.ar      1 PHE        -0.0687
     12 N          -9.7760   13.5760  -36.8840 N.am      1 PHE        -0.2608
     13 CA         -8.3780   13.7560  -36.4590 C.3       1 PHE         0.1326
     14 C          -7.4580   13.5490  -37.6490 C.2       1 PHE         0.2041
     15 O          -7.7160   12.6770  -38.5040 O.2       1 PHE        -0.3944
     16 CB         -8.0060   12.8500  -35.2850 C.3       1 PHE        -0.0008
     17 CG         -8.1600   11.3700  -35.5320 C.3       1 PHE         0.0044
     18 CD         -7.6210   10.5060  -34.4220 C.2       1 PHE         0.0350
     19 OE1        -6.6640   10.9420  -33.7560 O.co2     1 PHE        -0.5690
     20 OE2        -8.1340    9.3850  -34.2300 O.co2     1 PHE        -0.5690
     21 N          -6.3640   14.2900  -37.6720 N.am      1 PHE        -0.2622
     22 CA         -5.3550   14.2220  -38.7370 C.3       1 PHE         0.1423
     23 C          -4.1610   13.3830  -38.3190 C.2       1 PHE         0.2056
     24 O          -4.0110   12.9790  -37.1590 O.2       1 PHE        -0.3943
     25 CB         -4.8340   15.6400  -39.0440 C.3       1 PHE         0.0406
     26 CG         -5.7490   16.5230  -39.8790 C.2       1 PHE         0.0393
     27 OD1        -6.8560   16.0630  -40.2480 O.co2     1 PHE        -0.5688
     28 OD2        -5.3740   17.6700  -40.1310 O.co2     1 PHE        -0.5688
     29 N          -3.2650   13.1390  -39.2570 N.am      1 PHE        -0.2636
     30 CA         -1.9730   12.5590  -38.9420 C.3       1 PHE         0.1312
     31 C          -1.2350   13.4490  -37.9350 C.2       1 PHE         0.2039
     32 O          -1.3750   14.6830  -37.9530 O.2       1 PHE        -0.3944
     33 CB         -1.0980   12.5710  -40.2190 C.3       1 PHE        -0.0101
     34 CG         -1.4580   11.5600  -41.2700 C.3       1 PHE        -0.0425
     35 CD1        -0.6510   11.8270  -42.5510 C.3       1 PHE        -0.0625
     36 CD2        -1.1690   10.1630  -40.7960 C.3       1 PHE        -0.0625
     37 N          -0.4020   12.8250  -37.0990 N.am      1 PHE        -0.2637
     38 CA          0.5890   13.5690  -36.3220 C.3       1 PHE         0.1311
     39 C           1.4100   14.3790  -37.3120 C.2       1 PHE         0.2039
     40 O           1.7490   13.8800  -38.3880 O.2       1 PHE        -0.3944
     41 CB          1.5210   12.5840  -35.6160 C.3       1 PHE        -0.0092
     42 CG          0.9660   12.0150  -34.3030 C.3       1 PHE        -0.0156
     43 CD          1.1310   12.9690  -33.1160 C.3       1 PHE         0.0627
     44 NE          2.5500   13.3240  -32.9550 N.pl3     1 PHE        -0.2723
     45 CZ          3.4670   12.5500  -32.3850 C.cat     1 PHE         0.2882
     46 NH1         3.1230   11.3910  -31.8390 N.pl3     1 PHE        -0.2849
     47 NH2         4.7410   12.9180  -32.3800 N.pl3     1 PHE        -0.2849
     48 N           1.7630   15.6000  -36.9530 N.am      1 PHE        -0.2635
     49 CA          2.5260   16.4570  -37.8480 C.3       1 PHE         0.1332
     50 C           3.9630   15.9700  -37.9470 C.2       1 PHE         0.2041
     51 O           4.5430   15.9200  -39.0370 O.2       1 PHE        -0.3944
     52 CB          2.4040   17.9370  -37.4300 C.3       1 PHE        -0.0063
     53 CG1         3.3910   18.8320  -38.2050 C.3       1 PHE        -0.0584
     54 CG2         0.9560   18.4100  -37.6530 C.3       1 PHE        -0.0584
     55 N           4.5780   15.6270  -36.8050 N.am      1 PHE        -0.2637
     56 CA          5.9830   15.2570  -36.8070 C.3       1 PHE         0.1312
     57 C           6.3060   14.4510  -35.5590 C.2       1 PHE         0.2040
     58 O           5.7940   14.7560  -34.4670 O.2       1 PHE        -0.3944
     59 CB          6.8440   16.5470  -36.8410 C.3       1 PHE        -0.0101
     60 CG          8.3300   16.3890  -37.1490 C.3       1 PHE        -0.0425
     61 CD1         8.5420   15.7580  -38.5510 C.3       1 PHE        -0.0625
     62 CD2         9.0420   17.7350  -37.1220 C.3       1 PHE        -0.0625
     63 N           7.2140   13.4940  -35.6750 N.am      1 PHE        -0.2616
     64 CA          7.6710   12.7090  -34.5520 C.3       1 PHE         0.1539
     65 C           8.4810   13.5750  -33.5370 C.2       1 PHE         0.2058
     66 O           9.0270   14.6410  -33.8940 O.2       1 PHE        -0.3943
     67 CB          8.4660   11.5050  -35.0540 C.3       1 PHE         0.0843
     68 OG          9.6490   11.9610  -35.6920 O.3       1 PHE        -0.3903
     69 N           8.6140   13.0900  -32.2980 N.am      1 PHE        -0.2676
     70 CA          9.4290   13.7360  -31.2420 C.3       1 PHE         0.1039
     71 C          10.9150   13.8590  -31.5990 C.2       1 PHE         0.0621
     72 O          11.4070   13.0420  -32.4280 O.co2     1 PHE        -0.5664
     73 CB          9.3530   12.9120  -29.9630 C.3       1 PHE         0.0159
     74 CG          8.0370   12.9150  -29.2170 C.ar      1 PHE        -0.0392
     75 CD1         7.0380   13.8550  -29.5080 C.ar      1 PHE        -0.0602
     76 CD2         7.8300   12.0430  -28.1800 C.ar      1 PHE        -0.0602
     77 CE1         5.8450   13.8840  -28.7650 C.ar      1 PHE        -0.0686
     78 CE2         6.6390   12.0660  -27.4430 C.ar      1 PHE        -0.0686
     79 CZ          5.6530   12.9740  -27.7440 C.ar      1 PHE        -0.0687
     80 OXT        11.6090   14.6730  -30.9340 O.co2     1 PHE        -0.5664
     81 H1        -14.0016   14.5953  -36.8848 H         1 PHE         0.2017
     82 H2        -12.9697   15.8020  -36.4506 H         1 PHE         0.2017
     83 H3        -12.9892   14.3909  -35.6032 H         1 PHE         0.2017
     84 H4        -12.1915   13.1592  -37.4874 H         1 PHE         0.1122
     85 H5        -11.8441   15.9165  -38.7850 H         1 PHE         0.0507
     86 H6        -13.2689   14.8706  -39.1054 H         1 PHE         0.0507
     87 H7        -13.0754   12.9112  -40.5029 H         1 PHE         0.0557
     88 H8         -9.5801   15.2128  -39.5672 H         1 PHE         0.0557
     89 H9        -11.7951   11.6824  -42.2344 H         1 PHE         0.0599
     90 H10        -8.3401   14.0284  -41.3753 H         1 PHE         0.0599
     91 H11        -9.4197   12.1934  -42.6102 H         1 PHE         0.0559
     92 H12       -10.0688   12.6719  -37.1952 H         1 PHE         0.1885
     93 H13        -8.2614   14.7957  -36.1192 H         1 PHE         0.0801
     94 H14        -8.6469   13.1197  -34.4326 H         1 PHE         0.0330
     95 H15        -6.9539   13.0429  -35.0283 H         1 PHE         0.0330
     96 H16        -7.6251   11.1162  -36.4591 H         1 PHE         0.0433
     97 H17        -9.2306   11.1489  -35.6540 H         1 PHE         0.0433
     98 H18        -6.2147   14.9337  -36.9214 H         1 PHE         0.1884
     99 H19        -5.8121   13.7875  -39.6382 H         1 PHE         0.0819
    100 H20        -3.8809   15.5384  -39.5837 H         1 PHE         0.0478
    101 H21        -4.6596   16.1490  -38.0846 H         1 PHE         0.0478
    102 H22        -3.4820   13.3593  -40.2080 H         1 PHE         0.1883
    103 H23        -2.0959   11.5380  -38.5516 H         1 PHE         0.0800
    104 H24        -0.0568   12.3861  -39.9160 H         1 PHE         0.0315
    105 H25        -1.1762   13.5704  -40.6719 H         1 PHE         0.0315
    106 H26        -2.5315   11.6476  -41.4932 H         1 PHE         0.0298
    107 H27        -0.9199   11.0832  -43.3155 H         1 PHE         0.0232
    108 H28         0.4239   11.7528  -42.3294 H         1 PHE         0.0232
    109 H29        -0.8796   12.8360  -42.9248 H         1 PHE         0.0232
    110 H30        -1.7419    9.9611  -39.8789 H         1 PHE         0.0232
    111 H31        -0.0939   10.0619  -40.5864 H         1 PHE         0.0232
    112 H32        -1.4598    9.4437  -41.5757 H         1 PHE         0.0232
    113 H33        -0.4565   11.8312  -37.0023 H         1 PHE         0.1883
    114 H34         0.0969   14.2254  -35.5892 H         1 PHE         0.0800
    115 H35         2.4653   13.1027  -35.3941 H         1 PHE         0.0313
    116 H36         1.7157   11.7444  -36.2995 H         1 PHE         0.0313
    117 H37         1.4965   11.0786  -34.0756 H         1 PHE         0.0301
    118 H38        -0.1055   11.8060  -34.4375 H         1 PHE         0.0301
    119 H39         0.7714   12.4777  -32.1999 H         1 PHE         0.0689
    120 H40         0.5445   13.8819  -33.2969 H         1 PHE         0.0689
    121 H41         2.8551   14.2412  -33.3109 H         1 PHE         0.2642
    122 H42         3.8395   10.7962  -31.3989 H         1 PHE         0.2615
    123 H43         2.1394   11.0859  -31.8552 H         1 PHE         0.2615
    124 H44         5.0194   13.8158  -32.8011 H         1 PHE         0.2615
    125 H45         5.4522   12.3060  -31.9550 H         1 PHE         0.2615
    126 H46         1.5014   15.9416  -36.0503 H         1 PHE         0.1883
    127 H47         2.0842   16.3687  -38.8515 H         1 PHE         0.0802
    128 H48         2.6386   18.0159  -36.3582 H         1 PHE         0.0343
    129 H49         3.2729   19.8759  -37.8791 H         1 PHE         0.0234
    130 H50         3.1838   18.7587  -39.2828 H         1 PHE         0.0234
    131 H51         4.4207   18.5001  -38.0062 H         1 PHE         0.0234
    132 H52         0.2676   17.7601  -37.0929 H         1 PHE         0.0234
    133 H53         0.7154   18.3613  -38.7252 H         1 PHE         0.0234
    134 H54         0.8504   19.4465  -37.3001 H         1 PHE         0.0234
    135 H55         4.0657   15.6260  -35.9462 H         1 PHE         0.1883
    136 H56         6.2001   14.6489  -37.6976 H         1 PHE         0.0800
    137 H57         6.7603   17.0262  -35.8544 H         1 PHE         0.0315
    138 H58         6.4163   17.2095  -37.6079 H         1 PHE         0.0315
    139 H59         8.7760   15.7319  -36.3879 H         1 PHE         0.0298
    140 H60         9.6194   15.6553  -38.7477 H         1 PHE         0.0232
    141 H61         8.0895   16.4053  -39.3167 H         1 PHE         0.0232
    142 H62         8.0675   14.7661  -38.5823 H         1 PHE         0.0232
    143 H63         8.9054   18.2023  -36.1356 H         1 PHE         0.0232
    144 H64         8.6196   18.3889  -37.8992 H         1 PHE         0.0232
    145 H65        10.1152   17.5860  -37.3116 H         1 PHE         0.0232
    146 H66         7.5996   13.3069  -36.5785 H         1 PHE         0.1884
    147 H67         6.7847   12.3279  -34.0237 H         1 PHE         0.0823
    148 H68         7.8572   10.9351  -35.7714 H         1 PHE         0.0606
    149 H69         8.7318   10.8591  -34.2042 H         1 PHE         0.0606
    150 H70        10.1461   11.2147  -36.0056 H         1 PHE         0.2097
    151 H71         8.1356   12.2418  -32.0706 H         1 PHE         0.1877
    152 H72         9.0230   14.7419  -31.0594 H         1 PHE         0.0749
    153 H73        10.1234   13.2938  -29.2769 H         1 PHE         0.0467
    154 H74         9.5815   11.8689  -30.2270 H         1 PHE         0.0467
    155 H75         7.1870   14.5656  -30.3130 H         1 PHE         0.0557
    156 H76         8.6004   11.3239  -27.9261 H         1 PHE         0.0557
    157 H77         5.0795   14.6170  -28.9923 H         1 PHE         0.0599
    158 H78         6.4945   11.3632  -26.6304 H         1 PHE         0.0599
    159 H79         4.7264   12.9762  -27.1814 H         1 PHE         0.0559
@<TRIPOS>BOND
     1    1    2 1  
     2    2    3 1  
     3    2    5 1  
     4    3    4 2  
     5    3   12 am 
     6    5    6 1  
     7    6    7 ar 
     8    6    8 ar 
     9    7    9 ar 
    10    8   10 ar 
    11    9   11 ar 
    12   10   11 ar 
    13   12   13 1  
    14   13   14 1  
    15   13   16 1  
    16   14   15 2  
    17   14   21 am 
    18   16   17 1  
    19   17   18 1  
    20   18   19 ar 
    21   18   20 ar 
    22   21   22 1  
    23   22   23 1  
    24   22   25 1  
    25   23   24 2  
    26   23   29 am 
    27   25   26 1  
    28   26   27 ar 
    29   26   28 ar 
    30   29   30 1  
    31   30   31 1  
    32   30   33 1  
    33   31   32 2  
    34   31   37 am 
    35   33   34 1  
    36   34   35 1  
    37   34   36 1  
    38   37   38 1  
    39   38   39 1  
    40   38   41 1  
    41   39   40 2  
    42   39   48 am 
    43   41   42 1  
    44   42   43 1  
    45   43   44 1  
    46   44   45 ar 
    47   45   46 ar 
    48   45   47 ar 
    49   48   49 1  
    50   49   50 1  
    51   49   52 1  
    52   50   51 2  
    53   50   55 am 
    54   52   53 1  
    55   52   54 1  
    56   55   56 1  
    57   56   57 1  
    58   56   59 1  
    59   57   58 2  
    60   57   63 am 
    61   59   60 1  
    62   60   61 1  
    63   60   62 1  
    64   63   64 1  
    65   64   65 1  
    66   64   67 1  
    67   65   66 2  
    68   65   69 am 
    69   67   68 1  
    70   69   70 1  
    71   70   71 1  
    72   70   73 1  
    73   71   72 ar 
    74   71   80 ar 
    75   73   74 1  
    76   74   75 ar 
    77   74   76 ar 
    78   75   77 ar 
    79   76   78 ar 
    80   77   79 ar 
    81   78   79 ar 
    82    1   81 1  
    83    1   82 1  
    84    1   83 1  
    85    2   84 1  
    86    5   85 1  
    87    5   86 1  
    88    7   87 1  
    89    8   88 1  
    90    9   89 1  
    91   10   90 1  
    92   11   91 1  
    93   12   92 1  
    94   13   93 1  
    95   16   94 1  
    96   16   95 1  
    97   17   96 1  
    98   17   97 1  
    99   21   98 1  
   100   22   99 1  
   101   25  100 1  
   102   25  101 1  
   103   29  102 1  
   104   30  103 1  
   105   33  104 1  
   106   33  105 1  
   107   34  106 1  
   108   35  107 1  
   109   35  108 1  
   110   35  109 1  
   111   36  110 1  
   112   36  111 1  
   113   36  112 1  
   114   37  113 1  
   115   38  114 1  
   116   41  115 1  
   117   41  116 1  
   118   42  117 1  
   119   42  118 1  
   120   43  119 1  
   121   43  120 1  
   122   44  121 1  
   123   46  122 1  
   124   46  123 1  
   125   47  124 1  
   126   47  125 1  
   127   48  126 1  
   128   49  127 1  
   129   52  128 1  
   130   53  129 1  
   131   53  130 1  
   132   53  131 1  
   133   54  132 1  
   134   54  133 1  
   135   54  134 1  
   136   55  135 1  
   137   56  136 1  
   138   59  137 1  
   139   59  138 1  
   140   60  139 1  
   141   61  140 1  
   142   61  141 1  
   143   61  142 1  
   144   62  143 1  
   145   62  144 1  
   146   62  145 1  
   147   63  146 1  
   148   64  147 1  
   149   67  148 1  
   150   67  149 1  
   151   68  150 1  
   152   69  151 1  
   153   70  152 1  
   154   73  153 1  
   155   73  154 1  
   156   75  155 1  
   157   76  156 1  
   158   77  157 1  
   159   78  158 1  
   160   79  159 1  
@<TRIPOS>SUBSTRUCTURE
     1 PHE         1

