6mt6_ligand
  -I-interpret- 

161162  0  0  0  0  0  0  0  0999 V2000
  -13.0860   14.8030  -36.5180 N   0  3  0  0  0
  -12.0600   14.2490  -37.4170 C   0  0  0  0  0
  -10.6600   14.5570  -36.8720 C   0  0  0  0  0
  -10.4250   15.6980  -36.4470 O   0  0  0  0  0
  -12.2040   14.8780  -38.8300 C   0  0  0  0  0
  -11.4280   14.1510  -39.9080 C   0  0  0  0  0
  -12.0320   13.1530  -40.6700 C   0  0  0  0  0
  -10.0790   14.4500  -40.1540 C   0  0  0  0  0
  -11.3090   12.4560  -41.6510 C   0  0  0  0  0
   -9.3690   13.7630  -41.1610 C   0  0  0  0  0
   -9.9830   12.7540  -41.8730 C   0  0  0  0  0
   -9.7760   13.5760  -36.8840 N   0  0  0  0  0
   -8.3780   13.7560  -36.4590 C   0  0  0  0  0
   -7.4580   13.5490  -37.6490 C   0  0  0  0  0
   -7.7160   12.6770  -38.5040 O   0  0  0  0  0
   -8.0060   12.8500  -35.2850 C   0  0  0  0  0
   -8.1600   11.3700  -35.5320 C   0  0  0  0  0
   -7.6210   10.5060  -34.4220 C   0  0  0  0  0
   -6.6640   10.9420  -33.7560 O   0  0  0  0  0
   -8.1340    9.3850  -34.2300 O   0  0  0  0  0
   -6.3640   14.2900  -37.6720 N   0  0  0  0  0
   -5.3550   14.2220  -38.7370 C   0  0  0  0  0
   -4.1610   13.3830  -38.3190 C   0  0  0  0  0
   -4.0110   12.9790  -37.1590 O   0  0  0  0  0
   -4.8340   15.6400  -39.0440 C   0  0  0  0  0
   -5.7490   16.5230  -39.8790 C   0  0  0  0  0
   -6.8560   16.0630  -40.2480 O   0  0  0  0  0
   -5.3740   17.6700  -40.1310 O   0  0  0  0  0
   -3.2650   13.1390  -39.2570 N   0  0  0  0  0
   -1.9730   12.5590  -38.9420 C   0  0  0  0  0
   -1.2350   13.4490  -37.9350 C   0  0  0  0  0
   -1.3750   14.6830  -37.9530 O   0  0  0  0  0
   -1.0980   12.5710  -40.2190 C   0  0  0  0  0
   -1.4580   11.5600  -41.2700 C   0  0  0  0  0
   -0.6510   11.8270  -42.5510 C   0  0  0  0  0
   -1.1690   10.1630  -40.7960 C   0  0  0  0  0
   -0.4020   12.8250  -37.0990 N   0  0  0  0  0
    0.5890   13.5690  -36.3220 C   0  0  0  0  0
    1.4100   14.3790  -37.3120 C   0  0  0  0  0
    1.7490   13.8800  -38.3880 O   0  0  0  0  0
    1.5210   12.5840  -35.6160 C   0  0  0  0  0
    0.9660   12.0150  -34.3030 C   0  0  0  0  0
    1.1310   12.9690  -33.1160 C   0  0  0  0  0
    2.5500   13.3240  -32.9550 N   0  0  0  0  0
    3.4670   12.5500  -32.3850 C   0  0  0  0  0
    3.1230   11.3910  -31.8390 N   0  0  0  0  0
    4.7410   12.9180  -32.3800 N   0  0  0  0  0
    1.7630   15.6000  -36.9530 N   0  0  0  0  0
    2.5260   16.4570  -37.8480 C   0  0  0  0  0
    3.9630   15.9700  -37.9470 C   0  0  0  0  0
    4.5430   15.9200  -39.0370 O   0  0  0  0  0
    2.4040   17.9370  -37.4300 C   0  0  0  0  0
    3.3910   18.8320  -38.2050 C   0  0  0  0  0
    0.9560   18.4100  -37.6530 C   0  0  0  0  0
    4.5780   15.6270  -36.8050 N   0  0  0  0  0
    5.9830   15.2570  -36.8070 C   0  0  0  0  0
    6.3060   14.4510  -35.5590 C   0  0  0  0  0
    5.7940   14.7560  -34.4670 O   0  0  0  0  0
    6.8440   16.5470  -36.8410 C   0  0  0  0  0
    8.3300   16.3890  -37.1490 C   0  0  0  0  0
    8.5420   15.7580  -38.5510 C   0  0  0  0  0
    9.0420   17.7350  -37.1220 C   0  0  0  0  0
    7.2140   13.4940  -35.6750 N   0  0  0  0  0
    7.6710   12.7090  -34.5520 C   0  0  0  0  0
    8.4810   13.5750  -33.5370 C   0  0  0  0  0
    9.0270   14.6410  -33.8940 O   0  0  0  0  0
    8.4660   11.5050  -35.0540 C   0  0  0  0  0
    9.6490   11.9610  -35.6920 O   0  0  0  0  0
    8.6140   13.0900  -32.2980 N   0  0  0  0  0
    9.4290   13.7360  -31.2420 C   0  0  0  0  0
   10.9150   13.8590  -31.5990 C   0  0  0  0  0
   11.4070   13.0420  -32.4280 O   0  0  0  0  0
    9.3530   12.9120  -29.9630 C   0  0  0  0  0
    8.0370   12.9150  -29.2170 C   0  0  0  0  0
    7.0380   13.8550  -29.5080 C   0  0  0  0  0
    7.8300   12.0430  -28.1800 C   0  0  0  0  0
    5.8450   13.8840  -28.7650 C   0  0  0  0  0
    6.6390   12.0660  -27.4430 C   0  0  0  0  0
    5.6530   12.9740  -27.7440 C   0  0  0  0  0
   11.6090   14.6730  -30.9340 O   0  0  0  0  0
  -12.9862   14.3863  -35.5924 H   0  0  0  0  0
  -12.9681   15.8140  -36.4515 H   0  0  0  0  0
  -14.0120   14.5912  -36.8895 H   0  0  0  0  0
  -12.1956   13.1692  -37.4789 H   0  0  0  0  0
  -11.8090   15.8924  -38.7748 H   0  0  0  0  0
  -13.2587   14.8283  -39.1007 H   0  0  0  0  0
  -13.0812   12.9099  -40.5020 H   0  0  0  0  0
   -9.5773   15.2170  -39.5640 H   0  0  0  0  0
  -11.7978   11.6781  -42.2376 H   0  0  0  0  0
   -8.3344   14.0298  -41.3765 H   0  0  0  0  0
   -9.4166   12.1903  -42.6143 H   0  0  0  0  0
  -10.0747   12.6538  -37.2014 H   0  0  0  0  0
   -8.2577   14.7760  -36.0940 H   0  0  0  0  0
   -8.6866   13.1012  -34.4715 H   0  0  0  0  0
   -6.9489   13.0224  -35.0830 H   0  0  0  0  0
   -7.5940   11.1312  -36.4324 H   0  0  0  0  0
   -9.2274   11.1645  -35.6133 H   0  0  0  0  0
   -8.8534    9.2528  -34.8517 H   0  0  0  0  0
   -6.2117   14.9466  -36.9064 H   0  0  0  0  0
   -5.8308   13.7724  -39.6085 H   0  0  0  0  0
   -3.9210   15.5105  -39.6253 H   0  0  0  0  0
   -4.7229   16.1394  -38.0815 H   0  0  0  0  0
   -6.9414   15.1561  -39.9450 H   0  0  0  0  0
   -3.4863   13.3637  -40.2270 H   0  0  0  0  0
   -2.1317   11.5543  -38.5502 H   0  0  0  0  0
   -0.0837   12.3330  -39.8986 H   0  0  0  0  0
   -1.2350   13.5511  -40.6759 H   0  0  0  0  0
   -2.5250   11.6521  -41.4727 H   0  0  0  0  0
   -0.8784   12.8270  -42.9203 H   0  0  0  0  0
    0.4138   11.7533  -42.3301 H   0  0  0  0  0
   -0.9183   11.0894  -43.3077 H   0  0  0  0  0
   -0.1067   10.0698  -40.5701 H   0  0  0  0  0
   -1.7521    9.9574  -39.8983 H   0  0  0  0  0
   -1.4393    9.4524  -41.5771 H   0  0  0  0  0
   -0.4576   11.8113  -37.0003 H   0  0  0  0  0
    0.1041   14.2056  -35.5819 H   0  0  0  0  0
    2.4327   13.1278  -35.3686 H   0  0  0  0  0
    1.6679   11.7420  -36.2925 H   0  0  0  0  0
    1.5215   11.1051  -34.0758 H   0  0  0  0  0
   -0.1011   11.8419  -34.4424 H   0  0  0  0  0
    0.7768   12.4798  -32.2086 H   0  0  0  0  0
    0.5516   13.8741  -33.2980 H   0  0  0  0  0
    2.8521   14.2323  -33.3074 H   0  0  0  0  0
    3.8355   10.7928  -31.4209 H   0  0  0  0  0
    2.1460   11.0981  -31.8373 H   0  0  0  0  0
    5.0194   13.7977  -32.8147 H   0  0  0  0  0
    1.4961   15.9484  -36.0322 H   0  0  0  0  0
    2.1078   16.3956  -38.8527 H   0  0  0  0  0
    2.6584   18.0192  -36.3733 H   0  0  0  0  0
    4.4109   18.5021  -38.0072 H   0  0  0  0  0
    3.1847   18.7585  -39.2728 H   0  0  0  0  0
    3.2730   19.8661  -37.8812 H   0  0  0  0  0
    0.6992   18.3052  -38.7071 H   0  0  0  0  0
    0.2800   17.8029  -37.0509 H   0  0  0  0  0
    0.8672   19.4557  -37.3583 H   0  0  0  0  0
    4.0554   15.6260  -35.9290 H   0  0  0  0  0
    6.2017   14.6477  -37.6839 H   0  0  0  0  0
    6.7939   16.9616  -35.8342 H   0  0  0  0  0
    6.4374   17.1517  -37.6517 H   0  0  0  0  0
    8.7454   15.7366  -36.3809 H   0  0  0  0  0
    8.0713   14.7753  -38.5807 H   0  0  0  0  0
    8.0932   16.4003  -39.3087 H   0  0  0  0  0
    9.6099   15.6568  -38.7448 H   0  0  0  0  0
    8.5989   18.3940  -37.8686 H   0  0  0  0  0
    8.9359   18.1809  -36.1331 H   0  0  0  0  0
   10.0990   17.5900  -37.3451 H   0  0  0  0  0
    7.6073   13.3032  -36.5966 H   0  0  0  0  0
    6.8043   12.3372  -34.0055 H   0  0  0  0  0
    7.8629   10.9379  -35.7631 H   0  0  0  0  0
    8.7278   10.8628  -34.2131 H   0  0  0  0  0
   10.1514   11.2068  -36.0089 H   0  0  0  0  0
    8.1260   12.2249  -32.0661 H   0  0  0  0  0
    9.0162   14.7379  -31.1238 H   0  0  0  0  0
   10.7019   12.5205  -32.8186 H   0  0  0  0  0
   10.0805   13.3539  -29.2822 H   0  0  0  0  0
    9.5193   11.8783  -30.2662 H   0  0  0  0  0
    7.1878   14.5695  -30.3174 H   0  0  0  0  0
    8.6047   11.3199  -27.9247 H   0  0  0  0  0
    5.0752   14.6211  -28.9936 H   0  0  0  0  0
    6.4937   11.3593  -26.6259 H   0  0  0  0  0
    4.7213   12.9762  -27.1783 H   0  0  0  0  0
  1  2  1  0  0  0
  2  3  1  0  0  0
  2  5  1  0  0  0
  3  4  2  0  0  0
  3 12  1  0  0  0
  5  6  1  0  0  0
  6  7  4  0  0  0
  6  8  4  0  0  0
  7  9  4  0  0  0
  8 10  4  0  0  0
  9 11  4  0  0  0
 10 11  4  0  0  0
 12 13  1  0  0  0
 13 14  1  0  0  0
 13 16  1  0  0  0
 14 15  2  0  0  0
 14 21  1  0  0  0
 16 17  1  0  0  0
 17 18  1  0  0  0
 18 19  2  0  0  0
 18 20  1  0  0  0
 21 22  1  0  0  0
 22 23  1  0  0  0
 22 25  1  0  0  0
 23 24  2  0  0  0
 23 29  1  0  0  0
 25 26  1  0  0  0
 26 27  1  0  0  0
 26 28  2  0  0  0
 29 30  1  0  0  0
 30 31  1  0  0  0
 30 33  1  0  0  0
 31 32  2  0  0  0
 31 37  1  0  0  0
 33 34  1  0  0  0
 34 35  1  0  0  0
 34 36  1  0  0  0
 37 38  1  0  0  0
 38 39  1  0  0  0
 38 41  1  0  0  0
 39 40  2  0  0  0
 39 48  1  0  0  0
 41 42  1  0  0  0
 42 43  1  0  0  0
 43 44  1  0  0  0
 44 45  1  0  0  0
 45 46  1  0  0  0
 45 47  2  0  0  0
 48 49  1  0  0  0
 49 50  1  0  0  0
 49 52  1  0  0  0
 50 51  2  0  0  0
 50 55  1  0  0  0
 52 53  1  0  0  0
 52 54  1  0  0  0
 55 56  1  0  0  0
 56 57  1  0  0  0
 56 59  1  0  0  0
 57 58  2  0  0  0
 57 63  1  0  0  0
 59 60  1  0  0  0
 60 61  1  0  0  0
 60 62  1  0  0  0
 63 64  1  0  0  0
 64 65  1  0  0  0
 64 67  1  0  0  0
 65 66  2  0  0  0
 65 69  1  0  0  0
 67 68  1  0  0  0
 69 70  1  0  0  0
 70 71  1  0  0  0
 70 73  1  0  0  0
 71 72  1  0  0  0
 71 80  2  0  0  0
 73 74  1  0  0  0
 74 75  4  0  0  0
 74 76  4  0  0  0
 75 77  4  0  0  0
 76 78  4  0  0  0
 77 79  4  0  0  0
 78 79  4  0  0  0
  1 81  1  0  0  0
  1 82  1  0  0  0
  1 83  1  0  0  0
  2 84  1  0  0  0
  5 85  1  0  0  0
  5 86  1  0  0  0
  7 87  1  0  0  0
  8 88  1  0  0  0
  9 89  1  0  0  0
 10 90  1  0  0  0
 11 91  1  0  0  0
 12 92  1  0  0  0
 13 93  1  0  0  0
 16 94  1  0  0  0
 16 95  1  0  0  0
 17 96  1  0  0  0
 17 97  1  0  0  0
 20 98  1  0  0  0
 21 99  1  0  0  0
 22100  1  0  0  0
 25101  1  0  0  0
 25102  1  0  0  0
 27103  1  0  0  0
 29104  1  0  0  0
 30105  1  0  0  0
 33106  1  0  0  0
 33107  1  0  0  0
 34108  1  0  0  0
 35109  1  0  0  0
 35110  1  0  0  0
 35111  1  0  0  0
 36112  1  0  0  0
 36113  1  0  0  0
 36114  1  0  0  0
 37115  1  0  0  0
 38116  1  0  0  0
 41117  1  0  0  0
 41118  1  0  0  0
 42119  1  0  0  0
 42120  1  0  0  0
 43121  1  0  0  0
 43122  1  0  0  0
 44123  1  0  0  0
 46124  1  0  0  0
 46125  1  0  0  0
 47126  1  0  0  0
 48127  1  0  0  0
 49128  1  0  0  0
 52129  1  0  0  0
 53130  1  0  0  0
 53131  1  0  0  0
 53132  1  0  0  0
 54133  1  0  0  0
 54134  1  0  0  0
 54135  1  0  0  0
 55136  1  0  0  0
 56137  1  0  0  0
 59138  1  0  0  0
 59139  1  0  0  0
 60140  1  0  0  0
 61141  1  0  0  0
 61142  1  0  0  0
 61143  1  0  0  0
 62144  1  0  0  0
 62145  1  0  0  0
 62146  1  0  0  0
 63147  1  0  0  0
 64148  1  0  0  0
 67149  1  0  0  0
 67150  1  0  0  0
 68151  1  0  0  0
 69152  1  0  0  0
 70153  1  0  0  0
 72154  1  0  0  0
 73155  1  0  0  0
 73156  1  0  0  0
 75157  1  0  0  0
 76158  1  0  0  0
 77159  1  0  0  0
 78160  1  0  0  0
 79161  1  0  0  0
M  END
$$$$
