5awt_ligand
  -I-interpret- 

155159  0  0  0  0  0  0  0  0999 V2000
   32.2270   15.9170  115.5120 N   0  3  0  0  0
   31.0360   15.6340  114.7260 C   0  0  0  0  0
   30.6790   14.1490  114.7400 C   0  0  0  0  0
   31.5310   13.2910  114.4940 O   0  0  0  0  0
   31.2330   16.1000  113.2870 C   0  0  0  0  0
   30.2510   15.4800  112.3200 C   0  0  0  0  0
   30.6220   14.4070  111.5090 C   0  0  0  0  0
   28.9440   15.9530  112.2280 C   0  0  0  0  0
   29.7210   13.8250  110.6270 C   0  0  0  0  0
   28.0340   15.3820  111.3440 C   0  0  0  0  0
   28.4290   14.3160  110.5430 C   0  0  0  0  0
   27.5380   13.7330  109.6630 O   0  0  0  0  0
   29.4080   13.8570  115.0050 N   0  0  0  0  0
   28.9300   12.4870  115.1130 C   0  0  0  0  0
   28.0330   12.1350  113.9360 C   0  0  0  0  0
   26.9100   12.6360  113.8150 O   0  0  0  0  0
   28.1590   12.3010  116.4180 C   0  0  0  0  0
   27.7850   10.8660  116.6710 C   0  0  0  0  0
   27.5610   10.5400  117.8430 O   0  0  0  0  0
   27.7220   10.0560  115.7160 O   0  0  0  0  0
   28.5260   11.2480  113.0640 N   0  0  0  0  0
   27.7800   10.8690  111.8570 C   0  0  0  0  0
   26.5010   10.0890  112.1650 C   0  0  0  0  0
   25.6510    9.9000  111.2760 O   0  0  0  0  0
   28.7740    9.9890  111.0820 C   0  0  0  0  0
   29.8730    9.6650  112.0230 C   0  0  0  0  0
   29.9140   10.7570  113.0440 C   0  0  0  0  0
   26.3580    9.6480  113.4110 N   0  0  0  0  0
   25.1800    8.8840  113.7760 C   0  0  0  0  0
   24.1060    9.7270  114.4430 C   0  0  0  0  0
   22.9870    9.2590  114.6310 O   0  0  0  0  0
   25.5820    7.7030  114.6420 C   0  0  0  0  0
   26.5080    6.7650  113.9510 C   0  0  0  0  0
   26.0140    5.7970  113.0910 C   0  0  0  0  0
   27.8730    6.8690  114.1210 C   0  0  0  0  0
   26.8670    4.9320  112.4290 C   0  0  0  0  0
   28.7330    6.0040  113.4630 C   0  0  0  0  0
   28.2270    5.0350  112.6170 C   0  0  0  0  0
   24.4500   10.9690  114.7820 N   0  0  0  0  0
   23.5250   11.8900  115.4260 C   0  0  0  0  0
   22.7790   11.2280  116.5630 C   0  0  0  0  0
   21.5850   11.4580  116.7620 O   0  0  0  0  0
   23.4920   10.3840  117.2980 N   0  0  0  0  0
   22.8880    9.5690  118.3360 C   0  0  0  0  0
   23.4100    8.1410  118.3280 C   0  0  0  0  0
   24.3190    7.8050  117.5680 O   0  0  0  0  0
   22.8260    7.3010  119.1800 N   0  0  0  0  0
   23.2500    5.9060  119.3350 C   0  0  0  0  0
   22.7500    5.0250  118.1810 C   0  0  0  0  0
   21.5400    4.9240  117.9490 O   0  0  0  0  0
   22.7370    5.3550  120.6710 C   0  0  0  0  0
   23.6430    4.2730  121.2660 C   0  0  0  0  0
   23.7970    4.2470  122.5040 O   0  0  0  0  0
   24.1860    3.4390  120.5170 O   0  0  0  0  0
   23.6870    4.3920  117.4500 N   0  0  0  0  0
   23.3550    3.4720  116.3580 C   0  0  0  0  0
   23.0850    2.0590  116.8510 C   0  0  0  0  0
   22.7580    1.1880  116.0480 O   0  0  0  0  0
   24.6410    3.4640  115.5270 C   0  0  0  0  0
   25.7150    3.6320  116.5440 C   0  0  0  0  0
   25.1420    4.6270  117.5330 C   0  0  0  0  0
   23.2310    1.8250  118.1520 N   0  0  0  0  0
   23.1820    0.4610  118.6810 C   0  0  0  0  0
   21.8830    0.1280  119.4300 C   0  0  0  0  0
   21.3160   -0.9510  119.2400 O   0  0  0  0  0
   24.4280    0.1540  119.5400 C   0  0  0  0  0
   25.7210    0.1050  118.7500 C   0  0  0  0  0
   26.0480   -1.0110  117.9960 C   0  0  0  0  0
   26.6060    1.1780  118.7630 C   0  0  0  0  0
   27.2180   -1.0550  117.2800 C   0  0  0  0  0
   27.7760    1.1370  118.0480 C   0  0  0  0  0
   28.0830    0.0220  117.3060 C   0  0  0  0  0
   21.4200    1.0540  120.2690 N   0  0  0  0  0
   20.2290    0.8470  121.0990 C   0  0  0  0  0
   20.3650   -0.4000  121.9730 C   0  0  0  0  0
   21.4790   -0.8450  122.2690 O   0  0  0  0  0
   18.9590    0.7790  120.2370 C   0  0  0  0  0
   18.7990    1.9500  119.2540 C   0  0  0  0  0
   18.6860    3.3020  119.9840 C   0  0  0  0  0
   18.6680    4.4800  118.9940 C   0  0  0  0  0
   18.6180    5.8220  119.6670 N   0  3  0  0  0
   19.3630   -0.9850  122.3990 O   0  0  0  0  0
   32.0829   15.6011  116.4711 H   0  0  0  0  0
   33.0245   15.4264  115.1073 H   0  0  0  0  0
   32.4057   16.9212  115.5067 H   0  0  0  0  0
   30.2101   16.1802  115.1816 H   0  0  0  0  0
   32.2345   15.8011  112.9774 H   0  0  0  0  0
   31.0806   17.1791  113.2657 H   0  0  0  0  0
   31.6385   14.0181  111.5689 H   0  0  0  0  0
   28.6291   16.7841  112.8590 H   0  0  0  0  0
   30.0294   12.9856  110.0038 H   0  0  0  0  0
   27.0167   15.7682  111.2796 H   0  0  0  0  0
   26.6916   14.1822  109.7218 H   0  0  0  0  0
   28.7452   14.6209  115.1371 H   0  0  0  0  0
   29.7944   11.8231  115.1056 H   0  0  0  0  0
   27.2381   12.8799  116.3484 H   0  0  0  0  0
   28.8006   12.6291  117.2358 H   0  0  0  0  0
   27.9305   10.5116  114.8971 H   0  0  0  0  0
   27.4415   11.7458  111.3050 H   0  0  0  0  0
   29.1539   10.5105  110.2035 H   0  0  0  0  0
   28.2910    9.0817  110.7192 H   0  0  0  0  0
   30.8240    9.5962  111.4948 H   0  0  0  0  0
   29.7001    8.6997  112.4988 H   0  0  0  0  0
   30.2518   10.4087  114.0201 H   0  0  0  0  0
   30.6336   11.5377  112.7973 H   0  0  0  0  0
   27.0750    9.8464  114.1088 H   0  0  0  0  0
   24.7300    8.5145  112.8545 H   0  0  0  0  0
   24.6761    7.1512  114.8929 H   0  0  0  0  0
   26.0982    8.0941  115.5187 H   0  0  0  0  0
   24.9384    5.7160  112.9340 H   0  0  0  0  0
   28.2786    7.6380  114.7784 H   0  0  0  0  0
   26.4636    4.1713  111.7607 H   0  0  0  0  0
   29.8094    6.0879  113.6128 H   0  0  0  0  0
   28.9031    4.3541  112.1000 H   0  0  0  0  0
   25.3985   11.2866  114.5824 H   0  0  0  0  0
   22.7980   12.2216  114.6847 H   0  0  0  0  0
   24.0970   12.7252  115.8302 H   0  0  0  0  0
   24.4947   10.3057  117.1284 H   0  0  0  0  0
   21.8133    9.5365  118.1570 H   0  0  0  0  0
   23.1349   10.0132  119.3003 H   0  0  0  0  0
   22.0511    7.6422  119.7488 H   0  0  0  0  0
   24.3397    5.8849  119.3190 H   0  0  0  0  0
   21.7609    4.9051  120.4895 H   0  0  0  0  0
   22.7036    6.1834  121.3787 H   0  0  0  0  0
   23.3016    4.9665  122.9021 H   0  0  0  0  0
   22.4559    3.7824  115.8256 H   0  0  0  0  0
   24.6547    4.2501  114.7721 H   0  0  0  0  0
   24.7564    2.5492  114.9457 H   0  0  0  0  0
   26.6473    3.9834  116.1019 H   0  0  0  0  0
   25.9812    2.6879  117.0194 H   0  0  0  0  0
   25.5320    4.4874  118.5412 H   0  0  0  0  0
   25.4142    5.6558  117.2974 H   0  0  0  0  0
   23.3792    2.6069  118.7901 H   0  0  0  0  0
   23.1888   -0.1965  117.8117 H   0  0  0  0  0
   24.2815   -0.8307  119.9838 H   0  0  0  0  0
   24.5244    0.9572  120.2705 H   0  0  0  0  0
   25.3686   -1.8630  117.9714 H   0  0  0  0  0
   26.3663    2.0646  119.3500 H   0  0  0  0  0
   27.4646   -1.9387  116.6914 H   0  0  0  0  0
   28.4596    1.9858  118.0684 H   0  0  0  0  0
   29.0116   -0.0129  116.7363 H   0  0  0  0  0
   21.9145    1.9435  120.3366 H   0  0  0  0  0
   20.1398    1.7066  121.7633 H   0  0  0  0  0
   18.1076    0.8119  120.9168 H   0  0  0  0  0
   19.0229   -0.1325  119.6427 H   0  0  0  0  0
   17.8846    1.7932  118.6818 H   0  0  0  0  0
   19.6799    1.9806  118.6127 H   0  0  0  0  0
   19.5513    3.4142  120.6373 H   0  0  0  0  0
   17.7535    3.3120  120.5484 H   0  0  0  0  0
   17.7696    4.3839  118.3843 H   0  0  0  0  0
   19.5899    4.4367  118.4141 H   0  0  0  0  0
   18.6083    6.5560  118.9588 H   0  0  0  0  0
   17.7732    5.8848  120.2351 H   0  0  0  0  0
   19.4387    5.9332  120.2624 H   0  0  0  0  0
   18.5745   -0.5315  122.0922 H   0  0  0  0  0
  1  2  1  0  0  0
  2  3  1  0  0  0
  2  5  1  0  0  0
  3  4  2  0  0  0
  3 13  1  0  0  0
  5  6  1  0  0  0
  6  7  4  0  0  0
  6  8  4  0  0  0
  7  9  4  0  0  0
  8 10  4  0  0  0
  9 11  4  0  0  0
 10 11  4  0  0  0
 11 12  1  0  0  0
 13 14  1  0  0  0
 14 15  1  0  0  0
 14 17  1  0  0  0
 15 16  2  0  0  0
 15 21  1  0  0  0
 17 18  1  0  0  0
 18 19  2  0  0  0
 18 20  1  0  0  0
 21 22  1  0  0  0
 21 27  1  0  0  0
 22 23  1  0  0  0
 22 25  1  0  0  0
 23 24  2  0  0  0
 23 28  1  0  0  0
 25 26  1  0  0  0
 26 27  1  0  0  0
 28 29  1  0  0  0
 29 30  1  0  0  0
 29 32  1  0  0  0
 30 31  2  0  0  0
 30 39  1  0  0  0
 32 33  1  0  0  0
 33 34  4  0  0  0
 33 35  4  0  0  0
 34 36  4  0  0  0
 35 37  4  0  0  0
 36 38  4  0  0  0
 37 38  4  0  0  0
 39 40  1  0  0  0
 40 41  1  0  0  0
 41 42  2  0  0  0
 41 43  1  0  0  0
 43 44  1  0  0  0
 44 45  1  0  0  0
 45 46  2  0  0  0
 45 47  1  0  0  0
 47 48  1  0  0  0
 48 49  1  0  0  0
 48 51  1  0  0  0
 49 50  2  0  0  0
 49 55  1  0  0  0
 51 52  1  0  0  0
 52 53  1  0  0  0
 52 54  2  0  0  0
 55 56  1  0  0  0
 55 61  1  0  0  0
 56 57  1  0  0  0
 56 59  1  0  0  0
 57 58  2  0  0  0
 57 62  1  0  0  0
 59 60  1  0  0  0
 60 61  1  0  0  0
 62 63  1  0  0  0
 63 64  1  0  0  0
 63 66  1  0  0  0
 64 65  2  0  0  0
 64 73  1  0  0  0
 66 67  1  0  0  0
 67 68  4  0  0  0
 67 69  4  0  0  0
 68 70  4  0  0  0
 69 71  4  0  0  0
 70 72  4  0  0  0
 71 72  4  0  0  0
 73 74  1  0  0  0
 74 75  1  0  0  0
 74 77  1  0  0  0
 75 76  2  0  0  0
 75 82  1  0  0  0
 77 78  1  0  0  0
 78 79  1  0  0  0
 79 80  1  0  0  0
 80 81  1  0  0  0
  1 83  1  0  0  0
  1 84  1  0  0  0
  1 85  1  0  0  0
  2 86  1  0  0  0
  5 87  1  0  0  0
  5 88  1  0  0  0
  7 89  1  0  0  0
  8 90  1  0  0  0
  9 91  1  0  0  0
 10 92  1  0  0  0
 12 93  1  0  0  0
 13 94  1  0  0  0
 14 95  1  0  0  0
 17 96  1  0  0  0
 17 97  1  0  0  0
 20 98  1  0  0  0
 22 99  1  0  0  0
 25100  1  0  0  0
 25101  1  0  0  0
 26102  1  0  0  0
 26103  1  0  0  0
 27104  1  0  0  0
 27105  1  0  0  0
 28106  1  0  0  0
 29107  1  0  0  0
 32108  1  0  0  0
 32109  1  0  0  0
 34110  1  0  0  0
 35111  1  0  0  0
 36112  1  0  0  0
 37113  1  0  0  0
 38114  1  0  0  0
 39115  1  0  0  0
 40116  1  0  0  0
 40117  1  0  0  0
 43118  1  0  0  0
 44119  1  0  0  0
 44120  1  0  0  0
 47121  1  0  0  0
 48122  1  0  0  0
 51123  1  0  0  0
 51124  1  0  0  0
 53125  1  0  0  0
 56126  1  0  0  0
 59127  1  0  0  0
 59128  1  0  0  0
 60129  1  0  0  0
 60130  1  0  0  0
 61131  1  0  0  0
 61132  1  0  0  0
 62133  1  0  0  0
 63134  1  0  0  0
 66135  1  0  0  0
 66136  1  0  0  0
 68137  1  0  0  0
 69138  1  0  0  0
 70139  1  0  0  0
 71140  1  0  0  0
 72141  1  0  0  0
 73142  1  0  0  0
 74143  1  0  0  0
 77144  1  0  0  0
 77145  1  0  0  0
 78146  1  0  0  0
 78147  1  0  0  0
 79148  1  0  0  0
 79149  1  0  0  0
 80150  1  0  0  0
 80151  1  0  0  0
 81152  1  0  0  0
 81153  1  0  0  0
 81154  1  0  0  0
 82155  1  0  0  0
M  END
$$$$
