### 
### Created by X-TOOL on Mon Sep 10 21:13:28 2018
### 

@<TRIPOS>MOLECULE
5awt_ligand
  152   156     1     0     0
SMALL
GAST_HUCK


@<TRIPOS>ATOM
      1 N          32.2270   15.9170  115.5120 N.4       1 TYR         0.2392
      2 CA         31.0360   15.6340  114.7260 C.3       1 TYR         0.0730
      3 C          30.6790   14.1490  114.7400 C.2       1 TYR         0.2286
      4 O          31.5310   13.2910  114.4940 O.2       1 TYR        -0.3905
      5 CB         31.2330   16.1000  113.2870 C.3       1 TYR         0.0365
      6 CG         30.2510   15.4800  112.3200 C.ar      1 TYR        -0.0460
      7 CD1        30.6220   14.4070  111.5090 C.ar      1 TYR        -0.0684
      8 CD2        28.9440   15.9530  112.2280 C.ar      1 TYR        -0.0684
      9 CE1        29.7210   13.8250  110.6270 C.ar      1 TYR        -0.0398
     10 CE2        28.0340   15.3820  111.3440 C.ar      1 TYR        -0.0398
     11 CZ         28.4290   14.3160  110.5430 C.ar      1 TYR         0.0805
     12 OH         27.5380   13.7330  109.6630 O.3       1 TYR        -0.3376
     13 N          29.4080   13.8570  115.0050 N.am      1 ASP        -0.2593
     14 CA         28.9300   12.4870  115.1130 C.3       1 ASP         0.1426
     15 C          28.0330   12.1350  113.9360 C.2       1 ASP         0.2081
     16 O          26.9100   12.6360  113.8150 O.2       1 ASP        -0.3941
     17 CB         28.1590   12.3010  116.4180 C.3       1 ASP         0.0406
     18 CG         27.7850   10.8660  116.6710 C.2       1 ASP         0.0393
     19 OD1        27.5610   10.5400  117.8430 O.co2     1 ASP        -0.5688
     20 OD2        27.7220   10.0560  115.7160 O.co2     1 ASP        -0.5688
     21 N          28.5260   11.2480  113.0640 N.am      1 PRO        -0.2497
     22 CA         27.7800   10.8690  111.8570 C.3       1 PRO         0.1338
     23 C          26.5010   10.0890  112.1650 C.2       1 PRO         0.2042
     24 O          25.6510    9.9000  111.2760 O.2       1 PRO        -0.3944
     25 CB         28.7740    9.9890  111.0820 C.3       1 PRO        -0.0104
     26 CG         29.8730    9.6650  112.0230 C.3       1 PRO        -0.0281
     27 CD         29.9140   10.7570  113.0440 C.3       1 PRO         0.0369
     28 N          26.3580    9.6480  113.4110 N.am      1 PHE        -0.2619
     29 CA         25.1800    8.8840  113.7760 C.3       1 PHE         0.1404
     30 C          24.1060    9.7270  114.4430 C.2       1 PHE         0.2058
     31 O          22.9870    9.2590  114.6310 O.2       1 PHE        -0.3942
     32 CB         25.5820    7.7030  114.6420 C.3       1 PHE         0.0214
     33 CG         26.5080    6.7650  113.9510 C.ar      1 PHE        -0.0386
     34 CD1        26.0140    5.7970  113.0910 C.ar      1 PHE        -0.0601
     35 CD2        27.8730    6.8690  114.1210 C.ar      1 PHE        -0.0601
     36 CE1        26.8670    4.9320  112.4290 C.ar      1 PHE        -0.0686
     37 CE2        28.7330    6.0040  113.4630 C.ar      1 PHE        -0.0686
     38 CZ         28.2270    5.0350  112.6170 C.ar      1 PHE        -0.0687
     39 N          24.4500   10.9690  114.7820 N.am      1 GLY        -0.2663
     40 CA         23.5250   11.8900  115.4260 C.3       1 GLY         0.1201
     41 C          22.7790   11.2280  116.5630 C.2       1 GLY         0.2005
     42 O          21.5850   11.4580  116.7620 O.2       1 GLY        -0.3947
     43 N          23.4920   10.3840  117.2980 N.am      1 GLY        -0.2666
     44 CA         22.8880    9.5690  118.3360 C.3       1 GLY         0.1201
     45 C          23.4100    8.1410  118.3280 C.2       1 GLY         0.2008
     46 O          24.3190    7.8050  117.5680 O.2       1 GLY        -0.3947
     47 N          22.8260    7.3010  119.1800 N.am      1 ASP        -0.2624
     48 CA         23.2500    5.9060  119.3350 C.3       1 ASP         0.1425
     49 C          22.7500    5.0250  118.1810 C.2       1 ASP         0.2081
     50 O          21.5400    4.9240  117.9490 O.2       1 ASP        -0.3941
     51 CB         22.7370    5.3550  120.6710 C.3       1 ASP         0.0406
     52 CG         23.6430    4.2730  121.2660 C.2       1 ASP         0.0393
     53 OD1        23.7970    4.2470  122.5040 O.co2     1 ASP        -0.5688
     54 OD2        24.1860    3.4390  120.5170 O.co2     1 ASP        -0.5688
     55 N          23.6870    4.3920  117.4500 N.am      1 PRO        -0.2497
     56 CA         23.3550    3.4720  116.3580 C.3       1 PRO         0.1338
     57 C          23.0850    2.0590  116.8510 C.2       1 PRO         0.2042
     58 O          22.7580    1.1880  116.0480 O.2       1 PRO        -0.3944
     59 CB         24.6410    3.4640  115.5270 C.3       1 PRO        -0.0104
     60 CG         25.7150    3.6320  116.5440 C.3       1 PRO        -0.0281
     61 CD         25.1420    4.6270  117.5330 C.3       1 PRO         0.0369
     62 N          23.2310    1.8250  118.1520 N.am      1 PHE        -0.2619
     63 CA         23.1820    0.4610  118.6810 C.3       1 PHE         0.1404
     64 C          21.8830    0.1280  119.4300 C.2       1 PHE         0.2054
     65 O          21.3160   -0.9510  119.2400 O.2       1 PHE        -0.3942
     66 CB         24.4280    0.1540  119.5400 C.3       1 PHE         0.0214
     67 CG         25.7210    0.1050  118.7500 C.ar      1 PHE        -0.0386
     68 CD1        26.0480   -1.0110  117.9960 C.ar      1 PHE        -0.0601
     69 CD2        26.6060    1.1780  118.7630 C.ar      1 PHE        -0.0601
     70 CE1        27.2180   -1.0550  117.2800 C.ar      1 PHE        -0.0686
     71 CE2        27.7760    1.1370  118.0480 C.ar      1 PHE        -0.0686
     72 CZ         28.0830    0.0220  117.3060 C.ar      1 PHE        -0.0687
     73 N          21.4200    1.0540  120.2690 N.am      1 LYS        -0.2693
     74 CA         20.2290    0.8470  121.0990 C.3       1 LYS         0.0944
     75 C          20.3650   -0.4000  121.9730 C.2       1 LYS         0.0601
     76 O          21.4790   -0.8450  122.2690 O.co2     1 LYS        -0.5666
     77 CB         18.9590    0.7790  120.2370 C.3       1 LYS        -0.0177
     78 CG         18.7990    1.9500  119.2540 C.3       1 LYS        -0.0446
     79 CD         18.6860    3.3020  119.9840 C.3       1 LYS        -0.0125
     80 CE         18.6680    4.4800  118.9940 C.3       1 LYS        -0.0354
     81 NZ         18.6180    5.8220  119.6670 N.4       1 LYS         0.2185
     82 OXT        19.3630   -0.9850  122.3990 O.co2     1 LYS        -0.5666
     83 H1         32.4265   16.9044  115.4761 H         1 TYR         0.2017
     84 H2         33.0080   15.4026  115.1358 H         1 TYR         0.2017
     85 H3         32.0718   15.6402  116.4687 H         1 TYR         0.2017
     86 H4         30.1963   16.1936  115.1640 H         1 TYR         0.1120
     87 H5         32.2518   15.8331  112.9696 H         1 TYR         0.0486
     88 H6         31.1131   17.1929  113.2541 H         1 TYR         0.0486
     89 H7         31.6329   14.0203  111.5685 H         1 TYR         0.0530
     90 H8         28.6308   16.7796  112.8555 H         1 TYR         0.0530
     91 H9         30.0277   12.9902  110.0072 H         1 TYR         0.0525
     92 H10        27.0223   15.7660  111.2799 H         1 TYR         0.0525
     93 H11        27.9700   13.0254  109.1991 H         1 TYR         0.2458
     94 H12        28.7582   14.6060  115.1345 H         1 ASP         0.1886
     95 H13        29.7972   11.8103  115.1120 H         1 ASP         0.0819
     96 H14        27.2387   12.9017  116.3719 H         1 ASP         0.0478
     97 H15        28.7857   12.6535  117.2505 H         1 ASP         0.0478
     98 H16        27.5181   11.7651  111.2754 H         1 PRO         0.0802
     99 H17        29.1674   10.5357  110.2123 H         1 PRO         0.0313
    100 H18        28.2802    9.0665  110.7426 H         1 PRO         0.0313
    101 H19        30.8302    9.6172  111.4831 H         1 PRO         0.0287
    102 H20        29.6789    8.6988  112.5116 H         1 PRO         0.0287
    103 H21        30.2087   10.3657  114.0289 H         1 PRO         0.0524
    104 H22        30.6103   11.5534  112.7425 H         1 PRO         0.0524
    105 H23        27.0609    9.8425  114.0952 H         1 PHE         0.1885
    106 H24        24.7460    8.4850  112.8473 H         1 PHE         0.0823
    107 H25        24.6737    7.1522  114.9276 H         1 PHE         0.0474
    108 H26        26.0792    8.0842  115.5461 H         1 PHE         0.0474
    109 H27        24.9443    5.7165  112.9348 H         1 PHE         0.0557
    110 H28        28.2764    7.6338  114.7748 H         1 PHE         0.0557
    111 H29        26.4658    4.1755  111.7643 H         1 PHE         0.0599
    112 H30        29.8035    6.0874  113.6119 H         1 PHE         0.0599
    113 H31        28.8994    4.3578  112.1028 H         1 PHE         0.0559
    114 H32        25.3799   11.2804  114.5863 H         1 GLY         0.1881
    115 H33        22.7977   12.2444  114.6807 H         1 GLY         0.0763
    116 H34        24.0914   12.7460  115.8216 H         1 GLY         0.0763
    117 H35        24.4751   10.3072  117.1317 H         1 GLY         0.1881
    118 H36        21.7993    9.5481  118.1802 H         1 GLY         0.0763
    119 H37        23.1099   10.0208  119.3140 H         1 GLY         0.0763
    120 H38        22.0663    7.6355  119.7376 H         1 ASP         0.1884
    121 H39        24.3496    5.8772  119.3401 H         1 ASP         0.0819
    122 H40        21.7375    4.9246  120.5108 H         1 ASP         0.0478
    123 H41        22.6677    6.1860  121.3883 H         1 ASP         0.0478
    124 H42        22.4943    3.8380  115.7791 H         1 PRO         0.0802
    125 H43        24.6485    4.2953  114.8067 H         1 PRO         0.0313
    126 H44        24.7551    2.5115  114.9888 H         1 PRO         0.0313
    127 H45        26.6316    4.0265  116.0812 H         1 PRO         0.0287
    128 H46        25.9366    2.6747  117.0385 H         1 PRO         0.0287
    129 H47        25.5151    4.4314  118.5491 H         1 PRO         0.0524
    130 H48        25.3914    5.6584  117.2430 H         1 PRO         0.0524
    131 H49        23.3763    2.5915  118.7776 H         1 PHE         0.1885
    132 H50        23.2190   -0.2117  117.8115 H         1 PHE         0.0823
    133 H51        24.2819   -0.8219  120.0261 H         1 PHE         0.0474
    134 H52        24.5207    0.9360  120.3080 H         1 PHE         0.0474
    135 H53        25.3723   -1.8583  117.9715 H         1 PHE         0.0557
    136 H54        26.3676    2.0597  119.3468 H         1 PHE         0.0557
    137 H55        27.4632   -1.9338  116.6947 H         1 PHE         0.0599
    138 H56        28.4558    1.9811  118.0683 H         1 PHE         0.0599
    139 H57        29.0065   -0.0127  116.7394 H         1 PHE         0.0559
    140 H58        21.9048    1.9261  120.3353 H         1 LYS         0.1875
    141 H59        20.1339    1.7149  121.7681 H         1 LYS         0.0726
    142 H60        18.0872    0.7706  120.9078 H         1 LYS         0.0305
    143 H61        18.9851   -0.1559  119.6579 H         1 LYS         0.0305
    144 H62        17.8889    1.7912  118.6569 H         1 LYS         0.0269
    145 H63        19.6742    1.9775  118.5882 H         1 LYS         0.0269
    146 H64        19.5468    3.4163  120.6592 H         1 LYS         0.0317
    147 H65        17.7556    3.3144  120.5706 H         1 LYS         0.0317
    148 H66        17.7828    4.3801  118.3487 H         1 LYS         0.0813
    149 H67        19.5781    4.4322  118.3781 H         1 LYS         0.0813
    150 H68        18.6084    6.5482  118.9680 H         1 LYS         0.1994
    151 H69        19.4286    5.9331  120.2557 H         1 LYS         0.1994
    152 H70        17.7835    5.8853  120.2288 H         1 LYS         0.1994
@<TRIPOS>BOND
     1    1    2 1  
     2    2    3 1  
     3    2    5 1  
     4    3    4 2  
     5    3   13 am 
     6    5    6 1  
     7    6    7 ar 
     8    6    8 ar 
     9    7    9 ar 
    10    8   10 ar 
    11    9   11 ar 
    12   10   11 ar 
    13   11   12 1  
    14   13   14 1  
    15   14   15 1  
    16   14   17 1  
    17   15   16 2  
    18   15   21 am 
    19   17   18 1  
    20   18   19 ar 
    21   18   20 ar 
    22   21   22 1  
    23   21   27 1  
    24   22   23 1  
    25   22   25 1  
    26   23   24 2  
    27   23   28 am 
    28   25   26 1  
    29   26   27 1  
    30   28   29 1  
    31   29   30 1  
    32   29   32 1  
    33   30   31 2  
    34   30   39 am 
    35   32   33 1  
    36   33   34 ar 
    37   33   35 ar 
    38   34   36 ar 
    39   35   37 ar 
    40   36   38 ar 
    41   37   38 ar 
    42   39   40 1  
    43   40   41 1  
    44   41   42 2  
    45   41   43 am 
    46   43   44 1  
    47   44   45 1  
    48   45   46 2  
    49   45   47 am 
    50   47   48 1  
    51   48   49 1  
    52   48   51 1  
    53   49   50 2  
    54   49   55 am 
    55   51   52 1  
    56   52   53 ar 
    57   52   54 ar 
    58   55   56 1  
    59   55   61 1  
    60   56   57 1  
    61   56   59 1  
    62   57   58 2  
    63   57   62 am 
    64   59   60 1  
    65   60   61 1  
    66   62   63 1  
    67   63   64 1  
    68   63   66 1  
    69   64   65 2  
    70   64   73 am 
    71   66   67 1  
    72   67   68 ar 
    73   67   69 ar 
    74   68   70 ar 
    75   69   71 ar 
    76   70   72 ar 
    77   71   72 ar 
    78   73   74 1  
    79   74   75 1  
    80   74   77 1  
    81   75   76 ar 
    82   75   82 ar 
    83   77   78 1  
    84   78   79 1  
    85   79   80 1  
    86   80   81 1  
    87    1   83 1  
    88    1   84 1  
    89    1   85 1  
    90    2   86 1  
    91    5   87 1  
    92    5   88 1  
    93    7   89 1  
    94    8   90 1  
    95    9   91 1  
    96   10   92 1  
    97   12   93 1  
    98   13   94 1  
    99   14   95 1  
   100   17   96 1  
   101   17   97 1  
   102   22   98 1  
   103   25   99 1  
   104   25  100 1  
   105   26  101 1  
   106   26  102 1  
   107   27  103 1  
   108   27  104 1  
   109   28  105 1  
   110   29  106 1  
   111   32  107 1  
   112   32  108 1  
   113   34  109 1  
   114   35  110 1  
   115   36  111 1  
   116   37  112 1  
   117   38  113 1  
   118   39  114 1  
   119   40  115 1  
   120   40  116 1  
   121   43  117 1  
   122   44  118 1  
   123   44  119 1  
   124   47  120 1  
   125   48  121 1  
   126   51  122 1  
   127   51  123 1  
   128   56  124 1  
   129   59  125 1  
   130   59  126 1  
   131   60  127 1  
   132   60  128 1  
   133   61  129 1  
   134   61  130 1  
   135   62  131 1  
   136   63  132 1  
   137   66  133 1  
   138   66  134 1  
   139   68  135 1  
   140   69  136 1  
   141   70  137 1  
   142   71  138 1  
   143   72  139 1  
   144   73  140 1  
   145   74  141 1  
   146   77  142 1  
   147   77  143 1  
   148   78  144 1  
   149   78  145 1  
   150   79  146 1  
   151   79  147 1  
   152   80  148 1  
   153   80  149 1  
   154   81  150 1  
   155   81  151 1  
   156   81  152 1  
@<TRIPOS>SUBSTRUCTURE
     1 TYR         1

