### 
### Created by X-TOOL on Mon Sep 10 21:12:56 2018
### 

@<TRIPOS>MOLECULE
2r03_ligand
  129   130     1     0     0
SMALL
GAST_HUCK


@<TRIPOS>ATOM
      1 N         -67.3960  -40.5610  -56.8160 N.4       1 ASN         0.2396
      2 CA        -68.6120  -40.7120  -57.6660 C.3       1 ASN         0.0818
      3 C         -68.7020  -39.6800  -58.8120 C.2       1 ASN         0.2291
      4 O         -67.7830  -39.5960  -59.6350 O.2       1 ASN        -0.3905
      5 CB        -69.8760  -40.7090  -56.7950 C.3       1 ASN         0.0972
      6 CG        -71.0290  -41.4780  -57.4320 C.2       1 ASN         0.1813
      7 OD1       -70.8710  -42.1210  -58.4840 O.2       1 ASN        -0.3969
      8 ND2       -72.1980  -41.4150  -56.7960 N.am      1 ASN        -0.3006
      9 N         -69.7850  -38.8970  -58.8610 N.am      1 LEU        -0.2609
     10 CA        -70.0630  -38.0080  -60.0020 C.3       1 LEU         0.1313
     11 C         -69.3210  -36.6690  -60.0250 C.2       1 LEU         0.2040
     12 O         -68.7400  -36.2880  -61.0520 O.2       1 LEU        -0.3944
     13 CB        -71.5670  -37.7660  -60.1450 C.3       1 LEU        -0.0101
     14 CG        -72.2180  -38.3000  -61.4230 C.3       1 LEU        -0.0425
     15 CD1       -72.2020  -39.8330  -61.4900 C.3       1 LEU        -0.0625
     16 CD2       -73.6300  -37.7730  -61.5290 C.3       1 LEU        -0.0625
     17 N         -69.3560  -35.9590  -58.9000 N.am      1 TYR        -0.2621
     18 CA        -68.8020  -34.6120  -58.8060 C.3       1 TYR         0.1392
     19 C         -67.3440  -34.6210  -58.3550 C.2       1 TYR         0.2082
     20 O         -66.9620  -35.4510  -57.5360 O.2       1 TYR        -0.3940
     21 CB        -69.6880  -33.7330  -57.9090 C.3       1 TYR         0.0164
     22 CG        -70.8810  -33.2150  -58.6660 C.ar      1 TYR        -0.0493
     23 CD1       -72.0240  -33.9960  -58.8200 C.ar      1 TYR        -0.0685
     24 CD2       -70.8560  -31.9590  -59.2710 C.ar      1 TYR        -0.0685
     25 CE1       -73.1200  -33.5340  -59.5450 C.ar      1 TYR        -0.0398
     26 CE2       -71.9520  -31.4890  -59.9970 C.ar      1 TYR        -0.0398
     27 CZ        -73.0770  -32.2860  -60.1250 C.ar      1 TYR         0.0805
     28 OH        -74.1560  -31.8420  -60.8370 O.3       1 TYR        -0.3376
     29 N         -66.5250  -33.6880  -58.8850 N.am      1 PRO        -0.2497
     30 CA        -65.0760  -33.8230  -58.7430 C.3       1 PRO         0.1338
     31 C         -64.5700  -33.7030  -57.3180 C.2       1 PRO         0.2042
     32 O         -65.2750  -33.2400  -56.4220 O.2       1 PRO        -0.3944
     33 CB        -64.5200  -32.6920  -59.6170 C.3       1 PRO        -0.0104
     34 CG        -65.5970  -31.6990  -59.6680 C.3       1 PRO        -0.0281
     35 CD        -66.8840  -32.4670  -59.6270 C.3       1 PRO         0.0369
     36 N         -63.3270  -34.1340  -57.1600 N.am      1 ASP        -0.2622
     37 CA        -62.6580  -34.3160  -55.8890 C.3       1 ASP         0.1423
     38 C         -62.3010  -32.9840  -55.2030 C.2       1 ASP         0.2056
     39 O         -61.5900  -32.1490  -55.7740 O.2       1 ASP        -0.3943
     40 CB        -61.3900  -35.1300  -56.1680 C.3       1 ASP         0.0406
     41 CG        -60.9790  -36.0000  -55.0080 C.2       1 ASP         0.0393
     42 OD1       -61.6570  -35.9630  -53.9550 O.co2     1 ASP        -0.5688
     43 OD2       -59.9670  -36.7220  -55.1590 O.co2     1 ASP        -0.5688
     44 N         -62.8040  -32.7910  -53.9830 N.am      1 LEU        -0.2636
     45 CA        -62.4250  -31.6400  -53.1620 C.3       1 LEU         0.1312
     46 C         -61.5410  -32.0830  -51.9980 C.2       1 LEU         0.2040
     47 O         -62.0090  -32.7220  -51.0440 O.2       1 LEU        -0.3944
     48 CB        -63.6500  -30.8740  -52.6540 C.3       1 LEU        -0.0101
     49 CG        -64.5710  -30.1720  -53.6630 C.3       1 LEU        -0.0425
     50 CD1       -65.5780  -29.2940  -52.9200 C.3       1 LEU        -0.0625
     51 CD2       -63.7970  -29.3630  -54.7100 C.3       1 LEU        -0.0625
     52 N         -60.2580  -31.7410  -52.0960 N.am      1 SER        -0.2616
     53 CA        -59.2370  -32.2110  -51.1560 C.3       1 SER         0.1539
     54 C         -58.2930  -31.0780  -50.7430 C.2       1 SER         0.2063
     55 O         -58.0160  -30.8850  -49.5500 O.2       1 SER        -0.3943
     56 CB        -58.4440  -33.3510  -51.7960 C.3       1 SER         0.0843
     57 OG        -59.3280  -34.3050  -52.3580 O.3       1 SER        -0.3903
     58 N         -57.8010  -30.3500  -51.7460 N.am      1 GLU        -0.2622
     59 CA        -57.0100  -29.1410  -51.5520 C.3       1 GLU         0.1435
     60 C         -57.4800  -28.0590  -52.5240 C.2       1 GLU         0.2572
     61 O         -58.6370  -27.6430  -52.4920 O.2       1 GLU        -0.3680
     62 CB        -55.5150  -29.4340  -51.7470 C.3       1 GLU         0.0005
     63 CG        -54.8480  -30.1450  -50.5540 C.3       1 GLU         0.0045
     64 CD        -53.4250  -30.6380  -50.8420 C.2       1 GLU         0.0350
     65 OE1       -52.9530  -30.5200  -51.9980 O.co2     1 GLU        -0.5690
     66 OE2       -52.7770  -31.1520  -49.9000 O.co2     1 GLU        -0.5690
     67 O1        -56.6274  -27.5613  -53.4152 O.3       1 GLU        -0.2910
     68 H1        -67.4025  -41.2629  -56.0926 H         1 ASN         0.2017
     69 H2        -67.3917  -39.6450  -56.3953 H         1 ASN         0.2017
     70 H3        -66.5719  -40.6731  -57.3855 H         1 ASN         0.2017
     71 H4        -68.5470  -41.7020  -58.1411 H         1 ASN         0.1125
     72 H5        -70.1922  -39.6674  -56.6365 H         1 ASN         0.0585
     73 H6        -69.6372  -41.1712  -55.8258 H         1 ASN         0.0585
     74 H7        -72.9934  -41.8977  -57.1627 H         1 ASN         0.1814
     75 H8        -72.2801  -40.8851  -55.9519 H         1 ASN         0.1814
     76 H9        -70.4288  -38.9157  -58.0960 H         1 LEU         0.1885
     77 H10       -69.7333  -38.5549  -60.8977 H         1 LEU         0.0800
     78 H11       -71.7371  -36.6798  -60.1102 H         1 LEU         0.0315
     79 H12       -72.0667  -38.2431  -59.2891 H         1 LEU         0.0315
     80 H13       -71.6429  -37.9212  -62.2808 H         1 LEU         0.0298
     81 H14       -72.6797  -40.1642  -62.4239 H         1 LEU         0.0232
     82 H15       -72.7529  -40.2434  -60.6309 H         1 LEU         0.0232
     83 H16       -71.1620  -40.1904  -61.4634 H         1 LEU         0.0232
     84 H17       -73.6160  -36.6742  -61.4786 H         1 LEU         0.0232
     85 H18       -74.2330  -38.1704  -60.6993 H         1 LEU         0.0232
     86 H19       -74.0690  -38.0906  -62.4863 H         1 LEU         0.0232
     87 H20       -69.7777  -36.3636  -58.0885 H         1 TYR         0.1885
     88 H21       -68.8232  -34.1762  -59.8158 H         1 TYR         0.0821
     89 H22       -69.0962  -32.8805  -57.5444 H         1 TYR         0.0453
     90 H23       -70.0370  -34.3298  -57.0534 H         1 TYR         0.0453
     91 H24       -72.0613  -34.9805  -58.3678 H         1 TYR         0.0530
     92 H25       -69.9724  -31.3382  -59.1762 H         1 TYR         0.0530
     93 H26       -74.0026  -34.1541  -59.6521 H         1 TYR         0.0525
     94 H27       -71.9225  -30.5078  -60.4569 H         1 TYR         0.0525
     95 H28       -73.8936  -31.6710  -61.7339 H         1 TYR         0.2458
     96 H29       -64.7583  -34.7996  -59.1371 H         1 PRO         0.0802
     97 H30       -64.2845  -33.0612  -60.6260 H         1 PRO         0.0313
     98 H31       -63.6153  -32.2604  -59.1640 H         1 PRO         0.0313
     99 H32       -65.5307  -31.0214  -58.8040 H         1 PRO         0.0287
    100 H33       -65.5320  -31.1150  -60.5979 H         1 PRO         0.0287
    101 H34       -67.6648  -31.9000  -59.0990 H         1 PRO         0.0524
    102 H35       -67.2305  -32.7101  -60.6423 H         1 PRO         0.0524
    103 H36       -62.8082  -34.3515  -57.9868 H         1 ASP         0.1884
    104 H37       -63.3175  -34.8839  -55.2163 H         1 ASP         0.0819
    105 H38       -60.5687  -34.4332  -56.3912 H         1 ASP         0.0478
    106 H39       -61.5722  -35.7738  -57.0411 H         1 ASP         0.0478
    107 H40       -63.4595  -33.4523  -53.6183 H         1 LEU         0.1883
    108 H41       -61.8392  -30.9551  -53.7926 H         1 LEU         0.0800
    109 H42       -63.2812  -30.1004  -51.9645 H         1 LEU         0.0315
    110 H43       -64.2708  -31.5933  -52.0998 H         1 LEU         0.0315
    111 H44       -65.1321  -30.9511  -54.1998 H         1 LEU         0.0298
    112 H45       -66.2348  -28.7938  -53.6469 H         1 LEU         0.0232
    113 H46       -65.0398  -28.5370  -52.3306 H         1 LEU         0.0232
    114 H47       -66.1840  -29.9193  -52.2479 H         1 LEU         0.0232
    115 H48       -63.0822  -30.0205  -55.2264 H         1 LEU         0.0232
    116 H49       -63.2517  -28.5470  -54.2132 H         1 LEU         0.0232
    117 H50       -64.5016  -28.9410  -55.4417 H         1 LEU         0.0232
    118 H51       -59.9792  -31.1375  -52.8431 H         1 SER         0.1884
    119 H52       -59.7394  -32.5908  -50.2542 H         1 SER         0.0823
    120 H53       -57.8236  -33.8377  -51.0291 H         1 SER         0.0606
    121 H54       -57.7970  -32.9444  -52.5873 H         1 SER         0.0606
    122 H55       -58.8248  -35.0077  -52.7523 H         1 SER         0.2097
    123 H56       -57.9846  -30.6497  -52.6822 H         1 GLU         0.1885
    124 H57       -57.1631  -28.7812  -50.5239 H         1 GLU         0.0817
    125 H58       -54.9954  -28.4788  -51.9132 H         1 GLU         0.0331
    126 H59       -55.4020  -30.0724  -52.6356 H         1 GLU         0.0331
    127 H60       -55.4658  -31.0122  -50.2779 H         1 GLU         0.0433
    128 H61       -54.8065  -29.4408  -49.7100 H         1 GLU         0.0433
    129 H62       -56.9576  -27.7214  -54.2915 H         1 GLU         0.2540
@<TRIPOS>BOND
     1    2    1 1  
     2    2    5 1  
     3    3    2 1  
     4    3    4 2  
     5    5    6 1  
     6    6    8 am 
     7    6    7 2  
     8   10    9 1  
     9   10   13 1  
    10   11   10 1  
    11   11   12 2  
    12   13   14 1  
    13   14   15 1  
    14   14   16 1  
    15    9    3 am 
    16   18   17 1  
    17   18   21 1  
    18   19   18 1  
    19   19   20 2  
    20   21   22 1  
    21   22   23 ar 
    22   22   24 ar 
    23   24   26 ar 
    24   26   27 ar 
    25   27   28 1  
    26   25   27 ar 
    27   23   25 ar 
    28   17   11 am 
    29   31   30 1  
    30   30   33 1  
    31   30   29 1  
    32   29   35 1  
    33   35   34 1  
    34   33   34 1  
    35   31   32 2  
    36   29   19 am 
    37   37   36 1  
    38   37   40 1  
    39   38   37 1  
    40   38   39 2  
    41   40   41 1  
    42   41   42 ar 
    43   41   43 ar 
    44   36   31 am 
    45   45   44 1  
    46   45   48 1  
    47   46   45 1  
    48   46   47 2  
    49   48   49 1  
    50   49   50 1  
    51   49   51 1  
    52   44   38 am 
    53   53   52 1  
    54   53   56 1  
    55   54   53 1  
    56   54   55 2  
    57   56   57 1  
    58   52   46 am 
    59   58   59 1  
    60   59   62 1  
    61   59   60 1  
    62   60   61 2  
    63   62   63 1  
    64   63   64 1  
    65   64   66 ar 
    66   64   65 ar 
    67   54   58 am 
    68   60   67 1  
    69    1   68 1  
    70    1   69 1  
    71    1   70 1  
    72    2   71 1  
    73    5   72 1  
    74    5   73 1  
    75    8   74 1  
    76    8   75 1  
    77    9   76 1  
    78   10   77 1  
    79   13   78 1  
    80   13   79 1  
    81   14   80 1  
    82   15   81 1  
    83   15   82 1  
    84   15   83 1  
    85   16   84 1  
    86   16   85 1  
    87   16   86 1  
    88   17   87 1  
    89   18   88 1  
    90   21   89 1  
    91   21   90 1  
    92   23   91 1  
    93   24   92 1  
    94   25   93 1  
    95   26   94 1  
    96   28   95 1  
    97   30   96 1  
    98   33   97 1  
    99   33   98 1  
   100   34   99 1  
   101   34  100 1  
   102   35  101 1  
   103   35  102 1  
   104   36  103 1  
   105   37  104 1  
   106   40  105 1  
   107   40  106 1  
   108   44  107 1  
   109   45  108 1  
   110   48  109 1  
   111   48  110 1  
   112   49  111 1  
   113   50  112 1  
   114   50  113 1  
   115   50  114 1  
   116   51  115 1  
   117   51  116 1  
   118   51  117 1  
   119   52  118 1  
   120   53  119 1  
   121   56  120 1  
   122   56  121 1  
   123   57  122 1  
   124   58  123 1  
   125   59  124 1  
   126   62  125 1  
   127   62  126 1  
   128   63  127 1  
   129   63  128 1  
   130   67  129 1  
@<TRIPOS>SUBSTRUCTURE
     1 ASN         1

