2r03_ligand
  -I-interpret- 

131132  0  0  0  0  0  0  0  0999 V2000
  -67.3960  -40.5610  -56.8160 N   0  3  0  0  0
  -68.6120  -40.7120  -57.6660 C   0  0  0  0  0
  -68.7020  -39.6800  -58.8120 C   0  0  0  0  0
  -67.7830  -39.5960  -59.6350 O   0  0  0  0  0
  -69.8760  -40.7090  -56.7950 C   0  0  0  0  0
  -71.0290  -41.4780  -57.4320 C   0  0  0  0  0
  -70.8710  -42.1210  -58.4840 O   0  0  0  0  0
  -72.1980  -41.4150  -56.7960 N   0  0  0  0  0
  -69.7850  -38.8970  -58.8610 N   0  0  0  0  0
  -70.0630  -38.0080  -60.0020 C   0  0  0  0  0
  -69.3210  -36.6690  -60.0250 C   0  0  0  0  0
  -68.7400  -36.2880  -61.0520 O   0  0  0  0  0
  -71.5670  -37.7660  -60.1450 C   0  0  0  0  0
  -72.2180  -38.3000  -61.4230 C   0  0  0  0  0
  -72.2020  -39.8330  -61.4900 C   0  0  0  0  0
  -73.6300  -37.7730  -61.5290 C   0  0  0  0  0
  -69.3560  -35.9590  -58.9000 N   0  0  0  0  0
  -68.8020  -34.6120  -58.8060 C   0  0  0  0  0
  -67.3440  -34.6210  -58.3550 C   0  0  0  0  0
  -66.9620  -35.4510  -57.5360 O   0  0  0  0  0
  -69.6880  -33.7330  -57.9090 C   0  0  0  0  0
  -70.8810  -33.2150  -58.6660 C   0  0  0  0  0
  -72.0240  -33.9960  -58.8200 C   0  0  0  0  0
  -70.8560  -31.9590  -59.2710 C   0  0  0  0  0
  -73.1200  -33.5340  -59.5450 C   0  0  0  0  0
  -71.9520  -31.4890  -59.9970 C   0  0  0  0  0
  -73.0770  -32.2860  -60.1250 C   0  0  0  0  0
  -74.1560  -31.8420  -60.8370 O   0  0  0  0  0
  -66.5250  -33.6880  -58.8850 N   0  0  0  0  0
  -65.0760  -33.8230  -58.7430 C   0  0  0  0  0
  -64.5700  -33.7030  -57.3180 C   0  0  0  0  0
  -65.2750  -33.2400  -56.4220 O   0  0  0  0  0
  -64.5200  -32.6920  -59.6170 C   0  0  0  0  0
  -65.5970  -31.6990  -59.6680 C   0  0  0  0  0
  -66.8840  -32.4670  -59.6270 C   0  0  0  0  0
  -63.3270  -34.1340  -57.1600 N   0  0  0  0  0
  -62.6580  -34.3160  -55.8890 C   0  0  0  0  0
  -62.3010  -32.9840  -55.2030 C   0  0  0  0  0
  -61.5900  -32.1490  -55.7740 O   0  0  0  0  0
  -61.3900  -35.1300  -56.1680 C   0  0  0  0  0
  -60.9790  -36.0000  -55.0080 C   0  0  0  0  0
  -61.6570  -35.9630  -53.9550 O   0  0  0  0  0
  -59.9670  -36.7220  -55.1590 O   0  0  0  0  0
  -62.8040  -32.7910  -53.9830 N   0  0  0  0  0
  -62.4250  -31.6400  -53.1620 C   0  0  0  0  0
  -61.5410  -32.0830  -51.9980 C   0  0  0  0  0
  -62.0090  -32.7220  -51.0440 O   0  0  0  0  0
  -63.6500  -30.8740  -52.6540 C   0  0  0  0  0
  -64.5710  -30.1720  -53.6630 C   0  0  0  0  0
  -65.5780  -29.2940  -52.9200 C   0  0  0  0  0
  -63.7970  -29.3630  -54.7100 C   0  0  0  0  0
  -60.2580  -31.7410  -52.0960 N   0  0  0  0  0
  -59.2370  -32.2110  -51.1560 C   0  0  0  0  0
  -58.2930  -31.0780  -50.7430 C   0  0  0  0  0
  -58.0160  -30.8850  -49.5500 O   0  0  0  0  0
  -58.4440  -33.3510  -51.7960 C   0  0  0  0  0
  -59.3280  -34.3050  -52.3580 O   0  0  0  0  0
  -57.8010  -30.3500  -51.7460 N   0  0  0  0  0
  -57.0100  -29.1410  -51.5520 C   0  0  0  0  0
  -57.4800  -28.0590  -52.5240 C   0  0  0  0  0
  -58.6370  -27.6430  -52.4920 O   0  0  0  0  0
  -55.5150  -29.4340  -51.7470 C   0  0  0  0  0
  -54.8480  -30.1450  -50.5540 C   0  0  0  0  0
  -53.4250  -30.6380  -50.8420 C   0  0  0  0  0
  -52.9530  -30.5200  -51.9980 O   0  0  0  0  0
  -52.7770  -31.1520  -49.9000 O   0  0  0  0  0
  -56.6274  -27.5613  -53.4152 O   0  0  0  0  0
  -67.4036  -41.2717  -56.0844 H   0  0  0  0  0
  -66.5628  -40.6746  -57.3933 H   0  0  0  0  0
  -67.3928  -39.6338  -56.3909 H   0  0  0  0  0
  -68.5289  -41.6791  -58.1620 H   0  0  0  0  0
  -70.1930  -39.6740  -56.6675 H   0  0  0  0  0
  -69.6326  -41.1924  -55.8489 H   0  0  0  0  0
  -73.0094  -41.9070  -57.1702 H   0  0  0  0  0
  -72.2816  -40.8748  -55.9349 H   0  0  0  0  0
  -70.4417  -38.9161  -58.0807 H   0  0  0  0  0
  -69.6664  -38.5579  -60.8555 H   0  0  0  0  0
  -71.7011  -36.6844  -60.1638 H   0  0  0  0  0
  -72.0407  -38.2948  -59.3179 H   0  0  0  0  0
  -71.6317  -37.9458  -62.2709 H   0  0  0  0  0
  -71.1710  -40.1858  -61.4635 H   0  0  0  0  0
  -72.7481  -40.2383  -60.6382 H   0  0  0  0  0
  -72.6756  -40.1599  -62.4157 H   0  0  0  0  0
  -74.2051  -38.1019  -60.6635 H   0  0  0  0  0
  -73.6085  -36.6837  -61.5600 H   0  0  0  0  0
  -74.0915  -38.1546  -62.4398 H   0  0  0  0  0
  -69.7862  -36.3717  -58.0723 H   0  0  0  0  0
  -68.8011  -34.1746  -59.8044 H   0  0  0  0  0
  -69.0993  -32.8836  -57.5625 H   0  0  0  0  0
  -70.0409  -34.3342  -57.0711 H   0  0  0  0  0
  -72.0615  -34.9859  -58.3653 H   0  0  0  0  0
  -69.9675  -31.3348  -59.1757 H   0  0  0  0  0
  -74.0075  -34.1575  -59.6527 H   0  0  0  0  0
  -71.9223  -30.5024  -60.4594 H   0  0  0  0  0
  -74.8432  -32.5123  -60.8257 H   0  0  0  0  0
  -64.7525  -34.8201  -59.0418 H   0  0  0  0  0
  -64.2434  -33.0440  -60.6108 H   0  0  0  0  0
  -63.6006  -32.2746  -59.2064 H   0  0  0  0  0
  -65.5290  -31.0052  -58.8301 H   0  0  0  0  0
  -65.5302  -31.0961  -60.5736 H   0  0  0  0  0
  -67.6912  -31.9091  -59.1525 H   0  0  0  0  0
  -67.2781  -32.6799  -60.6207 H   0  0  0  0  0
  -62.7979  -34.3558  -58.0033 H   0  0  0  0  0
  -63.3275  -34.8310  -55.2000 H   0  0  0  0  0
  -60.5796  -34.4262  -56.3577 H   0  0  0  0  0
  -61.5957  -35.7836  -57.0157 H   0  0  0  0  0
  -62.3822  -35.3435  -54.0643 H   0  0  0  0  0
  -63.4726  -33.4655  -53.6110 H   0  0  0  0  0
  -61.8563  -30.9573  -53.7934 H   0  0  0  0  0
  -63.2407  -30.0685  -52.0443 H   0  0  0  0  0
  -64.2775  -31.6325  -52.1861 H   0  0  0  0  0
  -65.1056  -30.9454  -54.2145 H   0  0  0  0  0
  -66.1778  -29.9148  -52.2544 H   0  0  0  0  0
  -65.0435  -28.5445  -52.3364 H   0  0  0  0  0
  -66.2282  -28.7989  -53.6413 H   0  0  0  0  0
  -63.2042  -28.5970  -54.2100 H   0  0  0  0  0
  -63.1376  -30.0286  -55.2669 H   0  0  0  0  0
  -64.5008  -28.8901  -55.3950 H   0  0  0  0  0
  -59.9737  -31.1255  -52.8580 H   0  0  0  0  0
  -59.7361  -32.5698  -50.2558 H   0  0  0  0  0
  -57.8345  -33.8348  -51.0327 H   0  0  0  0  0
  -57.8081  -32.9459  -52.5832 H   0  0  0  0  0
  -58.8195  -35.0151  -52.7564 H   0  0  0  0  0
  -57.9883  -30.6557  -52.7009 H   0  0  0  0  0
  -57.1504  -28.7853  -50.5313 H   0  0  0  0  0
  -55.0132  -28.4742  -51.8700 H   0  0  0  0  0
  -55.4277  -30.0987  -52.6064 H   0  0  0  0  0
  -55.4532  -31.0204  -50.3184 H   0  0  0  0  0
  -54.7825  -29.4221  -49.7408 H   0  0  0  0  0
  -53.6044  -30.1042  -52.5675 H   0  0  0  0  0
  -55.7731  -27.9867  -53.3113 H   0  0  0  0  0
  2  1  1  0  0  0
  2  5  1  0  0  0
  3  2  1  0  0  0
  3  4  2  0  0  0
  5  6  1  0  0  0
  6  8  1  0  0  0
  6  7  2  0  0  0
 10  9  1  0  0  0
 10 13  1  0  0  0
 11 10  1  0  0  0
 11 12  2  0  0  0
 13 14  1  0  0  0
 14 15  1  0  0  0
 14 16  1  0  0  0
  9  3  1  0  0  0
 18 17  1  0  0  0
 18 21  1  0  0  0
 19 18  1  0  0  0
 19 20  2  0  0  0
 21 22  1  0  0  0
 22 23  4  0  0  0
 22 24  4  0  0  0
 24 26  4  0  0  0
 26 27  4  0  0  0
 27 28  1  0  0  0
 25 27  4  0  0  0
 23 25  4  0  0  0
 17 11  1  0  0  0
 31 30  1  0  0  0
 30 33  1  0  0  0
 30 29  1  0  0  0
 29 35  1  0  0  0
 35 34  1  0  0  0
 33 34  1  0  0  0
 31 32  2  0  0  0
 29 19  1  0  0  0
 37 36  1  0  0  0
 37 40  1  0  0  0
 38 37  1  0  0  0
 38 39  2  0  0  0
 40 41  1  0  0  0
 41 42  1  0  0  0
 41 43  2  0  0  0
 36 31  1  0  0  0
 45 44  1  0  0  0
 45 48  1  0  0  0
 46 45  1  0  0  0
 46 47  2  0  0  0
 48 49  1  0  0  0
 49 50  1  0  0  0
 49 51  1  0  0  0
 44 38  1  0  0  0
 53 52  1  0  0  0
 53 56  1  0  0  0
 54 53  1  0  0  0
 54 55  2  0  0  0
 56 57  1  0  0  0
 52 46  1  0  0  0
 58 59  1  0  0  0
 59 62  1  0  0  0
 59 60  1  0  0  0
 60 61  2  0  0  0
 62 63  1  0  0  0
 63 64  1  0  0  0
 64 66  2  0  0  0
 64 65  1  0  0  0
 54 58  1  0  0  0
 60 67  1  0  0  0
  1 68  1  0  0  0
  1 69  1  0  0  0
  1 70  1  0  0  0
  2 71  1  0  0  0
  5 72  1  0  0  0
  5 73  1  0  0  0
  8 74  1  0  0  0
  8 75  1  0  0  0
  9 76  1  0  0  0
 10 77  1  0  0  0
 13 78  1  0  0  0
 13 79  1  0  0  0
 14 80  1  0  0  0
 15 81  1  0  0  0
 15 82  1  0  0  0
 15 83  1  0  0  0
 16 84  1  0  0  0
 16 85  1  0  0  0
 16 86  1  0  0  0
 17 87  1  0  0  0
 18 88  1  0  0  0
 21 89  1  0  0  0
 21 90  1  0  0  0
 23 91  1  0  0  0
 24 92  1  0  0  0
 25 93  1  0  0  0
 26 94  1  0  0  0
 28 95  1  0  0  0
 30 96  1  0  0  0
 33 97  1  0  0  0
 33 98  1  0  0  0
 34 99  1  0  0  0
 34100  1  0  0  0
 35101  1  0  0  0
 35102  1  0  0  0
 36103  1  0  0  0
 37104  1  0  0  0
 40105  1  0  0  0
 40106  1  0  0  0
 42107  1  0  0  0
 44108  1  0  0  0
 45109  1  0  0  0
 48110  1  0  0  0
 48111  1  0  0  0
 49112  1  0  0  0
 50113  1  0  0  0
 50114  1  0  0  0
 50115  1  0  0  0
 51116  1  0  0  0
 51117  1  0  0  0
 51118  1  0  0  0
 52119  1  0  0  0
 53120  1  0  0  0
 56121  1  0  0  0
 56122  1  0  0  0
 57123  1  0  0  0
 58124  1  0  0  0
 59125  1  0  0  0
 62126  1  0  0  0
 62127  1  0  0  0
 63128  1  0  0  0
 63129  1  0  0  0
 65130  1  0  0  0
 67131  1  0  0  0
M  END
$$$$
