5vpm_ligand
  -I-interpret- 

 85 88  0  0  0  0  0  0  0  0999 V2000
   34.1240   -9.2810  -14.9650 C   0  0  0  0  0
   33.5730   -8.5910  -17.1520 C   0  0  0  0  0
   31.8100   -8.9130  -15.5120 C   0  0  0  0  0
   30.4530   -5.4750  -13.1810 C   0  0  0  0  0
   28.3930   -4.1810  -13.4050 C   0  0  0  0  0
   29.6800  -10.3070  -14.9040 C   0  0  0  0  0
   30.0300  -11.4040  -15.9050 C   0  0  0  0  0
   30.9330   -7.2550   -9.5790 C   0  0  0  0  0
   32.2450   -8.0120   -9.6730 C   0  0  0  0  0
   32.2920   -9.0770  -10.7660 C   0  0  0  0  0
   32.1400  -10.4200  -10.4530 C   0  0  0  0  0
   32.1900  -11.3870  -11.4440 C   0  0  0  0  0
   32.4010  -11.0240  -12.7680 C   0  0  0  0  0
   32.5350   -9.6780  -13.1230 C   0  0  0  0  0
   32.5020   -8.7210  -12.1040 C   0  0  0  0  0
   32.7960   -9.2790  -14.5460 C   0  0  0  0  0
   35.0700   -9.6270  -14.0620 F   0  0  0  0  0
   34.5320   -8.9510  -16.2280 C   0  0  0  0  0
   32.2320   -8.5690  -16.8020 C   0  0  0  0  0
   30.3000   -8.8560  -15.1700 C   0  0  0  0  0
   29.5910   -8.5890  -16.3840 O   0  0  0  0  0
   29.9220   -7.7450  -14.1640 C   0  0  0  0  0
   30.5840   -6.3830  -14.3850 C   0  0  0  0  0
   29.0650   -5.1920  -12.8390 N   0  0  0  0  0
   28.9070   -3.2530  -13.9880 O   0  0  0  0  0
   27.0730   -4.3250  -13.2320 O   0  0  0  0  0
   26.2530   -3.2110  -13.6760 C   0  0  0  0  0
   29.4900  -12.7600  -15.4460 C   0  0  0  0  0
   27.9860  -12.7090  -15.2100 C   0  0  0  0  0
   27.6080  -11.5950  -14.2640 N   0  0  0  0  0
   28.0920  -10.3230  -14.8260 C   0  0  0  0  0
   26.9210  -11.8110  -13.0990 C   0  0  0  0  0
   26.5710  -12.9350  -12.7650 O   0  0  0  0  0
   26.5500  -10.6260  -12.2090 C   0  0  0  0  0
   26.9610  -10.7530  -10.7430 C   0  0  0  0  0
   28.3940  -10.2780  -10.5280 C   0  0  0  0  0
   28.7620  -10.1370   -9.0630 C   0  0  0  0  0
   27.8240   -9.2370   -8.3700 N   0  3  0  0  0
   26.5220   -9.7900   -8.3720 C   0  0  0  0  0
   26.0060   -9.9430   -9.8270 C   0  0  0  0  0
   33.8721   -8.3218  -18.1650 H   0  0  0  0  0
   30.9384   -4.5289  -13.4207 H   0  0  0  0  0
   30.9115   -5.9789  -12.3301 H   0  0  0  0  0
   30.1527  -10.5270  -13.9468 H   0  0  0  0  0
   31.1150  -11.4696  -15.9859 H   0  0  0  0  0
   29.5797  -11.1561  -16.8662 H   0  0  0  0  0
   30.7402   -6.7460  -10.5234 H   0  0  0  0  0
   30.1247   -7.9560   -9.3709 H   0  0  0  0  0
   30.9952   -6.5212   -8.7754 H   0  0  0  0  0
   32.3820   -8.5275   -8.7224 H   0  0  0  0  0
   33.0167   -7.2799   -9.9108 H   0  0  0  0  0
   31.9796  -10.7175   -9.4167 H   0  0  0  0  0
   32.0631  -12.4377  -11.1833 H   0  0  0  0  0
   32.4626  -11.7945  -13.5365 H   0  0  0  0  0
   32.6434   -7.6704  -12.3578 H   0  0  0  0  0
   35.5879   -8.9719  -16.4976 H   0  0  0  0  0
   31.4908   -8.2779  -17.5463 H   0  0  0  0  0
   29.8044   -9.2636  -17.0329 H   0  0  0  0  0
   30.2564   -8.0919  -13.1863 H   0  0  0  0  0
   28.8496   -7.5847  -14.2749 H   0  0  0  0  0
   31.6456   -6.5499  -14.5674 H   0  0  0  0  0
   30.0882   -5.8999  -15.2270 H   0  0  0  0  0
   28.5931   -5.7788  -12.1510 H   0  0  0  0  0
   26.5367   -2.3119  -13.1289 H   0  0  0  0  0
   26.4059   -3.0518  -14.7434 H   0  0  0  0  0
   25.2033   -3.4364  -13.4876 H   0  0  0  0  0
   29.9783  -13.0276  -14.5090 H   0  0  0  0  0
   29.6932  -13.4949  -16.2249 H   0  0  0  0  0
   27.6749  -13.6557  -14.7682 H   0  0  0  0  0
   27.4938  -12.5302  -16.1660 H   0  0  0  0  0
   27.6898  -10.2082  -15.8326 H   0  0  0  0  0
   27.7638   -9.5071  -14.1820 H   0  0  0  0  0
   25.4624  -10.5556  -12.2222 H   0  0  0  0  0
   27.0797   -9.7604  -12.6067 H   0  0  0  0  0
   26.8974  -11.8089  -10.4802 H   0  0  0  0  0
   28.4893   -9.2949  -10.9891 H   0  0  0  0  0
   29.0586  -11.0228  -10.9658 H   0  0  0  0  0
   29.7661   -9.7188   -8.9924 H   0  0  0  0  0
   28.7163  -11.1198   -8.5938 H   0  0  0  0  0
   27.8054   -8.3389   -8.8532 H   0  0  0  0  0
   28.1320   -9.1132   -7.4055 H   0  0  0  0  0
   25.8523   -9.1270   -7.8242 H   0  0  0  0  0
   26.5510  -10.7716   -7.8990 H   0  0  0  0  0
   25.0598  -10.4824   -9.7831 H   0  0  0  0  0
   25.9187   -8.9421  -10.2497 H   0  0  0  0  0
 16  1  4  0  0  0
  1 17  1  0  0  0
  1 18  4  0  0  0
  2 18  4  0  0  0
 19  2  4  0  0  0
  3 16  4  0  0  0
  3 19  4  0  0  0
 20  3  1  0  0  0
 23  4  1  0  0  0
  4 24  1  0  0  0
 24  5  1  0  0  0
  5 25  2  0  0  0
  5 26  1  0  0  0
  6  7  1  0  0  0
 20  6  1  0  0  0
  6 31  1  0  0  0
  7 28  1  0  0  0
  9  8  1  0  0  0
 10  9  1  0  0  0
 10 11  4  0  0  0
 15 10  4  0  0  0
 12 11  4  0  0  0
 13 12  4  0  0  0
 14 13  4  0  0  0
 14 15  4  0  0  0
 16 14  1  0  0  0
 20 21  1  0  0  0
 22 20  1  0  0  0
 22 23  1  0  0  0
 26 27  1  0  0  0
 28 29  1  0  0  0
 29 30  1  0  0  0
 30 31  1  0  0  0
 30 32  1  0  0  0
 32 33  2  0  0  0
 32 34  1  0  0  0
 34 35  1  0  0  0
 35 36  1  0  0  0
 35 40  1  0  0  0
 36 37  1  0  0  0
 37 38  1  0  0  0
 38 39  1  0  0  0
 39 40  1  0  0  0
  2 41  1  0  0  0
  4 42  1  0  0  0
  4 43  1  0  0  0
  6 44  1  0  0  0
  7 45  1  0  0  0
  7 46  1  0  0  0
  8 47  1  0  0  0
  8 48  1  0  0  0
  8 49  1  0  0  0
  9 50  1  0  0  0
  9 51  1  0  0  0
 11 52  1  0  0  0
 12 53  1  0  0  0
 13 54  1  0  0  0
 15 55  1  0  0  0
 18 56  1  0  0  0
 19 57  1  0  0  0
 21 58  1  0  0  0
 22 59  1  0  0  0
 22 60  1  0  0  0
 23 61  1  0  0  0
 23 62  1  0  0  0
 24 63  1  0  0  0
 27 64  1  0  0  0
 27 65  1  0  0  0
 27 66  1  0  0  0
 28 67  1  0  0  0
 28 68  1  0  0  0
 29 69  1  0  0  0
 29 70  1  0  0  0
 31 71  1  0  0  0
 31 72  1  0  0  0
 34 73  1  0  0  0
 34 74  1  0  0  0
 35 75  1  0  0  0
 36 76  1  0  0  0
 36 77  1  0  0  0
 37 78  1  0  0  0
 37 79  1  0  0  0
 38 80  1  0  0  0
 38 81  1  0  0  0
 39 82  1  0  0  0
 39 83  1  0  0  0
 40 84  1  0  0  0
 40 85  1  0  0  0
M  END
$$$$
