### 
### Created by X-TOOL on Mon Sep 10 21:13:03 2018
### 

@<TRIPOS>MOLECULE
3al3_ligand
  172   175     1     0     0
SMALL
GAST_HUCK


@<TRIPOS>ATOM
      1 N         -15.0540   -0.2860   -8.2630 N.4       1 SER         0.2396
      2 CA        -16.0870    0.7900   -8.0380 C.3       1 SER         0.0885
      3 C         -16.4160    1.0390   -6.5660 C.2       1 SER         0.2290
      4 O         -16.5570    0.0930   -5.7910 O.2       1 SER        -0.3906
      5 CB        -17.3680    0.5120   -8.8250 C.3       1 SER         0.1041
      6 OG        -18.4230    1.3860   -8.4300 O.3       1 SER        -0.3870
      7 N         -16.5300    2.3170   -6.1970 N.am      1 ILE        -0.2607
      8 CA        -16.9510    2.7010   -4.8420 C.3       1 ILE         0.1336
      9 C         -18.3250    2.1390   -4.4520 C.2       1 ILE         0.2043
     10 O         -18.6620    2.0760   -3.2660 O.2       1 ILE        -0.3944
     11 CB        -16.9820    4.2480   -4.6220 C.3       1 ILE        -0.0037
     12 CG1       -17.9020    4.9310   -5.6420 C.3       1 ILE        -0.0491
     13 CG2       -15.5810    4.8340   -4.6450 C.3       1 ILE        -0.0582
     14 CD1       -18.2080    6.4190   -5.3450 C.3       1 ILE        -0.0648
     15 N         -19.1090    1.7490   -5.4520 N.am      1 TYR        -0.2621
     16 CA        -20.4420    1.2320   -5.2440 C.3       1 TYR         0.1390
     17 C         -20.4750   -0.3110   -5.1930 C.2       1 TYR         0.2059
     18 O         -21.5520   -0.8880   -5.0530 O.2       1 TYR        -0.3942
     19 CB        -21.3860    1.7510   -6.3400 C.3       1 TYR         0.0163
     20 CG        -21.4360    3.2710   -6.5020 C.ar      1 TYR        -0.0493
     21 CD1       -21.8110    4.0930   -5.4330 C.ar      1 TYR        -0.0685
     22 CD2       -21.1370    3.8830   -7.7330 C.ar      1 TYR        -0.0685
     23 CE1       -21.8810    5.4920   -5.5730 C.ar      1 TYR        -0.0398
     24 CE2       -21.2160    5.2960   -7.8950 C.ar      1 TYR        -0.0398
     25 CZ        -21.5890    6.0860   -6.7930 C.ar      1 TYR         0.0805
     26 OH        -21.6720    7.4650   -6.8850 O.3       1 TYR        -0.3376
     27 N         -19.3210   -0.9760   -5.3440 N.am      1 PHE        -0.2618
     28 CA        -19.2550   -2.4360   -5.1830 C.3       1 PHE         0.1404
     29 C         -18.8780   -2.7080   -3.7230 C.2       1 PHE         0.2060
     30 O         -17.9670   -2.0820   -3.1920 O.2       1 PHE        -0.3942
     31 CB        -18.2150   -3.1020   -6.1100 C.3       1 PHE         0.0214
     32 CG        -18.4300   -2.8890   -7.6090 C.ar      1 PHE        -0.0386
     33 CD1       -19.6110   -2.3280   -8.1290 C.ar      1 PHE        -0.0601
     34 CD2       -17.4370   -3.3010   -8.5040 C.ar      1 PHE        -0.0601
     35 CE1       -19.7850   -2.1600   -9.5120 C.ar      1 PHE        -0.0686
     36 CE2       -17.5840   -3.1190   -9.9050 C.ar      1 PHE        -0.0686
     37 CZ        -18.7530   -2.5500  -10.4110 C.ar      1 PHE        -0.0687
     38 N         -19.5690   -3.6320   -3.0700 N.am      1 TPO        -0.2609
     39 CA        -19.2940   -3.9320   -1.6730 C.3       1 TPO         0.1614
     40 CB        -20.2200   -5.0330   -1.1640 C.3       1 TPO         0.1262
     41 CG2       -20.1010   -5.2240    0.3500 C.3       1 TPO        -0.0298
     42 OG1       -21.5610   -4.6790   -1.4940 O.3       1 TPO        -0.2685
     43 P         -22.4280   -5.4420   -2.6360 P.3       1 TPO         0.2014
     44 O1P       -23.8300   -5.0270   -2.3340 O.co2     1 TPO        -0.5537
     45 O2P       -21.8920   -4.9010   -3.9310 O.co2     1 TPO        -0.5537
     46 O3P       -22.1790   -6.9120   -2.3890 O.co2     1 TPO        -0.5537
     47 C         -17.8550   -4.3690   -1.5370 C.2       1 TPO         0.2093
     48 O         -17.4160   -5.2690   -2.2630 O.2       1 TPO        -0.3941
     49 N         -17.0910   -3.7280   -0.6250 N.am      1 PRO        -0.2498
     50 CA        -15.7040   -4.1570   -0.4150 C.3       1 PRO         0.1338
     51 C         -15.5830   -5.6550   -0.1240 C.2       1 PRO         0.2041
     52 O         -16.4790   -6.2520    0.4920 O.2       1 PRO        -0.3944
     53 CB        -15.2480   -3.3290    0.7940 C.3       1 PRO        -0.0104
     54 CG        -16.0680   -2.0590    0.7120 C.3       1 PRO        -0.0281
     55 CD        -17.4210   -2.5120    0.1410 C.3       1 PRO         0.0369
     56 N         -14.4920   -6.2490   -0.6090 N.am      1 GLU        -0.2636
     57 CA        -14.1210   -7.6210   -0.2920 C.3       1 GLU         0.1325
     58 C         -13.8510   -7.7950    1.2120 C.2       1 GLU         0.2040
     59 O         -13.6340   -6.8200    1.9280 O.2       1 GLU        -0.3944
     60 CB        -12.8580   -8.0180   -1.0790 C.3       1 GLU        -0.0008
     61 CG        -13.0280   -8.1400   -2.5990 C.3       1 GLU         0.0044
     62 CD        -11.9810   -9.0490   -3.2280 C.2       1 GLU         0.0350
     63 OE1       -10.7880   -8.9660   -2.8480 O.co2     1 GLU        -0.5690
     64 OE2       -12.3460   -9.8780   -4.0840 O.co2     1 GLU        -0.5690
     65 N         -13.8150   -9.0430    1.6660 N.am      1 LEU        -0.2637
     66 CA        -13.5020   -9.3750    3.0610 C.3       1 LEU         0.1312
     67 C         -11.9950   -9.5750    3.2760 C.2       1 LEU         0.2040
     68 O         -11.5670  -10.0570    4.3270 O.2       1 LEU        -0.3944
     69 CB        -14.2890  -10.6230    3.4850 C.3       1 LEU        -0.0101
     70 CG        -15.8050  -10.4820    3.6950 C.3       1 LEU        -0.0425
     71 CD1       -16.4520  -11.8430    3.7530 C.3       1 LEU        -0.0625
     72 CD2       -16.1540   -9.6610    4.9610 C.3       1 LEU        -0.0625
     73 N         -11.2080   -9.1760    2.2750 N.am      1 TYR        -0.2621
     74 CA         -9.7580   -9.3680    2.2240 C.3       1 TYR         0.1390
     75 C          -9.0300   -8.1490    1.6690 C.2       1 TYR         0.2053
     76 O          -9.5880   -7.4160    0.8560 O.2       1 TYR        -0.3942
     77 CB         -9.4290  -10.5730    1.3350 C.3       1 TYR         0.0163
     78 CG        -10.0650  -11.8570    1.8260 C.ar      1 TYR        -0.0493
     79 CD1        -9.4420  -12.6240    2.8020 C.ar      1 TYR        -0.0685
     80 CD2       -11.3060  -12.2850    1.3330 C.ar      1 TYR        -0.0685
     81 CE1       -10.0180  -13.7960    3.2750 C.ar      1 TYR        -0.0398
     82 CE2       -11.8950  -13.4660    1.8010 C.ar      1 TYR        -0.0398
     83 CZ        -11.2410  -14.2120    2.7730 C.ar      1 TYR         0.0805
     84 OH        -11.7880  -15.3810    3.2450 O.3       1 TYR        -0.3376
     85 N          -7.7870   -7.9520    2.1030 N.am      1 ASP        -0.2678
     86 CA         -6.8530   -7.0100    1.4700 C.3       1 ASP         0.1058
     87 C          -6.4700   -7.5090    0.0800 C.2       1 ASP         0.0618
     88 O          -7.0150   -7.0530   -0.9230 O.co2     1 ASP        -0.5665
     89 CB         -5.5650   -6.8580    2.2970 C.3       1 ASP         0.0351
     90 CG         -5.8140   -6.3120    3.7000 C.2       1 ASP         0.0387
     91 OD1        -6.9110   -5.7850    3.9780 O.co2     1 ASP        -0.5688
     92 OD2        -4.8930   -6.3970    4.5350 O.co2     1 ASP        -0.5688
     93 H         -14.2155   -0.0686   -7.7244 H         1 SER         0.2016
     94 H         -15.4298   -1.1849   -7.9612 H         1 SER         0.2016
     95 H         -14.8206   -0.3295   -9.2550 H         1 SER         0.2016
     96 H         -15.6269    1.7048   -8.4115 H         1 SER         0.1122
     97 H         -17.6780   -0.5145   -8.6292 H         1 SER         0.0640
     98 H         -17.1647    0.6721   -9.8838 H         1 SER         0.0640
     99 H         -19.2107    1.1863   -8.9411 H         1 SER         0.2099
    100 H         -16.3187    3.0487   -6.8755 H         1 ILE         0.1885
    101 H         -16.1869    2.2605   -4.2015 H         1 ILE         0.0803
    102 H         -17.3953    4.4396   -3.6317 H         1 ILE         0.0345
    103 H         -18.8538    4.4005   -5.6150 H         1 ILE         0.0267
    104 H         -17.3884    4.8990   -6.6029 H         1 ILE         0.0267
    105 H         -14.9861    4.3811   -3.8519 H         1 ILE         0.0235
    106 H         -15.1184    4.6286   -5.6104 H         1 ILE         0.0235
    107 H         -15.6366    5.9114   -4.4892 H         1 ILE         0.0235
    108 H         -18.6975    6.5013   -4.3746 H         1 ILE         0.0230
    109 H         -17.2764    6.9847   -5.3326 H         1 ILE         0.0230
    110 H         -18.8648    6.8151   -6.1194 H         1 ILE         0.0230
    111 H         -18.7548    1.8176   -6.4061 H         1 TYR         0.1885
    112 H         -20.7805    1.5902   -4.2718 H         1 TYR         0.0821
    113 H         -22.3908    1.4361   -6.0583 H         1 TYR         0.0453
    114 H         -21.0151    1.3507   -7.2836 H         1 TYR         0.0453
    115 H         -22.0540    3.6403   -4.4717 H         1 TYR         0.0530
    116 H         -20.8391    3.2639   -8.5792 H         1 TYR         0.0530
    117 H         -22.1652    6.1102   -4.7214 H         1 TYR         0.0525
    118 H         -20.9912    5.7571   -8.8568 H         1 TYR         0.0525
    119 H         -21.9396    7.8257   -6.0365 H         1 TYR         0.2458
    120 H         -18.4724   -0.4593   -5.5750 H         1 PHE         0.1885
    121 H         -20.2222   -2.8608   -5.4518 H         1 PHE         0.0823
    122 H         -18.2900   -4.1756   -5.9369 H         1 PHE         0.0474
    123 H         -17.2527   -2.6504   -5.8690 H         1 PHE         0.0474
    124 H         -20.4034   -2.0189   -7.4473 H         1 PHE         0.0557
    125 H         -16.5323   -3.7711   -8.1185 H         1 PHE         0.0557
    126 H         -20.7101   -1.7310   -9.8970 H         1 PHE         0.0599
    127 H         -16.7861   -3.4229  -10.5826 H         1 PHE         0.0599
    128 H         -18.8747   -2.4055  -11.4845 H         1 PHE         0.0559
    129 H         -20.3069   -4.1419   -3.5558 H         1 TPO         0.1884
    130 H         -19.4688   -3.0368   -1.0762 H         1 TPO         0.0830
    131 H         -19.9351   -5.9733   -1.6359 H         1 TPO         0.0695
    132 H         -19.0758   -5.4961    0.6011 H         1 TPO         0.0260
    133 H         -20.3655   -4.2945    0.8541 H         1 TPO         0.0260
    134 H         -20.7773   -6.0170    0.6691 H         1 TPO         0.0260
    135 H         -15.0962   -4.0005   -1.3062 H         1 PRO         0.0802
    136 H         -14.1771   -3.1270    0.7713 H         1 PRO         0.0313
    137 H         -15.4046   -3.8573    1.7345 H         1 PRO         0.0313
    138 H         -15.5918   -1.3045    0.0858 H         1 PRO         0.0287
    139 H         -16.1749   -1.5778    1.6842 H         1 PRO         0.0287
    140 H         -18.1582   -2.7008    0.9214 H         1 PRO         0.0524
    141 H         -17.8874   -1.7457   -0.4781 H         1 PRO         0.0524
    142 H         -13.8870   -5.7155   -1.2334 H         1 GLU         0.1883
    143 H         -14.9551   -8.2642   -0.5726 H         1 GLU         0.0801
    144 H         -12.5710   -9.0069   -0.7214 H         1 GLU         0.0330
    145 H         -12.1304   -7.2234   -0.9138 H         1 GLU         0.0330
    146 H         -12.9161   -7.1460   -3.0321 H         1 GLU         0.0433
    147 H         -14.0102   -8.5699   -2.7954 H         1 GLU         0.0433
    148 H         -14.0136   -9.8040    1.0165 H         1 LEU         0.1883
    149 H         -13.8016   -8.5346    3.6871 H         1 LEU         0.0800
    150 H         -13.8866  -10.9020    4.4588 H         1 LEU         0.0315
    151 H         -14.1751  -11.3301    2.6633 H         1 LEU         0.0315
    152 H         -16.1991   -9.9310    2.8411 H         1 LEU         0.0298
    153 H         -16.2686  -12.3713    2.8174 H         1 LEU         0.0232
    154 H         -16.0279  -12.4105    4.5813 H         1 LEU         0.0232
    155 H         -17.5256  -11.7275    3.9021 H         1 LEU         0.0232
    156 H         -15.7372  -10.1546    5.8389 H         1 LEU         0.0232
    157 H         -15.7323   -8.6599    4.8710 H         1 LEU         0.0232
    158 H         -17.2373   -9.5927    5.0610 H         1 LEU         0.0232
    159 H         -11.6496   -8.7021    1.4871 H         1 TYR         0.1885
    160 H          -9.4217   -9.5312    3.2479 H         1 TYR         0.0821
    161 H          -8.3478  -10.7107    1.3468 H         1 TYR         0.0453
    162 H          -9.8186  -10.3680    0.3379 H         1 TYR         0.0453
    163 H          -8.4823  -12.2999    3.2046 H         1 TYR         0.0530
    164 H         -11.8184  -11.6911    0.5762 H         1 TYR         0.0530
    165 H          -9.5103  -14.3862    4.0379 H         1 TYR         0.0525
    166 H         -12.8561  -13.7962    1.4069 H         1 TYR         0.0525
    167 H         -11.2057  -15.7611    3.9068 H         1 TYR         0.2458
    168 H          -7.4671   -8.4806    2.9145 H         1 ASP         0.1877
    169 H          -7.3559   -6.0450    1.4064 H         1 ASP         0.0745
    170 O1         -5.5855   -8.3981   -0.0411 O.co2     1 ASP        -0.5665
    171 H          -4.9193   -6.1507    1.7766 H         1 ASP         0.0471
    172 H          -5.1201   -7.8476    2.4013 H         1 ASP         0.0471
@<TRIPOS>BOND
     1    1    2 1  
     2    2    3 1  
     3    2    5 1  
     4    3    4 2  
     5    3    7 am 
     6    5    6 1  
     7    7    8 1  
     8    8    9 1  
     9    8   11 1  
    10    9   10 2  
    11    9   15 am 
    12   11   12 1  
    13   11   13 1  
    14   12   14 1  
    15   15   16 1  
    16   16   17 1  
    17   16   19 1  
    18   17   18 2  
    19   17   27 am 
    20   19   20 1  
    21   20   21 ar 
    22   20   22 ar 
    23   21   23 ar 
    24   22   24 ar 
    25   23   25 ar 
    26   24   25 ar 
    27   25   26 1  
    28   27   28 1  
    29   28   29 1  
    30   28   31 1  
    31   29   30 2  
    32   29   38 am 
    33   31   32 1  
    34   32   33 ar 
    35   32   34 ar 
    36   33   35 ar 
    37   34   36 ar 
    38   35   37 ar 
    39   36   37 ar 
    40   38   39 1  
    41   39   40 1  
    42   39   47 1  
    43   40   41 1  
    44   40   42 1  
    45   42   43 1  
    46   43   44 ar 
    47   43   45 ar 
    48   43   46 ar 
    49   47   48 2  
    50   47   49 am 
    51   49   50 1  
    52   49   55 1  
    53   50   51 1  
    54   50   53 1  
    55   51   52 2  
    56   51   56 am 
    57   53   54 1  
    58   54   55 1  
    59   56   57 1  
    60   57   58 1  
    61   57   60 1  
    62   58   59 2  
    63   58   65 am 
    64   60   61 1  
    65   61   62 1  
    66   62   63 ar 
    67   62   64 ar 
    68   65   66 1  
    69   66   67 1  
    70   66   69 1  
    71   67   68 2  
    72   67   73 am 
    73   69   70 1  
    74   70   71 1  
    75   70   72 1  
    76   73   74 1  
    77   74   75 1  
    78   74   77 1  
    79   75   76 2  
    80   75   85 am 
    81   77   78 1  
    82   78   79 ar 
    83   78   80 ar 
    84   79   81 ar 
    85   80   82 ar 
    86   81   83 ar 
    87   82   83 ar 
    88   83   84 1  
    89   85   86 1  
    90   86   87 1  
    91   86   89 1  
    92   87   88 ar 
    93   89   90 1  
    94   90   91 ar 
    95   90   92 ar 
    96    1   93 1  
    97    1   94 1  
    98    1   95 1  
    99    2   96 1  
   100    5   97 1  
   101    5   98 1  
   102    6   99 1  
   103    7  100 1  
   104    8  101 1  
   105   11  102 1  
   106   12  103 1  
   107   12  104 1  
   108   13  105 1  
   109   13  106 1  
   110   13  107 1  
   111   14  108 1  
   112   14  109 1  
   113   14  110 1  
   114   15  111 1  
   115   16  112 1  
   116   19  113 1  
   117   19  114 1  
   118   21  115 1  
   119   22  116 1  
   120   23  117 1  
   121   24  118 1  
   122   26  119 1  
   123   27  120 1  
   124   28  121 1  
   125   31  122 1  
   126   31  123 1  
   127   33  124 1  
   128   34  125 1  
   129   35  126 1  
   130   36  127 1  
   131   37  128 1  
   132   38  129 1  
   133   39  130 1  
   134   40  131 1  
   135   41  132 1  
   136   41  133 1  
   137   41  134 1  
   138   50  135 1  
   139   53  136 1  
   140   53  137 1  
   141   54  138 1  
   142   54  139 1  
   143   55  140 1  
   144   55  141 1  
   145   56  142 1  
   146   57  143 1  
   147   60  144 1  
   148   60  145 1  
   149   61  146 1  
   150   61  147 1  
   151   65  148 1  
   152   66  149 1  
   153   69  150 1  
   154   69  151 1  
   155   70  152 1  
   156   71  153 1  
   157   71  154 1  
   158   71  155 1  
   159   72  156 1  
   160   72  157 1  
   161   72  158 1  
   162   73  159 1  
   163   74  160 1  
   164   77  161 1  
   165   77  162 1  
   166   79  163 1  
   167   80  164 1  
   168   81  165 1  
   169   82  166 1  
   170   84  167 1  
   171   85  168 1  
   172   86  169 1  
   173   87  170 ar 
   174   89  171 1  
   175   89  172 1  
@<TRIPOS>SUBSTRUCTURE
     1 SER         1

