6ib0_ligand
  -I-interpret- 

 39 41  0  0  0  0  0  0  0  0999 V2000
  -22.6530    5.7710   -3.5500 N   0  0  0  0  0
  -22.6750    7.0370   -2.9600 C   0  0  0  0  0
  -24.0130    6.5810   -5.2630 C   0  0  0  0  0
  -23.3290    5.5880   -4.6900 C   0  0  0  0  0
  -24.0320    7.8100   -4.7440 C   0  0  0  0  0
  -24.7510    6.6800   -6.3590 C   0  0  0  0  0
  -25.0340    5.6340   -7.3130 C   0  0  0  0  0
  -25.2690    4.7730   -8.1010 C   0  0  0  0  0
  -25.2520    9.9940   -5.5200 C   0  0  0  0  0
  -26.6510   10.2830   -6.0720 C   0  0  0  0  0
  -26.8540   11.7940   -5.9810 C   0  0  0  0  0
  -25.8420   12.5740   -6.7690 C   0  0  0  0  0
  -24.1430   10.8400   -6.2140 C   0  0  0  0  0
  -23.6140   13.3030   -6.2900 C   0  0  0  0  0
  -22.2030   13.0330   -5.8000 C   0  0  0  0  0
  -21.3340   14.1870   -6.3050 C   0  0  0  0  0
  -23.4020    8.0580   -3.5870 N   0  0  0  0  0
  -23.3520    4.4090   -5.3060 N   0  0  0  0  0
  -24.8440    8.5570   -5.5030 N   0  0  0  0  0
  -25.2090    7.9190   -6.4580 N   0  0  0  0  0
  -24.4820   12.2830   -6.2820 N   0  0  0  0  0
  -23.9840   14.4690   -6.4150 O   0  0  0  0  0
  -22.1377    7.2269   -2.0309 H   0  0  0  0  0
  -25.3458   10.2962   -4.4769 H   0  0  0  0  0
  -27.4121    9.7533   -5.4991 H   0  0  0  0  0
  -26.7407    9.9400   -7.1027 H   0  0  0  0  0
  -26.7494   12.0793   -4.9342 H   0  0  0  0  0
  -27.8383   12.0207   -6.3907 H   0  0  0  0  0
  -26.0425   13.6389   -6.6512 H   0  0  0  0  0
  -25.9127   12.2907   -7.8192 H   0  0  0  0  0
  -24.0321   10.4738   -7.2346 H   0  0  0  0  0
  -23.2290   10.7381   -5.6290 H   0  0  0  0  0
  -21.8372   12.0777   -6.1764 H   0  0  0  0  0
  -22.1745   12.9725   -4.7121 H   0  0  0  0  0
  -21.3680   14.2162   -7.3941 H   0  0  0  0  0
  -21.7115   15.1273   -5.9031 H   0  0  0  0  0
  -20.3057   14.0366   -5.9763 H   0  0  0  0  0
  -22.8460    3.6168   -4.9101 H   0  0  0  0  0
  -23.8756    4.2973   -6.1742 H   0  0  0  0  0
  2  1  4  0  0  0
  4  1  4  0  0  0
 17  2  4  0  0  0
  3  4  4  0  0  0
  5  3  4  0  0  0
  3  6  4  0  0  0
  4 18  1  0  0  0
  5 17  4  0  0  0
 19  5  4  0  0  0
  6  7  1  0  0  0
  6 20  4  0  0  0
  7  8  3  0  0  0
  9 10  1  0  0  0
 13  9  1  0  0  0
  9 19  1  0  0  0
 11 10  1  0  0  0
 12 11  1  0  0  0
 21 12  1  0  0  0
 21 13  1  0  0  0
 14 15  1  0  0  0
 14 21  1  0  0  0
 14 22  2  0  0  0
 15 16  1  0  0  0
 19 20  4  0  0  0
  2 23  1  0  0  0
  9 24  1  0  0  0
 10 25  1  0  0  0
 10 26  1  0  0  0
 11 27  1  0  0  0
 11 28  1  0  0  0
 12 29  1  0  0  0
 12 30  1  0  0  0
 13 31  1  0  0  0
 13 32  1  0  0  0
 15 33  1  0  0  0
 15 34  1  0  0  0
 16 35  1  0  0  0
 16 36  1  0  0  0
 16 37  1  0  0  0
 18 38  1  0  0  0
 18 39  1  0  0  0
M  END
$$$$
