3drs_ligand
  -I-interpret- 

 41 44  0  0  0  0  0  0  0  0999 V2000
   12.3950   12.1000   15.4070 Cl  0  0  0  0  0
   10.6950   12.5360   14.9570 C   0  0  0  0  0
    9.8050   12.3700   15.9500 C   0  0  0  0  0
   10.5030   11.9530   17.0040 O   0  0  0  0  0
   10.4590   12.4190   18.2260 C   0  0  0  0  0
   10.1890   11.5120   19.2320 C   0  0  0  0  0
   10.0920   11.8460   20.5630 C   0  0  0  0  0
    9.8840   10.9530   21.4910 C   0  0  0  0  0
    9.6930   10.1100   22.3690 N   0  0  0  0  0
   10.6690   13.6900   18.4690 C   0  0  0  0  0
   10.5610   13.9710   19.7720 C   0  0  0  0  0
   10.7850   15.5820   20.0410 Cl  0  0  0  0  0
   10.2860   13.1810   20.8550 C   0  0  0  0  0
   10.2940   12.9930   13.7190 C   0  0  0  0  0
    8.9410   13.2470   13.5320 C   0  0  0  0  0
    8.0300   13.0150   14.5450 C   0  0  0  0  0
    8.4340   12.5720   15.8380 C   0  0  0  0  0
    6.7280   13.2330   14.1650 O   0  0  0  0  0
    5.7590   12.2080   14.4530 C   0  0  0  0  0
    6.0240   10.8440   13.9210 C   0  0  0  0  0
    6.5710   10.5630   12.7100 N   0  0  0  0  0
    6.7020    9.1420   12.5730 N   0  0  0  0  0
    6.2370    8.4830   13.7030 C   0  0  0  0  0
    6.1280    7.1220   14.1060 N   0  0  0  0  0
    5.6080    6.7150   15.3170 C   0  0  0  0  0
    5.1510    7.6860   16.1980 C   0  0  0  0  0
    5.2700    9.0720   15.8420 C   0  0  0  0  0
    5.7940    9.4890   14.5890 C   0  0  0  0  0
   10.0439   10.4680   18.9544 H   0  0  0  0  0
    8.8388   10.8802   21.1903 H   0  0  0  0  0
   10.4613    9.8214   22.9747 H   0  0  0  0  0
   10.9032   14.4282   17.7020 H   0  0  0  0  0
   10.2249   13.5753   21.8693 H   0  0  0  0  0
   11.0136   13.1494   12.9153 H   0  0  0  0  0
    8.5936   13.6342   12.5741 H   0  0  0  0  0
    7.7361   12.4076   16.6590 H   0  0  0  0  0
    4.8352   12.5349   13.9757 H   0  0  0  0  0
    5.7550   12.1043   15.5380 H   0  0  0  0  0
    5.5571    5.6574   15.5759 H   0  0  0  0  0
    4.7061    7.3989   17.1508 H   0  0  0  0  0
    4.9477    9.8292   16.5567 H   0  0  0  0  0
  1  2  1  0  0  0
  2  3  4  0  0  0
  2 14  4  0  0  0
  3  4  1  0  0  0
  3 17  4  0  0  0
  4  5  1  0  0  0
  5  6  4  0  0  0
  5 10  4  0  0  0
  6  7  4  0  0  0
  7  8  1  0  0  0
  7 13  4  0  0  0
  8  9  2  0  0  0
 10 11  4  0  0  0
 11 12  1  0  0  0
 11 13  4  0  0  0
 14 15  4  0  0  0
 15 16  4  0  0  0
 16 17  4  0  0  0
 16 18  1  0  0  0
 18 19  1  0  0  0
 19 20  1  0  0  0
 20 21  4  0  0  0
 20 28  4  0  0  0
 21 22  4  0  0  0
 22 23  4  0  0  0
 23 24  4  0  0  0
 23 28  4  0  0  0
 24 25  4  0  0  0
 25 26  4  0  0  0
 26 27  4  0  0  0
 27 28  4  0  0  0
  6 29  1  0  0  0
  8 30  1  0  0  0
  9 31  1  0  0  0
 10 32  1  0  0  0
 13 33  1  0  0  0
 14 34  1  0  0  0
 15 35  1  0  0  0
 17 36  1  0  0  0
 19 37  1  0  0  0
 19 38  1  0  0  0
 25 39  1  0  0  0
 26 40  1  0  0  0
 27 41  1  0  0  0
M  END
$$$$
