### 
### Created by X-TOOL on Mon Sep 10 21:12:57 2018
### 

@<TRIPOS>MOLECULE
3drs_ligand
   42    45     1     0     0
SMALL
GAST_HUCK


@<TRIPOS>ATOM
      1 CL28       12.3950   12.1000   15.4070 Cl        1 R8D        -0.0876
      2 C13        10.6950   12.5360   14.9570 C.ar      1 R8D         0.0607
      3 C8          9.8050   12.3700   15.9500 C.ar      1 R8D         0.1218
      4 O7         10.5030   11.9530   17.0040 O.3       1 R8D        -0.2583
      5 C4         10.4590   12.4190   18.2260 C.ar      1 R8D         0.1243
      6 C3         10.1890   11.5120   19.2320 C.ar      1 R8D        -0.0091
      7 C2         10.0920   11.8460   20.5630 C.ar      1 R8D         0.0054
      8 C25         9.8840   10.9530   21.4910 C.2       1 R8D         0.0138
      9 N26         9.6930   10.1100   22.3690 N.2       1 R8D        -0.3496
     10 C5         10.6690   13.6900   18.4690 C.ar      1 R8D        -0.0074
     11 C6         10.5610   13.9710   19.7720 C.ar      1 R8D         0.0414
     12 CL27       10.7850   15.5820   20.0410 Cl        1 R8D        -0.0715
     13 C1         10.2860   13.1810   20.8550 C.ar      1 R8D        -0.0385
     14 C12        10.2940   12.9930   13.7190 C.ar      1 R8D        -0.0640
     15 C11         8.9410   13.2470   13.5320 C.ar      1 R8D        -0.0423
     16 C10         8.0300   13.0150   14.5450 C.ar      1 R8D         0.0895
     17 C9          8.4340   12.5720   15.8380 C.ar      1 R8D         0.0004
     18 O14         6.7280   13.2330   14.1650 O.3       1 R8D        -0.2910
     19 C15         5.7590   12.2080   14.4530 C.3       1 R8D         0.1685
     20 C16         6.0240   10.8440   13.9210 C.2       1 R8D         0.1799
     21 N20         6.5710   10.5630   12.7100 N.pl3     1 R8D        -0.2522
     22 N19         6.7020    9.1420   12.5730 N.2       1 R8D        -0.3797
     23 C18         6.2370    8.4830   13.7030 C.ar      1 R8D         0.0383
     24 N24         6.1280    7.1220   14.1060 N.ar      1 R8D        -0.2979
     25 C23         5.6080    6.7150   15.3170 C.ar      1 R8D         0.0112
     26 C22         5.1510    7.6860   16.1980 C.ar      1 R8D        -0.0320
     27 C21         5.2700    9.0720   15.8420 C.ar      1 R8D        -0.0221
     28 C17         5.7940    9.4890   14.5890 C.ar      1 R8D         0.0802
     29 H1         10.0447   10.4737   18.9560 H         1 R8D         0.0623
     30 H2          8.7950   10.9530   21.4910 H         1 R8D         0.1099
     31 H3          8.7775    9.7055   22.4887 H         1 R8D         0.1238
     32 H4         10.9019   14.4242   17.7062 H         1 R8D         0.0617
     33 H5         10.2252   13.5732   21.8638 H         1 R8D         0.0611
     34 H6         11.0096   13.1486   12.9198 H         1 R8D         0.0570
     35 H7          8.5955   13.6321   12.5794 H         1 R8D         0.0458
     36 H8          7.7400   12.4085   16.6545 H         1 R8D         0.0473
     37 H9          4.7948   12.5408   14.0411 H         1 R8D         0.0986
     38 H10         5.6816   12.1257   15.5472 H         1 R8D         0.0986
     39 H11         6.8474   11.2594   12.0032 H         1 R8D         0.2723
     40 H12         5.5574    5.6632   15.5745 H         1 R8D         0.0827
     41 H13         4.7086    7.4005   17.1455 H         1 R8D         0.0713
     42 H14         4.9494    9.8250   16.5528 H         1 R8D         0.0755
@<TRIPOS>BOND
     1    1    2 1  
     2    2    3 ar 
     3    2   14 ar 
     4    3    4 1  
     5    3   17 ar 
     6    4    5 1  
     7    5    6 ar 
     8    5   10 ar 
     9    6    7 ar 
    10    7    8 1  
    11    7   13 ar 
    12    8    9 2  
    13   10   11 ar 
    14   11   12 1  
    15   11   13 ar 
    16   14   15 ar 
    17   15   16 ar 
    18   16   17 ar 
    19   16   18 1  
    20   18   19 1  
    21   19   20 1  
    22   20   21 1  
    23   20   28 2  
    24   21   22 1  
    25   22   23 2  
    26   23   24 ar 
    27   23   28 ar 
    28   24   25 ar 
    29   25   26 ar 
    30   26   27 ar 
    31   27   28 ar 
    32    6   29 1  
    33    8   30 1  
    34    9   31 1  
    35   10   32 1  
    36   13   33 1  
    37   14   34 1  
    38   15   35 1  
    39   17   36 1  
    40   19   37 1  
    41   19   38 1  
    42   21   39 1  
    43   25   40 1  
    44   26   41 1  
    45   27   42 1  
@<TRIPOS>SUBSTRUCTURE
     1 R8D         1

