1i5r_ligand
  -I-interpret- 

100106  0  0  0  0  0  0  0  0999 V2000
    9.5910   11.4690  -11.3480 C   0  0  0  0  0
    8.8490   12.2670  -12.2430 C   0  0  0  0  0
    8.4840   11.7920  -13.5070 C   0  0  0  0  0
    7.8080   12.5360  -14.3070 O   0  0  0  0  0
    8.8560   10.4830  -13.9180 C   0  0  0  0  0
    9.6040    9.6400  -13.0510 C   0  0  0  0  0
    9.9900    8.2060  -13.5490 C   0  0  0  0  0
   11.1000    7.5010  -12.6550 C   0  0  0  0  0
   10.6400    7.7270  -11.1740 C   0  0  0  0  0
   10.7920    9.2360  -10.7870 C   0  0  0  0  0
    9.9750   10.1410  -11.7500 C   0  0  0  0  0
   10.3150    9.4500   -9.2890 C   0  0  0  0  0
   11.0970    8.5550   -8.2760 C   0  0  0  0  0
   11.0950    7.0540   -8.6680 C   0  0  0  0  0
   11.4950    6.8710  -10.1750 C   0  0  0  0  0
   11.4500    5.2540  -10.4250 C   0  0  0  0  0
   12.4530    4.9260   -9.1210 C   0  0  0  0  0
   12.1830    6.0680   -8.0340 C   0  0  0  0  0
   11.6130    5.6280   -6.8430 O   0  0  0  0  0
    9.6360    6.4090   -8.4670 C   0  0  0  0  0
   11.9990    3.6130   -8.5850 C   0  0  0  0  0
   12.2890    2.6410   -9.6260 C   0  0  0  0  0
   11.8820    1.1960   -9.2410 C   0  0  0  0  0
   12.9940    0.6540   -8.4110 C   0  0  0  0  0
   12.9160   -0.8050   -8.3630 C   0  0  0  0  0
   14.0010   -1.3910   -7.5480 C   0  0  0  0  0
   13.2470   -2.1970   -6.6170 C   0  0  0  0  0
   14.2990   -2.8430   -5.7240 C   0  0  0  0  0
   16.2250   -6.2660   -1.9410 C   0  0  0  0  0
   16.8810   -6.2360   -3.2820 C   0  0  0  0  0
   17.5030   -7.3610   -3.6240 O   0  0  0  0  0
   17.6560   -5.0180   -3.1390 C   0  0  0  0  0
   18.8010   -5.2660   -2.6840 O   0  0  0  0  0
   16.8820   -4.1110   -2.2120 C   0  0  0  0  0
   15.6900   -4.9350   -1.9090 O   0  0  0  0  0
   16.2480   -2.7840   -2.7520 C   0  0  0  0  0
   15.7120   -3.2520   -4.0410 O   0  0  0  0  0
   14.6950   -2.2150   -4.4750 C   0  0  0  0  0
   14.2470   -1.2000   -4.0830 O   0  0  0  0  0
   14.0330   -9.5360    1.2550 N   0  0  0  0  0
   15.0830   -8.7200    1.4210 C   0  0  0  0  0
   15.5930   -7.8870    0.5150 N   0  0  0  0  0
   14.9600   -7.8600   -0.7570 C   0  0  0  0  0
   13.7930   -8.7260   -1.0340 C   0  0  0  0  0
   13.4030   -9.5610    0.1050 C   0  0  0  0  0
   12.2890  -10.3840   -0.1710 N   0  0  0  0  0
   13.3050   -8.5660   -2.3290 N   0  0  0  0  0
   14.2030   -7.6110   -2.7680 C   0  0  0  0  0
   15.1900   -7.1520   -1.9150 N   0  0  0  0  0
    9.8697   11.8520  -10.3663 H   0  0  0  0  0
    8.5543   13.2730  -11.9442 H   0  0  0  0  0
    7.6443   12.0593  -15.1241 H   0  0  0  0  0
    8.5657   10.1229  -14.9050 H   0  0  0  0  0
   10.3959    8.3072  -14.5555 H   0  0  0  0  0
    9.0918    7.5902  -13.5018 H   0  0  0  0  0
   12.0892    7.9209  -12.8372 H   0  0  0  0  0
   11.1916    6.4406  -12.8901 H   0  0  0  0  0
    9.5961    7.4209  -11.1059 H   0  0  0  0  0
   11.8417    9.5164  -10.8746 H   0  0  0  0  0
    9.2606    9.1797   -9.2309 H   0  0  0  0  0
   10.4958   10.4920   -9.0250 H   0  0  0  0  0
   10.6084    8.6459   -7.3059 H   0  0  0  0  0
   12.1329    8.8940   -8.2636 H   0  0  0  0  0
   12.4910    7.2632  -10.3803 H   0  0  0  0  0
   11.7427    4.8777  -11.4052 H   0  0  0  0  0
   10.4756    4.7666  -10.4586 H   0  0  0  0  0
   13.5114    4.8986   -9.3799 H   0  0  0  0  0
   13.1545    6.5042   -7.8017 H   0  0  0  0  0
   12.2176    5.0254   -6.4036 H   0  0  0  0  0
    9.3415    6.4986   -7.4214 H   0  0  0  0  0
    8.9175    6.9362   -9.0947 H   0  0  0  0  0
    9.6634    5.3565   -8.7492 H   0  0  0  0  0
   10.9367    3.6292   -8.3414 H   0  0  0  0  0
   12.5115    3.3646   -7.6556 H   0  0  0  0  0
   13.3660    2.6476   -9.7939 H   0  0  0  0  0
   11.7158    2.9217  -10.5096 H   0  0  0  0  0
   11.7223    0.5845  -10.1290 H   0  0  0  0  0
   10.9419    1.1878   -8.6895 H   0  0  0  0  0
   12.9131    1.0512   -7.3992 H   0  0  0  0  0
   13.9467    0.9481   -8.8513 H   0  0  0  0  0
   13.0105   -1.1850   -9.3802 H   0  0  0  0  0
   11.9632   -1.0807   -7.9110 H   0  0  0  0  0
   14.6409   -0.6495   -7.0696 H   0  0  0  0  0
   14.7304   -1.9561   -8.1282 H   0  0  0  0  0
   12.6341   -2.9405   -7.1265 H   0  0  0  0  0
   12.5381   -1.5998   -6.0435 H   0  0  0  0  0
   15.2061   -2.8326   -6.3283 H   0  0  0  0  0
   13.8474   -3.7866   -5.4178 H   0  0  0  0  0
   16.8868   -6.5501   -1.1229 H   0  0  0  0  0
   16.2214   -6.2052   -4.1492 H   0  0  0  0  0
   17.8947   -7.2569   -4.4942 H   0  0  0  0  0
   17.8055   -4.5371   -4.1057 H   0  0  0  0  0
   19.2943   -4.4469   -2.5982 H   0  0  0  0  0
   17.5906   -3.7959   -1.4461 H   0  0  0  0  0
   16.9502   -1.9544   -2.8346 H   0  0  0  0  0
   15.5015   -2.3439   -2.0908 H   0  0  0  0  0
   15.5691   -8.7399    2.3964 H   0  0  0  0  0
   11.9268  -11.0101    0.5482 H   0  0  0  0  0
   11.8466  -10.3523   -1.0895 H   0  0  0  0  0
   14.1333   -7.2210   -3.7834 H   0  0  0  0  0
  1  2  4  0  0  0
 11  1  4  0  0  0
  2  3  4  0  0  0
  3  4  1  0  0  0
  5  3  4  0  0  0
  6  5  4  0  0  0
  7  6  1  0  0  0
 11  6  4  0  0  0
  8  7  1  0  0  0
  9  8  1  0  0  0
  9 10  1  0  0  0
 15  9  1  0  0  0
 10 11  1  0  0  0
 12 10  1  0  0  0
 13 12  1  0  0  0
 14 13  1  0  0  0
 14 15  1  0  0  0
 18 14  1  0  0  0
 14 20  1  0  0  0
 16 15  1  0  0  0
 17 16  1  0  0  0
 17 18  1  0  0  0
 21 17  1  0  0  0
 18 19  1  0  0  0
 22 21  1  0  0  0
 23 22  1  0  0  0
 24 23  1  0  0  0
 25 24  1  0  0  0
 26 25  1  0  0  0
 27 26  1  0  0  0
 28 27  1  0  0  0
 38 28  1  0  0  0
 29 30  1  0  0  0
 29 35  1  0  0  0
 30 31  1  0  0  0
 30 32  1  0  0  0
 32 33  1  0  0  0
 34 32  1  0  0  0
 35 34  1  0  0  0
 34 36  1  0  0  0
 36 37  1  0  0  0
 37 38  1  0  0  0
 38 39  2  0  0  0
 41 40  4  0  0  0
 45 40  4  0  0  0
 42 41  4  0  0  0
 43 42  4  0  0  0
 43 44  4  0  0  0
 49 43  4  0  0  0
 44 45  4  0  0  0
 47 44  4  0  0  0
 45 46  1  0  0  0
 48 47  4  0  0  0
 49 48  4  0  0  0
 29 49  1  0  0  0
  1 50  1  0  0  0
  2 51  1  0  0  0
  4 52  1  0  0  0
  5 53  1  0  0  0
  7 54  1  0  0  0
  7 55  1  0  0  0
  8 56  1  0  0  0
  8 57  1  0  0  0
  9 58  1  0  0  0
 10 59  1  0  0  0
 12 60  1  0  0  0
 12 61  1  0  0  0
 13 62  1  0  0  0
 13 63  1  0  0  0
 15 64  1  0  0  0
 16 65  1  0  0  0
 16 66  1  0  0  0
 17 67  1  0  0  0
 18 68  1  0  0  0
 19 69  1  0  0  0
 20 70  1  0  0  0
 20 71  1  0  0  0
 20 72  1  0  0  0
 21 73  1  0  0  0
 21 74  1  0  0  0
 22 75  1  0  0  0
 22 76  1  0  0  0
 23 77  1  0  0  0
 23 78  1  0  0  0
 24 79  1  0  0  0
 24 80  1  0  0  0
 25 81  1  0  0  0
 25 82  1  0  0  0
 26 83  1  0  0  0
 26 84  1  0  0  0
 27 85  1  0  0  0
 27 86  1  0  0  0
 28 87  1  0  0  0
 28 88  1  0  0  0
 29 89  1  0  0  0
 30 90  1  0  0  0
 31 91  1  0  0  0
 32 92  1  0  0  0
 33 93  1  0  0  0
 34 94  1  0  0  0
 36 95  1  0  0  0
 36 96  1  0  0  0
 41 97  1  0  0  0
 46 98  1  0  0  0
 46 99  1  0  0  0
 48100  1  0  0  0
M  END
$$$$
