1oe8_ligand
  -I-interpret- 

 38 37  0  0  0  0  0  0  0  0999 V2000
   15.0660   -4.0860   22.2650 N   0  3  0  0  0
   14.6520   -2.6740   22.7050 C   0  0  0  0  0
   14.7280   -1.8090   21.3790 C   0  0  0  0  0
   14.0200   -0.8370   21.1870 O   0  0  0  0  0
   15.5450   -2.3440   20.5710 O   0  0  0  0  0
   15.7730   -2.1280   23.6290 C   0  0  0  0  0
   15.3630   -0.7590   24.2500 C   0  0  0  0  0
   16.3750   -0.3640   25.3180 C   0  0  0  0  0
   17.1410   -1.1950   25.9190 O   0  0  0  0  0
   16.4990    0.9440   25.5880 N   0  0  0  0  0
   17.4370    1.2270   26.6510 C   0  0  0  0  0
   16.6940    2.3350   27.5300 C   0  0  0  0  0
   15.7380    2.9700   27.1000 O   0  0  0  0  0
   18.6290    2.0520   26.0840 C   0  0  0  0  0
   19.4780    1.0670   24.8360 S   0  0  0  0  0
   17.2050    2.5640   28.7640 N   0  0  0  0  0
   16.5300    3.5880   29.5800 C   0  0  0  0  0
   15.6780    2.9400   30.6650 C   0  0  0  0  0
   15.2190    3.7020   31.5620 O   0  0  0  0  0
   15.5390    1.6870   30.6260 O   0  0  0  0  0
   14.3476   -4.4748   21.6541 H   0  0  0  0  0
   15.9521   -4.0380   21.7622 H   0  0  0  0  0
   15.1722   -4.6797   23.0876 H   0  0  0  0  0
   13.6802   -2.6536   23.1982 H   0  0  0  0  0
   15.9650   -3.0966   20.9938 H   0  0  0  0  0
   16.6779   -1.9880   23.0377 H   0  0  0  0  0
   15.9422   -2.8422   24.4349 H   0  0  0  0  0
   14.3740   -0.8452   24.7001 H   0  0  0  0  0
   15.3411    0.0023   23.4702 H   0  0  0  0  0
   15.9814    1.6691   25.0912 H   0  0  0  0  0
   17.7490    0.3059   27.1433 H   0  0  0  0  0
   19.3200    2.3027   26.8889 H   0  0  0  0  0
   18.2593    2.9747   25.6368 H   0  0  0  0  0
   20.4994    1.7624   24.3440 H   0  0  0  0  0
   18.0167    2.0527   29.1106 H   0  0  0  0  0
   15.8841    4.1827   28.9341 H   0  0  0  0  0
   17.2858    4.2144   30.0538 H   0  0  0  0  0
   15.4607    4.6097   31.3637 H   0  0  0  0  0
  1  2  1  0  0  0
  2  3  1  0  0  0
  2  6  1  0  0  0
  3  4  2  0  0  0
  3  5  1  0  0  0
  6  7  1  0  0  0
  7  8  1  0  0  0
  8  9  2  0  0  0
  8 10  1  0  0  0
 10 11  1  0  0  0
 11 12  1  0  0  0
 11 14  1  0  0  0
 12 13  2  0  0  0
 12 16  1  0  0  0
 14 15  1  0  0  0
 16 17  1  0  0  0
 17 18  1  0  0  0
 18 19  1  0  0  0
 18 20  2  0  0  0
  1 21  1  0  0  0
  1 22  1  0  0  0
  1 23  1  0  0  0
  2 24  1  0  0  0
  5 25  1  0  0  0
  6 26  1  0  0  0
  6 27  1  0  0  0
  7 28  1  0  0  0
  7 29  1  0  0  0
 10 30  1  0  0  0
 11 31  1  0  0  0
 14 32  1  0  0  0
 14 33  1  0  0  0
 15 34  1  0  0  0
 16 35  1  0  0  0
 17 36  1  0  0  0
 17 37  1  0  0  0
 19 38  1  0  0  0
M  END
$$$$
