6dzy_ligand
  -I-interpret- 

 49 53  0  0  0  0  0  0  0  0999 V2000
  161.2720  152.9510  173.3610 N   0  3  0  0  0
  161.5320  152.6160  174.8710 C   0  0  0  0  0
  160.8350  148.9660  175.5870 N   0  0  0  0  0
  160.7240  151.4810  175.3960 C   0  0  0  0  0
  159.0250  153.0700  174.3580 C   0  0  0  0  0
  163.0940  145.2870  172.0620 O   0  0  0  0  0
  162.1360  154.9640  175.4400 C   0  0  0  0  0
  161.7460  149.8370  173.7060 C   0  0  0  0  0
  161.9690  150.6940  172.4090 C   0  0  0  0  0
  161.8170  148.4160  173.6610 C   0  0  0  0  0
  163.3220  154.7730  176.4640 C   0  0  0  0  0
  161.2980  147.8910  174.8520 C   0  0  0  0  0
  162.2320  147.4870  172.6680 C   0  0  0  0  0
  161.3220  146.5630  175.2130 C   0  0  0  0  0
  162.3580  146.1220  172.9980 C   0  0  0  0  0
  161.8490  145.6480  174.2400 C   0  0  0  0  0
  163.0610  143.8230  172.3530 C   0  0  0  0  0
  161.1060  153.9070  175.6290 C   0  0  0  0  0
  159.2340  151.7760  175.1790 C   0  0  0  0  0
  159.6150  154.2430  175.0900 C   0  0  0  0  0
  159.7760  152.8630  173.0370 C   0  0  0  0  0
  161.1470  150.1270  174.8950 C   0  0  0  0  0
  162.1950  152.2130  172.4550 C   0  0  0  0  0
  161.5136  153.9252  173.1793 H   0  0  0  0  0
  162.5725  152.3186  175.0015 H   0  0  0  0  0
  160.9146  151.4103  176.4669 H   0  0  0  0  0
  157.9658  153.2692  174.1952 H   0  0  0  0  0
  162.5302  154.8959  174.4261 H   0  0  0  0  0
  161.6773  155.9384  175.6084 H   0  0  0  0  0
  161.0242  150.5948  171.8746 H   0  0  0  0  0
  162.9082  150.3104  172.0106 H   0  0  0  0  0
  162.9353  154.8336  177.4813 H   0  0  0  0  0
  163.7827  153.7978  176.3066 H   0  0  0  0  0
  164.0641  155.5562  176.3087 H   0  0  0  0  0
  162.4517  147.8284  171.6564 H   0  0  0  0  0
  160.9608  146.2245  176.1841 H   0  0  0  0  0
  161.8594  144.5794  174.4546 H   0  0  0  0  0
  163.4914  143.6398  173.3375 H   0  0  0  0  0
  162.0287  143.4736  172.3356 H   0  0  0  0  0
  163.6389  143.2906  171.5976 H   0  0  0  0  0
  161.0534  153.8059  176.7130 H   0  0  0  0  0
  158.7626  151.9057  176.1532 H   0  0  0  0  0
  158.7942  150.9439  174.6292 H   0  0  0  0  0
  158.9799  154.4751  175.9449 H   0  0  0  0  0
  159.6751  155.0874  174.4034 H   0  0  0  0  0
  159.5302  151.8959  172.5984 H   0  0  0  0  0
  159.4920  153.6204  172.3064 H   0  0  0  0  0
  163.2052  152.3726  172.8319 H   0  0  0  0  0
  162.0207  152.5908  171.4475 H   0  0  0  0  0
  2  1  1  0  0  0
  1 21  1  0  0  0
 23  1  1  0  0  0
  4  2  1  0  0  0
  2 18  1  0  0  0
 12  3  4  0  0  0
  3 22  4  0  0  0
  4 19  1  0  0  0
 22  4  1  0  0  0
 19  5  1  0  0  0
  5 20  1  0  0  0
  5 21  1  0  0  0
 15  6  1  0  0  0
  6 17  1  0  0  0
  7 11  1  0  0  0
 18  7  1  0  0  0
  8  9  1  0  0  0
 10  8  4  0  0  0
  8 22  4  0  0  0
  9 23  1  0  0  0
 10 12  4  0  0  0
 13 10  4  0  0  0
 12 14  4  0  0  0
 13 15  4  0  0  0
 14 16  4  0  0  0
 15 16  4  0  0  0
 18 20  1  0  0  0
  1 24  1  0  0  0
  2 25  1  0  0  0
  4 26  1  0  0  0
  5 27  1  0  0  0
  7 28  1  0  0  0
  7 29  1  0  0  0
  9 30  1  0  0  0
  9 31  1  0  0  0
 11 32  1  0  0  0
 11 33  1  0  0  0
 11 34  1  0  0  0
 13 35  1  0  0  0
 14 36  1  0  0  0
 16 37  1  0  0  0
 17 38  1  0  0  0
 17 39  1  0  0  0
 17 40  1  0  0  0
 18 41  1  0  0  0
 19 42  1  0  0  0
 19 43  1  0  0  0
 20 44  1  0  0  0
 20 45  1  0  0  0
 21 46  1  0  0  0
 21 47  1  0  0  0
 23 48  1  0  0  0
 23 49  1  0  0  0
M  END
$$$$
