6f8x_ligand
  -I-interpret- 

 59 61  0  0  0  0  0  0  0  0999 V2000
   32.0000  -26.6950  -30.4980 C   0  0  0  0  0
   30.9840  -27.1320  -29.5430 C   0  0  0  0  0
   29.5890  -27.3020  -27.7500 C   0  0  0  0  0
   29.4620  -28.6830  -25.7110 C   0  0  0  0  0
   28.7620  -30.2220  -23.0380 C   0  0  0  0  0
   32.2920  -29.8350  -24.4260 C   0  0  0  0  0
   35.3530  -24.4100  -33.5630 C   0  0  0  0  0
   34.9500  -25.7500  -33.3250 O   0  0  0  0  0
   33.9710  -25.9820  -32.3910 C   0  0  0  0  0
   33.7040  -27.3250  -32.1020 C   0  0  0  0  0
   34.4450  -28.2620  -32.7480 O   0  0  0  0  0
   34.6600  -29.4480  -31.9960 C   0  0  0  0  0
   36.1220  -29.8640  -32.2220 C   0  0  0  0  0
   36.0360  -31.2150  -32.8950 C   0  0  0  0  0
   34.7020  -31.1450  -33.6250 C   0  0  0  0  0
   33.7990  -30.5790  -32.5470 C   0  0  0  0  0
   32.7320  -27.6670  -31.1650 C   0  0  0  0  0
   32.2550  -25.3560  -30.7900 C   0  0  0  0  0
   33.2370  -25.0000  -31.7220 C   0  0  0  0  0
   30.3240  -26.2590  -28.5650 C   0  0  0  0  0
   30.3490  -27.7680  -26.5190 C   0  0  0  0  0
   28.2960  -28.3120  -25.4780 O   0  0  0  0  0
   29.9340  -29.8990  -25.2440 N   0  0  0  0  0
   29.4790  -28.4670  -28.5770 O   0  0  0  0  0
   30.6050  -28.4110  -29.4440 N   0  0  0  0  0
   31.3070  -30.3930  -25.4600 C   0  0  0  0  0
   29.0420  -30.7510  -24.4500 C   0  0  0  0  0
   28.8250  -31.2420  -22.0690 O   0  0  0  0  0
   32.1950  -28.4150  -24.2870 O   0  0  0  0  0
   28.6466  -26.8553  -27.4331 H   0  0  0  0  0
   27.7563  -29.8020  -23.0251 H   0  0  0  0  0
   29.5200  -29.4766  -22.7973 H   0  0  0  0  0
   33.3016  -30.0716  -24.7618 H   0  0  0  0  0
   32.0566  -30.2840  -23.4611 H   0  0  0  0  0
   34.4963  -23.8297  -33.9057 H   0  0  0  0  0
   35.7396  -23.9787  -32.6396 H   0  0  0  0  0
   36.1315  -24.3961  -34.3258 H   0  0  0  0  0
   34.4223  -29.2684  -30.9475 H   0  0  0  0  0
   36.6812  -29.9097  -31.2875 H   0  0  0  0  0
   36.6618  -29.1393  -32.8316 H   0  0  0  0  0
   36.0902  -32.0442  -32.1896 H   0  0  0  0  0
   36.8750  -31.4100  -33.5629 H   0  0  0  0  0
   34.3668  -32.1057  -34.0159 H   0  0  0  0  0
   34.7313  -30.5412  -34.5320 H   0  0  0  0  0
   32.8287  -30.2490  -32.9181 H   0  0  0  0  0
   33.5044  -31.3107  -31.7947 H   0  0  0  0  0
   32.5425  -28.7189  -30.9514 H   0  0  0  0  0
   31.6828  -24.5767  -30.2865 H   0  0  0  0  0
   33.4305  -23.9472  -31.9274 H   0  0  0  0  0
   29.6854  -25.4906  -29.0007 H   0  0  0  0  0
   31.0016  -25.6282  -27.9897 H   0  0  0  0  0
   30.6350  -26.9064  -25.9157 H   0  0  0  0  0
   31.2488  -28.3028  -26.8232 H   0  0  0  0  0
   31.2956  -31.4789  -25.3663 H   0  0  0  0  0
   31.6327  -30.0688  -26.4484 H   0  0  0  0  0
   28.0868  -30.7933  -24.9734 H   0  0  0  0  0
   29.5334  -31.7177  -24.3402 H   0  0  0  0  0
   28.6445  -30.8702  -21.2025 H   0  0  0  0  0
   32.8287  -28.1148  -23.6314 H   0  0  0  0  0
  2  1  1  0  0  0
  1 17  4  0  0  0
  1 18  4  0  0  0
 20  2  1  0  0  0
  2 25  2  0  0  0
  3 20  1  0  0  0
 21  3  1  0  0  0
  3 24  1  0  0  0
  4 21  1  0  0  0
  4 22  2  0  0  0
 23  4  1  0  0  0
 27  5  1  0  0  0
  5 28  1  0  0  0
 26  6  1  0  0  0
  6 29  1  0  0  0
  8  7  1  0  0  0
  9  8  1  0  0  0
 10  9  4  0  0  0
 19  9  4  0  0  0
 10 11  1  0  0  0
 17 10  4  0  0  0
 11 12  1  0  0  0
 12 13  1  0  0  0
 12 16  1  0  0  0
 13 14  1  0  0  0
 15 14  1  0  0  0
 16 15  1  0  0  0
 18 19  4  0  0  0
 23 26  1  0  0  0
 23 27  1  0  0  0
 24 25  1  0  0  0
  3 30  1  0  0  0
  5 31  1  0  0  0
  5 32  1  0  0  0
  6 33  1  0  0  0
  6 34  1  0  0  0
  7 35  1  0  0  0
  7 36  1  0  0  0
  7 37  1  0  0  0
 12 38  1  0  0  0
 13 39  1  0  0  0
 13 40  1  0  0  0
 14 41  1  0  0  0
 14 42  1  0  0  0
 15 43  1  0  0  0
 15 44  1  0  0  0
 16 45  1  0  0  0
 16 46  1  0  0  0
 17 47  1  0  0  0
 18 48  1  0  0  0
 19 49  1  0  0  0
 20 50  1  0  0  0
 20 51  1  0  0  0
 21 52  1  0  0  0
 21 53  1  0  0  0
 26 54  1  0  0  0
 26 55  1  0  0  0
 27 56  1  0  0  0
 27 57  1  0  0  0
 28 58  1  0  0  0
 29 59  1  0  0  0
M  END
$$$$
