1pun_ligand
  -I-interpret- 

 38 40  0  0  0  0  0  0  0  0999 V2000
   -9.6760   -6.8410   -7.7510 O   0  0  0  0  0
   -9.3540   -7.6430   -6.3930 P   0  0  0  0  0
   -8.8610   -8.9930   -6.7480 O   0  0  0  0  0
  -10.5220   -7.5170   -5.4930 O   0  0  0  0  0
   -8.1340   -6.7930   -5.7770 O   0  0  0  0  0
   -7.3720   -7.3210   -4.6880 C   0  0  0  0  0
   -8.2610   -7.5760   -3.4690 C   0  0  0  0  0
   -9.3520   -8.4960   -3.5780 O   0  0  0  0  0
   -7.4700   -8.1400   -2.2870 C   0  0  0  0  0
   -7.4610   -7.2350   -1.1790 O   0  0  0  0  0
   -8.1100   -9.4810   -1.9150 C   0  0  0  0  0
   -9.2900   -9.7350   -2.8580 C   0  0  0  0  0
   -9.3800  -11.0880   -3.4510 N   0  0  0  0  0
   -8.3320  -11.6340   -4.1430 C   0  0  0  0  0
   -8.7830  -12.8670   -4.5310 N   0  0  0  0  0
  -10.0640  -13.0880   -4.0990 C   0  0  0  0  0
  -10.9480  -14.1050   -4.2030 C   0  0  0  0  0
  -10.5960  -15.1570   -4.8420 O   0  0  0  0  0
  -12.2230  -14.0600   -3.6500 N   0  0  0  0  0
  -12.5800  -12.9260   -2.9710 C   0  0  0  0  0
  -13.8080  -12.8860   -2.4380 N   0  0  0  0  0
  -11.7400  -11.8190   -2.8060 N   0  0  0  0  0
  -10.4610  -11.9610   -3.4070 C   0  0  0  0  0
   -7.1880  -11.1090   -4.3760 O   0  0  0  0  0
   -8.9277   -6.9118   -8.3482 H   0  0  0  0  0
   -8.1048   -8.9125   -7.3338 H   0  0  0  0  0
   -6.6040   -6.5971   -4.4153 H   0  0  0  0  0
   -6.9259   -8.2656   -4.9991 H   0  0  0  0  0
   -8.6611   -6.5692   -3.3495 H   0  0  0  0  0
   -6.4249   -8.2815   -2.5625 H   0  0  0  0  0
   -6.9577   -7.6193   -0.4575 H   0  0  0  0  0
   -8.4583   -9.4532   -0.8825 H   0  0  0  0  0
   -7.3774  -10.2823   -2.0117 H   0  0  0  0  0
  -10.2787   -9.9063   -2.4322 H   0  0  0  0  0
   -8.2352  -13.5356   -5.0725 H   0  0  0  0  0
  -12.8689  -14.8435   -3.7467 H   0  0  0  0  0
  -14.1142  -12.0599   -1.9241 H   0  0  0  0  0
  -14.4370  -13.6817   -2.5460 H   0  0  0  0  0
  1  2  1  0  0  0
  2  3  1  0  0  0
  2  4  2  0  0  0
  2  5  1  0  0  0
  5  6  1  0  0  0
  6  7  1  0  0  0
  7  8  1  0  0  0
  7  9  1  0  0  0
  8 12  1  0  0  0
  9 10  1  0  0  0
  9 11  1  0  0  0
 11 12  1  0  0  0
 12 13  1  0  0  0
 13 14  1  0  0  0
 13 23  1  0  0  0
 14 15  1  0  0  0
 14 24  2  0  0  0
 15 16  1  0  0  0
 16 17  1  0  0  0
 16 23  2  0  0  0
 17 18  2  0  0  0
 17 19  1  0  0  0
 19 20  1  0  0  0
 20 21  1  0  0  0
 20 22  2  0  0  0
 22 23  1  0  0  0
  1 25  1  0  0  0
  3 26  1  0  0  0
  6 27  1  0  0  0
  6 28  1  0  0  0
  7 29  1  0  0  0
  9 30  1  0  0  0
 10 31  1  0  0  0
 11 32  1  0  0  0
 11 33  1  0  0  0
 12 34  1  0  0  0
 15 35  1  0  0  0
 19 36  1  0  0  0
 21 37  1  0  0  0
 21 38  1  0  0  0
M  END
$$$$
