### 
### Created by X-TOOL on Mon Sep 10 21:12:51 2018
### 

@<TRIPOS>MOLECULE
1pun_ligand
   36    38     1     0     0
SMALL
GAST_HUCK


@<TRIPOS>ATOM
      1 O3P        -9.6760   -6.8410   -7.7510 O.co2     1 8OG        -0.5537
      2 P          -9.3540   -7.6430   -6.3930 P.3       1 8OG         0.2008
      3 O1P        -8.8610   -8.9930   -6.7480 O.co2     1 8OG        -0.5537
      4 O2P       -10.5220   -7.5170   -5.4930 O.co2     1 8OG        -0.5537
      5 O5         -8.1340   -6.7930   -5.7770 O.3       1 8OG        -0.2734
      6 C5         -7.3720   -7.3210   -4.6880 C.3       1 8OG         0.1071
      7 C4         -8.2610   -7.5760   -3.4690 C.3       1 8OG         0.1155
      8 O4         -9.3520   -8.4960   -3.5780 O.3       1 8OG        -0.3405
      9 C3         -7.4700   -8.1400   -2.2870 C.3       1 8OG         0.0888
     10 O3         -7.4610   -7.2350   -1.1790 O.3       1 8OG        -0.3890
     11 C2         -8.1100   -9.4810   -1.9150 C.3       1 8OG         0.0297
     12 C1         -9.2900   -9.7350   -2.8580 C.3       1 8OG         0.1711
     13 N9         -9.3800  -11.0880   -3.4510 N.am      1 8OG        -0.1800
     14 C8         -8.3320  -11.6340   -4.1430 C.2       1 8OG         0.3009
     15 N7         -8.7830  -12.8670   -4.5310 N.am      1 8OG        -0.2392
     16 C5        -10.0640  -13.0880   -4.0990 C.2       1 8OG         0.1376
     17 C6        -10.9480  -14.1050   -4.2030 C.2       1 8OG         0.2169
     18 O6        -10.5960  -15.1570   -4.8420 O.2       1 8OG        -0.4208
     19 N1        -12.2230  -14.0600   -3.6500 N.am      1 8OG        -0.1896
     20 C2        -12.5800  -12.9260   -2.9710 C.2       1 8OG         0.2257
     21 N2        -13.8080  -12.8860   -2.4380 N.pl3     1 8OG        -0.2848
     22 N3        -11.7400  -11.8190   -2.8060 N.2       1 8OG        -0.2899
     23 C4        -10.4610  -11.9610   -3.4070 C.2       1 8OG         0.1142
     24 O8         -7.1880  -11.1090   -4.3760 O.2       1 8OG        -0.4065
     25 H1         -6.5866   -6.6005   -4.4159 H         1 8OG         0.0639
     26 H2         -6.9084   -8.2686   -4.9995 H         1 8OG         0.0639
     27 H3         -8.6771   -6.5966   -3.1904 H         1 8OG         0.0649
     28 H4         -6.4294   -8.3120   -2.5992 H         1 8OG         0.0622
     29 H5         -6.9629   -7.6153   -0.4650 H         1 8OG         0.2099
     30 H6         -8.4670   -9.4459   -0.8752 H         1 8OG         0.0343
     31 H7         -7.3697  -10.2876   -2.0215 H         1 8OG         0.0343
     32 H8        -10.1897   -9.7185   -2.2254 H         1 8OG         0.0946
     33 H9         -8.2459  -13.5225   -5.0619 H         1 8OG         0.2143
     34 H10       -12.8563  -14.8281   -3.7448 H         1 8OG         0.2492
     35 H11       -14.1172  -12.0518   -1.9190 H         1 8OG         0.1875
     36 H12       -14.4432  -13.6894   -2.5471 H         1 8OG         0.1875
@<TRIPOS>BOND
     1    1    2 ar 
     2    2    3 ar 
     3    2    4 ar 
     4    2    5 1  
     5    5    6 1  
     6    6    7 1  
     7    6   25 1  
     8    6   26 1  
     9    7    8 1  
    10    7    9 1  
    11    7   27 1  
    12    8   12 1  
    13    9   10 1  
    14    9   11 1  
    15    9   28 1  
    16   10   29 1  
    17   11   12 1  
    18   11   30 1  
    19   11   31 1  
    20   12   13 1  
    21   12   32 1  
    22   13   14 am 
    23   13   23 am 
    24   14   15 am 
    25   14   24 2  
    26   15   16 am 
    27   15   33 1  
    28   16   17 1  
    29   16   23 2  
    30   17   18 2  
    31   17   19 am 
    32   19   20 am 
    33   19   34 1  
    34   20   21 1  
    35   20   22 2  
    36   21   35 1  
    37   21   36 1  
    38   22   23 1  
@<TRIPOS>SUBSTRUCTURE
     1 8OG         1

