3v1r_ligand
  -I-interpret- 

 33 33  0  0  0  0  0  0  0  0999 V2000
   -5.3700  -36.7650    2.7820 C   0  0  0  0  0
   -5.1830  -36.3220    1.4790 O   0  0  0  0  0
   -5.2210  -38.2830    2.8020 C   0  0  0  0  0
   -4.6070  -38.7020    1.6180 O   0  0  0  0  0
   -6.5090  -39.0180    2.9730 C   0  0  0  0  0
   -6.9370  -39.0630    4.4390 C   0  0  0  0  0
   -7.7940  -37.8970    4.8080 C   0  0  0  0  0
   -7.0410  -36.6140    4.7090 C   0  0  0  0  0
   -6.6950  -36.2280    3.2850 C   0  0  0  0  0
   -6.6570  -34.8390    3.2010 O   0  0  0  0  0
   -9.1620  -40.2250    4.9190 C   0  0  0  0  0
   -7.6610  -40.3820    4.7330 C   0  0  0  0  0
   -6.9970  -41.1990    5.8300 C   0  0  0  0  0
   -4.6188  -36.3883    3.4762 H   0  0  0  0  0
   -4.3463  -36.6547    1.1461 H   0  0  0  0  0
   -4.6114  -38.5205    3.6738 H   0  0  0  0  0
   -3.7781  -38.2312    1.5047 H   0  0  0  0  0
   -6.3725  -40.0407    2.6214 H   0  0  0  0  0
   -7.2806  -38.4999    2.4036 H   0  0  0  0  0
   -6.0368  -39.0041    5.0508 H   0  0  0  0  0
   -8.1261  -38.0244    5.8383 H   0  0  0  0  0
   -8.6379  -37.8566    4.1194 H   0  0  0  0  0
   -6.1044  -36.7398    5.2523 H   0  0  0  0  0
   -7.6759  -35.8279    5.1176 H   0  0  0  0  0
   -7.4668  -36.6737    2.6574 H   0  0  0  0  0
   -6.4386  -34.5797    2.3029 H   0  0  0  0  0
   -9.6311  -41.2089    4.9238 H   0  0  0  0  0
   -9.3589  -39.7225    5.8660 H   0  0  0  0  0
   -9.5682  -39.6314    4.1000 H   0  0  0  0  0
   -7.5522  -40.9755    3.8252 H   0  0  0  0  0
   -7.1585  -40.7125    6.7919 H   0  0  0  0  0
   -7.4307  -42.1988    5.8497 H   0  0  0  0  0
   -5.9274  -41.2694    5.6320 H   0  0  0  0  0
  1  2  1  0  0  0
  1  3  1  0  0  0
  1  9  1  0  0  0
  3  4  1  0  0  0
  3  5  1  0  0  0
  5  6  1  0  0  0
  6  7  1  0  0  0
  6 12  1  0  0  0
  7  8  1  0  0  0
  8  9  1  0  0  0
  9 10  1  0  0  0
 12 11  1  0  0  0
 12 13  1  0  0  0
  1 14  1  0  0  0
  2 15  1  0  0  0
  3 16  1  0  0  0
  4 17  1  0  0  0
  5 18  1  0  0  0
  5 19  1  0  0  0
  6 20  1  0  0  0
  7 21  1  0  0  0
  7 22  1  0  0  0
  8 23  1  0  0  0
  8 24  1  0  0  0
  9 25  1  0  0  0
 10 26  1  0  0  0
 11 27  1  0  0  0
 11 28  1  0  0  0
 11 29  1  0  0  0
 12 30  1  0  0  0
 13 31  1  0  0  0
 13 32  1  0  0  0
 13 33  1  0  0  0
M  END
$$$$
