### 
### Created by X-TOOL on Mon Sep 10 21:13:24 2018
### 

@<TRIPOS>MOLECULE
4yv5_ligand
  120   127     1     0     0
SMALL
GAST_HUCK


@<TRIPOS>ATOM
      1 O35       -17.1490  -15.2140    9.1900 O.co2     1 SVR        -0.4797
      2 S31       -18.2780  -15.9280    8.4790 S.o2      1 SVR        -0.1636
      3 O36       -18.3110  -15.2110    7.1520 O.co2     1 SVR        -0.4797
      4 O34       -17.9500  -17.3970    8.3050 O.co2     1 SVR        -0.4797
      5 C22       -19.8240  -15.7380    9.3620 C.ar      1 SVR         0.0494
      6 C18       -20.3620  -14.5380    9.5790 C.ar      1 SVR        -0.0210
      7 C11       -21.5510  -14.4210   10.2650 C.ar      1 SVR         0.0599
      8 S17       -22.1890  -12.7800   10.4940 S.o2      1 SVR        -0.1625
      9 O23       -22.0180  -12.2810   11.9110 O.co2     1 SVR        -0.4795
     10 O24       -21.3420  -11.7790    9.7310 O.co2     1 SVR        -0.4795
     11 O25       -23.6290  -12.7080   10.0480 O.co2     1 SVR        -0.4795
     12 C16       -20.4660  -16.8410    9.8260 C.ar      1 SVR        -0.0371
     13 C10       -21.6970  -16.7380   10.5390 C.ar      1 SVR        -0.0062
     14 C15       -22.2120  -17.8510   10.9270 C.ar      1 SVR         0.0386
     15 S21       -21.3400  -19.3500   10.5410 S.o2      1 SVR        -0.1723
     16 O28       -20.0070  -19.4060   11.2530 O.co2     1 SVR        -0.4823
     17 O29       -22.0510  -20.5390   11.1410 O.co2     1 SVR        -0.4823
     18 O30       -21.1820  -19.5010    9.0460 O.co2     1 SVR        -0.4823
     19 C12       -23.4220  -18.0470   11.6520 C.ar      1 SVR        -0.0595
     20 C7        -24.1250  -16.6940   11.9490 C.ar      1 SVR        -0.0414
     21 C6        -22.2300  -15.5900   10.7560 C.ar      1 SVR         0.0350
     22 C3        -23.4100  -15.4850   11.4420 C.ar      1 SVR         0.0824
     23 N1        -24.1030  -14.2530   11.7440 N.am      1 SVR        -0.2285
     24 C2        -24.2330  -13.8860   13.1360 C.2       1 SVR         0.2279
     25 O4        -23.7640  -14.5920   14.0110 O.2       1 SVR        -0.3740
     26 C5        -25.0260  -12.6260   13.5510 C.ar      1 SVR         0.0364
     27 C8        -25.6960  -12.6880   14.7790 C.ar      1 SVR        -0.0272
     28 C9        -25.1400  -11.4960   12.7510 C.ar      1 SVR        -0.0632
     29 C14       -25.9120  -10.4100   13.2010 C.ar      1 SVR        -0.0675
     30 C20       -26.5760  -10.4710   14.4390 C.ar      1 SVR        -0.0191
     31 C27       -27.4100   -9.3060   14.9280 C.3       1 SVR        -0.0327
     32 C13       -26.4640  -11.6110   15.2270 C.ar      1 SVR         0.0740
     33 N19       -27.1360  -11.7270   16.4930 N.am      1 SVR        -0.2354
     34 C26       -26.4270  -11.7630   17.7340 C.2       1 SVR         0.2270
     35 O32       -25.2160  -11.6980   17.7660 O.2       1 SVR        -0.3740
     36 C33       -27.2410  -11.9190   19.0280 C.ar      1 SVR         0.0419
     37 C37       -26.7640  -12.7670   20.0150 C.ar      1 SVR        -0.0214
     38 C38       -28.4520  -11.2560   19.2100 C.ar      1 SVR        -0.0571
     39 C40       -29.1750  -11.4330   20.3960 C.ar      1 SVR        -0.0701
     40 C42       -28.6900  -12.2810   21.3940 C.ar      1 SVR        -0.0372
     41 C39       -27.4750  -12.9350   21.2050 C.ar      1 SVR         0.0725
     42 N41       -26.9160  -13.8490   22.1710 N.am      1 SVR        -0.2134
     43 C43       -27.0950  -13.8630   23.6150 C.2       1 SVR         0.3170
     44 O45       -27.7640  -13.0410   24.2190 O.2       1 SVR        -0.3803
     45 N44       -26.3930  -14.9480   24.2770 N.am      1 SVR        -0.2134
     46 C46       -26.3220  -15.2710   25.6920 C.ar      1 SVR         0.0725
     47 C47       -26.0530  -16.6130   25.9780 C.ar      1 SVR        -0.0214
     48 C48       -26.4590  -14.3620   26.7320 C.ar      1 SVR        -0.0372
     49 C50       -26.3450  -14.8110   28.0620 C.ar      1 SVR        -0.0701
     50 C52       -26.0870  -16.1660   28.3460 C.ar      1 SVR        -0.0571
     51 C49       -25.9390  -17.0570   27.2890 C.ar      1 SVR         0.0419
     52 C51       -25.6620  -18.5770   27.4340 C.2       1 SVR         0.2270
     53 O54       -25.8000  -19.1640   28.4860 O.2       1 SVR        -0.3740
     54 N53       -25.2500  -19.2300   26.2200 N.am      1 SVR        -0.2354
     55 C55       -24.9660  -20.6520   26.0950 C.ar      1 SVR         0.0740
     56 C56       -23.6580  -21.1560   26.1970 C.ar      1 SVR        -0.0272
     57 C57       -26.0380  -21.5100   25.8340 C.ar      1 SVR        -0.0191
     58 C59       -27.4490  -20.9590   25.7150 C.3       1 SVR        -0.0327
     59 C60       -25.8140  -22.8830   25.6880 C.ar      1 SVR        -0.0675
     60 C62       -24.5060  -23.3850   25.8060 C.ar      1 SVR        -0.0632
     61 C58       -23.4380  -22.5370   26.0510 C.ar      1 SVR         0.0364
     62 C61       -22.0130  -23.1380   26.1620 C.2       1 SVR         0.2279
     63 O64       -21.5520  -23.7640   25.2230 O.2       1 SVR        -0.3740
     64 N63       -21.2780  -22.9500   27.4030 N.am      1 SVR        -0.2285
     65 C65       -19.9210  -23.4370   27.6510 C.ar      1 SVR         0.0824
     66 C67       -19.0310  -23.4580   26.6140 C.ar      1 SVR        -0.0414
     67 C70       -17.7610  -23.8820   26.7970 C.ar      1 SVR        -0.0595
     68 C71       -17.3580  -24.2870   28.0460 C.ar      1 SVR         0.0386
     69 S75       -15.6730  -24.8510   28.2540 S.o2      1 SVR        -0.1723
     70 O80       -14.9740  -24.1670   29.4010 O.co2     1 SVR        -0.4823
     71 O81       -15.6460  -26.3000   28.6890 O.co2     1 SVR        -0.4823
     72 O82       -14.9140  -24.6680   26.9620 O.co2     1 SVR        -0.4823
     73 C66       -19.5100  -23.8480   28.9680 C.ar      1 SVR         0.0350
     74 C68       -18.2800  -24.2590   29.1370 C.ar      1 SVR        -0.0062
     75 C72       -17.8490  -24.6610   30.3520 C.ar      1 SVR        -0.0371
     76 C69       -20.3480  -23.8270   29.9950 C.ar      1 SVR         0.0599
     77 S73       -22.0350  -23.2880   29.7860 S.o2      1 SVR        -0.1625
     78 O77       -22.7590  -24.2320   28.8610 O.co2     1 SVR        -0.4795
     79 O78       -22.7420  -23.2370   31.1260 O.co2     1 SVR        -0.4795
     80 O79       -22.1470  -21.8550   29.3330 O.co2     1 SVR        -0.4795
     81 C74       -20.0700  -24.2110   31.3280 C.ar      1 SVR        -0.0210
     82 C76       -18.6520  -24.6950   31.5740 C.ar      1 SVR         0.0494
     83 S83       -18.0680  -25.2200   33.1630 S.o2      1 SVR        -0.1636
     84 O85       -18.7950  -26.4590   33.6350 O.co2     1 SVR        -0.4797
     85 O86       -16.6380  -25.7080   33.0960 O.co2     1 SVR        -0.4797
     86 O84       -18.2090  -24.0840   34.1450 O.co2     1 SVR        -0.4797
     87 H1        -19.8610  -13.6489    9.2136 H         1 SVR         0.0614
     88 H2        -20.0341  -17.8197    9.6509 H         1 SVR         0.0606
     89 H3        -23.8030  -19.0149   11.9571 H         1 SVR         0.0583
     90 H4        -25.0653  -16.6320   12.4848 H         1 SVR         0.0443
     91 H5        -24.4781  -13.6768   11.0179 H         1 SVR         0.2306
     92 H6        -25.6178  -13.5812   15.3882 H         1 SVR         0.0529
     93 H7        -24.6394  -11.4518   11.7905 H         1 SVR         0.0525
     94 H8        -25.9958   -9.5193   12.5889 H         1 SVR         0.0527
     95 H9        -27.3848   -8.4983   14.1817 H         1 SVR         0.0372
     96 H10       -27.0023   -8.9376   15.8809 H         1 SVR         0.0372
     97 H11       -28.4489   -9.6356   15.0766 H         1 SVR         0.0372
     98 H12       -28.1343  -11.7845   16.5058 H         1 SVR         0.2231
     99 H13       -25.8340  -13.3027   19.8624 H         1 SVR         0.0551
    100 H14       -28.8348  -10.6032   18.4339 H         1 SVR         0.0538
    101 H15       -30.1137  -10.9104   20.5399 H         1 SVR         0.0588
    102 H16       -29.2542  -12.4289   22.3077 H         1 SVR         0.0536
    103 H17       -26.3281  -14.5675   21.7994 H         1 SVR         0.2262
    104 H18       -25.8852  -15.5613   23.6720 H         1 SVR         0.2262
    105 H19       -25.9315  -17.3180   25.1636 H         1 SVR         0.0551
    106 H20       -26.6520  -13.3161   26.5224 H         1 SVR         0.0536
    107 H21       -26.4572  -14.1051   28.8769 H         1 SVR         0.0588
    108 H22       -26.0052  -16.5085   29.3712 H         1 SVR         0.0538
    109 H23       -25.1514  -18.6647   25.4010 H         1 SVR         0.2231
    110 H24       -22.8268  -20.4865   26.3864 H         1 SVR         0.0529
    111 H25       -28.1482  -21.7829   25.5094 H         1 SVR         0.0372
    112 H26       -27.4897  -20.2298   24.8925 H         1 SVR         0.0372
    113 H27       -27.7306  -20.4655   26.6569 H         1 SVR         0.0372
    114 H28       -26.6412  -23.5538   25.4858 H         1 SVR         0.0527
    115 H29       -24.3307  -24.4499   25.7039 H         1 SVR         0.0525
    116 H30       -21.7335  -22.4515   28.1405 H         1 SVR         0.2306
    117 H31       -19.3483  -23.1299   25.6308 H         1 SVR         0.0443
    118 H32       -17.0663  -23.9023   25.9651 H         1 SVR         0.0583
    119 H33       -16.8180  -24.9869   30.4283 H         1 SVR         0.0606
    120 H34       -20.8139  -24.1632   32.1150 H         1 SVR         0.0614
@<TRIPOS>BOND
     1    1    2 ar 
     2    2    3 ar 
     3    2    4 ar 
     4    2    5 1  
     5    5    6 ar 
     6    5   12 ar 
     7    6    7 ar 
     8    7    8 1  
     9    7   21 ar 
    10    8    9 ar 
    11    8   10 ar 
    12    8   11 ar 
    13   12   13 ar 
    14   13   14 ar 
    15   13   21 ar 
    16   14   15 1  
    17   14   19 ar 
    18   15   16 ar 
    19   15   17 ar 
    20   15   18 ar 
    21   19   20 ar 
    22   20   22 ar 
    23   21   22 ar 
    24   22   23 1  
    25   23   24 am 
    26   24   25 2  
    27   24   26 1  
    28   26   27 ar 
    29   26   28 ar 
    30   27   32 ar 
    31   28   29 ar 
    32   29   30 ar 
    33   30   31 1  
    34   30   32 ar 
    35   32   33 1  
    36   33   34 am 
    37   34   35 2  
    38   34   36 1  
    39   36   37 ar 
    40   36   38 ar 
    41   37   41 ar 
    42   38   39 ar 
    43   39   40 ar 
    44   40   41 ar 
    45   41   42 1  
    46   42   43 am 
    47   43   44 2  
    48   43   45 am 
    49   45   46 1  
    50   46   47 ar 
    51   46   48 ar 
    52   47   51 ar 
    53   48   49 ar 
    54   49   50 ar 
    55   50   51 ar 
    56   51   52 1  
    57   52   53 2  
    58   52   54 am 
    59   54   55 1  
    60   55   56 ar 
    61   55   57 ar 
    62   56   61 ar 
    63   57   58 1  
    64   57   59 ar 
    65   59   60 ar 
    66   60   61 ar 
    67   61   62 1  
    68   62   63 2  
    69   62   64 am 
    70   64   65 1  
    71   65   66 ar 
    72   65   73 ar 
    73   66   67 ar 
    74   67   68 ar 
    75   68   69 1  
    76   68   74 ar 
    77   69   70 ar 
    78   69   71 ar 
    79   69   72 ar 
    80   73   74 ar 
    81   73   76 ar 
    82   74   75 ar 
    83   75   82 ar 
    84   76   77 1  
    85   76   81 ar 
    86   77   78 ar 
    87   77   79 ar 
    88   77   80 ar 
    89   81   82 ar 
    90   82   83 1  
    91   83   84 ar 
    92   83   85 ar 
    93   83   86 ar 
    94    6   87 1  
    95   12   88 1  
    96   19   89 1  
    97   20   90 1  
    98   23   91 1  
    99   27   92 1  
   100   28   93 1  
   101   29   94 1  
   102   31   95 1  
   103   31   96 1  
   104   31   97 1  
   105   33   98 1  
   106   37   99 1  
   107   38  100 1  
   108   39  101 1  
   109   40  102 1  
   110   42  103 1  
   111   45  104 1  
   112   47  105 1  
   113   48  106 1  
   114   49  107 1  
   115   50  108 1  
   116   54  109 1  
   117   56  110 1  
   118   58  111 1  
   119   58  112 1  
   120   58  113 1  
   121   59  114 1  
   122   60  115 1  
   123   64  116 1  
   124   66  117 1  
   125   67  118 1  
   126   75  119 1  
   127   81  120 1  
@<TRIPOS>SUBSTRUCTURE
     1 SVR         1

