4llp_ligand
  -I-interpret- 

 18 18  0  0  0  0  0  0  0  0999 V2000
    3.3340   13.8450   40.3470 C   0  0  0  0  0
    3.9090   13.3150   41.6390 C   0  0  0  0  0
    4.3690   12.0040   41.7310 C   0  0  0  0  0
    4.8960   11.5230   42.9280 C   0  0  0  0  0
    5.3410   10.2590   43.0300 N   0  0  0  0  0
    4.9670   12.3520   44.0480 C   0  0  0  0  0
    4.5040   13.6580   43.9540 C   0  0  0  0  0
    3.9790   14.1370   42.7570 C   0  0  0  0  0
    3.5410   15.3900   42.6840 O   0  0  0  0  0
    4.0884   13.7831   39.5627 H   0  0  0  0  0
    2.4658   13.2490   40.0657 H   0  0  0  0  0
    3.0343   14.8841   40.4834 H   0  0  0  0  0
    4.3165   11.3496   40.8609 H   0  0  0  0  0
    5.2959    9.6358   42.2238 H   0  0  0  0  0
    5.7238    9.9228   43.9136 H   0  0  0  0  0
    5.3807   11.9793   44.9851 H   0  0  0  0  0
    4.5521   14.3129   44.8240 H   0  0  0  0  0
    3.6593   15.8192   43.5345 H   0  0  0  0  0
  1  2  1  0  0  0
  2  3  4  0  0  0
  2  8  4  0  0  0
  3  4  4  0  0  0
  4  5  1  0  0  0
  4  6  4  0  0  0
  6  7  4  0  0  0
  7  8  4  0  0  0
  8  9  1  0  0  0
  1 10  1  0  0  0
  1 11  1  0  0  0
  1 12  1  0  0  0
  3 13  1  0  0  0
  5 14  1  0  0  0
  5 15  1  0  0  0
  6 16  1  0  0  0
  7 17  1  0  0  0
  9 18  1  0  0  0
M  END
$$$$
