4bqg_ligand
  -I-interpret- 

 25 26  0  0  0  0  0  0  0  0999 V2000
    5.5610   12.1080   24.0170 C   0  0  0  0  0
    4.5520   14.0460   25.0790 C   0  0  0  0  0
    3.3210   13.4180   25.2090 C   0  0  0  0  0
   -2.6500   11.2640   25.1580 O   0  0  0  0  0
   -1.5390   11.6570   24.4650 C   0  0  0  0  0
   -1.6320   12.2810   23.2210 C   0  0  0  0  0
   -0.4600   12.6490   22.5360 C   0  0  0  0  0
   -0.5260   13.2590   21.3400 O   0  0  0  0  0
    0.7830   12.3710   23.0540 C   0  0  0  0  0
    4.3400   11.4740   24.1430 C   0  0  0  0  0
    5.6310   13.4140   24.5000 C   0  0  0  0  0
    3.2420   12.1030   24.7210 C   0  0  0  0  0
    7.1640   14.3320   24.4350 Cl  0  0  0  0  0
    2.0800   11.3850   24.8160 O   0  0  0  0  0
    4.8630   15.7120   25.6620 Cl  0  0  0  0  0
    0.8610   11.7240   24.2800 C   0  0  0  0  0
   -0.2870   11.3790   24.9870 C   0  0  0  0  0
    6.4216   11.6147   23.5652 H   0  0  0  0  0
    2.4648   13.9165   25.6636 H   0  0  0  0  0
   -2.3824   10.8571   25.9853 H   0  0  0  0  0
   -2.6089   12.4826   22.7815 H   0  0  0  0  0
    0.3627   13.4350   21.0223 H   0  0  0  0  0
    1.6871   12.6523   22.5141 H   0  0  0  0  0
    4.2340   10.4520   23.7792 H   0  0  0  0  0
   -0.2002   10.8877   25.9561 H   0  0  0  0  0
 10  1  4  0  0  0
  1 11  4  0  0  0
  3  2  4  0  0  0
  2 11  4  0  0  0
  2 15  1  0  0  0
 12  3  4  0  0  0
  5  4  1  0  0  0
  6  5  4  0  0  0
  5 17  4  0  0  0
  7  6  4  0  0  0
  7  8  1  0  0  0
  9  7  4  0  0  0
 16  9  4  0  0  0
 12 10  4  0  0  0
 11 13  1  0  0  0
 14 12  1  0  0  0
 14 16  1  0  0  0
 16 17  4  0  0  0
  1 18  1  0  0  0
  3 19  1  0  0  0
  4 20  1  0  0  0
  6 21  1  0  0  0
  8 22  1  0  0  0
  9 23  1  0  0  0
 10 24  1  0  0  0
 17 25  1  0  0  0
M  END
$$$$
