5xpi_ligand
  -I-interpret- 

 52 54  0  0  0  0  0  0  0  0999 V2000
  -35.3550   -2.7670    5.8320 C   0  0  0  0  0
  -35.1890   -2.6490    7.3370 C   0  0  0  0  0
  -37.6080   -3.8360    6.2920 C   0  0  0  0  0
  -34.1570   -2.1220    7.7770 O   0  0  0  0  0
  -34.8900   -4.9650   10.1370 O   0  0  0  0  0
  -38.8610   -4.4910    5.8500 C   0  0  0  0  0
  -33.5610   -4.6270   12.9650 C   0  0  0  0  0
  -33.3800   -3.3400   12.1090 C   0  0  0  0  0
  -34.7860   -4.5970   13.9150 C   0  0  0  0  0
  -34.0790   -2.8490   15.5670 C   0  0  0  0  0
  -35.4710   -4.8200   16.2960 C   0  0  0  0  0
  -32.5800   -2.5110   15.3990 C   0  0  0  0  0
  -36.8090   -4.0600   16.2010 C   0  0  0  0  0
  -36.5690   -3.3530    5.3320 N   0  0  0  0  0
  -34.5290   -2.4000    4.7580 C   0  0  0  0  0
  -36.2640   -3.1410    8.1170 N   0  0  0  0  0
  -36.4340   -3.3090    3.9930 C   0  0  0  0  0
  -37.4350   -3.7220    7.5740 N   0  0  0  0  0
  -35.2390   -2.7530    3.6370 C   0  0  0  0  0
  -36.3210   -3.0910    9.6030 C   0  0  0  0  0
  -37.1700   -3.6630    2.8270 C   0  0  0  0  0
  -34.8740   -2.6210    1.9700 S   0  0  0  0  0
  -35.1680   -3.7720   10.3570 C   0  0  0  0  0
  -36.4670   -3.3450    1.6960 C   0  0  0  0  0
  -34.5210   -2.9790   11.2450 N   0  0  0  0  0
  -34.4440   -4.2910   15.3420 N   0  3  0  0  0
  -38.8992   -5.5051    6.2478 H   0  0  0  0  0
  -39.7156   -3.9228    6.2173 H   0  0  0  0  0
  -38.8869   -4.5254    4.7608 H   0  0  0  0  0
  -32.6734   -4.7228   13.5904 H   0  0  0  0  0
  -33.7142   -5.4537   12.2713 H   0  0  0  0  0
  -32.5371   -3.5281   11.4440 H   0  0  0  0  0
  -33.2535   -2.5171   12.8125 H   0  0  0  0  0
  -35.2342   -5.5904   13.8959 H   0  0  0  0  0
  -35.4477   -3.8050   13.5643 H   0  0  0  0  0
  -34.6148   -2.2710   14.8141 H   0  0  0  0  0
  -34.3357   -2.6205   16.6014 H   0  0  0  0  0
  -35.6579   -5.8641   16.0451 H   0  0  0  0  0
  -35.0853   -4.6981   17.3081 H   0  0  0  0  0
  -31.9956   -3.0928   16.1118 H   0  0  0  0  0
  -32.2654   -2.7550   14.3843 H   0  0  0  0  0
  -32.4258   -1.4477   15.5829 H   0  0  0  0  0
  -36.6448   -3.0075   16.4322 H   0  0  0  0  0
  -37.2076   -4.1535   15.1908 H   0  0  0  0  0
  -37.5173   -4.4835   16.9131 H   0  0  0  0  0
  -33.5430   -1.9375    4.8038 H   0  0  0  0  0
  -37.2263   -3.6268    9.8884 H   0  0  0  0  0
  -36.2753   -2.0355    9.8714 H   0  0  0  0  0
  -38.1577   -4.1240    2.8337 H   0  0  0  0  0
  -36.8607   -3.5250    0.6956 H   0  0  0  0  0
  -34.8621   -2.0211   11.3258 H   0  0  0  0  0
  -33.5876   -4.8032   15.5534 H   0  0  0  0  0
  2  1  1  0  0  0
  1 14  4  0  0  0
  1 15  4  0  0  0
  2  4  2  0  0  0
 16  2  1  0  0  0
  3  6  1  0  0  0
  3 14  1  0  0  0
 18  3  2  0  0  0
 23  5  2  0  0  0
  8  7  1  0  0  0
  7  9  1  0  0  0
 25  8  1  0  0  0
  9 26  1  0  0  0
 10 12  1  0  0  0
 26 10  1  0  0  0
 11 13  1  0  0  0
 26 11  1  0  0  0
 14 17  4  0  0  0
 15 19  4  0  0  0
 16 18  1  0  0  0
 20 16  1  0  0  0
 17 19  4  0  0  0
 17 21  4  0  0  0
 19 22  4  0  0  0
 23 20  1  0  0  0
 21 24  4  0  0  0
 22 24  4  0  0  0
 23 25  1  0  0  0
  6 27  1  0  0  0
  6 28  1  0  0  0
  6 29  1  0  0  0
  7 30  1  0  0  0
  7 31  1  0  0  0
  8 32  1  0  0  0
  8 33  1  0  0  0
  9 34  1  0  0  0
  9 35  1  0  0  0
 10 36  1  0  0  0
 10 37  1  0  0  0
 11 38  1  0  0  0
 11 39  1  0  0  0
 12 40  1  0  0  0
 12 41  1  0  0  0
 12 42  1  0  0  0
 13 43  1  0  0  0
 13 44  1  0  0  0
 13 45  1  0  0  0
 15 46  1  0  0  0
 20 47  1  0  0  0
 20 48  1  0  0  0
 21 49  1  0  0  0
 24 50  1  0  0  0
 25 51  1  0  0  0
 26 52  1  0  0  0
M  END
$$$$
