### 
### Created by X-TOOL on Mon Aug  2 16:10:25 2021
### 

@<TRIPOS>MOLECULE
5n7b_ligand
  120   122     1     0     0
SMALL
GAST_HUCK


@<TRIPOS>ATOM
      1 N         -12.1440   15.5910   -2.1820 N.4       1 ALA         0.2377
      2 CA        -12.7210   14.2560   -2.4280 C.3       1 ALA         0.0623
      3 C         -13.1080   14.0800   -3.8950 C.2       1 ALA         0.2289
      4 O         -13.2910   15.0490   -4.6250 O.2       1 ALA        -0.3905
      5 CB        -14.0040   14.0550   -1.6150 C.3       1 ALA        -0.0040
      6 N         -13.2870   12.8050   -4.2790 N.am      1 ALA        -0.2471
      7 CA        -13.7560   12.3390   -5.6080 C.3       1 ALA         0.1339
      8 C         -15.1760   12.4650   -5.6710 C.2       1 ALA         0.2042
      9 O         -15.7850   13.1880   -4.8740 O.2       1 ALA        -0.3944
     10 CB        -13.3080   10.8970   -5.6620 C.3       1 ALA        -0.0104
     11 CG        -13.3380   10.4480   -4.2120 C.3       1 ALA        -0.0281
     12 CD        -13.0550   11.7070   -3.3700 C.3       1 ALA         0.0371
     13 N         -15.8080   11.7630   -6.6400 N.am      1 ALA        -0.2622
     14 CA        -17.2770   11.8200   -6.8260 C.3       1 ALA         0.1423
     15 C         -17.9570   10.9810   -5.7530 C.2       1 ALA         0.2056
     16 O         -18.1440    9.7830   -5.9370 O.2       1 ALA        -0.3943
     17 CB        -17.6440   11.2230   -8.1660 C.3       1 ALA         0.0406
     18 CG        -19.1160   11.6000   -8.4260 C.2       1 ALA         0.0393
     19 OD1       -19.6070   11.2210   -9.5190 O.co2     1 ALA        -0.5688
     20 OD2       -19.7130   12.2440   -7.5350 O.co2     1 ALA        -0.5688
     21 O         -21.0620   10.5810   -2.5480 O.2       1 ALA        -0.3943
     22 C         -20.4340   10.9420   -3.5410 C.2       1 ALA         0.2050
     23 CA        -18.9110   10.8690   -3.5270 C.3       1 ALA         0.1425
     24 N         -18.3120   11.6310   -4.6330 N.am      1 ALA        -0.2625
     25 CB        -18.3650   11.3260   -2.1570 C.3       1 ALA         0.0451
     26 SG        -18.4390   13.0970   -1.9150 S.3       1 ALA        -0.1195
     27 CM        -16.9020   10.8840   -2.0430 C.3       1 ALA        -0.0489
     28 N         -21.0310   11.3960   -4.6560 N.am      1 ALA        -0.2637
     29 CA        -22.5010   11.4220   -4.6450 C.3       1 ALA         0.1313
     30 C         -22.9780    9.9790   -4.8960 C.2       1 ALA         0.2064
     31 O         -22.4490    9.2270   -5.7140 O.2       1 ALA        -0.3942
     32 CB        -23.1420   12.4720   -5.5610 C.3       1 ALA        -0.0092
     33 CG        -23.8310   11.7370   -6.7130 C.3       1 ALA        -0.0156
     34 CD        -24.8160   12.7410   -7.3480 C.3       1 ALA         0.0627
     35 NE        -24.8710   13.9600   -6.5420 N.pl3     1 ALA        -0.2723
     36 CZ        -25.1700   15.2920   -7.4560 C.cat     1 ALA         0.2882
     37 NH1       -25.4010   16.6020   -6.9240 N.pl3     1 ALA        -0.2849
     38 NH2       -25.1440   15.0940   -8.8650 N.pl3     1 ALA        -0.2849
     39 N         -23.9230    9.5810   -4.0460 N.am      1 ALA        -0.2498
     40 CA        -24.5320    8.2360   -4.0620 C.3       1 ALA         0.1334
     41 C         -24.9810    7.9520   -5.3490 C.2       1 ALA         0.1994
     42 O         -25.6480    8.7690   -5.9880 O.2       1 ALA        -0.3947
     43 CB        -25.6770    8.3490   -3.0860 C.3       1 ALA        -0.0104
     44 CG        -25.1650    9.3990   -2.1350 C.3       1 ALA        -0.0281
     45 CD        -24.5310   10.4440   -3.0370 C.3       1 ALA         0.0369
     46 N         -24.5900    6.7770   -5.8250 N.am      1 ALA        -0.2990
     47 O         -20.6010   13.2360   -0.3460 O.3       1 ALA        -0.3556
     48 C1        -20.1850   13.3940   -1.6850 C.3       1 ALA         0.1304
     49 C2        -20.1980   14.8390   -2.0780 C.3       1 ALA         0.1057
     50 N2        -19.6790   14.7940   -3.4510 N.am      1 ALA        -0.2782
     51 C3        -19.2540   15.6350   -1.1360 C.3       1 ALA         0.1095
     52 O3        -19.5180   17.0470   -1.2190 O.3       1 ALA        -0.3867
     53 C4        -19.3880   15.1850    0.3360 C.3       1 ALA         0.1115
     54 O4        -20.5650   15.7550    0.9280 O.3       1 ALA        -0.3865
     55 C5        -19.4670   13.6620    0.3950 C.3       1 ALA         0.1114
     56 C6        -19.5890   13.1420    1.8090 C.3       1 ALA         0.0730
     57 O6        -18.2420   12.7000    2.0460 O.3       1 ALA        -0.3924
     58 C7        -19.9580   15.6840   -4.4130 C.2       1 ALA         0.1733
     59 O7        -20.6560   16.6900   -4.2750 O.2       1 ALA        -0.3974
     60 C8        -19.2840   15.3460   -5.7470 C.3       1 ALA         0.0257
     61 H1        -11.8992   15.6769   -1.2080 H         1 ALA         0.2015
     62 H2        -12.8203   16.2988   -2.4221 H         1 ALA         0.2015
     63 H3        -11.3182   15.7096   -2.7477 H         1 ALA         0.2015
     64 H4        -11.9800   13.4932   -2.1468 H         1 ALA         0.1095
     65 H5        -14.4127   13.0538   -1.8166 H         1 ALA         0.0310
     66 H6        -14.7432   14.8174   -1.9020 H         1 ALA         0.0310
     67 H7        -13.7773   14.1494   -0.5428 H         1 ALA         0.0310
     68 H8        -13.2963   12.9196   -6.4213 H         1 ALA         0.0802
     69 H9        -12.2913   10.8187   -6.0745 H         1 ALA         0.0313
     70 H10       -13.9984   10.2957   -6.2717 H         1 ALA         0.0313
     71 H11       -12.5650    9.6864   -4.0319 H         1 ALA         0.0287
     72 H12       -14.3258   10.0345   -3.9605 H         1 ALA         0.0287
     73 H13       -13.7387   11.7622   -2.5100 H         1 ALA         0.0524
     74 H14       -12.0148   11.7106   -3.0123 H         1 ALA         0.0524
     75 H15       -15.2655   11.1865   -7.2510 H         1 ALA         0.1884
     76 H16       -17.6199   12.8636   -6.7680 H         1 ALA         0.0819
     77 H17       -17.5313   10.1291   -8.1382 H         1 ALA         0.0478
     78 H18       -17.0005   11.6379   -8.9558 H         1 ALA         0.0478
     79 H19       -18.6275    9.8151   -3.6643 H         1 ALA         0.0811
     80 H20       -18.1713   12.6178   -4.5522 H         1 ALA         0.1884
     81 H21       -18.9572   10.8410   -1.3670 H         1 ALA         0.0458
     82 H22       -16.4975   11.2025   -1.0709 H         1 ALA         0.0242
     83 H23       -16.3159   11.3437   -2.8524 H         1 ALA         0.0242
     84 H24       -16.8425    9.7886   -2.1238 H         1 ALA         0.0242
     85 H25       -20.5042   11.6996   -5.4499 H         1 ALA         0.1883
     86 H26       -22.8102   11.6927   -3.6247 H         1 ALA         0.0800
     87 H27       -22.3671   13.1444   -5.9576 H         1 ALA         0.0313
     88 H28       -23.8821   13.0581   -4.9964 H         1 ALA         0.0313
     89 H29       -24.3752   10.8600   -6.3326 H         1 ALA         0.0301
     90 H30       -23.0872   11.4132   -7.4559 H         1 ALA         0.0301
     91 H31       -25.8178   12.2893   -7.3952 H         1 ALA         0.0689
     92 H32       -24.4780   12.9906   -8.3646 H         1 ALA         0.0689
     93 H33       -24.7379   13.9810   -5.5209 H         1 ALA         0.2642
     94 H34       -25.5824   17.3915   -7.5601 H         1 ALA         0.2615
     95 H35       -25.3857   16.7543   -5.9054 H         1 ALA         0.2615
     96 H36       -24.9781   14.1531   -9.2499 H         1 ALA         0.2615
     97 H37       -25.2911   15.8916   -9.4999 H         1 ALA         0.2615
     98 H38       -23.8152    7.4668   -3.7386 H         1 ALA         0.0802
     99 H39       -25.8594    7.3950   -2.5696 H         1 ALA         0.0313
    100 H40       -26.5998    8.6772   -3.5867 H         1 ALA         0.0313
    101 H41       -24.4190    8.9725   -1.4483 H         1 ALA         0.0287
    102 H42       -25.9911    9.8350   -1.5541 H         1 ALA         0.0287
    103 H43       -25.2846   11.1148   -3.4753 H         1 ALA         0.0524
    104 H44       -23.7765   11.0397   -2.5024 H         1 ALA         0.0524
    105 H45       -24.8671    6.4920   -6.7426 H         1 ALA         0.1815
    106 H46       -24.0181    6.1764   -5.2662 H         1 ALA         0.1815
    107 H47       -20.8049   12.7678   -2.3434 H         1 ALA         0.0737
    108 H48       -21.2116   15.2650   -2.0448 H         1 ALA         0.0617
    109 H49       -19.0681   14.0383   -3.6870 H         1 ALA         0.1856
    110 H50       -18.2189   15.4526   -1.4604 H         1 ALA         0.0644
    111 H51       -20.4176   17.2153   -0.9644 H         1 ALA         0.2100
    112 H52       -18.5047   15.5235    0.8974 H         1 ALA         0.0647
    113 H53       -20.5062   16.7026    0.8976 H         1 ALA         0.2100
    114 H54       -18.5554   13.2439   -0.0569 H         1 ALA         0.0646
    115 H55       -20.3061   12.3105    1.8749 H         1 ALA         0.0584
    116 H56       -19.8840   13.9371    2.5095 H         1 ALA         0.0584
    117 H57       -18.1774   12.3410    2.9232 H         1 ALA         0.2095
    118 H58       -19.5483   16.1082   -6.4948 H         1 ALA         0.0467
    119 H59       -19.6274   14.3595   -6.0918 H         1 ALA         0.0467
    120 H60       -18.1925   15.3278   -5.6121 H         1 ALA         0.0467
@<TRIPOS>BOND
     1    2    1 1  
     2    3    2 1  
     3    2    5 1  
     4    3    4 2  
     5    6    3 am 
     6    7    6 1  
     7    6   12 1  
     8    8    7 1  
     9    7   10 1  
    10    8    9 2  
    11   13    8 am 
    12   10   11 1  
    13   11   12 1  
    14   14   13 1  
    15   15   14 1  
    16   14   17 1  
    17   15   16 2  
    18   24   15 am 
    19   17   18 1  
    20   18   19 ar 
    21   18   20 ar 
    22   22   21 2  
    23   23   22 1  
    24   22   28 am 
    25   23   24 1  
    26   23   25 1  
    27   25   26 1  
    28   25   27 1  
    29   26   48 1  
    30   28   29 1  
    31   29   30 1  
    32   29   32 1  
    33   30   31 2  
    34   30   39 am 
    35   32   33 1  
    36   33   34 1  
    37   34   35 1  
    38   35   36 ar 
    39   36   37 ar 
    40   36   38 ar 
    41   39   40 1  
    42   39   45 1  
    43   40   41 1  
    44   40   43 1  
    45   41   42 2  
    46   41   46 am 
    47   43   44 1  
    48   44   45 1  
    49   48   47 1  
    50   47   55 1  
    51   48   49 1  
    52   49   50 1  
    53   49   51 1  
    54   50   58 am 
    55   51   52 1  
    56   51   53 1  
    57   53   54 1  
    58   53   55 1  
    59   55   56 1  
    60   56   57 1  
    61   58   59 2  
    62   58   60 1  
    63    1   61 1  
    64    1   62 1  
    65    1   63 1  
    66    2   64 1  
    67    5   65 1  
    68    5   66 1  
    69    5   67 1  
    70    7   68 1  
    71   10   69 1  
    72   10   70 1  
    73   11   71 1  
    74   11   72 1  
    75   12   73 1  
    76   12   74 1  
    77   13   75 1  
    78   14   76 1  
    79   17   77 1  
    80   17   78 1  
    81   23   79 1  
    82   24   80 1  
    83   25   81 1  
    84   27   82 1  
    85   27   83 1  
    86   27   84 1  
    87   28   85 1  
    88   29   86 1  
    89   32   87 1  
    90   32   88 1  
    91   33   89 1  
    92   33   90 1  
    93   34   91 1  
    94   34   92 1  
    95   35   93 1  
    96   37   94 1  
    97   37   95 1  
    98   38   96 1  
    99   38   97 1  
   100   40   98 1  
   101   43   99 1  
   102   43  100 1  
   103   44  101 1  
   104   44  102 1  
   105   45  103 1  
   106   45  104 1  
   107   46  105 1  
   108   46  106 1  
   109   48  107 1  
   110   49  108 1  
   111   50  109 1  
   112   51  110 1  
   113   52  111 1  
   114   53  112 1  
   115   54  113 1  
   116   55  114 1  
   117   56  115 1  
   118   56  116 1  
   119   57  117 1  
   120   60  118 1  
   121   60  119 1  
   122   60  120 1  
@<TRIPOS>SUBSTRUCTURE
     1 ALA         1

