5n7b_ligand
  -I-interpret- 

120122  0  0  0  0  0  0  0  0999 V2000
  -12.1440   15.5910   -2.1820 N   0  3  0  0  0
  -12.7210   14.2560   -2.4280 C   0  0  0  0  0
  -13.1080   14.0800   -3.8950 C   0  0  0  0  0
  -13.2910   15.0490   -4.6250 O   0  0  0  0  0
  -14.0040   14.0550   -1.6150 C   0  0  0  0  0
  -13.2870   12.8050   -4.2790 N   0  0  0  0  0
  -13.7560   12.3390   -5.6080 C   0  0  0  0  0
  -15.1760   12.4650   -5.6710 C   0  0  0  0  0
  -15.7850   13.1880   -4.8740 O   0  0  0  0  0
  -13.3080   10.8970   -5.6620 C   0  0  0  0  0
  -13.3380   10.4480   -4.2120 C   0  0  0  0  0
  -13.0550   11.7070   -3.3700 C   0  0  0  0  0
  -15.8080   11.7630   -6.6400 N   0  0  0  0  0
  -17.2770   11.8200   -6.8260 C   0  0  0  0  0
  -17.9570   10.9810   -5.7530 C   0  0  0  0  0
  -18.1440    9.7830   -5.9370 O   0  0  0  0  0
  -17.6440   11.2230   -8.1660 C   0  0  0  0  0
  -19.1160   11.6000   -8.4260 C   0  0  0  0  0
  -19.6070   11.2210   -9.5190 O   0  0  0  0  0
  -19.7130   12.2440   -7.5350 O   0  0  0  0  0
  -21.0620   10.5810   -2.5480 O   0  0  0  0  0
  -20.4340   10.9420   -3.5410 C   0  0  0  0  0
  -18.9110   10.8690   -3.5270 C   0  0  0  0  0
  -18.3120   11.6310   -4.6330 N   0  0  0  0  0
  -18.3650   11.3260   -2.1570 C   0  0  0  0  0
  -18.4390   13.0970   -1.9150 S   0  0  0  0  0
  -16.9020   10.8840   -2.0430 C   0  0  0  0  0
  -21.0310   11.3960   -4.6560 N   0  0  0  0  0
  -22.5010   11.4220   -4.6450 C   0  0  0  0  0
  -22.9780    9.9790   -4.8960 C   0  0  0  0  0
  -22.4490    9.2270   -5.7140 O   0  0  0  0  0
  -23.1420   12.4720   -5.5610 C   0  0  0  0  0
  -23.8310   11.7370   -6.7130 C   0  0  0  0  0
  -24.8160   12.7410   -7.3480 C   0  0  0  0  0
  -24.8710   13.9600   -6.5420 N   0  0  0  0  0
  -25.1700   15.2920   -7.4560 C   0  0  0  0  0
  -25.4010   16.6020   -6.9240 N   0  0  0  0  0
  -25.1440   15.0940   -8.8650 N   0  0  0  0  0
  -23.9230    9.5810   -4.0460 N   0  0  0  0  0
  -24.5320    8.2360   -4.0620 C   0  0  0  0  0
  -24.9810    7.9520   -5.3490 C   0  0  0  0  0
  -25.6480    8.7690   -5.9880 O   0  0  0  0  0
  -25.6770    8.3490   -3.0860 C   0  0  0  0  0
  -25.1650    9.3990   -2.1350 C   0  0  0  0  0
  -24.5310   10.4440   -3.0370 C   0  0  0  0  0
  -24.5900    6.7770   -5.8250 N   0  0  0  0  0
  -20.6010   13.2360   -0.3460 O   0  0  0  0  0
  -20.1850   13.3940   -1.6850 C   0  0  0  0  0
  -20.1980   14.8390   -2.0780 C   0  0  0  0  0
  -19.6790   14.7940   -3.4510 N   0  0  0  0  0
  -19.2540   15.6350   -1.1360 C   0  0  0  0  0
  -19.5180   17.0470   -1.2190 O   0  0  0  0  0
  -19.3880   15.1850    0.3360 C   0  0  0  0  0
  -20.5650   15.7550    0.9280 O   0  0  0  0  0
  -19.4670   13.6620    0.3950 C   0  0  0  0  0
  -19.5890   13.1420    1.8090 C   0  0  0  0  0
  -18.2420   12.7000    2.0460 O   0  0  0  0  0
  -19.9580   15.6840   -4.4130 C   0  0  0  0  0
  -20.6560   16.6900   -4.2750 O   0  0  0  0  0
  -19.2840   15.3460   -5.7470 C   0  0  0  0  0
  -11.2929   15.6991   -2.7337 H   0  0  0  0  0
  -12.8188   16.3067   -2.4519 H   0  0  0  0  0
  -11.9227   15.6871   -1.1909 H   0  0  0  0  0
  -11.9556   13.5353   -2.1402 H   0  0  0  0  0
  -14.7434   14.7972   -1.9160 H   0  0  0  0  0
  -14.3960   13.0546   -1.7986 H   0  0  0  0  0
  -13.7822   14.1707   -0.5541 H   0  0  0  0  0
  -13.3612   12.9086   -6.4493 H   0  0  0  0  0
  -12.3192   10.7882   -6.1077 H   0  0  0  0  0
  -13.9520   10.2879   -6.2963 H   0  0  0  0  0
  -12.5952    9.6728   -4.0239 H   0  0  0  0  0
  -14.3025   10.0103   -3.9547 H   0  0  0  0  0
  -13.6936   11.7627   -2.4884 H   0  0  0  0  0
  -12.0411   11.7132   -2.9699 H   0  0  0  0  0
  -15.2547   11.1749   -7.2632 H   0  0  0  0  0
  -17.5962   12.8605   -6.7670 H   0  0  0  0  0
  -17.5140   10.1408   -8.1594 H   0  0  0  0  0
  -16.9977   11.6083   -8.9546 H   0  0  0  0  0
  -18.9399   10.7471  -10.0210 H   0  0  0  0  0
  -18.6239    9.8286   -3.6792 H   0  0  0  0  0
  -18.1685   12.6375   -4.5506 H   0  0  0  0  0
  -18.9952   10.8693   -1.3939 H   0  0  0  0  0
  -16.8444    9.7985   -2.1232 H   0  0  0  0  0
  -16.3224   11.3402   -2.8455 H   0  0  0  0  0
  -16.5023   11.2001   -1.0795 H   0  0  0  0  0
  -20.4937   11.7057   -5.4658 H   0  0  0  0  0
  -22.8468   11.7648   -3.6698 H   0  0  0  0  0
  -22.3807   13.1492   -5.9481 H   0  0  0  0  0
  -23.8681   13.0645   -5.0044 H   0  0  0  0  0
  -24.3549   10.8517   -6.3527 H   0  0  0  0  0
  -23.1021   11.3897   -7.4453 H   0  0  0  0  0
  -25.8087   12.2930   -7.3913 H   0  0  0  0  0
  -24.4780   12.9896   -8.3540 H   0  0  0  0  0
  -24.7392   13.9808   -5.5308 H   0  0  0  0  0
  -25.5464   17.3903   -7.5548 H   0  0  0  0  0
  -25.4201   16.7464   -5.9145 H   0  0  0  0  0
  -24.9484   14.1684   -9.2464 H   0  0  0  0  0
  -23.8460    7.4342   -3.7886 H   0  0  0  0  0
  -25.9274    7.4066   -2.5989 H   0  0  0  0  0
  -26.6242    8.6133   -3.5561 H   0  0  0  0  0
  -24.4541    8.9908   -1.4166 H   0  0  0  0  0
  -25.9604    9.8171   -1.5180 H   0  0  0  0  0
  -25.2326   11.1760   -3.4371 H   0  0  0  0  0
  -23.8283   11.1060   -2.5310 H   0  0  0  0  0
  -24.8404    6.5027   -6.7750 H   0  0  0  0  0
  -24.0390    6.1479   -5.2410 H   0  0  0  0  0
  -20.8457   12.7211   -2.2316 H   0  0  0  0  0
  -21.1719   15.3240   -2.0117 H   0  0  0  0  0
  -19.0559   14.0231   -3.6917 H   0  0  0  0  0
  -18.2371   15.4294   -1.4701 H   0  0  0  0  0
  -18.9241   17.5176   -0.6296 H   0  0  0  0  0
  -18.5164   15.5288    0.8930 H   0  0  0  0  0
  -20.6343   15.4666    1.8410 H   0  0  0  0  0
  -18.5419   13.2664   -0.0242 H   0  0  0  0  0
  -20.3408   12.3625    1.9326 H   0  0  0  0  0
  -19.9466   13.8817    2.5253 H   0  0  0  0  0
  -18.1767   12.3372    2.9324 H   0  0  0  0  0
  -20.0458   15.2247   -6.5171 H   0  0  0  0  0
  -18.6086   16.1546   -6.0265 H   0  0  0  0  0
  -18.7198   14.4192   -5.6430 H   0  0  0  0  0
  2  1  1  0  0  0
  3  2  1  0  0  0
  2  5  1  0  0  0
  3  4  2  0  0  0
  6  3  1  0  0  0
  7  6  1  0  0  0
  6 12  1  0  0  0
  8  7  1  0  0  0
  7 10  1  0  0  0
  8  9  2  0  0  0
 13  8  1  0  0  0
 10 11  1  0  0  0
 11 12  1  0  0  0
 14 13  1  0  0  0
 15 14  1  0  0  0
 14 17  1  0  0  0
 15 16  2  0  0  0
 24 15  1  0  0  0
 17 18  1  0  0  0
 18 19  1  0  0  0
 18 20  2  0  0  0
 22 21  2  0  0  0
 23 22  1  0  0  0
 22 28  1  0  0  0
 23 24  1  0  0  0
 23 25  1  0  0  0
 25 26  1  0  0  0
 25 27  1  0  0  0
 26 48  1  0  0  0
 28 29  1  0  0  0
 29 30  1  0  0  0
 29 32  1  0  0  0
 30 31  2  0  0  0
 30 39  1  0  0  0
 32 33  1  0  0  0
 33 34  1  0  0  0
 34 35  1  0  0  0
 35 36  1  0  0  0
 36 37  1  0  0  0
 36 38  2  0  0  0
 39 40  1  0  0  0
 39 45  1  0  0  0
 40 41  1  0  0  0
 40 43  1  0  0  0
 41 42  2  0  0  0
 41 46  1  0  0  0
 43 44  1  0  0  0
 44 45  1  0  0  0
 48 47  1  0  0  0
 47 55  1  0  0  0
 48 49  1  0  0  0
 49 50  1  0  0  0
 49 51  1  0  0  0
 50 58  1  0  0  0
 51 52  1  0  0  0
 51 53  1  0  0  0
 53 54  1  0  0  0
 53 55  1  0  0  0
 55 56  1  0  0  0
 56 57  1  0  0  0
 58 59  2  0  0  0
 58 60  1  0  0  0
  1 61  1  0  0  0
  1 62  1  0  0  0
  1 63  1  0  0  0
  2 64  1  0  0  0
  5 65  1  0  0  0
  5 66  1  0  0  0
  5 67  1  0  0  0
  7 68  1  0  0  0
 10 69  1  0  0  0
 10 70  1  0  0  0
 11 71  1  0  0  0
 11 72  1  0  0  0
 12 73  1  0  0  0
 12 74  1  0  0  0
 13 75  1  0  0  0
 14 76  1  0  0  0
 17 77  1  0  0  0
 17 78  1  0  0  0
 19 79  1  0  0  0
 23 80  1  0  0  0
 24 81  1  0  0  0
 25 82  1  0  0  0
 27 83  1  0  0  0
 27 84  1  0  0  0
 27 85  1  0  0  0
 28 86  1  0  0  0
 29 87  1  0  0  0
 32 88  1  0  0  0
 32 89  1  0  0  0
 33 90  1  0  0  0
 33 91  1  0  0  0
 34 92  1  0  0  0
 34 93  1  0  0  0
 35 94  1  0  0  0
 37 95  1  0  0  0
 37 96  1  0  0  0
 38 97  1  0  0  0
 40 98  1  0  0  0
 43 99  1  0  0  0
 43100  1  0  0  0
 44101  1  0  0  0
 44102  1  0  0  0
 45103  1  0  0  0
 45104  1  0  0  0
 46105  1  0  0  0
 46106  1  0  0  0
 48107  1  0  0  0
 49108  1  0  0  0
 50109  1  0  0  0
 51110  1  0  0  0
 52111  1  0  0  0
 53112  1  0  0  0
 54113  1  0  0  0
 55114  1  0  0  0
 56115  1  0  0  0
 56116  1  0  0  0
 57117  1  0  0  0
 60118  1  0  0  0
 60119  1  0  0  0
 60120  1  0  0  0
M  END
$$$$
