5x54_ligand
  -I-interpret- 

 93 98  0  0  0  0  0  0  0  0999 V2000
  -10.2170   13.5970    2.3040 C   0  0  0  0  0
  -10.2460   14.4600    3.1570 O   0  0  0  0  0
  -10.7380   12.2160    2.6120 C   0  0  0  0  0
   -9.9090   13.8270    1.0390 N   0  0  0  0  0
   -9.1770   15.0470    0.6080 C   0  0  0  0  0
  -10.2900   15.9240    0.0290 C   0  0  0  0  0
  -10.4670   15.9920   -1.1830 O   0  0  0  0  0
   -8.1110   14.7240   -0.4290 C   0  0  0  0  0
   -6.9430   13.9390    0.1140 C   0  0  0  0  0
   -5.9030   13.5980   -0.9280 C   0  0  0  0  0
   -5.7170   14.3670   -1.8990 O   0  0  0  0  0
   -5.2760   12.5260   -0.7890 O   0  0  0  0  0
  -11.0610   16.5540    0.9150 N   0  0  0  0  0
  -12.2500   17.3480    0.5250 C   0  0  0  0  0
  -11.8900   18.6730   -0.1020 C   0  0  0  0  0
  -12.7120   19.3170   -0.7140 O   0  0  0  0  0
  -13.1480   17.6100    1.7380 C   0  0  0  0  0
  -12.4060   18.2520    2.8570 C   0  0  0  0  0
  -11.7370   17.6200    3.8700 C   0  0  0  0  0
  -12.1860   19.6460    3.0420 C   0  0  0  0  0
  -11.1290   18.5350    4.6730 N   0  0  0  0  0
  -11.4020   19.7920    4.2000 C   0  0  0  0  0
  -12.5880   20.7890    2.3500 C   0  0  0  0  0
  -11.0130   21.0460    4.6940 C   0  0  0  0  0
  -12.1870   22.0450    2.8400 C   0  0  0  0  0
  -11.4150   22.1560    4.0050 C   0  0  0  0  0
  -10.6300   19.0510    0.0250 N   0  0  0  0  0
  -10.1640   20.4100   -0.2210 C   0  0  0  0  0
   -9.7120   20.6750   -1.6510 C   0  0  0  0  0
   -9.0420   21.6680   -1.8940 O   0  0  0  0  0
   -9.0280   20.7260    0.7560 C   0  0  0  0  0
   -7.9080   19.7800    0.6940 C   0  0  0  0  0
   -6.9340   19.7170   -0.2610 C   0  0  0  0  0
   -7.6530   18.7160    1.6030 C   0  0  0  0  0
   -6.0650   18.6880    0.0200 N   0  0  0  0  0
   -6.4900   18.0560    1.1600 C   0  0  0  0  0
   -8.2910   18.2560    2.7510 C   0  0  0  0  0
   -5.9490   16.9700    1.8390 C   0  0  0  0  0
   -7.7480   17.1780    3.4340 C   0  0  0  0  0
   -6.5890   16.5520    2.9830 C   0  0  0  0  0
  -10.0670   19.7850   -2.5850 N   0  0  0  0  0
   -9.9250   20.0320   -4.0320 C   0  0  0  0  0
  -10.8590   19.1740   -4.8490 C   0  0  0  0  0
  -11.0110   19.4040   -6.0660 O   0  0  0  0  0
   -8.4840   19.8530   -4.5350 C   0  0  0  0  0
   -7.7740   18.5320   -4.3260 C   0  0  0  0  0
   -7.8380   17.6990   -3.2380 C   0  0  0  0  0
   -6.7910   17.9510   -5.2040 C   0  0  0  0  0
   -6.9870   16.6410   -3.4030 N   0  0  0  0  0
   -6.3260   16.7740   -4.5920 C   0  0  0  0  0
   -6.2760   18.3110   -6.4560 C   0  0  0  0  0
   -5.3700   15.9400   -5.1920 C   0  0  0  0  0
   -5.3030   17.5030   -7.0460 C   0  0  0  0  0
   -4.8660   16.3200   -6.4170 C   0  0  0  0  0
  -11.4740   18.2470   -4.2980 O   0  0  0  0  0
  -10.1689   11.7903    3.4385 H   0  0  0  0  0
  -11.7904   12.2794    2.8885 H   0  0  0  0  0
  -10.6300   11.5834    1.7309 H   0  0  0  0  0
  -10.1834   13.1431    0.3337 H   0  0  0  0  0
   -8.6309   15.5309    1.4178 H   0  0  0  0  0
   -7.7197   15.6728   -0.7961 H   0  0  0  0  0
   -8.5829   14.1111   -1.1970 H   0  0  0  0  0
   -7.3347   12.9992    0.5031 H   0  0  0  0  0
   -6.4574   14.5575    0.8688 H   0  0  0  0  0
   -6.2947   15.1294   -1.8172 H   0  0  0  0  0
  -10.8224   16.4867    1.9044 H   0  0  0  0  0
  -12.7785   16.7515   -0.2186 H   0  0  0  0  0
  -13.5312   16.6522    2.0900 H   0  0  0  0  0
  -13.9472   18.2840    1.4296 H   0  0  0  0  0
  -11.6970   16.5401    4.0129 H   0  0  0  0  0
  -13.1986   20.7104    1.4505 H   0  0  0  0  0
  -10.4098   21.1324    5.5978 H   0  0  0  0  0
  -12.4816   22.9476    2.3047 H   0  0  0  0  0
  -11.1306   23.1439    4.3674 H   0  0  0  0  0
   -9.9447   18.3520    0.3115 H   0  0  0  0  0
  -11.0195   21.0669   -0.0637 H   0  0  0  0  0
   -9.4424   20.6714    1.7627 H   0  0  0  0  0
   -8.6370   21.7083    0.4908 H   0  0  0  0  0
   -6.8564   20.3839   -1.1197 H   0  0  0  0  0
   -9.2028   18.7352    3.1076 H   0  0  0  0  0
   -5.0510   16.4683    1.4783 H   0  0  0  0  0
   -8.2364   16.8150    4.3383 H   0  0  0  0  0
   -6.1804   15.7139    3.5476 H   0  0  0  0  0
  -10.4549   18.8919   -2.2813 H   0  0  0  0  0
  -10.1978   21.0783   -4.1698 H   0  0  0  0  0
  -10.4629   20.1499   -6.3204 H   0  0  0  0  0
   -7.9010   20.5722   -3.9597 H   0  0  0  0  0
   -8.5560   19.9578   -5.6176 H   0  0  0  0  0
   -8.4750   17.8574   -2.3678 H   0  0  0  0  0
   -6.6301   19.2091   -6.9620 H   0  0  0  0  0
   -5.0375   15.0229   -4.7057 H   0  0  0  0  0
   -4.8752   17.7908   -8.0064 H   0  0  0  0  0
   -4.1182   15.6963   -6.9068 H   0  0  0  0  0
  1  2  2  0  0  0
  1  3  1  0  0  0
  1  4  1  0  0  0
  4  5  1  0  0  0
  5  6  1  0  0  0
  5  8  1  0  0  0
  6  7  2  0  0  0
  6 13  1  0  0  0
  8  9  1  0  0  0
  9 10  1  0  0  0
 10 11  1  0  0  0
 10 12  2  0  0  0
 13 14  1  0  0  0
 14 15  1  0  0  0
 14 17  1  0  0  0
 15 16  2  0  0  0
 15 27  1  0  0  0
 17 18  1  0  0  0
 18 19  4  0  0  0
 18 20  4  0  0  0
 19 21  4  0  0  0
 20 22  4  0  0  0
 20 23  4  0  0  0
 21 22  4  0  0  0
 22 24  4  0  0  0
 23 25  4  0  0  0
 24 26  4  0  0  0
 25 26  4  0  0  0
 27 28  1  0  0  0
 28 29  1  0  0  0
 28 31  1  0  0  0
 29 30  2  0  0  0
 29 41  1  0  0  0
 31 32  1  0  0  0
 32 33  4  0  0  0
 32 34  4  0  0  0
 33 35  4  0  0  0
 34 36  4  0  0  0
 34 37  4  0  0  0
 35 36  4  0  0  0
 36 38  4  0  0  0
 37 39  4  0  0  0
 38 40  4  0  0  0
 39 40  4  0  0  0
 41 42  1  0  0  0
 42 43  1  0  0  0
 42 45  1  0  0  0
 43 44  1  0  0  0
 43 55  2  0  0  0
 45 46  1  0  0  0
 46 47  4  0  0  0
 46 48  4  0  0  0
 47 49  4  0  0  0
 48 50  4  0  0  0
 48 51  4  0  0  0
 49 50  4  0  0  0
 50 52  4  0  0  0
 51 53  4  0  0  0
 52 54  4  0  0  0
 53 54  4  0  0  0
  3 56  1  0  0  0
  3 57  1  0  0  0
  3 58  1  0  0  0
  4 59  1  0  0  0
  5 60  1  0  0  0
  8 61  1  0  0  0
  8 62  1  0  0  0
  9 63  1  0  0  0
  9 64  1  0  0  0
 11 65  1  0  0  0
 13 66  1  0  0  0
 14 67  1  0  0  0
 17 68  1  0  0  0
 17 69  1  0  0  0
 19 70  1  0  0  0
 23 71  1  0  0  0
 24 72  1  0  0  0
 25 73  1  0  0  0
 26 74  1  0  0  0
 27 75  1  0  0  0
 28 76  1  0  0  0
 31 77  1  0  0  0
 31 78  1  0  0  0
 33 79  1  0  0  0
 37 80  1  0  0  0
 38 81  1  0  0  0
 39 82  1  0  0  0
 40 83  1  0  0  0
 41 84  1  0  0  0
 42 85  1  0  0  0
 44 86  1  0  0  0
 45 87  1  0  0  0
 45 88  1  0  0  0
 47 89  1  0  0  0
 51 90  1  0  0  0
 52 91  1  0  0  0
 53 92  1  0  0  0
 54 93  1  0  0  0
M  END
$$$$
