### 
### Created by X-TOOL on Mon Sep 10 21:13:17 2018
### 

@<TRIPOS>MOLECULE
4u90_ligand
  153   155     1     0     0
SMALL
GAST_HUCK


@<TRIPOS>ATOM
      1 N          15.8520  112.8490  112.1740 N.4       1 PHE         0.2394
      2 CA         15.3420  113.8870  111.2830 C.3       1 PHE         0.0744
      3 C          15.9670  113.7110  109.9130 C.2       1 PHE         0.2289
      4 O          17.1140  113.3510  109.7950 O.2       1 PHE        -0.3905
      5 CB         15.7020  115.2840  111.7980 C.3       1 PHE         0.0416
      6 CG         15.2350  116.3910  110.8840 C.ar      1 PHE        -0.0353
      7 CD1        13.9450  116.8920  110.9940 C.ar      1 PHE        -0.0600
      8 CD2        16.0700  116.8870  109.8640 C.ar      1 PHE        -0.0600
      9 CE1        13.4890  117.8860  110.1250 C.ar      1 PHE        -0.0686
     10 CE2        15.6250  117.8800  109.0010 C.ar      1 PHE        -0.0686
     11 CZ         14.3330  118.3780  109.1330 C.ar      1 PHE        -0.0687
     12 N          15.1720  113.8860  108.8810 N.am      1 ASN        -0.2587
     13 CA         15.7050  114.0990  107.5510 C.3       1 ASN         0.1477
     14 C          14.7340  114.9620  106.7420 C.2       1 ASN         0.2063
     15 O          13.5150  114.8120  106.8730 O.2       1 ASN        -0.3942
     16 CB         15.9350  112.7600  106.8570 C.3       1 ASN         0.0773
     17 CG         17.0690  112.8030  105.8270 C.2       1 ASN         0.1780
     18 OD1        17.9560  111.9230  105.8200 O.2       1 ASN        -0.3970
     19 ND2        17.0360  113.7940  104.9410 N.am      1 ASN        -0.3007
     20 N          15.2880  115.8000  105.8860 N.am      1 ILE        -0.2633
     21 CA         14.5090  116.6760  105.0570 C.3       1 ILE         0.1335
     22 C          14.0080  115.9750  103.7820 C.2       1 ILE         0.2042
     23 O          13.0800  116.4370  103.1320 O.2       1 ILE        -0.3944
     24 CB         15.3080  117.9210  104.6990 C.3       1 ILE        -0.0037
     25 CG1        14.3720  118.9620  104.0670 C.3       1 ILE        -0.0491
     26 CG2        16.4340  117.5820  103.7490 C.3       1 ILE        -0.0582
     27 CD1        13.2940  119.4570  105.0040 C.3       1 ILE        -0.0648
     28 N          14.6400  114.8700  103.4290 N.am      1 VAL        -0.2635
     29 CA         14.1900  114.0390  102.3270 C.3       1 VAL         0.1332
     30 C          13.2590  112.9430  102.8500 C.2       1 VAL         0.2039
     31 O          13.5920  112.2730  103.7790 O.2       1 VAL        -0.3944
     32 CB         15.3800  113.4240  101.6000 C.3       1 VAL        -0.0063
     33 CG1        14.9230  112.3550  100.6390 C.3       1 VAL        -0.0584
     34 CG2        16.1700  114.5000  100.8840 C.3       1 VAL        -0.0584
     35 N          12.0860  112.7820  102.2380 N.am      1 GLY        -0.2664
     36 CA         11.1230  111.7600  102.6120 C.3       1 GLY         0.1201
     37 C          11.6470  110.3210  102.5850 C.2       1 GLY         0.2008
     38 O          12.4940  109.9800  101.7490 O.2       1 GLY        -0.3947
     39 N          11.1220  109.5130  103.5040 N.am      1 THR        -0.2616
     40 CA         11.4900  108.1150  103.6390 C.3       1 THR         0.1565
     41 C          10.3330  107.1370  103.3260 C.2       1 THR         0.2065
     42 O           9.1350  107.4950  103.2890 O.2       1 THR        -0.3943
     43 CB         11.8900  107.8130  105.0810 C.3       1 THR         0.0924
     44 OG1        10.7880  108.2010  105.9220 O.3       1 THR        -0.3874
     45 CG2        13.1520  108.5730  105.4860 C.3       1 THR        -0.0346
     46 N          10.6750  105.8630  103.1910 N.am      1 THR        -0.2613
     47 CA          9.6420  104.8390  103.2310 C.3       1 THR         0.1565
     48 C           9.5660  104.3460  104.6560 C.2       1 THR         0.2066
     49 O          10.4600  104.5660  105.4560 O.2       1 THR        -0.3943
     50 CB          9.9150  103.6590  102.2770 C.3       1 THR         0.0924
     51 OG1        11.2290  103.1830  102.4920 O.3       1 THR        -0.3874
     52 CG2         9.7940  104.1100  100.8440 C.3       1 THR        -0.0346
     53 N           8.4420  103.7610  105.0150 N.am      1 TYR        -0.2620
     54 CA          8.2570  103.2900  106.3850 C.3       1 TYR         0.1392
     55 C           8.7360  101.8370  106.5060 C.2       1 TYR         0.2082
     56 O           8.3990  101.0670  105.6330 O.2       1 TYR        -0.3940
     57 CB          6.7900  103.3790  106.6720 C.3       1 TYR         0.0164
     58 CG          6.3260  103.1730  108.1160 C.ar      1 TYR        -0.0493
     59 CD1         6.8740  103.8870  109.1480 C.ar      1 TYR        -0.0685
     60 CD2         5.3000  102.2600  108.4060 C.ar      1 TYR        -0.0685
     61 CE1         6.4320  103.7120  110.4220 C.ar      1 TYR        -0.0398
     62 CE2         4.8600  102.0640  109.6880 C.ar      1 TYR        -0.0398
     63 CZ          5.4160  102.8280  110.6810 C.ar      1 TYR         0.0805
     64 OH          4.9950  102.6500  111.9730 O.3       1 TYR        -0.3376
     65 N           9.5370  101.4980  107.5500 N.am      1 PRO        -0.2497
     66 CA         10.0480  100.1300  107.8110 C.3       1 PRO         0.1337
     67 C           9.0280   99.1850  108.4500 C.2       1 PRO         0.2036
     68 O           9.3010   98.0230  108.5210 O.2       1 PRO        -0.3944
     69 CB         11.1860  100.3460  108.8270 C.3       1 PRO        -0.0104
     70 CG         11.4300  101.8060  108.8620 C.3       1 PRO        -0.0281
     71 CD         10.1220  102.4540  108.4980 C.3       1 PRO         0.0369
     72 N           7.8790   99.6810  108.9090 N.am      1 CYS        -0.2687
     73 CA          7.0270   98.8920  109.7710 C.3       1 CYS         0.1030
     74 C           5.6120   98.7170  109.2390 C.2       1 CYS         0.0609
     75 O           4.7930   98.2530  110.0310 O.co2     1 CYS        -0.5666
     76 CB          6.9880   99.4750  111.1910 C.3       1 CYS         0.0256
     77 SG          8.6140   99.5450  111.9960 S.3       1 CYS        -0.1742
     78 OXT         5.2880   98.9720  108.0540 O.co2     1 CYS        -0.5666
     79 H          15.4410  112.9590  113.0878 H         1 PHE         0.2017
     80 H          16.8543  112.9294  112.2445 H         1 PHE         0.2017
     81 H          15.6127  111.9420  111.8049 H         1 PHE         0.2017
     82 H          14.2483  113.7959  111.2088 H         1 PHE         0.1122
     83 H          16.7956  115.3496  111.8967 H         1 PHE         0.0507
     84 H          15.2357  115.4244  112.7843 H         1 PHE         0.0507
     85 H          13.2844  116.5076  111.7627 H         1 PHE         0.0557
     86 H          17.0719  116.4890  109.7512 H         1 PHE         0.0557
     87 H          12.4812  118.2731  110.2227 H         1 PHE         0.0599
     88 H          16.2811  118.2649  108.2287 H         1 PHE         0.0599
     89 H          13.9817  119.1524  108.4607 H         1 PHE         0.0559
     90 H          14.1813  113.8718  109.0165 H         1 ASN         0.1886
     91 H          16.6673  114.6258  107.6317 H         1 ASN         0.0826
     92 H          15.0070  112.4678  106.3437 H         1 ASN         0.0551
     93 H          16.1841  112.0083  107.6205 H         1 ASN         0.0551
     94 H          17.7521  113.8683  104.2470 H         1 ASN         0.1814
     95 H          16.2950  114.4650  104.9687 H         1 ASN         0.1814
     96 H          16.2849  115.8257  105.8122 H         1 ILE         0.1883
     97 H          13.6279  116.9901  105.6358 H         1 ILE         0.0803
     98 H          15.7397  118.3419  105.6190 H         1 ILE         0.0345
     99 H          13.8881  118.5072  103.1901 H         1 ILE         0.0267
    100 H          14.9763  119.8235  103.7467 H         1 ILE         0.0267
    101 H          17.0949  116.8364  104.2150 H         1 ILE         0.0235
    102 H          17.0095  118.4918  103.5230 H         1 ILE         0.0235
    103 H          16.0169  117.1711  102.8178 H         1 ILE         0.0235
    104 H          12.6667  120.1957  104.4836 H         1 ILE         0.0230
    105 H          13.7595  119.9260  105.8834 H         1 ILE         0.0230
    106 H          12.6713  118.6096  105.3268 H         1 ILE         0.0230
    107 H          15.4561  114.5967  103.9382 H         1 VAL         0.1883
    108 H          13.6320  114.6669  101.6168 H         1 VAL         0.0802
    109 H          16.0368  112.9547  102.3473 H         1 VAL         0.0343
    110 H          15.7962  111.9254  100.1262 H         1 VAL         0.0234
    111 H          14.2421  112.7963   99.8963 H         1 VAL         0.0234
    112 H          14.3976  111.5636  101.1936 H         1 VAL         0.0234
    113 H          16.4891  115.2638  101.6084 H         1 VAL         0.0234
    114 H          15.5390  114.9666  100.1132 H         1 VAL         0.0234
    115 H          17.0556  114.0510  100.4105 H         1 VAL         0.0234
    116 H          11.8568  113.3960  101.4827 H         1 GLY         0.1881
    117 H          10.2728  111.8244  101.9170 H         1 GLY         0.0763
    118 H          10.7784  111.9763  103.6340 H         1 GLY         0.0763
    119 H          10.4404  109.8877  104.1325 H         1 THR         0.1884
    120 H          12.3332  107.9110  102.9627 H         1 THR         0.0826
    121 H          12.0759  106.7342  105.1892 H         1 THR         0.0639
    122 H          10.6173  109.1288  105.8104 H         1 THR         0.2101
    123 H          13.4077  108.3303  106.5280 H         1 THR         0.0257
    124 H          12.9739  109.6546  105.3946 H         1 THR         0.0257
    125 H          13.9831  108.2813  104.8271 H         1 THR         0.0257
    126 H          11.6335  105.6084  103.0629 H         1 THR         0.1884
    127 H           8.6810  105.2936  102.9487 H         1 THR         0.0826
    128 H           9.1909  102.8543  102.4724 H         1 THR         0.0639
    129 H          11.8496  103.8819  102.3218 H         1 THR         0.2101
    130 H           9.9908  103.2599  100.1742 H         1 THR         0.0257
    131 H          10.5250  104.9082  100.6478 H         1 THR         0.0257
    132 H           8.7779  104.4909  100.6640 H         1 THR         0.0257
    133 H           7.7100  103.6384  104.3448 H         1 TYR         0.1885
    134 H           8.8206  103.9232  107.0859 H         1 TYR         0.0821
    135 H           6.2895  102.6175  106.0560 H         1 TYR         0.0453
    136 H           6.4560  104.3798  106.3609 H         1 TYR         0.0453
    137 H           7.6673  104.5981  108.9476 H         1 TYR         0.0530
    138 H           4.8462  101.6980  107.5978 H         1 TYR         0.0530
    139 H           6.8830  104.2716  111.2335 H         1 TYR         0.0525
    140 H           4.0961  101.3278  109.9105 H         1 TYR         0.0525
    141 H           5.4670  103.2452  112.5435 H         1 TYR         0.2458
    142 H          10.4222   99.6836  106.8779 H         1 PRO         0.0802
    143 H          12.0932   99.8146  108.5036 H         1 PRO         0.0313
    144 H          10.8843   99.9850  109.8213 H         1 PRO         0.0313
    145 H          12.2081  102.0810  108.1348 H         1 PRO         0.0287
    146 H          11.7433  102.1171  109.8695 H         1 PRO         0.0287
    147 H           9.4809  102.5765  109.3834 H         1 PRO         0.0524
    148 H          10.2836  103.4333  108.0239 H         1 PRO         0.0524
    149 H           7.6034  100.6080  108.6547 H         1 CYS         0.1876
    150 H           7.4754   97.8896  109.8343 H         1 CYS         0.0734
    151 H           6.3232   98.8498  111.8050 H         1 CYS         0.0415
    152 H           6.5834  100.4964  111.1361 H         1 CYS         0.0415
    153 H           8.5138   99.9360  112.9196 H         1 CYS         0.1018
@<TRIPOS>BOND
     1    1    2 1  
     2    2    3 1  
     3    2    5 1  
     4    3    4 2  
     5    3   12 am 
     6    5    6 1  
     7    6    7 ar 
     8    6    8 ar 
     9    7    9 ar 
    10    8   10 ar 
    11    9   11 ar 
    12   10   11 ar 
    13   12   13 1  
    14   13   14 1  
    15   13   16 1  
    16   14   15 2  
    17   14   20 am 
    18   16   17 1  
    19   17   18 2  
    20   17   19 am 
    21   20   21 1  
    22   21   22 1  
    23   21   24 1  
    24   22   23 2  
    25   22   28 am 
    26   24   25 1  
    27   24   26 1  
    28   25   27 1  
    29   28   29 1  
    30   29   30 1  
    31   29   32 1  
    32   30   31 2  
    33   30   35 am 
    34   32   33 1  
    35   32   34 1  
    36   35   36 1  
    37   36   37 1  
    38   37   38 2  
    39   37   39 am 
    40   39   40 1  
    41   40   41 1  
    42   40   43 1  
    43   41   42 2  
    44   41   46 am 
    45   43   44 1  
    46   43   45 1  
    47   46   47 1  
    48   47   48 1  
    49   47   50 1  
    50   48   49 2  
    51   48   53 am 
    52   50   51 1  
    53   50   52 1  
    54   53   54 1  
    55   54   55 1  
    56   54   57 1  
    57   55   56 2  
    58   55   65 am 
    59   57   58 1  
    60   58   59 ar 
    61   58   60 ar 
    62   59   61 ar 
    63   60   62 ar 
    64   61   63 ar 
    65   62   63 ar 
    66   63   64 1  
    67   65   66 1  
    68   65   71 1  
    69   66   67 1  
    70   66   69 1  
    71   67   68 2  
    72   67   72 am 
    73   69   70 1  
    74   70   71 1  
    75   72   73 1  
    76   73   74 1  
    77   73   76 1  
    78   74   75 ar 
    79   74   78 ar 
    80   76   77 1  
    81    1   79 1  
    82    1   80 1  
    83    1   81 1  
    84    2   82 1  
    85    5   83 1  
    86    5   84 1  
    87    7   85 1  
    88    8   86 1  
    89    9   87 1  
    90   10   88 1  
    91   11   89 1  
    92   12   90 1  
    93   13   91 1  
    94   16   92 1  
    95   16   93 1  
    96   19   94 1  
    97   19   95 1  
    98   20   96 1  
    99   21   97 1  
   100   24   98 1  
   101   25   99 1  
   102   25  100 1  
   103   26  101 1  
   104   26  102 1  
   105   26  103 1  
   106   27  104 1  
   107   27  105 1  
   108   27  106 1  
   109   28  107 1  
   110   29  108 1  
   111   32  109 1  
   112   33  110 1  
   113   33  111 1  
   114   33  112 1  
   115   34  113 1  
   116   34  114 1  
   117   34  115 1  
   118   35  116 1  
   119   36  117 1  
   120   36  118 1  
   121   39  119 1  
   122   40  120 1  
   123   43  121 1  
   124   44  122 1  
   125   45  123 1  
   126   45  124 1  
   127   45  125 1  
   128   46  126 1  
   129   47  127 1  
   130   50  128 1  
   131   51  129 1  
   132   52  130 1  
   133   52  131 1  
   134   52  132 1  
   135   53  133 1  
   136   54  134 1  
   137   57  135 1  
   138   57  136 1  
   139   59  137 1  
   140   60  138 1  
   141   61  139 1  
   142   62  140 1  
   143   64  141 1  
   144   66  142 1  
   145   69  143 1  
   146   69  144 1  
   147   70  145 1  
   148   70  146 1  
   149   71  147 1  
   150   71  148 1  
   151   72  149 1  
   152   73  150 1  
   153   76  151 1  
   154   76  152 1  
   155   77  153 1  
@<TRIPOS>SUBSTRUCTURE
     1 PHE         1

