4u90_ligand
  -I-interpret- 

154156  0  0  0  0  0  0  0  0999 V2000
   15.8520  112.8490  112.1740 N   0  3  0  0  0
   15.3420  113.8870  111.2830 C   0  0  0  0  0
   15.9670  113.7110  109.9130 C   0  0  0  0  0
   17.1140  113.3510  109.7950 O   0  0  0  0  0
   15.7020  115.2840  111.7980 C   0  0  0  0  0
   15.2350  116.3910  110.8840 C   0  0  0  0  0
   13.9450  116.8920  110.9940 C   0  0  0  0  0
   16.0700  116.8870  109.8640 C   0  0  0  0  0
   13.4890  117.8860  110.1250 C   0  0  0  0  0
   15.6250  117.8800  109.0010 C   0  0  0  0  0
   14.3330  118.3780  109.1330 C   0  0  0  0  0
   15.1720  113.8860  108.8810 N   0  0  0  0  0
   15.7050  114.0990  107.5510 C   0  0  0  0  0
   14.7340  114.9620  106.7420 C   0  0  0  0  0
   13.5150  114.8120  106.8730 O   0  0  0  0  0
   15.9350  112.7600  106.8570 C   0  0  0  0  0
   17.0690  112.8030  105.8270 C   0  0  0  0  0
   17.9560  111.9230  105.8200 O   0  0  0  0  0
   17.0360  113.7940  104.9410 N   0  0  0  0  0
   15.2880  115.8000  105.8860 N   0  0  0  0  0
   14.5090  116.6760  105.0570 C   0  0  0  0  0
   14.0080  115.9750  103.7820 C   0  0  0  0  0
   13.0800  116.4370  103.1320 O   0  0  0  0  0
   15.3080  117.9210  104.6990 C   0  0  0  0  0
   14.3720  118.9620  104.0670 C   0  0  0  0  0
   16.4340  117.5820  103.7490 C   0  0  0  0  0
   13.2940  119.4570  105.0040 C   0  0  0  0  0
   14.6400  114.8700  103.4290 N   0  0  0  0  0
   14.1900  114.0390  102.3270 C   0  0  0  0  0
   13.2590  112.9430  102.8500 C   0  0  0  0  0
   13.5920  112.2730  103.7790 O   0  0  0  0  0
   15.3800  113.4240  101.6000 C   0  0  0  0  0
   14.9230  112.3550  100.6390 C   0  0  0  0  0
   16.1700  114.5000  100.8840 C   0  0  0  0  0
   12.0860  112.7820  102.2380 N   0  0  0  0  0
   11.1230  111.7600  102.6120 C   0  0  0  0  0
   11.6470  110.3210  102.5850 C   0  0  0  0  0
   12.4940  109.9800  101.7490 O   0  0  0  0  0
   11.1220  109.5130  103.5040 N   0  0  0  0  0
   11.4900  108.1150  103.6390 C   0  0  0  0  0
   10.3330  107.1370  103.3260 C   0  0  0  0  0
    9.1350  107.4950  103.2890 O   0  0  0  0  0
   11.8900  107.8130  105.0810 C   0  0  0  0  0
   10.7880  108.2010  105.9220 O   0  0  0  0  0
   13.1520  108.5730  105.4860 C   0  0  0  0  0
   10.6750  105.8630  103.1910 N   0  0  0  0  0
    9.6420  104.8390  103.2310 C   0  0  0  0  0
    9.5660  104.3460  104.6560 C   0  0  0  0  0
   10.4600  104.5660  105.4560 O   0  0  0  0  0
    9.9150  103.6590  102.2770 C   0  0  0  0  0
   11.2290  103.1830  102.4920 O   0  0  0  0  0
    9.7940  104.1100  100.8440 C   0  0  0  0  0
    8.4420  103.7610  105.0150 N   0  0  0  0  0
    8.2570  103.2900  106.3850 C   0  0  0  0  0
    8.7360  101.8370  106.5060 C   0  0  0  0  0
    8.3990  101.0670  105.6330 O   0  0  0  0  0
    6.7900  103.3790  106.6720 C   0  0  0  0  0
    6.3260  103.1730  108.1160 C   0  0  0  0  0
    6.8740  103.8870  109.1480 C   0  0  0  0  0
    5.3000  102.2600  108.4060 C   0  0  0  0  0
    6.4320  103.7120  110.4220 C   0  0  0  0  0
    4.8600  102.0640  109.6880 C   0  0  0  0  0
    5.4160  102.8280  110.6810 C   0  0  0  0  0
    4.9950  102.6500  111.9730 O   0  0  0  0  0
    9.5370  101.4980  107.5500 N   0  0  0  0  0
   10.0480  100.1300  107.8110 C   0  0  0  0  0
    9.0280   99.1850  108.4500 C   0  0  0  0  0
    9.3010   98.0230  108.5210 O   0  0  0  0  0
   11.1860  100.3460  108.8270 C   0  0  0  0  0
   11.4300  101.8060  108.8620 C   0  0  0  0  0
   10.1220  102.4540  108.4980 C   0  0  0  0  0
    7.8790   99.6810  108.9090 N   0  0  0  0  0
    7.0270   98.8920  109.7710 C   0  0  0  0  0
    5.6120   98.7170  109.2390 C   0  0  0  0  0
    4.7930   98.2530  110.0310 O   0  0  0  0  0
    6.9880   99.4750  111.1910 C   0  0  0  0  0
    8.6140   99.5450  111.9960 S   0  0  0  0  0
    5.2880   98.9720  108.0540 O   0  0  0  0  0
   15.5977  111.9321  111.8065 H   0  0  0  0  0
   16.8676  112.9229  112.2339 H   0  0  0  0  0
   15.4458  112.9693  113.1019 H   0  0  0  0  0
   14.2569  113.7945  111.2363 H   0  0  0  0  0
   16.7885  115.3435  111.8618 H   0  0  0  0  0
   15.2089  115.4192  112.7606 H   0  0  0  0  0
   13.2807  116.5055  111.7669 H   0  0  0  0  0
   17.0775  116.4867  109.7506 H   0  0  0  0  0
   12.4756  118.2752  110.2232 H   0  0  0  0  0
   16.2847  118.2670  108.2244 H   0  0  0  0  0
   13.9798  119.1567  108.4570 H   0  0  0  0  0
   14.1615  113.8716  109.0192 H   0  0  0  0  0
   16.6615  114.6165  107.6244 H   0  0  0  0  0
   15.0179  112.4991  106.3289 H   0  0  0  0  0
   16.2099  112.0337  107.6218 H   0  0  0  0  0
   17.7537  113.8566  104.2189 H   0  0  0  0  0
   16.2930  114.4915  104.9835 H   0  0  0  0  0
   16.3049  115.8262  105.8108 H   0  0  0  0  0
   13.6310  116.9691  105.6326 H   0  0  0  0  0
   15.7478  118.3325  105.6075 H   0  0  0  0  0
   13.8758  118.4843  103.2222 H   0  0  0  0  0
   14.9813  119.8215  103.7876 H   0  0  0  0  0
   17.1004  116.8598  104.2205 H   0  0  0  0  0
   16.0207  117.1545  102.8355 H   0  0  0  0  0
   16.9899  118.4882  103.5084 H   0  0  0  0  0
   12.6778  118.6165  105.3232 H   0  0  0  0  0
   13.7565  119.9214  105.8749 H   0  0  0  0  0
   12.6731  120.1888  104.4872 H   0  0  0  0  0
   15.4724  114.5912  103.9484 H   0  0  0  0  0
   13.6423  114.6605  101.6186 H   0  0  0  0  0
   16.0330  112.9534  102.3350 H   0  0  0  0  0
   14.4025  111.5715  101.1898 H   0  0  0  0  0
   14.2484  112.7935   99.9037 H   0  0  0  0  0
   15.7890  111.9301  100.1315 H   0  0  0  0  0
   15.5273  114.9988  100.1585 H   0  0  0  0  0
   16.5325  115.2271  101.6107 H   0  0  0  0  0
   17.0167  114.0456  100.3694 H   0  0  0  0  0
   11.8522  113.4083  101.4676 H   0  0  0  0  0
   10.3160  111.8108  101.8811 H   0  0  0  0  0
   10.8348  111.9667  103.6427 H   0  0  0  0  0
   10.4267  109.8952  104.1450 H   0  0  0  0  0
   12.3017  107.9692  102.9262 H   0  0  0  0  0
   12.1119  106.7510  105.1859 H   0  0  0  0  0
   11.0088  108.0231  106.8392 H   0  0  0  0  0
   13.9747  108.2831  104.8323 H   0  0  0  0  0
   12.9742  109.6445  105.3950 H   0  0  0  0  0
   13.4043  108.3317  106.5186 H   0  0  0  0  0
   11.6527  105.6033  103.0604 H   0  0  0  0  0
    8.7010  105.2756  102.8963 H   0  0  0  0  0
    9.1876  102.8709  102.4718 H   0  0  0  0  0
   11.4028  102.4479  101.8995 H   0  0  0  0  0
    8.7868  104.4872  100.6670 H   0  0  0  0  0
   10.5188  104.9009  100.6509 H   0  0  0  0  0
    9.9892  103.2669  100.1814 H   0  0  0  0  0
    7.6954  103.6360  104.3314 H   0  0  0  0  0
    8.8304  103.8888  107.0927 H   0  0  0  0  0
    6.3346  102.5680  106.1037 H   0  0  0  0  0
    6.5079  104.4015  106.4209 H   0  0  0  0  0
    7.6716  104.6020  108.9464 H   0  0  0  0  0
    4.8436  101.6948  107.5933 H   0  0  0  0  0
    6.8855  104.2747  111.2379 H   0  0  0  0  0
    4.0918  101.3237  109.9117 H   0  0  0  0  0
    4.2839  102.0053  111.9907 H   0  0  0  0  0
   10.3332   99.6643  106.8677 H   0  0  0  0  0
   12.0845   99.8024  108.5349 H   0  0  0  0  0
   10.9129   99.9676  109.8121 H   0  0  0  0  0
   12.2189  102.0911  108.1660 H   0  0  0  0  0
   11.7684  102.1261  109.8475 H   0  0  0  0  0
    9.4845  102.6372  109.3630 H   0  0  0  0  0
   10.2462  103.4501  108.0732 H   0  0  0  0  0
    7.5979  100.6266  108.6496 H   0  0  0  0  0
    7.4757   97.8990  109.7966 H   0  0  0  0  0
    6.3539   98.8244  111.7932 H   0  0  0  0  0
    6.6183  100.4975  111.1135 H   0  0  0  0  0
    8.4818  100.0610  113.2147 H   0  0  0  0  0
    6.0475   99.3247  107.5846 H   0  0  0  0  0
  1  2  1  0  0  0
  2  3  1  0  0  0
  2  5  1  0  0  0
  3  4  2  0  0  0
  3 12  1  0  0  0
  5  6  1  0  0  0
  6  7  4  0  0  0
  6  8  4  0  0  0
  7  9  4  0  0  0
  8 10  4  0  0  0
  9 11  4  0  0  0
 10 11  4  0  0  0
 12 13  1  0  0  0
 13 14  1  0  0  0
 13 16  1  0  0  0
 14 15  2  0  0  0
 14 20  1  0  0  0
 16 17  1  0  0  0
 17 18  2  0  0  0
 17 19  1  0  0  0
 20 21  1  0  0  0
 21 22  1  0  0  0
 21 24  1  0  0  0
 22 23  2  0  0  0
 22 28  1  0  0  0
 24 25  1  0  0  0
 24 26  1  0  0  0
 25 27  1  0  0  0
 28 29  1  0  0  0
 29 30  1  0  0  0
 29 32  1  0  0  0
 30 31  2  0  0  0
 30 35  1  0  0  0
 32 33  1  0  0  0
 32 34  1  0  0  0
 35 36  1  0  0  0
 36 37  1  0  0  0
 37 38  2  0  0  0
 37 39  1  0  0  0
 39 40  1  0  0  0
 40 41  1  0  0  0
 40 43  1  0  0  0
 41 42  2  0  0  0
 41 46  1  0  0  0
 43 44  1  0  0  0
 43 45  1  0  0  0
 46 47  1  0  0  0
 47 48  1  0  0  0
 47 50  1  0  0  0
 48 49  2  0  0  0
 48 53  1  0  0  0
 50 51  1  0  0  0
 50 52  1  0  0  0
 53 54  1  0  0  0
 54 55  1  0  0  0
 54 57  1  0  0  0
 55 56  2  0  0  0
 55 65  1  0  0  0
 57 58  1  0  0  0
 58 59  4  0  0  0
 58 60  4  0  0  0
 59 61  4  0  0  0
 60 62  4  0  0  0
 61 63  4  0  0  0
 62 63  4  0  0  0
 63 64  1  0  0  0
 65 66  1  0  0  0
 65 71  1  0  0  0
 66 67  1  0  0  0
 66 69  1  0  0  0
 67 68  2  0  0  0
 67 72  1  0  0  0
 69 70  1  0  0  0
 70 71  1  0  0  0
 72 73  1  0  0  0
 73 74  1  0  0  0
 73 76  1  0  0  0
 74 75  2  0  0  0
 74 78  1  0  0  0
 76 77  1  0  0  0
  1 79  1  0  0  0
  1 80  1  0  0  0
  1 81  1  0  0  0
  2 82  1  0  0  0
  5 83  1  0  0  0
  5 84  1  0  0  0
  7 85  1  0  0  0
  8 86  1  0  0  0
  9 87  1  0  0  0
 10 88  1  0  0  0
 11 89  1  0  0  0
 12 90  1  0  0  0
 13 91  1  0  0  0
 16 92  1  0  0  0
 16 93  1  0  0  0
 19 94  1  0  0  0
 19 95  1  0  0  0
 20 96  1  0  0  0
 21 97  1  0  0  0
 24 98  1  0  0  0
 25 99  1  0  0  0
 25100  1  0  0  0
 26101  1  0  0  0
 26102  1  0  0  0
 26103  1  0  0  0
 27104  1  0  0  0
 27105  1  0  0  0
 27106  1  0  0  0
 28107  1  0  0  0
 29108  1  0  0  0
 32109  1  0  0  0
 33110  1  0  0  0
 33111  1  0  0  0
 33112  1  0  0  0
 34113  1  0  0  0
 34114  1  0  0  0
 34115  1  0  0  0
 35116  1  0  0  0
 36117  1  0  0  0
 36118  1  0  0  0
 39119  1  0  0  0
 40120  1  0  0  0
 43121  1  0  0  0
 44122  1  0  0  0
 45123  1  0  0  0
 45124  1  0  0  0
 45125  1  0  0  0
 46126  1  0  0  0
 47127  1  0  0  0
 50128  1  0  0  0
 51129  1  0  0  0
 52130  1  0  0  0
 52131  1  0  0  0
 52132  1  0  0  0
 53133  1  0  0  0
 54134  1  0  0  0
 57135  1  0  0  0
 57136  1  0  0  0
 59137  1  0  0  0
 60138  1  0  0  0
 61139  1  0  0  0
 62140  1  0  0  0
 64141  1  0  0  0
 66142  1  0  0  0
 69143  1  0  0  0
 69144  1  0  0  0
 70145  1  0  0  0
 70146  1  0  0  0
 71147  1  0  0  0
 71148  1  0  0  0
 72149  1  0  0  0
 73150  1  0  0  0
 76151  1  0  0  0
 76152  1  0  0  0
 77153  1  0  0  0
 78154  1  0  0  0
M  END
$$$$
