4qp2_ligand
  -I-interpret- 

 16 17  0  0  0  0  0  0  0  0999 V2000
  -17.6670  -36.2520  -28.4660 C   0  0  0  0  0
  -17.8780  -37.5810  -28.8270 C   0  0  0  0  0
  -17.5390  -38.6050  -27.9580 C   0  0  0  0  0
  -16.9950  -38.3260  -26.7080 C   0  0  0  0  0
  -16.7840  -37.0150  -26.3280 C   0  0  0  0  0
  -17.1110  -35.9810  -27.1950 C   0  0  0  0  0
  -17.7950  -40.2550  -28.4440 Cl  0  0  0  0  0
  -17.8800  -35.0490  -29.0880 N   0  0  0  0  0
  -17.4690  -34.1070  -28.2510 C   0  0  0  0  0
  -17.0120  -34.6370  -27.1000 O   0  0  0  0  0
  -17.4990  -32.7570  -28.4580 N   0  0  0  0  0
  -18.3123  -37.8163  -29.7987 H   0  0  0  0  0
  -16.7361  -39.1398  -26.0306 H   0  0  0  0  0
  -16.3612  -36.7923  -25.3484 H   0  0  0  0  0
  -17.8671  -32.3832  -29.3328 H   0  0  0  0  0
  -17.1533  -32.1228  -27.7378 H   0  0  0  0  0
  1  2  4  0  0  0
  1  6  4  0  0  0
  1  8  4  0  0  0
  2  3  4  0  0  0
  3  4  4  0  0  0
  3  7  1  0  0  0
  4  5  4  0  0  0
  5  6  4  0  0  0
  6 10  4  0  0  0
  8  9  4  0  0  0
  9 10  4  0  0  0
  9 11  1  0  0  0
  2 12  1  0  0  0
  4 13  1  0  0  0
  5 14  1  0  0  0
 11 15  1  0  0  0
 11 16  1  0  0  0
M  END
$$$$
