4oct_ligand
  -I-interpret- 

 16 15  0  0  0  0  0  0  0  0999 V2000
   17.6820    3.5850    2.5700 C   0  0  0  0  0
   18.1430    2.4140    2.9210 O   0  0  0  0  0
   18.3450    4.6770    2.6890 O   0  0  0  0  0
   16.2990    3.6450    1.9870 C   0  0  0  0  0
   15.8170    2.6080    1.5950 O   0  0  0  0  0
   15.4490    4.9200    1.9010 C   0  0  0  0  0
   13.9930    4.6220    2.3150 C   0  0  0  0  0
   13.1660    5.8920    2.5590 C   0  0  0  0  0
   13.6230    7.0140    2.2080 O   0  0  0  0  0
   12.0340    5.7950    3.1100 O   0  0  0  0  0
   17.4793    1.7436    2.7431 H   0  0  0  0  0
   15.4592    5.2858    0.8743 H   0  0  0  0  0
   15.8638    5.6702    2.5742 H   0  0  0  0  0
   14.0219    4.0605    3.2488 H   0  0  0  0  0
   13.5226    4.0712    1.5005 H   0  0  0  0  0
   11.8527    4.8729    3.3059 H   0  0  0  0  0
  1  2  1  0  0  0
  1  3  2  0  0  0
  1  4  1  0  0  0
  4  5  2  0  0  0
  4  6  1  0  0  0
  6  7  1  0  0  0
  7  8  1  0  0  0
  8  9  2  0  0  0
  8 10  1  0  0  0
  2 11  1  0  0  0
  6 12  1  0  0  0
  6 13  1  0  0  0
  7 14  1  0  0  0
  7 15  1  0  0  0
 10 16  1  0  0  0
M  END
$$$$
