3qgw_ligand
  -I-interpret- 

 35 37  0  0  0  0  0  0  0  0999 V2000
   34.3620   50.8050   14.6030 C   0  0  0  0  0
   43.1850   52.1670   13.4250 N   0  0  0  0  0
   36.0470   48.7250   10.5880 O   0  0  0  0  0
   34.2000   51.5540   15.8710 C   0  0  0  0  0
   35.8810   50.0640   12.9120 N   0  0  0  0  0
   36.6430   51.4450   14.6700 O   0  0  0  0  0
   32.8650   51.6010   16.4970 C   0  0  0  0  0
   38.3170   48.9990   10.2600 N   0  0  0  0  0
   31.7140   50.9270   15.8440 C   0  0  0  0  0
   31.8710   50.2000   14.5630 C   0  0  0  0  0
   33.1990   50.1200   13.9350 C   0  0  0  0  0
   35.7760   50.8160   14.0640 C   0  0  0  0  0
   39.5590   49.5830   10.6660 C   0  0  0  0  0
   39.4920   50.3340   11.9270 C   0  0  0  0  0
   38.2560   50.5210   12.7100 C   0  0  0  0  0
   37.0710   49.9500   12.2630 C   0  0  0  0  0
   37.0940   49.1770   10.9950 C   0  0  0  0  0
   41.9380   52.7170   13.9240 C   0  0  0  0  0
   43.3610   51.1020   12.4820 C   0  0  0  0  0
   42.1480   50.5060   11.9680 C   0  0  0  0  0
   40.7840   51.0280   12.4450 C   0  0  0  0  0
   40.6940   52.1460   13.4350 C   0  0  0  0  0
   35.0489   52.0594   16.3314 H   0  0  0  0  0
   32.7234   52.1306   17.4391 H   0  0  0  0  0
   38.2986   48.4319    9.4124 H   0  0  0  0  0
   30.7330   50.9681   16.3173 H   0  0  0  0  0
   31.0099   49.7283   14.0896 H   0  0  0  0  0
   33.3388   49.5741   13.0019 H   0  0  0  0  0
   40.4774   49.4793   10.0882 H   0  0  0  0  0
   38.0724   51.5951   12.6854 H   0  0  0  0  0
   38.4560   50.0330   13.6639 H   0  0  0  0  0
   41.9345   53.5347   14.6447 H   0  0  0  0  0
   44.3490   50.7621   12.1713 H   0  0  0  0  0
   42.2010   49.6910   11.2462 H   0  0  0  0  0
   39.7290   52.5194   13.7777 H   0  0  0  0  0
  1  4  4  0  0  0
  1 11  4  0  0  0
 12  1  1  0  0  0
  2 18  4  0  0  0
 19  2  4  0  0  0
 17  3  2  0  0  0
  4  7  4  0  0  0
  5 12  1  0  0  0
 16  5  2  0  0  0
 12  6  2  0  0  0
  7  9  4  0  0  0
 13  8  1  0  0  0
  8 17  1  0  0  0
 10  9  4  0  0  0
 11 10  4  0  0  0
 14 13  2  0  0  0
 14 15  1  0  0  0
 21 14  1  0  0  0
 15 16  1  0  0  0
 16 17  1  0  0  0
 18 22  4  0  0  0
 20 19  4  0  0  0
 20 21  4  0  0  0
 21 22  4  0  0  0
  4 23  1  0  0  0
  7 24  1  0  0  0
  8 25  1  0  0  0
  9 26  1  0  0  0
 10 27  1  0  0  0
 11 28  1  0  0  0
 13 29  1  0  0  0
 15 30  1  0  0  0
 15 31  1  0  0  0
 18 32  1  0  0  0
 19 33  1  0  0  0
 20 34  1  0  0  0
 22 35  1  0  0  0
M  END
$$$$
