### 
### Created by X-TOOL on Wed Jan  1 15:39:36 2020
### 

@<TRIPOS>MOLECULE
5w7x_ligand
   98    99     1     0     0
SMALL
GAST_HUCK


@<TRIPOS>ATOM
      1 N         -28.1030   10.2760  -23.5000 N.4       1 PRO         0.2461
      2 CA        -28.1060   11.0040  -22.2260 C.3       1 PRO         0.0670
      3 C         -26.7170   11.4850  -21.8130 C.2       1 PRO         0.2269
      4 O         -26.5570   12.0590  -20.7360 O.2       1 PRO        -0.3907
      5 CB        -28.6410    9.9670  -21.2360 C.3       1 PRO         0.0127
      6 CG        -28.2410    8.6590  -21.8150 C.3       1 PRO        -0.0053
      7 CD        -28.2980    8.8280  -23.3090 C.3       1 PRO        -0.0313
      8 N         -25.7250   11.2540  -22.6710 N.am      1 TYR        -0.2594
      9 CA        -24.3490   11.6480  -22.4000 C.3       1 TYR         0.1391
     10 C         -23.8870   12.7940  -23.2890 C.2       1 TYR         0.2057
     11 O         -22.6930   13.1130  -23.3020 O.2       1 TYR        -0.3942
     12 CB        -23.4220   10.4430  -22.5670 C.3       1 TYR         0.0164
     13 CG        -23.8450    9.2460  -21.7480 C.ar      1 TYR        -0.0493
     14 CD1       -23.7650    9.2670  -20.3610 C.ar      1 TYR        -0.0685
     15 CD2       -24.3240    8.0960  -22.3590 C.ar      1 TYR        -0.0685
     16 CE1       -24.1490    8.1760  -19.6070 C.ar      1 TYR        -0.0398
     17 CE2       -24.7110    7.0000  -21.6140 C.ar      1 TYR        -0.0398
     18 CZ        -24.6220    7.0450  -20.2390 C.ar      1 TYR         0.0805
     19 OH        -25.0080    5.9550  -19.4930 O.3       1 TYR        -0.3376
     20 N         -24.7980   13.4220  -24.0270 N.am      1 ALA        -0.2639
     21 CA        -24.4670   14.5390  -24.8940 C.3       1 ALA         0.1282
     22 C         -24.7270   15.8530  -24.1620 C.2       1 ALA         0.2034
     23 O         -25.1130   15.8800  -22.9900 O.2       1 ALA        -0.3944
     24 CB        -25.2670   14.4580  -26.1960 C.3       1 ALA        -0.0244
     25 N         -24.5120   16.9580  -24.8670 N.am      1 GLY        -0.2664
     26 CA        -24.6950   18.2770  -24.2900 C.3       1 GLY         0.1201
     27 C         -23.4040   18.8310  -23.7240 C.2       1 GLY         0.2008
     28 O         -22.5300   18.0790  -23.2940 O.2       1 GLY        -0.3947
     29 N         -23.2820   20.1540  -23.7190 N.am      1 SEP        -0.2615
     30 CA        -22.0600   20.8010  -23.2650 C.3       1 SEP         0.1586
     31 CB        -22.0490   22.2710  -23.6860 C.3       1 SEP         0.1184
     32 OG        -23.2090   22.8940  -23.1710 O.3       1 SEP        -0.2714
     33 C         -21.8890   20.6840  -21.7530 C.2       1 SEP         0.2066
     34 O         -22.8630   20.5440  -21.0120 O.2       1 SEP        -0.3943
     35 P         -23.7320   24.2680  -23.8230 P.3       1 SEP         0.2010
     36 O1P       -23.8340   24.0960  -25.3500 O.co2     1 SEP        -0.5537
     37 O2P       -22.7410   25.4020  -23.5050 O.co2     1 SEP        -0.5537
     38 O3P       -25.1140   24.6090  -23.2360 O.co2     1 SEP        -0.5537
     39 N         -20.6350   20.7380  -21.3120 N.am      1 TPO        -0.2610
     40 CA        -20.2870   20.6590  -19.8990 C.3       1 TPO         0.1611
     41 CB        -18.8230   20.2420  -19.7570 C.3       1 TPO         0.1262
     42 CG2       -18.4040   20.1250  -18.2900 C.3       1 TPO        -0.0298
     43 OG1       -18.6340   18.9860  -20.4060 O.3       1 TPO        -0.2685
     44 P         -17.8130   18.9270  -21.7860 P.3       1 TPO         0.2014
     45 O1P       -18.4620   19.8740  -22.8140 O.co2     1 TPO        -0.5537
     46 O2P       -17.8280   17.4830  -22.3220 O.co2     1 TPO        -0.5537
     47 O3P       -16.3630   19.3820  -21.5350 O.co2     1 TPO        -0.5537
     48 C         -20.5150   22.0020  -19.2200 C.2       1 TPO         0.2064
     49 O         -20.2890   23.0530  -19.8190 O.2       1 TPO        -0.3943
     50 N         -20.9560   21.9650  -17.9670 N.am      1 ASP        -0.2679
     51 CA        -21.1500   23.1840  -17.1890 C.3       1 ASP         0.1057
     52 C         -19.8540   23.9850  -17.0890 C.2       1 ASP         0.0618
     53 O         -18.9350   23.6090  -16.3610 O.co2     1 ASP        -0.5665
     54 CB        -21.6670   22.8490  -15.7900 C.3       1 ASP         0.0351
     55 CG        -23.1530   22.5530  -15.7740 C.2       1 ASP         0.0387
     56 OD1       -23.7060   22.2230  -16.8440 O.co2     1 ASP        -0.5688
     57 OD2       -23.7670   22.6500  -14.6910 O.co2     1 ASP        -0.5688
     58 OXT       -19.7030   25.0230  -17.7340 O.co2     1 ASP        -0.5665
     59 H1        -27.2186   10.4274  -23.9592 H         1 PRO         0.2035
     60 H2        -28.8476   10.6309  -24.0794 H         1 PRO         0.2035
     61 H3        -28.7794   11.8719  -22.2833 H         1 PRO         0.1099
     62 H4        -29.7356   10.0370  -21.1532 H         1 PRO         0.0347
     63 H5        -28.1884   10.1074  -20.2433 H         1 PRO         0.0347
     64 H6        -28.9372    7.8704  -21.4934 H         1 PRO         0.0320
     65 H7        -27.2201    8.3981  -21.4992 H         1 PRO         0.0320
     66 H8        -27.4974    8.2554  -23.8001 H         1 PRO         0.0814
     67 H9        -29.2733    8.5073  -23.7038 H         1 PRO         0.0814
     68 H10       -25.9325   10.7928  -23.5337 H         1 TYR         0.1886
     69 H11       -24.2928   11.9872  -21.3551 H         1 TYR         0.0821
     70 H12       -22.4081   10.7369  -22.2579 H         1 TYR         0.0453
     71 H13       -23.4125   10.1541  -23.6283 H         1 TYR         0.0453
     72 H14       -23.3947   10.1554  -19.8623 H         1 TYR         0.0530
     73 H15       -24.3956    8.0575  -23.4400 H         1 TYR         0.0530
     74 H16       -24.0792    8.2081  -18.5257 H         1 TYR         0.0525
     75 H17       -25.0827    6.1092  -22.1074 H         1 TYR         0.0525
     76 H18       -24.4796    5.2037  -19.7353 H         1 TYR         0.2458
     77 H19       -25.7480   13.1129  -23.9831 H         1 ALA         0.1883
     78 H20       -23.3968   14.4855  -25.1427 H         1 ALA         0.0797
     79 H21       -25.0052   15.3099  -26.8408 H         1 ALA         0.0277
     80 H22       -26.3427   14.4878  -25.9679 H         1 ALA         0.0277
     81 H23       -25.0282   13.5182  -26.7153 H         1 ALA         0.0277
     82 H24       -24.2167   16.8791  -25.8191 H         1 GLY         0.1881
     83 H25       -25.4382   18.2114  -23.4817 H         1 GLY         0.0763
     84 H26       -25.0621   18.9589  -25.0712 H         1 GLY         0.0763
     85 H27       -24.0460   20.7171  -24.0339 H         1 SEP         0.1884
     86 H28       -21.2083   20.2968  -23.7451 H         1 SEP         0.0827
     87 H29       -22.0457   22.3426  -24.7837 H         1 SEP         0.0662
     88 H30       -21.1526   22.7655  -23.2836 H         1 SEP         0.0662
     89 H31       -19.8978   20.8373  -21.9803 H         1 TPO         0.1884
     90 H32       -20.9239   19.9036  -19.4156 H         1 TPO         0.0830
     91 H33       -18.1912   20.9996  -20.2437 H         1 TPO         0.0695
     92 H34       -17.3475   19.8240  -18.2333 H         1 TPO         0.0260
     93 H35       -19.0278   19.3697  -17.7896 H         1 TPO         0.0260
     94 H36       -18.5354   21.0972  -17.7924 H         1 TPO         0.0260
     95 H37       -21.1598   21.0805  -17.5473 H         1 ASP         0.1876
     96 H38       -21.9019   23.8034  -17.6999 H         1 ASP         0.0745
     97 H39       -21.4711   23.7050  -15.1275 H         1 ASP         0.0471
     98 H40       -21.1277   21.9657  -15.4171 H         1 ASP         0.0471
@<TRIPOS>BOND
     1    1    2 1  
     2    1    7 1  
     3    2    3 1  
     4    2    5 1  
     5    3    4 2  
     6    3    8 am 
     7    5    6 1  
     8    6    7 1  
     9    8    9 1  
    10    9   10 1  
    11    9   12 1  
    12   10   11 2  
    13   10   20 am 
    14   12   13 1  
    15   13   14 ar 
    16   13   15 ar 
    17   14   16 ar 
    18   15   17 ar 
    19   16   18 ar 
    20   17   18 ar 
    21   18   19 1  
    22   20   21 1  
    23   21   22 1  
    24   21   24 1  
    25   22   23 2  
    26   22   25 am 
    27   25   26 1  
    28   26   27 1  
    29   27   28 2  
    30   27   29 am 
    31   29   30 1  
    32   30   31 1  
    33   30   33 1  
    34   31   32 1  
    35   32   35 1  
    36   33   34 2  
    37   33   39 am 
    38   35   36 ar 
    39   35   37 ar 
    40   35   38 ar 
    41   39   40 1  
    42   40   41 1  
    43   40   48 1  
    44   41   42 1  
    45   41   43 1  
    46   43   44 1  
    47   44   45 ar 
    48   44   46 ar 
    49   44   47 ar 
    50   48   49 2  
    51   48   50 am 
    52   50   51 1  
    53   51   52 1  
    54   51   54 1  
    55   52   53 ar 
    56   52   58 ar 
    57   54   55 1  
    58   55   56 ar 
    59   55   57 ar 
    60    1   59 1  
    61    1   60 1  
    62    2   61 1  
    63    5   62 1  
    64    5   63 1  
    65    6   64 1  
    66    6   65 1  
    67    7   66 1  
    68    7   67 1  
    69    8   68 1  
    70    9   69 1  
    71   12   70 1  
    72   12   71 1  
    73   14   72 1  
    74   15   73 1  
    75   16   74 1  
    76   17   75 1  
    77   19   76 1  
    78   20   77 1  
    79   21   78 1  
    80   24   79 1  
    81   24   80 1  
    82   24   81 1  
    83   25   82 1  
    84   26   83 1  
    85   26   84 1  
    86   29   85 1  
    87   30   86 1  
    88   31   87 1  
    89   31   88 1  
    90   39   89 1  
    91   40   90 1  
    92   41   91 1  
    93   42   92 1  
    94   42   93 1  
    95   42   94 1  
    96   50   95 1  
    97   51   96 1  
    98   54   97 1  
    99   54   98 1  
@<TRIPOS>SUBSTRUCTURE
     1 PRO         1

