5w7x_ligand
  -I-interpret- 

104105  0  0  0  0  0  0  0  0999 V2000
  -28.1030   10.2760  -23.5000 N   0  3  0  0  0
  -28.1060   11.0040  -22.2260 C   0  0  0  0  0
  -26.7170   11.4850  -21.8130 C   0  0  0  0  0
  -26.5570   12.0590  -20.7360 O   0  0  0  0  0
  -28.6410    9.9670  -21.2360 C   0  0  0  0  0
  -28.2410    8.6590  -21.8150 C   0  0  0  0  0
  -28.2980    8.8280  -23.3090 C   0  0  0  0  0
  -25.7250   11.2540  -22.6710 N   0  0  0  0  0
  -24.3490   11.6480  -22.4000 C   0  0  0  0  0
  -23.8870   12.7940  -23.2890 C   0  0  0  0  0
  -22.6930   13.1130  -23.3020 O   0  0  0  0  0
  -23.4220   10.4430  -22.5670 C   0  0  0  0  0
  -23.8450    9.2460  -21.7480 C   0  0  0  0  0
  -23.7650    9.2670  -20.3610 C   0  0  0  0  0
  -24.3240    8.0960  -22.3590 C   0  0  0  0  0
  -24.1490    8.1760  -19.6070 C   0  0  0  0  0
  -24.7110    7.0000  -21.6140 C   0  0  0  0  0
  -24.6220    7.0450  -20.2390 C   0  0  0  0  0
  -25.0080    5.9550  -19.4930 O   0  0  0  0  0
  -24.7980   13.4220  -24.0270 N   0  0  0  0  0
  -24.4670   14.5390  -24.8940 C   0  0  0  0  0
  -24.7270   15.8530  -24.1620 C   0  0  0  0  0
  -25.1130   15.8800  -22.9900 O   0  0  0  0  0
  -25.2670   14.4580  -26.1960 C   0  0  0  0  0
  -24.5120   16.9580  -24.8670 N   0  0  0  0  0
  -24.6950   18.2770  -24.2900 C   0  0  0  0  0
  -23.4040   18.8310  -23.7240 C   0  0  0  0  0
  -22.5300   18.0790  -23.2940 O   0  0  0  0  0
  -23.2820   20.1540  -23.7190 N   0  0  0  0  0
  -22.0600   20.8010  -23.2650 C   0  0  0  0  0
  -22.0490   22.2710  -23.6860 C   0  0  0  0  0
  -23.2090   22.8940  -23.1710 O   0  0  0  0  0
  -21.8890   20.6840  -21.7530 C   0  0  0  0  0
  -22.8630   20.5440  -21.0120 O   0  0  0  0  0
  -23.7320   24.2680  -23.8230 P   0  0  0  0  0
  -23.8340   24.0960  -25.3500 O   0  0  0  0  0
  -22.7410   25.4020  -23.5050 O   0  0  0  0  0
  -25.1140   24.6090  -23.2360 O   0  0  0  0  0
  -20.6350   20.7380  -21.3120 N   0  0  0  0  0
  -20.2870   20.6590  -19.8990 C   0  0  0  0  0
  -18.8230   20.2420  -19.7570 C   0  0  0  0  0
  -18.4040   20.1250  -18.2900 C   0  0  0  0  0
  -18.6340   18.9860  -20.4060 O   0  0  0  0  0
  -17.8130   18.9270  -21.7860 P   0  0  0  0  0
  -18.4620   19.8740  -22.8140 O   0  0  0  0  0
  -17.8280   17.4830  -22.3220 O   0  0  0  0  0
  -16.3630   19.3820  -21.5350 O   0  0  0  0  0
  -20.5150   22.0020  -19.2200 C   0  0  0  0  0
  -20.2890   23.0530  -19.8190 O   0  0  0  0  0
  -20.9560   21.9650  -17.9670 N   0  0  0  0  0
  -21.1500   23.1840  -17.1890 C   0  0  0  0  0
  -19.8540   23.9850  -17.0890 C   0  0  0  0  0
  -18.9350   23.6090  -16.3610 O   0  0  0  0  0
  -21.6670   22.8490  -15.7900 C   0  0  0  0  0
  -23.1530   22.5530  -15.7740 C   0  0  0  0  0
  -23.7060   22.2230  -16.8440 O   0  0  0  0  0
  -23.7670   22.6500  -14.6910 O   0  0  0  0  0
  -19.7030   25.0230  -17.7340 O   0  0  0  0  0
  -27.1976   10.4196  -23.9472 H   0  0  0  0  0
  -28.8714   10.6287  -24.0706 H   0  0  0  0  0
  -28.7023   11.9149  -22.2782 H   0  0  0  0  0
  -29.7207   10.0438  -21.1075 H   0  0  0  0  0
  -28.2360   10.1114  -20.2344 H   0  0  0  0  0
  -28.9064    7.8619  -21.4835 H   0  0  0  0  0
  -27.2407    8.3738  -21.4891 H   0  0  0  0  0
  -27.5443    8.2336  -23.8254 H   0  0  0  0  0
  -29.2373    8.4737  -23.7336 H   0  0  0  0  0
  -25.9366   10.7835  -23.5509 H   0  0  0  0  0
  -24.3081   12.0055  -21.3711 H   0  0  0  0  0
  -22.4300   10.7408  -22.2273 H   0  0  0  0  0
  -23.4482   10.1501  -23.6166 H   0  0  0  0  0
  -23.3926   10.1603  -19.8595 H   0  0  0  0  0
  -24.3960    8.0572  -23.4459 H   0  0  0  0  0
  -24.0788    8.2083  -18.5197 H   0  0  0  0  0
  -25.0848    6.1043  -22.1101 H   0  0  0  0  0
  -25.3098    5.2577  -20.0798 H   0  0  0  0  0
  -25.7670   13.1067  -23.9823 H   0  0  0  0  0
  -23.4092   14.4945  -25.1533 H   0  0  0  0  0
  -25.0295   13.5263  -26.7095 H   0  0  0  0  0
  -26.3326   14.4876  -25.9686 H   0  0  0  0  0
  -25.0067   15.3026  -26.8340 H   0  0  0  0  0
  -24.2108   16.8775  -25.8382 H   0  0  0  0  0
  -25.4174   18.1971  -23.4777 H   0  0  0  0  0
  -25.0391   18.9489  -25.0763 H   0  0  0  0  0
  -24.0613   20.7284  -24.0402 H   0  0  0  0  0
  -21.2207   20.2883  -23.7350 H   0  0  0  0  0
  -22.0378   22.3465  -24.7733 H   0  0  0  0  0
  -21.1581   22.7631  -23.2958 H   0  0  0  0  0
  -24.4517   23.3891  -25.5507 H   0  0  0  0  0
  -25.7293   23.8998  -23.4362 H   0  0  0  0  0
  -19.8831   20.8393  -21.9937 H   0  0  0  0  0
  -20.9234   19.9166  -19.4174 H   0  0  0  0  0
  -18.2036   21.0109  -20.2187 H   0  0  0  0  0
  -18.5347   21.0889  -17.7981 H   0  0  0  0  0
  -19.0228   19.3763  -17.7953 H   0  0  0  0  0
  -17.3570   19.8267  -18.2352 H   0  0  0  0  0
  -19.3667   19.5969  -22.9761 H   0  0  0  0  0
  -18.7353   17.2091  -22.4751 H   0  0  0  0  0
  -21.1639   21.0628  -17.5389 H   0  0  0  0  0
  -21.8914   23.7945  -17.7045 H   0  0  0  0  0
  -21.4902   23.7140  -15.1508 H   0  0  0  0  0
  -21.1435   21.9580  -15.4432 H   0  0  0  0  0
  -23.0546   22.2107  -17.5490 H   0  0  0  0  0
  -20.4923   25.1935  -18.2532 H   0  0  0  0  0
  1  2  1  0  0  0
  1  7  1  0  0  0
  2  3  1  0  0  0
  2  5  1  0  0  0
  3  4  2  0  0  0
  3  8  1  0  0  0
  5  6  1  0  0  0
  6  7  1  0  0  0
  8  9  1  0  0  0
  9 10  1  0  0  0
  9 12  1  0  0  0
 10 11  2  0  0  0
 10 20  1  0  0  0
 12 13  1  0  0  0
 13 14  4  0  0  0
 13 15  4  0  0  0
 14 16  4  0  0  0
 15 17  4  0  0  0
 16 18  4  0  0  0
 17 18  4  0  0  0
 18 19  1  0  0  0
 20 21  1  0  0  0
 21 22  1  0  0  0
 21 24  1  0  0  0
 22 23  2  0  0  0
 22 25  1  0  0  0
 25 26  1  0  0  0
 26 27  1  0  0  0
 27 28  2  0  0  0
 27 29  1  0  0  0
 29 30  1  0  0  0
 30 31  1  0  0  0
 30 33  1  0  0  0
 31 32  1  0  0  0
 32 35  1  0  0  0
 33 34  2  0  0  0
 33 39  1  0  0  0
 35 36  1  0  0  0
 35 37  2  0  0  0
 35 38  1  0  0  0
 39 40  1  0  0  0
 40 41  1  0  0  0
 40 48  1  0  0  0
 41 42  1  0  0  0
 41 43  1  0  0  0
 43 44  1  0  0  0
 44 45  1  0  0  0
 44 46  1  0  0  0
 44 47  2  0  0  0
 48 49  2  0  0  0
 48 50  1  0  0  0
 50 51  1  0  0  0
 51 52  1  0  0  0
 51 54  1  0  0  0
 52 53  2  0  0  0
 52 58  1  0  0  0
 54 55  1  0  0  0
 55 56  1  0  0  0
 55 57  2  0  0  0
  1 59  1  0  0  0
  1 60  1  0  0  0
  2 61  1  0  0  0
  5 62  1  0  0  0
  5 63  1  0  0  0
  6 64  1  0  0  0
  6 65  1  0  0  0
  7 66  1  0  0  0
  7 67  1  0  0  0
  8 68  1  0  0  0
  9 69  1  0  0  0
 12 70  1  0  0  0
 12 71  1  0  0  0
 14 72  1  0  0  0
 15 73  1  0  0  0
 16 74  1  0  0  0
 17 75  1  0  0  0
 19 76  1  0  0  0
 20 77  1  0  0  0
 21 78  1  0  0  0
 24 79  1  0  0  0
 24 80  1  0  0  0
 24 81  1  0  0  0
 25 82  1  0  0  0
 26 83  1  0  0  0
 26 84  1  0  0  0
 29 85  1  0  0  0
 30 86  1  0  0  0
 31 87  1  0  0  0
 31 88  1  0  0  0
 36 89  1  0  0  0
 38 90  1  0  0  0
 39 91  1  0  0  0
 40 92  1  0  0  0
 41 93  1  0  0  0
 42 94  1  0  0  0
 42 95  1  0  0  0
 42 96  1  0  0  0
 45 97  1  0  0  0
 46 98  1  0  0  0
 50 99  1  0  0  0
 51100  1  0  0  0
 54101  1  0  0  0
 54102  1  0  0  0
 56103  1  0  0  0
 58104  1  0  0  0
M  END
$$$$
