2v12_ligand
  -I-interpret- 

 83 83  0  0  0  0  0  0  0  0999 V2000
   15.5120   43.0430   70.2780 C   0  0  0  0  0
   15.7370   44.3980   70.6010 O   0  0  0  0  0
   14.5810   45.1530   70.2710 C   0  0  0  0  0
   13.8990   45.6740   71.5360 C   0  0  0  0  0
   13.6060   47.1680   71.4880 C   0  0  0  0  0
   12.7030   47.5570   72.5150 O   0  0  0  0  0
   12.6810   48.8420   73.0370 C   0  0  0  0  0
   13.8730   49.2170   73.5950 C   0  0  0  0  0
   14.0020   50.4830   74.0910 C   0  0  0  0  0
   12.9530   51.3700   74.0240 C   0  0  0  0  0
   11.7550   51.0270   73.4730 C   0  0  0  0  0
   11.6170   49.7630   72.9910 C   0  0  0  0  0
   10.4590   49.4420   72.3170 C   0  0  0  0  0
    9.3820   49.5780   72.8620 O   0  0  0  0  0
   10.5600   48.6870   71.2580 N   0  0  0  0  0
    9.4420   47.9010   70.8040 C   0  0  0  0  0
    9.3920   47.9170   69.3100 C   0  0  0  0  0
    9.8000   49.2600   68.6800 C   0  0  0  0  0
   11.2950   49.4220   68.4040 C   0  0  0  0  0
    9.1750   50.5110   69.2950 C   0  0  0  0  0
    8.0000   47.6100   68.8320 C   0  0  0  0  0
    7.1500   46.4770   69.3220 C   0  0  0  0  0
    7.9830   45.3270   69.5010 N   0  3  0  0  0
    6.0900   46.0550   68.3240 C   0  0  0  0  0
    6.7880   45.2180   67.4030 O   0  0  0  0  0
    4.9590   45.2790   68.9070 C   0  0  0  0  0
    3.7510   45.1450   68.0240 C   0  0  0  0  0
    2.8100   44.1580   68.6530 C   0  0  0  0  0
    3.0170   46.4290   67.8480 C   0  0  0  0  0
    3.1000   47.2770   68.7080 O   0  0  0  0  0
    2.2840   46.6730   66.8050 N   0  0  0  0  0
    2.4060   47.9420   66.1470 C   0  0  0  0  0
    2.0210   47.7670   64.7100 C   0  0  0  0  0
    2.4030   48.9950   63.8990 C   0  0  0  0  0
    2.8940   48.6200   62.4640 C   0  0  0  0  0
   14.6577   42.6728   70.8447 H   0  0  0  0  0
   15.3079   42.9542   69.2110 H   0  0  0  0  0
   16.3972   42.4590   70.5297 H   0  0  0  0  0
   13.8830   44.5125   69.7319 H   0  0  0  0  0
   14.8777   46.0017   69.6548 H   0  0  0  0  0
   14.5749   45.4967   72.3725 H   0  0  0  0  0
   12.9464   45.1537   71.6358 H   0  0  0  0  0
   13.1522   47.3994   70.5243 H   0  0  0  0  0
   14.5424   47.7075   71.6300 H   0  0  0  0  0
   14.7065   48.5162   73.6429 H   0  0  0  0  0
   14.9439   50.7929   74.5436 H   0  0  0  0  0
   13.0838   52.3759   74.4230 H   0  0  0  0  0
   10.9342   51.7423   73.4203 H   0  0  0  0  0
   11.4412   48.6530   70.7455 H   0  0  0  0  0
    8.5183   48.3212   71.2020 H   0  0  0  0  0
    9.5559   46.8743   71.1517 H   0  0  0  0  0
   10.1125   47.1611   68.9976 H   0  0  0  0  0
    9.3291   49.1795   67.7003 H   0  0  0  0  0
   11.8473   49.3370   69.3399 H   0  0  0  0  0
   11.6225   48.6432   67.7153 H   0  0  0  0  0
   11.4773   50.4009   67.9607 H   0  0  0  0  0
    8.0900   50.4542   69.2073 H   0  0  0  0  0
    9.4529   50.5748   70.3470 H   0  0  0  0  0
    9.5377   51.3935   68.7679 H   0  0  0  0  0
    8.1678   47.3393   67.7896 H   0  0  0  0  0
    7.4412   48.4821   69.1715 H   0  0  0  0  0
    6.6712   46.8239   70.2377 H   0  0  0  0  0
    7.4167   44.5471   69.8348 H   0  0  0  0  0
    8.4142   45.0790   68.6105 H   0  0  0  0  0
    8.7097   45.5382   70.1849 H   0  0  0  0  0
    5.6297   46.9431   67.8910 H   0  0  0  0  0
    6.1782   44.9058   66.7305 H   0  0  0  0  0
    4.6366   45.8181   69.7978 H   0  0  0  0  0
    5.3307   44.2696   69.0832 H   0  0  0  0  0
    4.0990   44.8204   67.0434 H   0  0  0  0  0
    3.3091   43.1940   68.7514 H   0  0  0  0  0
    2.5138   44.5175   69.6385 H   0  0  0  0  0
    1.9265   44.0487   68.0241 H   0  0  0  0  0
    1.6298   45.9717   66.4577 H   0  0  0  0  0
    3.4324   48.3020   66.2174 H   0  0  0  0  0
    1.7524   48.6735   66.6223 H   0  0  0  0  0
    0.9420   47.6254   64.6486 H   0  0  0  0  0
    2.5460   46.9009   64.3071 H   0  0  0  0  0
    3.2167   49.5044   64.4151 H   0  0  0  0  0
    1.5206   49.6276   63.8026 H   0  0  0  0  0
    3.7693   47.9747   62.5380 H   0  0  0  0  0
    2.0983   48.0959   61.9345 H   0  0  0  0  0
    3.1557   49.5287   61.9219 H   0  0  0  0  0
  1  2  1  0  0  0
  2  3  1  0  0  0
  3  4  1  0  0  0
  4  5  1  0  0  0
  5  6  1  0  0  0
  6  7  1  0  0  0
  7  8  4  0  0  0
  7 12  4  0  0  0
  8  9  4  0  0  0
  9 10  4  0  0  0
 10 11  4  0  0  0
 11 12  4  0  0  0
 12 13  1  0  0  0
 13 14  2  0  0  0
 13 15  1  0  0  0
 15 16  1  0  0  0
 16 17  1  0  0  0
 17 18  1  0  0  0
 17 21  1  0  0  0
 18 19  1  0  0  0
 18 20  1  0  0  0
 21 22  1  0  0  0
 22 23  1  0  0  0
 22 24  1  0  0  0
 24 25  1  0  0  0
 24 26  1  0  0  0
 26 27  1  0  0  0
 27 28  1  0  0  0
 27 29  1  0  0  0
 29 30  2  0  0  0
 29 31  1  0  0  0
 31 32  1  0  0  0
 32 33  1  0  0  0
 33 34  1  0  0  0
 34 35  1  0  0  0
  1 36  1  0  0  0
  1 37  1  0  0  0
  1 38  1  0  0  0
  3 39  1  0  0  0
  3 40  1  0  0  0
  4 41  1  0  0  0
  4 42  1  0  0  0
  5 43  1  0  0  0
  5 44  1  0  0  0
  8 45  1  0  0  0
  9 46  1  0  0  0
 10 47  1  0  0  0
 11 48  1  0  0  0
 15 49  1  0  0  0
 16 50  1  0  0  0
 16 51  1  0  0  0
 17 52  1  0  0  0
 18 53  1  0  0  0
 19 54  1  0  0  0
 19 55  1  0  0  0
 19 56  1  0  0  0
 20 57  1  0  0  0
 20 58  1  0  0  0
 20 59  1  0  0  0
 21 60  1  0  0  0
 21 61  1  0  0  0
 22 62  1  0  0  0
 23 63  1  0  0  0
 23 64  1  0  0  0
 23 65  1  0  0  0
 24 66  1  0  0  0
 25 67  1  0  0  0
 26 68  1  0  0  0
 26 69  1  0  0  0
 27 70  1  0  0  0
 28 71  1  0  0  0
 28 72  1  0  0  0
 28 73  1  0  0  0
 31 74  1  0  0  0
 32 75  1  0  0  0
 32 76  1  0  0  0
 33 77  1  0  0  0
 33 78  1  0  0  0
 34 79  1  0  0  0
 34 80  1  0  0  0
 35 81  1  0  0  0
 35 82  1  0  0  0
 35 83  1  0  0  0
M  END
$$$$
