2vtd_ligand
  -I-interpret- 

 53 55  0  0  0  0  0  0  0  0999 V2000
   -1.5900  -11.2160  -21.1870 N   0  0  0  0  0
   -1.4950  -12.3550  -21.2760 C   0  0  0  0  0
   -1.4160  -13.6220  -21.4690 C   0  0  0  0  0
   -1.2150  -14.5500  -20.4550 C   0  0  0  0  0
   -1.1500  -15.9090  -20.7670 C   0  0  0  0  0
   -1.5550  -14.0700  -22.7700 C   0  0  0  0  0
   -1.4890  -15.4200  -23.0720 C   0  0  0  0  0
   -1.2900  -16.3250  -22.0780 C   0  0  0  0  0
   -1.2130  -17.7630  -22.5010 C   0  0  0  0  0
   -0.8630  -18.5110  -21.3670 O   0  0  0  0  0
    0.3100  -19.1810  -21.1530 C   0  0  0  0  0
    1.3150  -19.4640  -22.0710 C   0  0  0  0  0
    2.4470  -20.1690  -21.6450 C   0  0  0  0  0
    0.4300  -19.6100  -19.8720 C   0  0  0  0  0
    1.5190  -20.3020  -19.4600 C   0  0  0  0  0
    2.5460  -20.5900  -20.3250 C   0  0  0  0  0
    3.6260  -21.3030  -19.8340 C   0  0  0  0  0
    1.5310  -20.6730  -18.1430 C   0  0  0  0  0
    2.5950  -21.3770  -17.6690 C   0  0  0  0  0
    3.6390  -21.6820  -18.5060 C   0  0  0  0  0
    4.7910  -22.5280  -17.8700 S   0  0  0  0  0
    5.9870  -22.3960  -18.6830 O   0  0  0  0  0
    5.0190  -22.1950  -16.4800 O   0  0  0  0  0
    4.2670  -23.9470  -17.8430 N   0  0  0  0  0
    4.0370  -24.7010  -19.0730 C   0  0  0  0  0
    5.2890  -25.3680  -19.5690 C   0  0  0  0  0
    6.0630  -25.8580  -18.7480 O   0  0  0  0  0
    5.4820  -25.4020  -20.7900 O   0  0  0  0  0
    2.9370  -25.7340  -18.7930 C   0  0  0  0  0
    2.5170  -26.4180  -20.0780 C   0  0  0  0  0
    1.3070  -27.3160  -19.9840 C   0  0  0  0  0
    0.5260  -27.2330  -19.0360 O   0  0  0  0  0
    1.1580  -28.1280  -20.9020 O   0  0  0  0  0
   -1.6170  -15.8710  -24.3240 F   0  0  0  0  0
   -1.1087  -14.2189  -19.4220 H   0  0  0  0  0
   -0.9888  -16.6424  -19.9769 H   0  0  0  0  0
   -1.7192  -13.3489  -23.5707 H   0  0  0  0  0
   -0.4716  -17.8919  -23.2896 H   0  0  0  0  0
   -2.1704  -18.0972  -22.9007 H   0  0  0  0  0
    1.2229  -19.1414  -23.1081 H   0  0  0  0  0
    3.2502  -20.3874  -22.3487 H   0  0  0  0  0
   -0.3661  -19.3935  -19.1596 H   0  0  0  0  0
    4.4578  -21.5627  -20.4888 H   0  0  0  0  0
    0.7030  -20.4094  -17.4850 H   0  0  0  0  0
    2.6179  -21.6977  -16.6275 H   0  0  0  0  0
    4.0696  -24.3878  -16.9446 H   0  0  0  0  0
    3.7255  -24.0175  -19.8629 H   0  0  0  0  0
    4.7566  -24.9626  -21.2398 H   0  0  0  0  0
    2.0740  -25.2264  -18.3621 H   0  0  0  0  0
    3.3209  -26.4832  -18.1006 H   0  0  0  0  0
    3.3502  -27.0564  -20.3717 H   0  0  0  0  0
    2.2552  -25.6233  -20.7766 H   0  0  0  0  0
    1.8724  -28.0278  -21.5354 H   0  0  0  0  0
  1  2  3  0  0  0
  2  3  1  0  0  0
  3  4  4  0  0  0
  3  6  4  0  0  0
  4  5  4  0  0  0
  5  8  4  0  0  0
  6  7  4  0  0  0
  7  8  4  0  0  0
  7 34  1  0  0  0
  8  9  1  0  0  0
  9 10  1  0  0  0
 10 11  1  0  0  0
 11 12  4  0  0  0
 11 14  4  0  0  0
 12 13  4  0  0  0
 13 16  4  0  0  0
 14 15  4  0  0  0
 15 16  4  0  0  0
 15 18  4  0  0  0
 16 17  4  0  0  0
 17 20  4  0  0  0
 18 19  4  0  0  0
 19 20  4  0  0  0
 20 21  1  0  0  0
 21 22  2  0  0  0
 21 23  2  0  0  0
 21 24  1  0  0  0
 24 25  1  0  0  0
 25 26  1  0  0  0
 25 29  1  0  0  0
 26 27  2  0  0  0
 26 28  1  0  0  0
 29 30  1  0  0  0
 30 31  1  0  0  0
 31 32  2  0  0  0
 31 33  1  0  0  0
  4 35  1  0  0  0
  5 36  1  0  0  0
  6 37  1  0  0  0
  9 38  1  0  0  0
  9 39  1  0  0  0
 12 40  1  0  0  0
 13 41  1  0  0  0
 14 42  1  0  0  0
 17 43  1  0  0  0
 18 44  1  0  0  0
 19 45  1  0  0  0
 24 46  1  0  0  0
 25 47  1  0  0  0
 28 48  1  0  0  0
 29 49  1  0  0  0
 29 50  1  0  0  0
 30 51  1  0  0  0
 30 52  1  0  0  0
 33 53  1  0  0  0
M  END
$$$$
