4mvx_ligand
  -I-interpret- 

 43 44  0  0  0  0  0  0  0  0999 V2000
  -45.6720  -13.7090  -12.7080 O   0  0  0  0  0
  -42.0160  -17.1800   -7.0640 Cl  0  0  0  0  0
  -37.1160  -14.9390   -6.9770 Cl  0  0  0  0  0
  -44.8450  -17.6790  -15.9750 C   0  0  0  0  0
  -45.7850  -16.7490  -15.6020 C   0  0  0  0  0
  -43.5340  -17.5300  -15.5700 C   0  0  0  0  0
  -45.4290  -15.6710  -14.8060 C   0  0  0  0  0
  -43.1580  -16.4530  -14.7850 C   0  0  0  0  0
  -39.6430  -15.9140   -7.1580 C   0  0  0  0  0
  -41.6120  -14.5250   -7.0420 C   0  0  0  0  0
  -39.4370  -13.5130   -7.0420 C   0  0  0  0  0
  -43.3500  -11.2910  -10.0510 C   0  0  0  0  0
  -42.8740  -12.0840   -8.8480 C   0  0  0  0  0
  -44.3600  -12.0040  -10.9330 C   0  0  0  0  0
  -41.4930  -12.0370   -6.8130 C   0  0  0  0  0
  -41.9090  -11.3360   -8.0370 N   0  3  0  0  0
  -43.7440  -12.7700  -12.0110 N   0  0  0  0  0
  -43.6750  -14.4620  -13.5430 N   0  0  0  0  0
  -44.4440  -13.6530  -12.7470 C   0  0  0  0  0
  -41.0150  -15.7630   -7.1130 C   0  0  0  0  0
  -38.8680  -14.7740   -7.1000 C   0  0  0  0  0
  -40.8270  -13.3830   -7.0000 C   0  0  0  0  0
  -44.1080  -15.5180  -14.3880 C   0  0  0  0  0
  -45.1338  -18.5321  -16.5890 H   0  0  0  0  0
  -46.8173  -16.8594  -15.9340 H   0  0  0  0  0
  -42.7885  -18.2662  -15.8705 H   0  0  0  0  0
  -46.1827  -14.9426  -14.5068 H   0  0  0  0  0
  -42.1183  -16.3381  -14.4785 H   0  0  0  0  0
  -39.1875  -16.9011   -7.2367 H   0  0  0  0  0
  -42.6986  -14.4426   -7.0189 H   0  0  0  0  0
  -38.8033  -12.6262   -7.0292 H   0  0  0  0  0
  -42.4725  -11.1007  -10.6689 H   0  0  0  0  0
  -43.8445  -10.4000   -9.6642 H   0  0  0  0  0
  -42.3836  -12.9875   -9.2103 H   0  0  0  0  0
  -43.7401  -12.3063   -8.2246 H   0  0  0  0  0
  -44.9942  -11.2439  -11.3892 H   0  0  0  0  0
  -44.9110  -12.7036  -10.3044 H   0  0  0  0  0
  -42.4059  -12.2274   -6.2488 H   0  0  0  0  0
  -40.7514  -11.3967   -6.3353 H   0  0  0  0  0
  -42.3605  -10.4671   -7.7514 H   0  0  0  0  0
  -41.0746  -11.1982   -8.6072 H   0  0  0  0  0
  -42.7537  -12.6323  -12.2128 H   0  0  0  0  0
  -42.6708  -14.2840  -13.5263 H   0  0  0  0  0
 19  1  2  0  0  0
 20  2  1  0  0  0
 21  3  1  0  0  0
  5  4  4  0  0  0
  6  4  4  0  0  0
  7  5  4  0  0  0
  8  6  4  0  0  0
 23  7  4  0  0  0
 23  8  4  0  0  0
 20  9  4  0  0  0
 21  9  4  0  0  0
 10 20  4  0  0  0
 22 10  4  0  0  0
 11 21  4  0  0  0
 22 11  4  0  0  0
 12 13  1  0  0  0
 14 12  1  0  0  0
 13 16  1  0  0  0
 17 14  1  0  0  0
 16 15  1  0  0  0
 15 22  1  0  0  0
 19 17  1  0  0  0
 18 19  1  0  0  0
 18 23  1  0  0  0
  4 24  1  0  0  0
  5 25  1  0  0  0
  6 26  1  0  0  0
  7 27  1  0  0  0
  8 28  1  0  0  0
  9 29  1  0  0  0
 10 30  1  0  0  0
 11 31  1  0  0  0
 12 32  1  0  0  0
 12 33  1  0  0  0
 13 34  1  0  0  0
 13 35  1  0  0  0
 14 36  1  0  0  0
 14 37  1  0  0  0
 15 38  1  0  0  0
 15 39  1  0  0  0
 16 40  1  0  0  0
 16 41  1  0  0  0
 17 42  1  0  0  0
 18 43  1  0  0  0
M  END
$$$$
