### 
### Created by X-TOOL on Mon Sep 10 21:13:18 2018
### 

@<TRIPOS>MOLECULE
4qh8_ligand
  145   144     1     0     0
SMALL
GAST_HUCK


@<TRIPOS>ATOM
      1 N         -28.5410   40.0280   65.5880 N.4       1 TYR         0.2377
      2 CA        -27.6000   41.0420   65.1150 C.3       1 TYR         0.0621
      3 C         -26.1620   40.5280   65.1540 C.2       1 TYR         0.2265
      4 O         -25.5490   40.4570   66.2200 O.2       1 TYR        -0.3907
      5 CB        -27.7300   42.3230   65.9350 C.3       1 TYR        -0.0040
      6 N         -25.6300   40.1790   63.9840 N.am      1 SER        -0.2589
      7 CA        -24.2910   39.6050   63.8810 C.3       1 SER         0.1540
      8 C         -23.3180   40.5390   63.1680 C.2       1 SER         0.2063
      9 O         -23.7040   41.2850   62.2660 O.2       1 SER        -0.3943
     10 CB        -24.3380   38.2550   63.1560 C.3       1 SER         0.0843
     11 OG        -24.6720   38.4170   61.7870 O.3       1 SER        -0.3903
     12 N         -22.0540   40.4840   63.5780 N.am      1 SER        -0.2615
     13 CA        -21.0040   41.2750   62.9450 C.3       1 SER         0.1539
     14 C         -19.8210   40.3970   62.5290 C.2       1 SER         0.2063
     15 O         -19.5850   39.3320   63.1030 O.2       1 SER        -0.3943
     16 CB        -20.5370   42.3960   63.8760 C.3       1 SER         0.0843
     17 OG        -19.6790   43.3000   63.1990 O.3       1 SER        -0.3903
     18 N         -19.0800   40.8560   61.5270 N.am      1 THR        -0.2613
     19 CA        -17.9790   40.0820   60.9580 C.3       1 THR         0.1565
     20 C         -16.6320   40.8020   61.0890 C.2       1 THR         0.2065
     21 O         -16.4830   41.9360   60.6380 O.2       1 THR        -0.3943
     22 CB        -18.2560   39.7700   59.4780 C.3       1 THR         0.0924
     23 OG1       -19.1720   38.6720   59.3810 O.3       1 THR        -0.3874
     24 CG2       -16.9800   39.4080   58.7730 C.3       1 THR        -0.0346
     25 N         -15.6490   40.1400   61.6960 N.am      1 THR        -0.2613
     26 CA        -14.3520   40.7710   61.9350 C.3       1 THR         0.1565
     27 C         -13.1660   39.7940   61.8640 C.2       1 THR         0.2063
     28 O         -13.2770   38.6050   62.2090 O.2       1 THR        -0.3943
     29 CB        -14.3320   41.5370   63.2880 C.3       1 THR         0.0924
     30 OG1       -13.0710   42.1980   63.4560 O.3       1 THR        -0.3874
     31 CG2       -14.5490   40.5840   64.4420 C.3       1 THR        -0.0346
     32 N         -12.0310   40.3110   61.4060 N.am      1 GLY        -0.2663
     33 CA        -10.8230   39.5170   61.2850 C.3       1 GLY         0.1201
     34 C          -9.8010   39.8640   62.3530 C.2       1 GLY         0.2008
     35 O          -9.7630   40.9940   62.8380 O.2       1 GLY        -0.3947
     36 N          -8.9790   38.8890   62.7270 N.am      1 THR        -0.2616
     37 CA         -7.9140   39.1180   63.6990 C.3       1 THR         0.1565
     38 C          -6.6210   38.5720   63.1300 C.2       1 THR         0.2065
     39 O          -6.6440   37.6420   62.3340 O.2       1 THR        -0.3943
     40 CB         -8.1970   38.4240   65.0640 C.3       1 THR         0.0924
     41 OG1        -8.1980   36.9990   64.9020 O.3       1 THR        -0.3874
     42 CG2        -9.5380   38.8800   65.6460 C.3       1 THR        -0.0346
     43 N          -5.4980   39.1570   63.5230 N.am      1 GLN        -0.2635
     44 CA         -4.1950   38.6640   63.0950 C.3       1 GLN         0.1330
     45 C          -3.1970   38.7980   64.2320 C.2       1 GLN         0.2041
     46 O          -3.1360   39.8390   64.8710 O.2       1 GLN        -0.3944
     47 CB         -3.7000   39.4490   61.8740 C.3       1 GLN         0.0045
     48 CG         -2.3090   39.0360   61.3910 C.3       1 GLN         0.0412
     49 CD         -2.2940   37.6300   60.8140 C.2       1 GLN         0.1737
     50 OE1        -3.1930   37.2500   60.0700 O.2       1 GLN        -0.3973
     51 NE2        -1.2800   36.8510   61.1670 N.am      1 GLN        -0.3009
     52 N          -2.4320   37.7390   64.5020 N.am      1 CYS        -0.2629
     53 CA         -1.3620   37.8200   65.4980 C.3       1 CYS         0.1396
     54 C          -0.1180   37.0800   65.0340 C.2       1 CYS         0.2048
     55 O          -0.2050   36.1210   64.2680 O.2       1 CYS        -0.3944
     56 CB         -1.8080   37.3040   66.8780 C.3       1 CYS         0.0311
     57 SG         -2.0450   35.5090   67.0450 S.3       1 CYS        -0.1735
     58 N           1.0370   37.5490   65.4930 N.am      1 ASP        -0.2621
     59 CA          2.3010   36.8730   65.2510 C.3       1 ASP         0.1423
     60 C           3.2770   37.2960   66.3380 C.2       1 ASP         0.2056
     61 O           4.2200   38.0650   66.1150 O.2       1 ASP        -0.3943
     62 CB          2.8540   37.1890   63.8610 C.3       1 ASP         0.0406
     63 CG          4.0060   36.2810   63.4790 C.2       1 ASP         0.0393
     64 OD1         4.2330   35.2680   64.1880 O.co2     1 ASP        -0.5688
     65 OD2         4.6840   36.5800   62.4730 O.co2     1 ASP        -0.5688
     66 N           3.0200   36.7880   67.5330 N.am      1 ILE        -0.2634
     67 CA          3.7810   37.1640   68.6990 C.3       1 ILE         0.1332
     68 C           3.6500   36.0370   69.7180 C.2       1 ILE         0.1994
     69 O           2.5870   35.8250   70.3160 O.2       1 ILE        -0.3947
     70 CB          3.3410   38.5740   69.2390 C.3       1 ILE        -0.0037
     71 CG1         4.3460   39.1200   70.2690 C.3       1 ILE        -0.0491
     72 CG2         1.8640   38.5920   69.7120 C.3       1 ILE        -0.0582
     73 CD1         5.6120   39.7090   69.6390 C.3       1 ILE        -0.0648
     74 N           4.7280   35.2720   69.8570 N.am      1 ALA        -0.2990
     75 H         -29.4786   40.3962   65.5504 H         1 TYR         0.2015
     76 H         -28.3161   39.7781   66.5383 H         1 TYR         0.2015
     77 H         -28.4772   39.2107   65.0015 H         1 TYR         0.2015
     78 H         -27.8500   41.2766   64.0698 H         1 TYR         0.1095
     79 H         -27.0143   43.0708   65.5628 H         1 TYR         0.0310
     80 H         -27.5163   42.1052   66.9918 H         1 TYR         0.0310
     81 H         -28.7530   42.7162   65.8412 H         1 TYR         0.0310
     82 H         -26.1643   40.3143   63.1496 H         1 SER         0.1885
     83 H         -23.9162   39.4372   64.9015 H         1 SER         0.0823
     84 H         -25.0941   37.6164   63.6362 H         1 SER         0.0606
     85 H         -23.3515   37.7741   63.2297 H         1 SER         0.0606
     86 H         -24.0199   38.9645   61.3657 H         1 SER         0.2097
     87 H         -21.8166   39.8836   64.3416 H         1 SER         0.1884
     88 H         -21.4237   41.7344   62.0379 H         1 SER         0.0823
     89 H         -19.9951   41.9547   64.7255 H         1 SER         0.0606
     90 H         -21.4157   42.9443   64.2465 H         1 SER         0.0606
     91 H         -19.4048   43.9839   63.7986 H         1 SER         0.2097
     92 H         -19.2819   41.7599   61.1500 H         1 THR         0.1884
     93 H         -17.9129   39.1318   61.5082 H         1 THR         0.0826
     94 H         -18.6963   40.6567   58.9986 H         1 THR         0.0639
     95 H         -18.7939   37.9077   59.7998 H         1 THR         0.2101
     96 H         -17.1944   39.1879   57.7168 H         1 THR         0.0257
     97 H         -16.5366   38.5213   59.2496 H         1 THR         0.0257
     98 H         -16.2746   40.2497   58.8362 H         1 THR         0.0257
     99 H         -15.8001   39.1971   61.9928 H         1 THR         0.1884
    100 H         -14.2075   41.5114   61.1344 H         1 THR         0.0826
    101 H         -15.1365   42.2872   63.2851 H         1 THR         0.0639
    102 H         -13.0665   42.6634   64.2842 H         1 THR         0.2101
    103 H         -14.5314   41.1443   65.3885 H         1 THR         0.0257
    104 H         -13.7499   39.8281   64.4486 H         1 THR         0.0257
    105 H         -15.5235   40.0865   64.3285 H         1 THR         0.0257
    106 H         -12.0089   41.2740   61.1373 H         1 GLY         0.1881
    107 H         -10.3773   39.6980   60.2958 H         1 GLY         0.0763
    108 H         -11.0869   38.4533   61.3792 H         1 GLY         0.0763
    109 H          -9.0927   37.9768   62.3333 H         1 THR         0.1884
    110 H          -7.8137   40.2004   63.8672 H         1 THR         0.0826
    111 H          -7.3979   38.6995   65.7679 H         1 THR         0.0639
    112 H          -8.8730   36.7525   64.2806 H         1 THR         0.2101
    113 H          -9.7111   38.3748   66.6077 H         1 THR         0.0257
    114 H         -10.3474   38.6240   64.9465 H         1 THR         0.0257
    115 H          -9.5188   39.9687   65.8020 H         1 THR         0.0257
    116 H          -5.5460   39.9534   64.1259 H         1 GLN         0.1883
    117 H          -4.2876   37.6024   62.8222 H         1 GLN         0.0801
    118 H          -3.6718   40.5166   62.1374 H         1 GLN         0.0337
    119 H          -4.4124   39.2932   61.0505 H         1 GLN         0.0337
    120 H          -1.6124   39.0771   62.2413 H         1 GLN         0.0504
    121 H          -1.9804   39.7412   60.6134 H         1 GLN         0.0504
    122 H          -1.2216   35.9165   60.8159 H         1 GLN         0.1814
    123 H          -0.5740   37.1983   61.7842 H         1 GLN         0.1814
    124 H          -2.5915   36.8787   64.0178 H         1 CYS         0.1884
    125 H          -1.0980   38.8819   65.6105 H         1 CYS         0.0808
    126 H          -2.7642   37.7899   67.1218 H         1 CYS         0.0422
    127 H          -1.0450   37.6083   67.6096 H         1 CYS         0.0422
    128 H          -1.1776   35.0366   66.8439 H         1 CYS         0.1019
    129 H           1.0370   38.3967   66.0235 H         1 ASP         0.1884
    130 H           2.1409   35.7868   65.3183 H         1 ASP         0.0819
    131 H           3.2062   38.2310   63.8491 H         1 ASP         0.0478
    132 H           2.0474   37.0661   63.1232 H         1 ASP         0.0478
    133 H           2.2776   36.1251   67.6300 H         1 ILE         0.1883
    134 H           4.8406   37.2412   68.4141 H         1 ILE         0.0802
    135 H           3.3866   39.2606   68.3809 H         1 ILE         0.0345
    136 H           4.6407   38.2973   70.9371 H         1 ILE         0.0267
    137 H           3.8501   39.9082   70.8545 H         1 ILE         0.0267
    138 H           1.2197   38.1867   68.9179 H         1 ILE         0.0235
    139 H           1.5633   39.6261   69.9360 H         1 ILE         0.0235
    140 H           1.7614   37.9759   70.6175 H         1 ILE         0.0235
    141 H           6.2792   40.0771   70.4323 H         1 ILE         0.0230
    142 H           5.3377   40.5419   68.9749 H         1 ILE         0.0230
    143 H           6.1283   38.9310   69.0575 H         1 ILE         0.0230
    144 H           4.7210   34.5114   70.5062 H         1 ALA         0.1815
    145 H           5.5460   35.4571   69.3124 H         1 ALA         0.1815
@<TRIPOS>BOND
     1    1    2 1  
     2    2    3 1  
     3    2    5 1  
     4    3    4 2  
     5    3    6 am 
     6    6    7 1  
     7    7    8 1  
     8    7   10 1  
     9    8    9 2  
    10    8   12 am 
    11   10   11 1  
    12   12   13 1  
    13   13   14 1  
    14   13   16 1  
    15   14   15 2  
    16   14   18 am 
    17   16   17 1  
    18   18   19 1  
    19   19   20 1  
    20   19   22 1  
    21   20   21 2  
    22   20   25 am 
    23   22   23 1  
    24   22   24 1  
    25   25   26 1  
    26   26   27 1  
    27   26   29 1  
    28   27   28 2  
    29   27   32 am 
    30   29   30 1  
    31   29   31 1  
    32   32   33 1  
    33   33   34 1  
    34   34   35 2  
    35   34   36 am 
    36   36   37 1  
    37   37   38 1  
    38   37   40 1  
    39   38   39 2  
    40   38   43 am 
    41   40   41 1  
    42   40   42 1  
    43   43   44 1  
    44   44   45 1  
    45   44   47 1  
    46   45   46 2  
    47   45   52 am 
    48   47   48 1  
    49   48   49 1  
    50   49   50 2  
    51   49   51 am 
    52   52   53 1  
    53   53   54 1  
    54   53   56 1  
    55   54   55 2  
    56   54   58 am 
    57   56   57 1  
    58   58   59 1  
    59   59   60 1  
    60   59   62 1  
    61   60   61 2  
    62   60   66 am 
    63   62   63 1  
    64   63   64 ar 
    65   63   65 ar 
    66   66   67 1  
    67   67   68 1  
    68   67   70 1  
    69   68   69 2  
    70   68   74 am 
    71   70   71 1  
    72   70   72 1  
    73   71   73 1  
    74    1   75 1  
    75    1   76 1  
    76    1   77 1  
    77    2   78 1  
    78    5   79 1  
    79    5   80 1  
    80    5   81 1  
    81    6   82 1  
    82    7   83 1  
    83   10   84 1  
    84   10   85 1  
    85   11   86 1  
    86   12   87 1  
    87   13   88 1  
    88   16   89 1  
    89   16   90 1  
    90   17   91 1  
    91   18   92 1  
    92   19   93 1  
    93   22   94 1  
    94   23   95 1  
    95   24   96 1  
    96   24   97 1  
    97   24   98 1  
    98   25   99 1  
    99   26  100 1  
   100   29  101 1  
   101   30  102 1  
   102   31  103 1  
   103   31  104 1  
   104   31  105 1  
   105   32  106 1  
   106   33  107 1  
   107   33  108 1  
   108   36  109 1  
   109   37  110 1  
   110   40  111 1  
   111   41  112 1  
   112   42  113 1  
   113   42  114 1  
   114   42  115 1  
   115   43  116 1  
   116   44  117 1  
   117   47  118 1  
   118   47  119 1  
   119   48  120 1  
   120   48  121 1  
   121   51  122 1  
   122   51  123 1  
   123   52  124 1  
   124   53  125 1  
   125   56  126 1  
   126   56  127 1  
   127   57  128 1  
   128   58  129 1  
   129   59  130 1  
   130   62  131 1  
   131   62  132 1  
   132   66  133 1  
   133   67  134 1  
   134   70  135 1  
   135   71  136 1  
   136   71  137 1  
   137   72  138 1  
   138   72  139 1  
   139   72  140 1  
   140   73  141 1  
   141   73  142 1  
   142   73  143 1  
   143   74  144 1  
   144   74  145 1  
@<TRIPOS>SUBSTRUCTURE
     1 TYR         1

