4qh8_ligand
  -I-interpret- 

146145  0  0  0  0  0  0  0  0999 V2000
  -28.5410   40.0280   65.5880 N   0  3  0  0  0
  -27.6000   41.0420   65.1150 C   0  0  0  0  0
  -26.1620   40.5280   65.1540 C   0  0  0  0  0
  -25.5490   40.4570   66.2200 O   0  0  0  0  0
  -27.7300   42.3230   65.9350 C   0  0  0  0  0
  -25.6300   40.1790   63.9840 N   0  0  0  0  0
  -24.2910   39.6050   63.8810 C   0  0  0  0  0
  -23.3180   40.5390   63.1680 C   0  0  0  0  0
  -23.7040   41.2850   62.2660 O   0  0  0  0  0
  -24.3380   38.2550   63.1560 C   0  0  0  0  0
  -24.6720   38.4170   61.7870 O   0  0  0  0  0
  -22.0540   40.4840   63.5780 N   0  0  0  0  0
  -21.0040   41.2750   62.9450 C   0  0  0  0  0
  -19.8210   40.3970   62.5290 C   0  0  0  0  0
  -19.5850   39.3320   63.1030 O   0  0  0  0  0
  -20.5370   42.3960   63.8760 C   0  0  0  0  0
  -19.6790   43.3000   63.1990 O   0  0  0  0  0
  -19.0800   40.8560   61.5270 N   0  0  0  0  0
  -17.9790   40.0820   60.9580 C   0  0  0  0  0
  -16.6320   40.8020   61.0890 C   0  0  0  0  0
  -16.4830   41.9360   60.6380 O   0  0  0  0  0
  -18.2560   39.7700   59.4780 C   0  0  0  0  0
  -19.1720   38.6720   59.3810 O   0  0  0  0  0
  -16.9800   39.4080   58.7730 C   0  0  0  0  0
  -15.6490   40.1400   61.6960 N   0  0  0  0  0
  -14.3520   40.7710   61.9350 C   0  0  0  0  0
  -13.1660   39.7940   61.8640 C   0  0  0  0  0
  -13.2770   38.6050   62.2090 O   0  0  0  0  0
  -14.3320   41.5370   63.2880 C   0  0  0  0  0
  -13.0710   42.1980   63.4560 O   0  0  0  0  0
  -14.5490   40.5840   64.4420 C   0  0  0  0  0
  -12.0310   40.3110   61.4060 N   0  0  0  0  0
  -10.8230   39.5170   61.2850 C   0  0  0  0  0
   -9.8010   39.8640   62.3530 C   0  0  0  0  0
   -9.7630   40.9940   62.8380 O   0  0  0  0  0
   -8.9790   38.8890   62.7270 N   0  0  0  0  0
   -7.9140   39.1180   63.6990 C   0  0  0  0  0
   -6.6210   38.5720   63.1300 C   0  0  0  0  0
   -6.6440   37.6420   62.3340 O   0  0  0  0  0
   -8.1970   38.4240   65.0640 C   0  0  0  0  0
   -8.1980   36.9990   64.9020 O   0  0  0  0  0
   -9.5380   38.8800   65.6460 C   0  0  0  0  0
   -5.4980   39.1570   63.5230 N   0  0  0  0  0
   -4.1950   38.6640   63.0950 C   0  0  0  0  0
   -3.1970   38.7980   64.2320 C   0  0  0  0  0
   -3.1360   39.8390   64.8710 O   0  0  0  0  0
   -3.7000   39.4490   61.8740 C   0  0  0  0  0
   -2.3090   39.0360   61.3910 C   0  0  0  0  0
   -2.2940   37.6300   60.8140 C   0  0  0  0  0
   -3.1930   37.2500   60.0700 O   0  0  0  0  0
   -1.2800   36.8510   61.1670 N   0  0  0  0  0
   -2.4320   37.7390   64.5020 N   0  0  0  0  0
   -1.3620   37.8200   65.4980 C   0  0  0  0  0
   -0.1180   37.0800   65.0340 C   0  0  0  0  0
   -0.2050   36.1210   64.2680 O   0  0  0  0  0
   -1.8080   37.3040   66.8780 C   0  0  0  0  0
   -2.0450   35.5090   67.0450 S   0  0  0  0  0
    1.0370   37.5490   65.4930 N   0  0  0  0  0
    2.3010   36.8730   65.2510 C   0  0  0  0  0
    3.2770   37.2960   66.3380 C   0  0  0  0  0
    4.2200   38.0650   66.1150 O   0  0  0  0  0
    2.8540   37.1890   63.8610 C   0  0  0  0  0
    4.0060   36.2810   63.4790 C   0  0  0  0  0
    4.2330   35.2680   64.1880 O   0  0  0  0  0
    4.6840   36.5800   62.4730 O   0  0  0  0  0
    3.0200   36.7880   67.5330 N   0  0  0  0  0
    3.7810   37.1640   68.6990 C   0  0  0  0  0
    3.6500   36.0370   69.7180 C   0  0  0  0  0
    2.5870   35.8250   70.3160 O   0  0  0  0  0
    3.3410   38.5740   69.2390 C   0  0  0  0  0
    4.3460   39.1200   70.2690 C   0  0  0  0  0
    1.8640   38.5920   69.7120 C   0  0  0  0  0
    5.6120   39.7090   69.6390 C   0  0  0  0  0
    4.7280   35.2720   69.8570 N   0  0  0  0  0
  -28.4375   39.1821   65.0276 H   0  0  0  0  0
  -28.3462   39.8151   66.5663 H   0  0  0  0  0
  -29.4935   40.3819   65.4990 H   0  0  0  0  0
  -27.8488   41.2655   64.0776 H   0  0  0  0  0
  -27.4529   42.1204   66.9695 H   0  0  0  0  0
  -27.0687   43.0853   65.5230 H   0  0  0  0  0
  -28.7609   42.6748   65.8959 H   0  0  0  0  0
  -26.1750   40.3170   63.1329 H   0  0  0  0  0
  -23.9286   39.4591   64.8986 H   0  0  0  0  0
  -25.0993   37.6339   63.6279 H   0  0  0  0  0
  -23.3534   37.7918   63.2206 H   0  0  0  0  0
  -24.6938   37.5574   61.3602 H   0  0  0  0  0
  -21.8118   39.8716   64.3569 H   0  0  0  0  0
  -21.4230   41.7230   62.0440 H   0  0  0  0  0
  -19.9892   41.9525   64.7075 H   0  0  0  0  0
  -21.4115   42.9433   64.2280 H   0  0  0  0  0
  -19.4019   43.9911   63.8050 H   0  0  0  0  0
  -19.2860   41.7780   61.1425 H   0  0  0  0  0
  -17.9150   39.1540   61.5261 H   0  0  0  0  0
  -18.6859   40.6554   59.0096 H   0  0  0  0  0
  -19.3427   38.4799   58.4560 H   0  0  0  0  0
  -16.2819   40.2427   58.8364 H   0  0  0  0  0
  -16.5416   38.5294   59.2462 H   0  0  0  0  0
  -17.1937   39.1901   57.7266 H   0  0  0  0  0
  -15.8032   39.1783   61.9988 H   0  0  0  0  0
  -14.2243   41.4811   61.1180 H   0  0  0  0  0
  -15.1361   42.2728   63.2767 H   0  0  0  0  0
  -13.0665   42.6683   64.2929 H   0  0  0  0  0
  -15.5148   40.0917   64.3283 H   0  0  0  0  0
  -13.7566   39.8355   64.4474 H   0  0  0  0  0
  -14.5314   41.1403   65.3792 H   0  0  0  0  0
  -12.0084   41.2932   61.1319 H   0  0  0  0  0
  -10.3787   39.7208   60.3107 H   0  0  0  0  0
  -11.0932   38.4675   61.4017 H   0  0  0  0  0
   -9.0949   37.9586   62.3254 H   0  0  0  0  0
   -7.8500   40.1905   63.8827 H   0  0  0  0  0
   -7.4061   38.7088   65.7579 H   0  0  0  0  0
   -8.3732   36.5819   65.7487 H   0  0  0  0  0
   -9.5177   39.9589   65.8000 H   0  0  0  0  0
  -10.3391   38.6258   64.9520 H   0  0  0  0  0
   -9.7083   38.3788   66.5988 H   0  0  0  0  0
   -5.5470   39.9693   64.1379 H   0  0  0  0  0
   -4.2910   37.6138   62.8195 H   0  0  0  0  0
   -3.6429   40.4978   62.1654 H   0  0  0  0  0
   -4.3967   39.2525   61.0591 H   0  0  0  0  0
   -1.6332   39.0584   62.2459 H   0  0  0  0  0
   -2.0041   39.7276   60.6056 H   0  0  0  0  0
   -1.2260   35.8943   60.8173 H   0  0  0  0  0
   -0.5543   37.2087   61.7881 H   0  0  0  0  0
   -2.5946   36.8615   64.0081 H   0  0  0  0  0
   -1.1184   38.8770   65.6053 H   0  0  0  0  0
   -2.7835   37.7532   67.0644 H   0  0  0  0  0
   -1.0063   37.5655   67.5686 H   0  0  0  0  0
   -2.4272   35.2276   68.2874 H   0  0  0  0  0
    1.0370   38.4136   66.0341 H   0  0  0  0  0
    2.1489   35.7941   65.2827 H   0  0  0  0  0
    3.2211   38.2153   63.8688 H   0  0  0  0  0
    2.0528   37.0409   63.1370 H   0  0  0  0  0
    3.5954   35.2310   64.9047 H   0  0  0  0  0
    2.2627   36.1119   67.6320 H   0  0  0  0  0
    4.8372   37.2860   68.4589 H   0  0  0  0  0
    3.3669   39.2752   68.4048 H   0  0  0  0  0
    4.6529   38.2857   70.8998 H   0  0  0  0  0
    3.8500   39.9218   70.8159 H   0  0  0  0  0
    1.2132   38.3328   68.8769 H   0  0  0  0  0
    1.7323   37.8673   70.5155 H   0  0  0  0  0
    1.6122   39.5885   70.0749 H   0  0  0  0  0
    6.1226   38.9372   69.0631 H   0  0  0  0  0
    5.3389   40.5341   68.9812 H   0  0  0  0  0
    6.2722   40.0734   70.4260 H   0  0  0  0  0
    4.7039   34.4652   70.4806 H   0  0  0  0  0
    5.5794   35.4917   69.3401 H   0  0  0  0  0
  1  2  1  0  0  0
  2  3  1  0  0  0
  2  5  1  0  0  0
  3  4  2  0  0  0
  3  6  1  0  0  0
  6  7  1  0  0  0
  7  8  1  0  0  0
  7 10  1  0  0  0
  8  9  2  0  0  0
  8 12  1  0  0  0
 10 11  1  0  0  0
 12 13  1  0  0  0
 13 14  1  0  0  0
 13 16  1  0  0  0
 14 15  2  0  0  0
 14 18  1  0  0  0
 16 17  1  0  0  0
 18 19  1  0  0  0
 19 20  1  0  0  0
 19 22  1  0  0  0
 20 21  2  0  0  0
 20 25  1  0  0  0
 22 23  1  0  0  0
 22 24  1  0  0  0
 25 26  1  0  0  0
 26 27  1  0  0  0
 26 29  1  0  0  0
 27 28  2  0  0  0
 27 32  1  0  0  0
 29 30  1  0  0  0
 29 31  1  0  0  0
 32 33  1  0  0  0
 33 34  1  0  0  0
 34 35  2  0  0  0
 34 36  1  0  0  0
 36 37  1  0  0  0
 37 38  1  0  0  0
 37 40  1  0  0  0
 38 39  2  0  0  0
 38 43  1  0  0  0
 40 41  1  0  0  0
 40 42  1  0  0  0
 43 44  1  0  0  0
 44 45  1  0  0  0
 44 47  1  0  0  0
 45 46  2  0  0  0
 45 52  1  0  0  0
 47 48  1  0  0  0
 48 49  1  0  0  0
 49 50  2  0  0  0
 49 51  1  0  0  0
 52 53  1  0  0  0
 53 54  1  0  0  0
 53 56  1  0  0  0
 54 55  2  0  0  0
 54 58  1  0  0  0
 56 57  1  0  0  0
 58 59  1  0  0  0
 59 60  1  0  0  0
 59 62  1  0  0  0
 60 61  2  0  0  0
 60 66  1  0  0  0
 62 63  1  0  0  0
 63 64  1  0  0  0
 63 65  2  0  0  0
 66 67  1  0  0  0
 67 68  1  0  0  0
 67 70  1  0  0  0
 68 69  2  0  0  0
 68 74  1  0  0  0
 70 71  1  0  0  0
 70 72  1  0  0  0
 71 73  1  0  0  0
  1 75  1  0  0  0
  1 76  1  0  0  0
  1 77  1  0  0  0
  2 78  1  0  0  0
  5 79  1  0  0  0
  5 80  1  0  0  0
  5 81  1  0  0  0
  6 82  1  0  0  0
  7 83  1  0  0  0
 10 84  1  0  0  0
 10 85  1  0  0  0
 11 86  1  0  0  0
 12 87  1  0  0  0
 13 88  1  0  0  0
 16 89  1  0  0  0
 16 90  1  0  0  0
 17 91  1  0  0  0
 18 92  1  0  0  0
 19 93  1  0  0  0
 22 94  1  0  0  0
 23 95  1  0  0  0
 24 96  1  0  0  0
 24 97  1  0  0  0
 24 98  1  0  0  0
 25 99  1  0  0  0
 26100  1  0  0  0
 29101  1  0  0  0
 30102  1  0  0  0
 31103  1  0  0  0
 31104  1  0  0  0
 31105  1  0  0  0
 32106  1  0  0  0
 33107  1  0  0  0
 33108  1  0  0  0
 36109  1  0  0  0
 37110  1  0  0  0
 40111  1  0  0  0
 41112  1  0  0  0
 42113  1  0  0  0
 42114  1  0  0  0
 42115  1  0  0  0
 43116  1  0  0  0
 44117  1  0  0  0
 47118  1  0  0  0
 47119  1  0  0  0
 48120  1  0  0  0
 48121  1  0  0  0
 51122  1  0  0  0
 51123  1  0  0  0
 52124  1  0  0  0
 53125  1  0  0  0
 56126  1  0  0  0
 56127  1  0  0  0
 57128  1  0  0  0
 58129  1  0  0  0
 59130  1  0  0  0
 62131  1  0  0  0
 62132  1  0  0  0
 64133  1  0  0  0
 66134  1  0  0  0
 67135  1  0  0  0
 70136  1  0  0  0
 71137  1  0  0  0
 71138  1  0  0  0
 72139  1  0  0  0
 72140  1  0  0  0
 72141  1  0  0  0
 73142  1  0  0  0
 73143  1  0  0  0
 73144  1  0  0  0
 74145  1  0  0  0
 74146  1  0  0  0
M  END
$$$$
