4z16_ligand
  -I-interpret- 

 69 72  0  0  0  0  0  0  0  0999 V2000
   -7.4060  -17.9720    3.4140 C   0  0  0  0  0
   -5.6020  -17.3890    4.8330 C   0  0  0  0  0
   -5.9450  -18.3840    5.7520 C   0  0  0  0  0
   -7.0610  -19.1770    5.4660 C   0  0  0  0  0
   -7.8850   -9.1500    1.9480 C   0  0  0  0  0
   -6.6600   -9.7890    1.2890 C   0  0  0  0  0
   -6.1300  -11.0400    2.0320 C   0  0  0  0  0
   -5.5200  -11.8850    1.3850 O   0  0  0  0  0
   -6.3180  -11.0750    3.3780 N   0  0  0  0  0
   -5.9320  -12.0910    4.1950 C   0  0  0  0  0
   -5.2620  -13.2650    3.8080 C   0  0  0  0  0
   -6.2300  -11.9410    5.5530 C   0  0  0  0  0
   -5.8790  -12.9120    6.4910 C   0  0  0  0  0
   -5.2180  -14.0660    6.0850 C   0  0  0  0  0
   -4.9130  -14.2530    4.7400 C   0  0  0  0  0
   -4.2210  -15.3980    4.3240 C   0  0  0  0  0
   -4.5460  -16.6170    5.1070 N   0  0  0  0  0
   -6.3210  -17.2270    3.7070 N   0  0  0  0  0
   -5.0160  -18.6420    7.2280 Cl  0  0  0  0  0
   -7.7810  -18.9410    4.2750 N   0  0  0  0  0
   -8.1140  -17.7780    2.2800 N   0  0  0  0  0
   -7.8760  -16.7500    1.4290 C   0  0  0  0  0
   -8.1230  -16.9910    0.0670 C   0  0  0  0  0
   -7.8730  -15.9940   -0.8880 C   0  0  0  0  0
   -8.4780  -18.2680   -0.2850 O   0  0  0  0  0
   -9.6560  -18.3660   -1.0920 C   0  0  0  0  0
   -7.4980  -15.4640    1.8290 C   0  0  0  0  0
   -7.2900  -14.4640    0.8820 C   0  0  0  0  0
   -7.4790  -14.7180   -0.4810 C   0  0  0  0  0
   -7.3110  -13.7400   -1.3910 N   0  0  0  0  0
   -8.4840  -13.2840   -2.1910 C   0  0  0  0  0
   -8.1320  -13.1670   -3.6910 C   0  0  0  0  0
   -6.7360  -12.7320   -3.9740 N   0  3  0  0  0
   -6.0100  -13.7020   -4.8140 C   0  0  0  0  0
   -5.9150  -12.2090   -2.8520 C   0  0  0  0  0
   -5.9740  -13.0850   -1.5830 C   0  0  0  0  0
   -7.3701  -19.9653    6.1524 H   0  0  0  0  0
   -8.6980   -9.8753    1.9811 H   0  0  0  0  0
   -7.6307   -8.8407    2.9618 H   0  0  0  0  0
   -8.1955   -8.2805    1.3686 H   0  0  0  0  0
   -5.8629   -9.0455    1.2959 H   0  0  0  0  0
   -6.9578  -10.1069    0.2898 H   0  0  0  0  0
   -6.7850  -10.2769    3.8085 H   0  0  0  0  0
   -5.0077  -13.4107    2.7581 H   0  0  0  0  0
   -6.7496  -11.0429    5.8869 H   0  0  0  0  0
   -6.1231  -12.7660    7.5432 H   0  0  0  0  0
   -4.9393  -14.8225    6.8185 H   0  0  0  0  0
   -3.1576  -15.2004    4.4593 H   0  0  0  0  0
   -4.5074  -15.5915    3.2903 H   0  0  0  0  0
   -3.9391  -16.8755    5.8850 H   0  0  0  0  0
   -8.8612  -18.4345    2.0539 H   0  0  0  0  0
   -7.9865  -16.2160   -1.9491 H   0  0  0  0  0
  -10.5022  -17.9434   -0.5503 H   0  0  0  0  0
   -9.5057  -17.8152   -2.0205 H   0  0  0  0  0
   -9.8541  -19.4138   -1.3177 H   0  0  0  0  0
   -7.3654  -15.2431    2.8881 H   0  0  0  0  0
   -6.9763  -13.4718    1.2065 H   0  0  0  0  0
   -8.7891  -12.3020   -1.8294 H   0  0  0  0  0
   -9.2846  -14.0152   -2.0793 H   0  0  0  0  0
   -8.7911  -12.4078   -4.1120 H   0  0  0  0  0
   -8.2463  -14.1621   -4.1210 H   0  0  0  0  0
   -6.8900  -11.8782   -4.5104 H   0  0  0  0  0
   -5.9686  -14.6639   -4.3029 H   0  0  0  0  0
   -6.5291  -13.8168   -5.7656 H   0  0  0  0  0
   -4.9975  -13.3400   -4.9923 H   0  0  0  0  0
   -6.3078  -11.2267   -2.5897 H   0  0  0  0  0
   -4.8781  -12.1888   -3.1874 H   0  0  0  0  0
   -5.2277  -13.8728   -1.6858 H   0  0  0  0  0
   -5.7912  -12.4404   -0.7232 H   0  0  0  0  0
 18  1  4  0  0  0
  1 20  4  0  0  0
  1 21  1  0  0  0
  2  3  4  0  0  0
 17  2  1  0  0  0
  2 18  4  0  0  0
  3  4  4  0  0  0
  3 19  1  0  0  0
  4 20  4  0  0  0
  6  5  1  0  0  0
  7  6  1  0  0  0
  7  8  2  0  0  0
  9  7  1  0  0  0
 10  9  1  0  0  0
 11 10  4  0  0  0
 10 12  4  0  0  0
 15 11  4  0  0  0
 13 12  4  0  0  0
 14 13  4  0  0  0
 15 14  4  0  0  0
 16 15  1  0  0  0
 16 17  1  0  0  0
 21 22  1  0  0  0
 22 23  4  0  0  0
 22 27  4  0  0  0
 23 24  4  0  0  0
 23 25  1  0  0  0
 24 29  4  0  0  0
 25 26  1  0  0  0
 27 28  4  0  0  0
 28 29  4  0  0  0
 29 30  1  0  0  0
 30 31  1  0  0  0
 30 36  1  0  0  0
 31 32  1  0  0  0
 32 33  1  0  0  0
 33 34  1  0  0  0
 33 35  1  0  0  0
 35 36  1  0  0  0
  4 37  1  0  0  0
  5 38  1  0  0  0
  5 39  1  0  0  0
  5 40  1  0  0  0
  6 41  1  0  0  0
  6 42  1  0  0  0
  9 43  1  0  0  0
 11 44  1  0  0  0
 12 45  1  0  0  0
 13 46  1  0  0  0
 14 47  1  0  0  0
 16 48  1  0  0  0
 16 49  1  0  0  0
 17 50  1  0  0  0
 21 51  1  0  0  0
 24 52  1  0  0  0
 26 53  1  0  0  0
 26 54  1  0  0  0
 26 55  1  0  0  0
 27 56  1  0  0  0
 28 57  1  0  0  0
 31 58  1  0  0  0
 31 59  1  0  0  0
 32 60  1  0  0  0
 32 61  1  0  0  0
 33 62  1  0  0  0
 34 63  1  0  0  0
 34 64  1  0  0  0
 34 65  1  0  0  0
 35 66  1  0  0  0
 35 67  1  0  0  0
 36 68  1  0  0  0
 36 69  1  0  0  0
M  END
$$$$
