6gjj_ligand
  -I-interpret- 

 41 41  0  0  0  0  0  0  0  0999 V2000
   -0.5890   17.5410   -6.5460 O   0  0  0  0  0
   -1.1520   18.1810   -5.6590 C   0  0  0  0  0
   -1.2660   17.6910   -4.4280 N   0  0  0  0  0
   -0.6660   16.4240   -4.0590 C   0  0  0  0  0
   -1.3770   15.2620   -4.7100 C   0  0  0  0  0
   -0.5770   14.2040   -4.8160 O   0  0  0  0  0
   -1.1330   12.8910   -4.8510 C   0  0  0  0  0
   -0.0200   11.8700   -4.7560 C   0  0  0  0  0
   -2.5340   15.2740   -5.0960 O   0  0  0  0  0
   -1.6660   19.3830   -5.9030 N   0  0  0  0  0
   -2.1080   20.2640   -4.8330 C   0  0  0  0  0
   -0.9170   20.9980   -4.2570 C   0  0  0  0  0
   -1.8190   19.8980   -7.2550 C   0  0  0  0  0
   -3.2600   19.9630   -7.7050 C   0  0  0  0  0
   -4.0580   18.8260   -7.6480 C   0  0  0  0  0
   -5.3840   18.8860   -8.0630 C   0  0  0  0  0
   -5.9110   20.0820   -8.5340 C   0  0  0  0  0
   -7.2030   20.1400   -8.9380 N   0  0  0  0  0
   -5.1130   21.2190   -8.5910 C   0  0  0  0  0
   -3.7880   21.1590   -8.1770 C   0  0  0  0  0
   -1.7873   18.2185   -3.7277 H   0  0  0  0  0
   -0.7391   16.3103   -2.9774 H   0  0  0  0  0
    0.3715   16.4239   -4.3932 H   0  0  0  0  0
   -1.6761   12.7509   -5.7856 H   0  0  0  0  0
   -1.8164   12.7630   -4.0116 H   0  0  0  0  0
    0.6624   11.9991   -5.5961 H   0  0  0  0  0
    0.5220   12.0112   -3.8209 H   0  0  0  0  0
   -0.4456   10.8669   -4.7828 H   0  0  0  0  0
   -2.5833   19.6733   -4.0499 H   0  0  0  0  0
   -2.8219   20.9860   -5.2294 H   0  0  0  0  0
   -0.2032   20.2755   -3.8612 H   0  0  0  0  0
   -0.4419   21.5882   -5.0406 H   0  0  0  0  0
   -1.2509   21.6572   -3.4557 H   0  0  0  0  0
   -1.2919   19.2222   -7.9285 H   0  0  0  0  0
   -1.4213   20.9127   -7.2699 H   0  0  0  0  0
   -3.6445   17.8878   -7.2781 H   0  0  0  0  0
   -6.0098   17.9946   -8.0187 H   0  0  0  0  0
   -7.7883   19.3057   -8.8963 H   0  0  0  0  0
   -7.5903   21.0179   -9.2839 H   0  0  0  0  0
   -5.5267   22.1573   -8.9604 H   0  0  0  0  0
   -3.1623   22.0503   -8.2224 H   0  0  0  0  0
  1  2  2  0  0  0
  2  3  1  0  0  0
  2 10  1  0  0  0
  3  4  1  0  0  0
  4  5  1  0  0  0
  5  6  1  0  0  0
  5  9  2  0  0  0
  6  7  1  0  0  0
  7  8  1  0  0  0
 10 11  1  0  0  0
 10 13  1  0  0  0
 11 12  1  0  0  0
 13 14  1  0  0  0
 14 15  4  0  0  0
 14 20  4  0  0  0
 15 16  4  0  0  0
 16 17  4  0  0  0
 17 18  1  0  0  0
 17 19  4  0  0  0
 19 20  4  0  0  0
  3 21  1  0  0  0
  4 22  1  0  0  0
  4 23  1  0  0  0
  7 24  1  0  0  0
  7 25  1  0  0  0
  8 26  1  0  0  0
  8 27  1  0  0  0
  8 28  1  0  0  0
 11 29  1  0  0  0
 11 30  1  0  0  0
 12 31  1  0  0  0
 12 32  1  0  0  0
 12 33  1  0  0  0
 13 34  1  0  0  0
 13 35  1  0  0  0
 15 36  1  0  0  0
 16 37  1  0  0  0
 18 38  1  0  0  0
 18 39  1  0  0  0
 19 40  1  0  0  0
 20 41  1  0  0  0
M  END
$$$$
