5hm3_ligand
  -I-interpret- 

 80 83  0  0  0  0  0  0  0  0999 V2000
    9.0080   -0.8290  -14.2300 C   0  0  0  0  0
    9.6390   -0.0080  -13.1110 C   0  0  0  0  0
    6.7680   -1.7010  -15.0750 C   0  0  0  0  0
   11.1370    0.1580  -13.2500 C   0  0  0  0  0
    4.8570   -2.5980  -13.7100 C   0  0  0  0  0
    3.4300   -2.3400  -13.2530 C   0  0  0  0  0
   -2.0690   -5.7300   -7.0740 C   0  0  0  0  0
   -0.7520   -6.0960   -7.3470 C   0  0  0  0  0
   -0.1020   -5.5820   -8.4550 C   0  0  0  0  0
   -0.7710   -4.6860   -9.2890 C   0  0  0  0  0
   -2.0860   -4.3140   -9.0170 C   0  0  0  0  0
   -2.7450   -4.8360   -7.9070 C   0  0  0  0  0
   11.8270   -0.7260  -13.7130 O   0  0  0  0  0
    7.4950   -0.9150  -13.9960 C   0  0  0  0  0
    5.2540   -1.7350  -14.8820 C   0  0  0  0  0
    3.1140   -3.2790  -12.0810 C   0  0  0  0  0
    1.7480   -2.9490  -11.5090 C   0  0  0  0  0
    1.2570   -4.0410  -10.5940 C   0  0  0  0  0
   -0.1800   -4.1340  -10.3860 O   0  0  0  0  0
   11.6410    1.3060  -12.7930 N   0  0  0  0  0
   13.1070    1.6720  -13.0050 S   0  0  0  0  0
   13.9670    0.8920  -12.1240 O   0  0  0  0  0
   13.2120    3.1000  -12.6920 O   0  0  0  0  0
   13.5750    1.3570  -14.4150 O   0  0  0  0  0
   12.9380    1.9350  -15.5470 C   0  0  0  0  0
   13.6220    1.4620  -16.8150 C   0  0  0  0  0
   13.5160    0.0710  -16.9690 O   0  0  0  0  0
   13.3730   -0.2820  -18.3480 C   0  0  0  0  0
   13.3750    1.0250  -19.1230 C   0  0  0  0  0
   14.6870    1.2940  -19.6290 O   0  0  0  0  0
   12.9800    2.0270  -18.0670 C   0  0  0  0  0
   13.4510    3.3310  -18.3190 O   0  0  0  0  0
   12.1110   -0.9890  -18.6170 N   0  0  0  0  0
   11.9190   -1.7880  -19.6570 C   0  0  0  0  0
   12.7300   -2.1690  -20.6670 N   0  0  0  0  0
   12.3070   -3.0030  -21.6320 C   0  0  0  0  0
   11.0680   -3.5160  -21.6480 N   0  0  0  0  0
   10.1950   -3.1930  -20.6740 C   0  0  0  0  0
    8.9540   -3.6970  -20.6930 N   0  0  0  0  0
   10.6350   -2.2700  -19.5980 C   0  0  0  0  0
   10.0630   -1.7510  -18.5020 N   0  0  0  0  0
   10.9860   -0.9560  -17.9050 C   0  0  0  0  0
    9.4360   -1.8314  -14.2359 H   0  0  0  0  0
    9.2043   -0.3524  -15.1904 H   0  0  0  0  0
    9.4546   -0.5357  -12.1753 H   0  0  0  0  0
    9.1957    0.9872  -13.1466 H   0  0  0  0  0
    7.1283   -2.7288  -15.0327 H   0  0  0  0  0
    6.9673   -1.2125  -16.0288 H   0  0  0  0  0
    4.9269   -3.6403  -14.0212 H   0  0  0  0  0
    5.5232   -2.3642  -12.8796 H   0  0  0  0  0
    2.7379   -2.5257  -14.0744 H   0  0  0  0  0
    3.3235   -1.3024  -12.9364 H   0  0  0  0  0
   -2.5756   -6.1452   -6.2028 H   0  0  0  0  0
   -0.2326   -6.7893   -6.6855 H   0  0  0  0  0
    0.9247   -5.8749   -8.6745 H   0  0  0  0  0
   -2.5999   -3.6129   -9.6746 H   0  0  0  0  0
   -3.7746   -4.5507   -7.6912 H   0  0  0  0  0
    7.1005    0.1011  -14.0040 H   0  0  0  0  0
    7.3353   -1.4286  -13.0479 H   0  0  0  0  0
    4.8034   -2.1523  -15.7825 H   0  0  0  0  0
    4.9104   -0.7184  -14.6905 H   0  0  0  0  0
    3.8689   -3.1523  -11.3050 H   0  0  0  0  0
    3.1160   -4.3098  -12.4355 H   0  0  0  0  0
    1.0430   -2.8454  -12.3339 H   0  0  0  0  0
    1.8268   -2.0257  -10.9351 H   0  0  0  0  0
    1.6853   -3.8237   -9.6155 H   0  0  0  0  0
    1.5501   -4.9786  -11.0664 H   0  0  0  0  0
   11.0329    1.9530  -12.2910 H   0  0  0  0  0
   13.0048    3.0211  -15.4839 H   0  0  0  0  0
   11.8911    1.6320  -15.5665 H   0  0  0  0  0
   14.6543    1.7951  -16.7071 H   0  0  0  0  0
   14.1823   -0.9521  -18.6380 H   0  0  0  0  0
   12.7141    1.0331  -19.9898 H   0  0  0  0  0
   14.6774    2.1210  -20.1165 H   0  0  0  0  0
   11.8979    2.1454  -18.0106 H   0  0  0  0  0
   13.0347    3.6724  -19.1138 H   0  0  0  0  0
   12.9968   -3.2727  -22.4318 H   0  0  0  0  0
    8.6701   -4.3252  -21.4448 H   0  0  0  0  0
    8.2929   -3.4526  -19.9557 H   0  0  0  0  0
   10.8318   -0.3830  -16.9907 H   0  0  0  0  0
  1  2  1  0  0  0
 14  1  1  0  0  0
  2  4  1  0  0  0
  3 14  1  0  0  0
 15  3  1  0  0  0
  4 13  2  0  0  0
  4 20  1  0  0  0
  6  5  1  0  0  0
  5 15  1  0  0  0
 16  6  1  0  0  0
  8  7  4  0  0  0
 12  7  4  0  0  0
  9  8  4  0  0  0
 10  9  4  0  0  0
 10 11  4  0  0  0
 19 10  1  0  0  0
 11 12  4  0  0  0
 17 16  1  0  0  0
 18 17  1  0  0  0
 18 19  1  0  0  0
 20 21  1  0  0  0
 21 22  2  0  0  0
 21 23  2  0  0  0
 21 24  1  0  0  0
 24 25  1  0  0  0
 25 26  1  0  0  0
 26 27  1  0  0  0
 26 31  1  0  0  0
 27 28  1  0  0  0
 28 29  1  0  0  0
 28 33  1  0  0  0
 29 30  1  0  0  0
 29 31  1  0  0  0
 31 32  1  0  0  0
 33 34  4  0  0  0
 33 42  4  0  0  0
 34 35  4  0  0  0
 34 40  4  0  0  0
 35 36  4  0  0  0
 36 37  4  0  0  0
 37 38  4  0  0  0
 38 39  1  0  0  0
 38 40  4  0  0  0
 40 41  4  0  0  0
 41 42  4  0  0  0
  1 43  1  0  0  0
  1 44  1  0  0  0
  2 45  1  0  0  0
  2 46  1  0  0  0
  3 47  1  0  0  0
  3 48  1  0  0  0
  5 49  1  0  0  0
  5 50  1  0  0  0
  6 51  1  0  0  0
  6 52  1  0  0  0
  7 53  1  0  0  0
  8 54  1  0  0  0
  9 55  1  0  0  0
 11 56  1  0  0  0
 12 57  1  0  0  0
 14 58  1  0  0  0
 14 59  1  0  0  0
 15 60  1  0  0  0
 15 61  1  0  0  0
 16 62  1  0  0  0
 16 63  1  0  0  0
 17 64  1  0  0  0
 17 65  1  0  0  0
 18 66  1  0  0  0
 18 67  1  0  0  0
 20 68  1  0  0  0
 25 69  1  0  0  0
 25 70  1  0  0  0
 26 71  1  0  0  0
 28 72  1  0  0  0
 29 73  1  0  0  0
 30 74  1  0  0  0
 31 75  1  0  0  0
 32 76  1  0  0  0
 36 77  1  0  0  0
 39 78  1  0  0  0
 39 79  1  0  0  0
 42 80  1  0  0  0
M  END
$$$$
