3we4_ligand
  -I-interpret- 

 49 52  0  0  0  0  0  0  0  0999 V2000
  -14.4280   10.1030  -14.4140 C   0  0  0  0  0
  -14.1710    8.8990  -13.6940 C   0  0  0  0  0
  -14.4000    7.7260  -14.3850 C   0  0  0  0  0
  -14.8110    7.6930  -15.6470 N   0  0  0  0  0
  -14.8550   10.0730  -15.6910 N   0  0  0  0  0
   -6.5540   15.7550   -9.5750 F   0  0  0  0  0
   -7.5750   16.4120   -9.1030 C   0  0  0  0  0
   -7.1320   17.6530   -8.8700 F   0  0  0  0  0
   -7.7720   15.9270   -7.8740 F   0  0  0  0  0
   -8.7790   16.3980  -10.0280 C   0  0  0  0  0
   -8.6520   17.1360  -11.2120 C   0  0  0  0  0
   -9.6740   17.2310  -12.1190 C   0  0  0  0  0
   -9.9320   15.7370   -9.6760 C   0  0  0  0  0
  -10.9860   15.8260  -10.5990 C   0  0  0  0  0
  -10.8510   16.5700  -11.7960 C   0  0  0  0  0
  -12.0500   16.4460  -12.4490 N   0  0  0  0  0
  -12.2530   15.2630  -10.5310 N   0  0  0  0  0
  -12.8760   15.6490  -11.6250 C   0  0  0  0  0
  -14.2550   15.3280  -12.0720 C   0  0  0  0  0
  -14.5450   14.1520  -12.8890 N   0  3  0  0  0
  -14.4200   13.0090  -11.9580 C   0  0  0  0  0
  -14.9630   11.7490  -12.6220 C   0  0  0  0  0
  -13.7000   13.8510  -14.0630 C   0  0  0  0  0
  -14.1990   12.5330  -14.7180 C   0  0  0  0  0
  -14.2590   11.3870  -13.8570 N   0  0  0  0  0
  -13.6960    8.8050  -12.2830 C   0  0  0  0  0
  -12.2930    9.3450  -12.0570 C   0  0  0  0  0
  -15.0260    8.8770  -16.2350 C   0  0  0  0  0
  -14.2352    6.7801  -13.8689 H   0  0  0  0  0
   -7.7127   17.6495  -11.4174 H   0  0  0  0  0
   -9.5686   17.7957  -13.0453 H   0  0  0  0  0
  -10.0217   15.1811   -8.7427 H   0  0  0  0  0
  -14.5170   16.1638  -12.7208 H   0  0  0  0  0
  -14.7891   15.1339  -11.1418 H   0  0  0  0  0
  -15.4564   14.3347  -13.3089 H   0  0  0  0  0
  -14.9892   13.2155  -11.0516 H   0  0  0  0  0
  -13.3704   12.8615  -11.7036 H   0  0  0  0  0
  -16.0041   11.9393  -12.8827 H   0  0  0  0  0
  -14.8333   10.9266  -11.9185 H   0  0  0  0  0
  -12.6620   13.7370  -13.7503 H   0  0  0  0  0
  -13.7646   14.6673  -14.7824 H   0  0  0  0  0
  -13.4818   12.2899  -15.5020 H   0  0  0  0  0
  -15.2206   12.7224  -15.0476 H   0  0  0  0  0
  -13.6783    7.7472  -12.0207 H   0  0  0  0  0
  -14.3726    9.4070  -11.6764 H   0  0  0  0  0
  -11.5865    8.7850  -12.6696 H   0  0  0  0  0
  -12.2614   10.3985  -12.3349 H   0  0  0  0  0
  -12.0287    9.2373  -11.0050 H   0  0  0  0  0
  -15.3776    8.8544  -17.2665 H   0  0  0  0  0
  1  2  4  0  0  0
  1  5  4  0  0  0
 25  1  1  0  0  0
  2  3  4  0  0  0
  2 26  1  0  0  0
  3  4  4  0  0  0
 28  4  4  0  0  0
  5 28  4  0  0  0
  7  6  1  0  0  0
  7  8  1  0  0  0
  7  9  1  0  0  0
 10  7  1  0  0  0
 10 11  4  0  0  0
 13 10  4  0  0  0
 12 11  4  0  0  0
 15 12  4  0  0  0
 14 13  4  0  0  0
 14 15  4  0  0  0
 17 14  4  0  0  0
 16 15  4  0  0  0
 18 16  4  0  0  0
 18 17  4  0  0  0
 19 18  1  0  0  0
 20 19  1  0  0  0
 21 20  1  0  0  0
 20 23  1  0  0  0
 22 21  1  0  0  0
 22 25  1  0  0  0
 23 24  1  0  0  0
 24 25  1  0  0  0
 26 27  1  0  0  0
  3 29  1  0  0  0
 11 30  1  0  0  0
 12 31  1  0  0  0
 13 32  1  0  0  0
 19 33  1  0  0  0
 19 34  1  0  0  0
 20 35  1  0  0  0
 21 36  1  0  0  0
 21 37  1  0  0  0
 22 38  1  0  0  0
 22 39  1  0  0  0
 23 40  1  0  0  0
 23 41  1  0  0  0
 24 42  1  0  0  0
 24 43  1  0  0  0
 26 44  1  0  0  0
 26 45  1  0  0  0
 27 46  1  0  0  0
 27 47  1  0  0  0
 27 48  1  0  0  0
 28 49  1  0  0  0
M  END
$$$$
