1tnh_ligand
  -I-interpret- 

 18 18  0  0  0  0  0  0  0  0999 V2000
   29.1540   14.9450   16.6050 C   0  0  0  0  0
   29.5030   13.6110   16.6670 C   0  0  0  0  0
   29.4740   12.9380   17.8740 C   0  0  0  0  0
   29.0770   13.6200   19.0180 C   0  0  0  0  0
   28.7230   14.9550   18.9610 C   0  0  0  0  0
   28.7710   15.6060   17.7440 C   0  0  0  0  0
   29.1690   15.7050   15.2980 C   0  0  0  0  0
   30.4080   15.5270   14.6230 N   0  3  0  0  0
   29.0060   12.9520   20.2340 F   0  0  0  0  0
   29.8028   13.0859   15.7601 H   0  0  0  0  0
   29.7585   11.8872   17.9278 H   0  0  0  0  0
   28.4113   15.4848   19.8612 H   0  0  0  0  0
   28.5006   16.6604   17.6879 H   0  0  0  0  0
   29.0326   16.7660   15.5074 H   0  0  0  0  0
   28.3665   15.3283   14.6638 H   0  0  0  0  0
   30.3940   16.0480   13.7462 H   0  0  0  0  0
   31.1669   15.8702   15.2118 H   0  0  0  0  0
   30.5486   14.5356   14.4286 H   0  0  0  0  0
  2  1  4  0  0  0
  1  6  4  0  0  0
  1  7  1  0  0  0
  2  3  4  0  0  0
  3  4  4  0  0  0
  4  5  4  0  0  0
  4  9  1  0  0  0
  5  6  4  0  0  0
  7  8  1  0  0  0
  2 10  1  0  0  0
  3 11  1  0  0  0
  5 12  1  0  0  0
  6 13  1  0  0  0
  7 14  1  0  0  0
  7 15  1  0  0  0
  8 16  1  0  0  0
  8 17  1  0  0  0
  8 18  1  0  0  0
M  END
$$$$
