4a4f_ligand
  -I-interpret- 

 35 34  0  0  0  0  0  0  0  0999 V2000
  -17.1230   -5.3870   -0.2440 N   0  3  0  0  0
  -17.1340   -4.3330    0.7550 C   0  0  0  0  0
  -15.7360   -4.1480    1.3420 C   0  0  0  0  0
  -15.6570   -3.0910    2.4030 C   0  0  0  0  0
  -14.2720   -2.9650    2.9600 C   0  0  0  0  0
  -13.3350   -2.5270    1.9390 N   0  0  0  0  0
  -12.0900   -2.2020    2.1590 C   0  0  0  0  0
  -11.6150   -2.2760    3.4440 N   0  0  0  0  0
  -10.2910   -1.9820    4.0090 C   0  0  0  0  0
  -11.3460   -1.8380    1.0880 N   0  0  0  0  0
   -9.9530   -1.4230    0.9840 C   0  0  0  0  0
  -17.5950   -3.0650    0.0980 C   0  0  0  0  0
  -18.6220   -2.5000    0.5200 O   0  0  0  0  0
  -16.9460   -2.6340   -0.8690 O   0  0  0  0  0
  -16.8115   -6.2580    0.1858 H   0  0  0  0  0
  -18.0639   -5.5087   -0.6184 H   0  0  0  0  0
  -16.4859   -5.1320   -0.9986 H   0  0  0  0  0
  -17.8096   -4.5967    1.5687 H   0  0  0  0  0
  -15.0808   -3.8391    0.5275 H   0  0  0  0  0
  -15.4510   -5.0931    1.8043 H   0  0  0  0  0
  -16.3290   -3.3693    3.2148 H   0  0  0  0  0
  -15.9353   -2.1361    1.9570 H   0  0  0  0  0
  -13.9546   -3.9402    3.3293 H   0  0  0  0  0
  -14.2844   -2.2266    3.7617 H   0  0  0  0  0
  -13.7413   -1.6423    1.6346 H   0  0  0  0  0
  -11.2005   -1.6798    2.5113 H   0  0  0  0  0
  -11.6400   -3.2867    3.5794 H   0  0  0  0  0
   -9.5464   -2.6258    3.5407 H   0  0  0  0  0
  -10.0406   -0.9380    3.8206 H   0  0  0  0  0
  -10.3071   -2.1649    5.0834 H   0  0  0  0  0
  -11.8076   -0.9615    0.8450 H   0  0  0  0  0
   -9.7962   -0.5274    1.5852 H   0  0  0  0  0
   -9.3086   -2.2235    1.3474 H   0  0  0  0  0
   -9.7159   -1.2088   -0.0581 H   0  0  0  0  0
  -18.9705   -2.9896    1.2687 H   0  0  0  0  0
  1  2  1  0  0  0
  2  3  1  0  0  0
  2 12  1  0  0  0
  3  4  1  0  0  0
  4  5  1  0  0  0
  5  6  1  0  0  0
  6  7  1  0  0  0
  7  8  1  0  0  0
  7 10  1  0  0  0
  8  9  1  0  0  0
 10 11  1  0  0  0
 12 13  1  0  0  0
 12 14  2  0  0  0
  1 15  1  0  0  0
  1 16  1  0  0  0
  1 17  1  0  0  0
  2 18  1  0  0  0
  3 19  1  0  0  0
  3 20  1  0  0  0
  4 21  1  0  0  0
  4 22  1  0  0  0
  5 23  1  0  0  0
  5 24  1  0  0  0
  6 25  1  0  0  0
  7 26  1  0  0  0
  8 27  1  0  0  0
  9 28  1  0  0  0
  9 29  1  0  0  0
  9 30  1  0  0  0
 10 31  1  0  0  0
 11 32  1  0  0  0
 11 33  1  0  0  0
 11 34  1  0  0  0
 13 35  1  0  0  0
M  END
$$$$
