2vk6_ligand
  -I-interpret- 

 37 37  0  0  0  0  0  0  0  0999 V2000
    0.8010   36.7770   19.9120 C   0  0  0  0  0
    1.7000   35.6550   20.1620 C   0  0  0  0  0
    1.2860   34.4930   20.7460 C   0  0  0  0  0
    2.2710   33.3480   20.8140 C   0  0  0  0  0
    3.6840   33.9360   20.8820 C   0  0  0  0  0
    3.8980   34.7730   19.6310 C   0  0  0  0  0
    5.2710   35.4510   19.5640 C   0  0  0  0  0
    5.3990   36.4000   18.3420 C   0  0  0  0  0
    6.8440   36.8460   18.3090 C   0  0  0  0  0
    5.8220   32.9000   21.5750 C   0  0  0  0  0
    6.7030   31.6670   21.5320 C   0  0  0  0  0
    4.6450   32.8460   20.8920 N   0  0  0  0  0
    1.1520   37.6470   19.0160 O   0  0  0  0  0
   -0.2840   36.8200   20.4590 O   0  0  0  0  0
    2.0070   32.4330   21.9010 O   0  0  0  0  0
    2.9420   35.8290   19.5650 O   0  0  0  0  0
    5.4900   36.2340   20.7610 O   0  0  0  0  0
    5.0980   35.6760   17.1410 O   0  0  0  0  0
    7.0740   37.7710   17.1870 O   0  0  0  0  0
    6.1890   33.9130   22.2390 O   0  0  0  0  0
    0.2785   34.3937   21.1500 H   0  0  0  0  0
    2.1656   32.7405   19.9152 H   0  0  0  0  0
    3.8093   34.5437   21.7782 H   0  0  0  0  0
    3.8031   34.0636   18.8089 H   0  0  0  0  0
    6.0115   34.6567   19.4702 H   0  0  0  0  0
    4.7159   37.2461   18.4162 H   0  0  0  0  0
    7.4814   35.9709   18.1822 H   0  0  0  0  0
    7.0776   37.3576   19.2427 H   0  0  0  0  0
    7.6711   31.9285   21.1048 H   0  0  0  0  0
    6.8419   31.2858   22.5437 H   0  0  0  0  0
    6.2272   30.9034   20.9167 H   0  0  0  0  0
    4.4280   32.0014   20.3630 H   0  0  0  0  0
    2.0376   37.4451   18.7052 H   0  0  0  0  0
    1.1142   32.0899   21.8192 H   0  0  0  0  0
    5.4154   35.6662   21.5315 H   0  0  0  0  0
    5.1774   36.2636   16.3860 H   0  0  0  0  0
    7.9946   38.0431   17.1817 H   0  0  0  0  0
  2  1  1  0  0  0
  1 13  1  0  0  0
  1 14  2  0  0  0
  3  2  2  0  0  0
 16  2  1  0  0  0
  4  3  1  0  0  0
  5  4  1  0  0  0
  4 15  1  0  0  0
  5  6  1  0  0  0
 12  5  1  0  0  0
  6  7  1  0  0  0
  6 16  1  0  0  0
  7  8  1  0  0  0
  7 17  1  0  0  0
  8  9  1  0  0  0
  8 18  1  0  0  0
  9 19  1  0  0  0
 10 11  1  0  0  0
 10 12  1  0  0  0
 10 20  2  0  0  0
  3 21  1  0  0  0
  4 22  1  0  0  0
  5 23  1  0  0  0
  6 24  1  0  0  0
  7 25  1  0  0  0
  8 26  1  0  0  0
  9 27  1  0  0  0
  9 28  1  0  0  0
 11 29  1  0  0  0
 11 30  1  0  0  0
 11 31  1  0  0  0
 12 32  1  0  0  0
 13 33  1  0  0  0
 15 34  1  0  0  0
 17 35  1  0  0  0
 18 36  1  0  0  0
 19 37  1  0  0  0
M  END
$$$$
