3suu_ligand
  -I-interpret- 

 47 48  0  0  0  0  0  0  0  0999 V2000
   36.1910   18.5890  -16.0950 C   0  0  0  0  0
   35.2290   17.9830  -17.1500 C   0  0  0  0  0
   34.4030   16.8240  -16.5560 C   0  0  0  0  0
   34.9710   16.3290  -15.2180 C   0  0  0  0  0
   34.9530   17.4980  -14.2210 C   0  0  0  0  0
   35.4560   17.0660  -12.8490 C   0  0  0  0  0
   33.4330   19.6920  -17.1760 C   0  0  0  0  0
   32.5050   20.5000  -18.0730 C   0  0  0  0  0
   34.2910   18.9070  -17.8230 N   0  0  0  0  0
   34.3870   15.7610  -17.5010 O   0  0  0  0  0
   36.3120   15.8520  -15.4180 O   0  0  0  0  0
   35.7630   18.6190  -14.6960 O   0  0  0  0  0
   35.2640   18.1420  -11.9300 O   0  0  0  0  0
   33.3700   19.7720  -15.9560 O   0  0  0  0  0
   39.8310   20.5740  -14.5920 N   0  0  0  0  0
   38.8700   20.7410  -15.5030 C   0  0  0  0  0
   37.8340   19.9010  -15.3130 O   0  0  0  0  0
   38.8860   21.5650  -16.4170 O   0  0  0  0  0
   40.9790   21.2430  -14.4410 C   0  0  0  0  0
   41.9950   20.6350  -13.7020 C   0  0  0  0  0
   43.1990   21.3020  -13.4840 C   0  0  0  0  0
   43.3710   22.5820  -14.0090 C   0  0  0  0  0
   42.3590   23.2020  -14.7380 C   0  0  0  0  0
   41.1530   22.5320  -14.9480 C   0  0  0  0  0
   36.9110   19.8020  -16.4330 N   0  3  0  0  0
   36.9155   17.7780  -16.1695 H   0  0  0  0  0
   35.9235   17.6494  -17.9210 H   0  0  0  0  0
   33.3937   17.1831  -16.3549 H   0  0  0  0  0
   34.3698   15.5098  -14.8237 H   0  0  0  0  0
   33.9151   17.8198  -14.1360 H   0  0  0  0  0
   36.5147   16.8129  -12.9061 H   0  0  0  0  0
   34.9037   16.1888  -12.5120 H   0  0  0  0  0
   31.4704   20.2328  -17.8579 H   0  0  0  0  0
   32.6539   21.5631  -17.8840 H   0  0  0  0  0
   32.7288   20.2804  -19.1169 H   0  0  0  0  0
   34.3022   18.9449  -18.8422 H   0  0  0  0  0
   34.0307   16.0797  -18.3335 H   0  0  0  0  0
   36.3014   15.1233  -16.0429 H   0  0  0  0  0
   35.5781   17.8796  -11.0616 H   0  0  0  0  0
   39.6663   19.8298  -13.9142 H   0  0  0  0  0
   41.8462   19.6352  -13.2941 H   0  0  0  0  0
   43.9961   20.8290  -12.9104 H   0  0  0  0  0
   44.3128   23.1061  -13.8463 H   0  0  0  0  0
   42.5080   24.2035  -15.1416 H   0  0  0  0  0
   40.3498   23.0134  -15.5059 H   0  0  0  0  0
   36.3111   20.6192  -16.5458 H   0  0  0  0  0
   37.3700   19.7684  -17.3432 H   0  0  0  0  0
  1  2  1  0  0  0
  1 12  1  0  0  0
 25  1  1  0  0  0
  2  3  1  0  0  0
  2  9  1  0  0  0
  3  4  1  0  0  0
  3 10  1  0  0  0
  5  4  1  0  0  0
  4 11  1  0  0  0
  5  6  1  0  0  0
 12  5  1  0  0  0
  6 13  1  0  0  0
  7  8  1  0  0  0
  9  7  1  0  0  0
  7 14  2  0  0  0
 16 15  1  0  0  0
 15 19  1  0  0  0
 17 16  1  0  0  0
 16 18  2  0  0  0
 17 25  1  0  0  0
 19 20  4  0  0  0
 19 24  4  0  0  0
 20 21  4  0  0  0
 21 22  4  0  0  0
 22 23  4  0  0  0
 23 24  4  0  0  0
  1 26  1  0  0  0
  2 27  1  0  0  0
  3 28  1  0  0  0
  4 29  1  0  0  0
  5 30  1  0  0  0
  6 31  1  0  0  0
  6 32  1  0  0  0
  8 33  1  0  0  0
  8 34  1  0  0  0
  8 35  1  0  0  0
  9 36  1  0  0  0
 10 37  1  0  0  0
 11 38  1  0  0  0
 13 39  1  0  0  0
 15 40  1  0  0  0
 20 41  1  0  0  0
 21 42  1  0  0  0
 22 43  1  0  0  0
 23 44  1  0  0  0
 24 45  1  0  0  0
 25 46  1  0  0  0
 25 47  1  0  0  0
M  END
$$$$
