3n3l_ligand
  -I-interpret- 

 25 26  0  0  0  0  0  0  0  0999 V2000
    2.1000   74.9450   27.2660 O   0  0  0  0  0
    2.5930   76.2700   27.2440 C   0  0  0  0  0
    3.9440   76.4060   27.1270 C   0  0  0  0  0
    4.3980   74.9920   27.0330 C   0  0  0  0  0
    3.2800   74.2470   27.1070 C   0  0  0  0  0
    5.8100   74.5190   26.8740 C   0  0  0  0  0
    6.2940   74.9010   25.4900 C   0  0  0  0  0
    7.2410   75.6630   25.3390 O   0  0  0  0  0
    5.6260   74.3540   24.4240 O   0  0  0  0  0
    4.5900   77.6450   27.1140 C   0  0  0  0  0
    3.7780   78.8000   27.2320 C   0  0  0  0  0
    2.3670   78.6760   27.3300 C   0  0  0  0  0
    1.7840   77.3950   27.3440 C   0  0  0  0  0
    1.5230   79.8020   27.3870 O   0  0  0  0  0
    2.1180   81.0930   27.4170 C   0  0  0  0  0
    3.3047   73.1590   27.0452 H   0  0  0  0  0
    5.8554   73.4370   26.9978 H   0  0  0  0  0
    6.4441   74.9819   27.6301 H   0  0  0  0  0
    4.9206   73.7881   24.7461 H   0  0  0  0  0
    5.6731   77.7197   27.0171 H   0  0  0  0  0
    4.2384   79.7879   27.2476 H   0  0  0  0  0
    0.7031   77.2861   27.4329 H   0  0  0  0  0
    2.7564   81.1771   28.2965 H   0  0  0  0  0
    2.7161   81.2370   26.5172 H   0  0  0  0  0
    1.3360   81.8511   27.4602 H   0  0  0  0  0
  1  2  4  0  0  0
  1  5  4  0  0  0
  2  3  4  0  0  0
  2 13  4  0  0  0
  3  4  4  0  0  0
  3 10  4  0  0  0
  4  5  4  0  0  0
  4  6  1  0  0  0
  6  7  1  0  0  0
  7  8  2  0  0  0
  7  9  1  0  0  0
 10 11  4  0  0  0
 11 12  4  0  0  0
 12 13  4  0  0  0
 12 14  1  0  0  0
 14 15  1  0  0  0
  5 16  1  0  0  0
  6 17  1  0  0  0
  6 18  1  0  0  0
  9 19  1  0  0  0
 10 20  1  0  0  0
 11 21  1  0  0  0
 13 22  1  0  0  0
 15 23  1  0  0  0
 15 24  1  0  0  0
 15 25  1  0  0  0
M  END
$$$$
