6ueg_ligand
  -I-interpret- 

 38 39  0  0  0  0  0  0  0  0999 V2000
   -6.0270   -0.8540   52.0930 C   0  0  0  0  0
   -8.3740   -4.9600   45.3380 C   0  0  0  0  0
   -8.9850   -6.1710   44.9530 C   0  0  0  0  0
   -8.7120   -7.3710   45.6300 C   0  0  0  0  0
   -7.8130   -7.3800   46.7210 C   0  0  0  0  0
   -7.1940   -6.1720   47.1170 C   0  0  0  0  0
   -7.4840   -4.9680   46.4060 C   0  0  0  0  0
   -6.2720   -6.1920   48.2570 N   0  0  0  0  0
   -6.3720   -7.2070   49.2470 C   0  0  0  0  0
   -7.3300   -8.3520   48.9100 C   0  0  0  0  0
   -7.4890   -8.6120   47.4870 O   0  0  0  0  0
   -7.0520   -9.7320   49.5350 C   0  0  0  0  0
   -7.7620  -10.6350   49.1930 O   0  0  0  0  0
   -5.9770   -9.9570   50.4960 N   0  0  0  0  0
   -5.2200   -5.1410   48.3010 C   0  0  0  0  0
   -5.1400   -4.2840   47.4340 O   0  0  0  0  0
   -4.2660   -5.1160   49.5070 C   0  0  0  0  0
   -5.2140   -4.1450   50.7540 S   0  0  0  0  0
   -5.5510   -2.4660   50.0960 C   0  0  0  0  0
   -5.0330   -1.3710   51.0420 C   0  0  0  0  0
   -7.1360   -1.4220   52.2930 O   0  0  0  0  0
   -5.7380    0.1610   52.7810 O   0  0  0  0  0
   -8.5955   -4.0339   44.8076 H   0  0  0  0  0
   -9.6818   -6.1760   44.1148 H   0  0  0  0  0
   -9.1938   -8.2962   45.3139 H   0  0  0  0  0
   -6.9991   -4.0390   46.7059 H   0  0  0  0  0
   -6.7586   -6.7296   50.1474 H   0  0  0  0  0
   -5.3798   -7.6473   49.3458 H   0  0  0  0  0
   -8.2278   -7.9316   49.3631 H   0  0  0  0  0
   -5.8250  -10.8887   50.8823 H   0  0  0  0  0
   -5.3776   -9.1826   50.7813 H   0  0  0  0  0
   -3.2966   -4.6759   49.2731 H   0  0  0  0  0
   -3.9986   -6.1126   49.8581 H   0  0  0  0  0
   -6.6295   -2.3479   49.9915 H   0  0  0  0  0
   -5.0401   -2.3631   49.1387 H   0  0  0  0  0
   -4.2073   -1.8154   51.5977 H   0  0  0  0  0
   -4.7861   -0.5168   50.4115 H   0  0  0  0  0
   -7.2200   -2.1743   51.7026 H   0  0  0  0  0
 20  1  1  0  0  0
  1 21  1  0  0  0
  1 22  2  0  0  0
  2  3  4  0  0  0
  7  2  4  0  0  0
  4  3  4  0  0  0
  5  4  4  0  0  0
  6  5  4  0  0  0
  5 11  1  0  0  0
  6  7  4  0  0  0
  8  6  1  0  0  0
  8  9  1  0  0  0
 15  8  1  0  0  0
  9 10  1  0  0  0
 10 11  1  0  0  0
 10 12  1  0  0  0
 12 13  2  0  0  0
 12 14  1  0  0  0
 15 16  2  0  0  0
 17 15  1  0  0  0
 18 17  1  0  0  0
 19 18  1  0  0  0
 19 20  1  0  0  0
  2 23  1  0  0  0
  3 24  1  0  0  0
  4 25  1  0  0  0
  7 26  1  0  0  0
  9 27  1  0  0  0
  9 28  1  0  0  0
 10 29  1  0  0  0
 14 30  1  0  0  0
 14 31  1  0  0  0
 17 32  1  0  0  0
 17 33  1  0  0  0
 19 34  1  0  0  0
 19 35  1  0  0  0
 20 36  1  0  0  0
 20 37  1  0  0  0
 21 38  1  0  0  0
M  END
$$$$
