4wkc_ligand
  -I-interpret- 

 48 50  0  0  0  0  0  0  0  0999 V2000
  -24.8840    2.6730  -21.8620 C   0  0  0  0  0
  -22.3190    2.7200  -22.8710 C   0  0  0  0  0
  -23.0080    1.4960  -22.5170 C   0  0  0  0  0
  -20.9670    1.0310  -23.3400 C   0  0  0  0  0
  -25.0960   -3.6270  -24.6570 O   0  0  0  0  0
  -25.1540   -2.1810  -24.6120 C   0  0  0  0  0
  -24.2660   -1.5530  -25.6690 C   0  0  0  0  0
  -24.6300   -0.1050  -26.0100 C   0  0  0  0  0
  -26.1760    0.0960  -26.8720 S   0  0  0  0  0
  -25.6440    0.5420  -28.4870 C   0  0  0  0  0
  -25.0320   -0.6310  -29.2010 C   0  0  0  0  0
  -24.8630   -0.2900  -30.6750 C   0  0  0  0  0
  -26.1850   -0.2900  -31.4080 C   0  0  0  0  0
  -22.8730   -1.5950  -25.0160 C   0  0  0  0  0
  -23.1240   -1.8440  -23.5660 N   0  3  0  0  0
  -24.5720   -1.6650  -23.3170 C   0  0  0  0  0
  -22.2740   -1.0640  -22.6400 C   0  0  0  0  0
  -21.0980    2.3910  -23.3430 N   0  0  0  0  0
  -23.0620    3.9470  -22.6620 C   0  0  0  0  0
  -22.5020    5.1340  -22.9530 N   0  0  0  0  0
  -24.2810    1.4760  -22.0190 N   0  0  0  0  0
  -22.0990    0.4090  -22.8440 C   0  0  0  0  0
  -24.3290    3.8640  -22.1730 N   0  0  0  0  0
  -25.8946    2.6789  -21.4536 H   0  0  0  0  0
  -20.0795    0.5010  -23.6859 H   0  0  0  0  0
  -25.6679   -3.9904  -23.9769 H   0  0  0  0  0
  -26.2057   -1.9281  -24.7465 H   0  0  0  0  0
  -24.3524   -2.0846  -26.6166 H   0  0  0  0  0
  -23.8487    0.2696  -26.6714 H   0  0  0  0  0
  -24.7244    0.4280  -25.0639 H   0  0  0  0  0
  -24.8933    1.3276  -28.4015 H   0  0  0  0  0
  -26.5086    0.8834  -29.0563 H   0  0  0  0  0
  -25.6823   -1.4999  -29.0996 H   0  0  0  0  0
  -24.0590   -0.8567  -28.7647 H   0  0  0  0  0
  -24.2202   -1.0442  -31.1290 H   0  0  0  0  0
  -24.4315    0.7083  -30.7478 H   0  0  0  0  0
  -26.6393   -1.2781  -31.3352 H   0  0  0  0  0
  -26.8478    0.4500  -30.9593 H   0  0  0  0  0
  -26.0178   -0.0419  -32.4561 H   0  0  0  0  0
  -22.3278   -0.6645  -25.1744 H   0  0  0  0  0
  -22.2483   -2.3734  -25.4541 H   0  0  0  0  0
  -22.8468   -2.8032  -23.3573 H   0  0  0  0  0
  -24.9348   -2.1873  -22.4318 H   0  0  0  0  0
  -24.8556   -0.6385  -23.0845 H   0  0  0  0  0
  -21.2746   -1.4780  -22.7739 H   0  0  0  0  0
  -22.7745   -1.1476  -21.6753 H   0  0  0  0  0
  -21.5518    5.1729  -23.3219 H   0  0  0  0  0
  -23.0273    5.9957  -22.8049 H   0  0  0  0  0
 21  1  4  0  0  0
  1 23  4  0  0  0
  3  2  4  0  0  0
 18  2  4  0  0  0
  2 19  4  0  0  0
  3 21  4  0  0  0
 22  3  4  0  0  0
  4 18  4  0  0  0
 22  4  4  0  0  0
  6  5  1  0  0  0
  6  7  1  0  0  0
 16  6  1  0  0  0
  7  8  1  0  0  0
 14  7  1  0  0  0
  8  9  1  0  0  0
  9 10  1  0  0  0
 10 11  1  0  0  0
 11 12  1  0  0  0
 12 13  1  0  0  0
 15 14  1  0  0  0
 15 16  1  0  0  0
 17 15  1  0  0  0
 17 22  1  0  0  0
 19 20  1  0  0  0
 19 23  4  0  0  0
  1 24  1  0  0  0
  4 25  1  0  0  0
  5 26  1  0  0  0
  6 27  1  0  0  0
  7 28  1  0  0  0
  8 29  1  0  0  0
  8 30  1  0  0  0
 10 31  1  0  0  0
 10 32  1  0  0  0
 11 33  1  0  0  0
 11 34  1  0  0  0
 12 35  1  0  0  0
 12 36  1  0  0  0
 13 37  1  0  0  0
 13 38  1  0  0  0
 13 39  1  0  0  0
 14 40  1  0  0  0
 14 41  1  0  0  0
 15 42  1  0  0  0
 16 43  1  0  0  0
 16 44  1  0  0  0
 17 45  1  0  0  0
 17 46  1  0  0  0
 20 47  1  0  0  0
 20 48  1  0  0  0
M  END
$$$$
