4kza_ligand
  -I-interpret- 

 24 25  0  0  0  0  0  0  0  0999 V2000
   53.2140   -0.2840   22.3440 C   0  0  0  0  0
   53.1900    0.9080   21.7250 C   0  0  0  0  0
   51.6130    1.5800   21.8000 S   0  0  0  0  0
   51.0940    0.3820   22.8760 C   0  0  0  0  0
   52.0210   -0.6200   23.1140 C   0  0  0  0  0
   51.9200   -1.9720   24.1000 S   0  0  0  0  0
   51.6430   -1.6270   25.4490 O   0  0  0  0  0
   53.0350   -2.8130   23.7950 O   0  0  0  0  0
   50.6240   -3.0260   23.8530 N   0  0  0  0  0
   50.0990   -3.3950   22.5880 C   0  0  0  0  0
   50.4780   -2.5570   21.4060 C   0  0  0  0  0
   51.1050   -3.9390   21.5990 C   0  0  0  0  0
   49.6120    0.4920   23.3460 C   0  0  0  0  0
   49.0140    1.5530   23.2380 O   0  0  0  0  0
   49.2150   -0.5960   23.7940 O   0  0  0  0  0
   54.0691   -0.9565   22.2755 H   0  0  0  0  0
   54.0475    1.3796   21.2450 H   0  0  0  0  0
   50.1834   -3.4296   24.6797 H   0  0  0  0  0
   49.1469   -3.7348   22.9955 H   0  0  0  0  0
   50.7966   -1.5362   21.1952 H   0  0  0  0  0
   49.9885   -1.9833   20.6191 H   0  0  0  0  0
   51.2926   -4.8479   21.0272 H   0  0  0  0  0
   52.0894   -4.4070   21.5953 H   0  0  0  0  0
   49.9253   -1.2399   23.7436 H   0  0  0  0  0
  1  2  4  0  0  0
  1  5  4  0  0  0
  2  3  4  0  0  0
  3  4  4  0  0  0
  4  5  4  0  0  0
  4 13  1  0  0  0
  5  6  1  0  0  0
  6  7  2  0  0  0
  6  8  2  0  0  0
  6  9  1  0  0  0
  9 10  1  0  0  0
 10 11  1  0  0  0
 10 12  1  0  0  0
 11 12  1  0  0  0
 13 14  2  0  0  0
 13 15  1  0  0  0
  1 16  1  0  0  0
  2 17  1  0  0  0
  9 18  1  0  0  0
 10 19  1  0  0  0
 11 20  1  0  0  0
 11 21  1  0  0  0
 12 22  1  0  0  0
 12 23  1  0  0  0
 15 24  1  0  0  0
M  END
$$$$
