2oag_ligand
  -I-interpret- 

 51 54  0  0  0  0  0  0  0  0999 V2000
   29.1900    5.8310   62.5430 C   0  0  0  0  0
   27.8630    6.3340   62.4280 C   0  0  0  0  0
   27.6120    7.6900   62.8170 C   0  0  0  0  0
   31.6200    6.0610   63.1460 C   0  0  0  0  0
   32.8450    6.8000   62.7240 C   0  0  0  0  0
   42.7350    4.6720   62.4390 C   0  0  0  0  0
   36.8490    6.6850   61.6130 C   0  0  0  0  0
   36.0980    5.2160   63.7830 C   0  0  0  0  0
   38.4860    4.3830   64.1240 C   0  0  0  0  0
   39.1460    2.8410   65.9650 C   0  0  0  0  0
   40.8100    3.6080   64.3630 C   0  0  0  0  0
   28.6710    8.5100   63.3150 C   0  0  0  0  0
   29.9800    8.0000   63.4200 C   0  0  0  0  0
   30.2380    6.6510   63.0420 C   0  0  0  0  0
   31.8210    5.5040   64.5730 C   0  0  0  0  0
   29.5310    4.5600   62.1920 F   0  0  0  0  0
   33.8410    5.9990   63.4380 N   0  0  0  0  0
   33.3070    5.1990   64.5720 C   0  0  0  0  0
   26.3540    8.1500   62.7030 F   0  0  0  0  0
   35.1670    5.9850   63.0510 C   0  0  0  0  0
   28.5710    9.7940   63.7170 F   0  0  0  0  0
   35.5430    6.7410   61.9760 N   0  0  0  0  0
   37.7890    5.9640   62.2640 N   0  0  0  0  0
   37.4370    5.1860   63.3820 C   0  0  0  0  0
   30.9090    4.3720   64.7820 N   0  3  0  0  0
   38.1700    3.5970   65.2790 C   0  0  0  0  0
   40.4720    2.8420   65.5060 C   0  0  0  0  0
   39.8280    4.3670   63.6860 C   0  0  0  0  0
   42.5030    3.5570   63.8240 S   0  0  0  0  0
   42.7410    2.2190   63.3630 O   0  0  0  0  0
   43.2980    4.0420   64.9110 O   0  0  0  0  0
   27.0574    5.7027   62.0531 H   0  0  0  0  0
   31.5725    5.3232   62.3451 H   0  0  0  0  0
   32.8492    7.8638   62.9613 H   0  0  0  0  0
   32.9944    6.8725   61.6467 H   0  0  0  0  0
   43.7548    4.5783   62.0657 H   0  0  0  0  0
   42.0317    4.4162   61.6465 H   0  0  0  0  0
   42.5591    5.6969   62.7659 H   0  0  0  0  0
   37.1605    7.2585   60.7400 H   0  0  0  0  0
   35.7745    4.6489   64.6559 H   0  0  0  0  0
   38.8709    2.2604   66.8455 H   0  0  0  0  0
   30.7884    8.6322   63.7873 H   0  0  0  0  0
   31.5765    6.1582   65.4098 H   0  0  0  0  0
   33.5089    4.1342   64.4561 H   0  0  0  0  0
   33.7814    5.4583   65.5185 H   0  0  0  0  0
   29.9452    4.7051   64.7613 H   0  0  0  0  0
   31.0481    3.6838   64.0421 H   0  0  0  0  0
   31.1026    3.9436   65.6872 H   0  0  0  0  0
   37.1418    3.5818   65.6406 H   0  0  0  0  0
   41.2342    2.2594   66.0235 H   0  0  0  0  0
   40.1121    4.9503   62.8101 H   0  0  0  0  0
  1  2  4  0  0  0
 14  1  4  0  0  0
  1 16  1  0  0  0
  2  3  4  0  0  0
 12  3  4  0  0  0
  3 19  1  0  0  0
  5  4  1  0  0  0
  4 14  1  0  0  0
 15  4  1  0  0  0
 17  5  1  0  0  0
 29  6  1  0  0  0
 22  7  4  0  0  0
  7 23  4  0  0  0
 20  8  4  0  0  0
  8 24  4  0  0  0
 24  9  1  0  0  0
  9 26  4  0  0  0
  9 28  4  0  0  0
 26 10  4  0  0  0
 10 27  4  0  0  0
 11 27  4  0  0  0
 28 11  4  0  0  0
 11 29  1  0  0  0
 13 12  4  0  0  0
 12 21  1  0  0  0
 14 13  4  0  0  0
 18 15  1  0  0  0
 15 25  1  0  0  0
 17 18  1  0  0  0
 20 17  1  0  0  0
 20 22  4  0  0  0
 23 24  4  0  0  0
 29 30  2  0  0  0
 29 31  2  0  0  0
  2 32  1  0  0  0
  4 33  1  0  0  0
  5 34  1  0  0  0
  5 35  1  0  0  0
  6 36  1  0  0  0
  6 37  1  0  0  0
  6 38  1  0  0  0
  7 39  1  0  0  0
  8 40  1  0  0  0
 10 41  1  0  0  0
 13 42  1  0  0  0
 15 43  1  0  0  0
 18 44  1  0  0  0
 18 45  1  0  0  0
 25 46  1  0  0  0
 25 47  1  0  0  0
 25 48  1  0  0  0
 26 49  1  0  0  0
 27 50  1  0  0  0
 28 51  1  0  0  0
M  END
$$$$
