5t4u_ligand
  -I-interpret- 

 21 22  0  0  0  0  0  0  0  0999 V2000
    6.9640   14.6800   13.6930 C   0  0  0  0  0
    6.8710   13.2750   14.0690 N   0  0  0  0  0
    6.3840   12.9470   15.3120 C   0  0  0  0  0
    5.9720   13.9320   16.1960 C   0  0  0  0  0
    5.4700   13.5740   17.4470 C   0  0  0  0  0
    5.3760   12.2420   17.8040 C   0  0  0  0  0
    5.7840   11.2360   16.9430 C   0  0  0  0  0
    6.2930   11.5930   15.6900 C   0  0  0  0  0
    6.6990   10.5970   14.8200 C   0  0  0  0  0
    7.1950   10.9720   13.5890 C   0  0  0  0  0
    7.2790   12.3220   13.2350 C   0  0  0  0  0
    7.7540   12.5810   12.1070 O   0  0  0  0  0
    8.0060   14.9349   13.4998 H   0  0  0  0  0
    6.3733   14.8540   12.7936 H   0  0  0  0  0
    6.5820   15.2982   14.5054 H   0  0  0  0  0
    6.0401   14.9828   15.9144 H   0  0  0  0  0
    5.1507   14.3473   18.1456 H   0  0  0  0  0
    4.9731   11.9779   18.7818 H   0  0  0  0  0
    5.7099   10.1887   17.2359 H   0  0  0  0  0
    6.6289    9.5458   15.0995 H   0  0  0  0  0
    7.5249   10.2081   12.8849 H   0  0  0  0  0
  1  2  1  0  0  0
  2  3  1  0  0  0
  2 11  1  0  0  0
  3  4  4  0  0  0
  3  8  4  0  0  0
  4  5  4  0  0  0
  5  6  4  0  0  0
  6  7  4  0  0  0
  7  8  4  0  0  0
  8  9  1  0  0  0
  9 10  2  0  0  0
 10 11  1  0  0  0
 11 12  2  0  0  0
  1 13  1  0  0  0
  1 14  1  0  0  0
  1 15  1  0  0  0
  4 16  1  0  0  0
  5 17  1  0  0  0
  6 18  1  0  0  0
  7 19  1  0  0  0
  9 20  1  0  0  0
 10 21  1  0  0  0
M  END
$$$$
