3dx0_ligand
  -I-interpret- 

 25 25  0  0  0  0  0  0  0  0999 V2000
   31.2740   66.3160    9.1220 C   0  0  0  0  0
   31.0470   65.0000    9.7410 N   0  3  0  0  0
   32.7780   66.6710    9.1140 C   0  0  0  0  0
   33.5810   65.5740    9.5140 O   0  0  0  0  0
   33.0980   67.1920    7.6930 C   0  0  0  0  0
   33.7070   66.1980    6.9090 O   0  0  0  0  0
   31.7070   67.5200    7.1120 C   0  0  0  0  0
   31.7170   67.5830    5.6890 O   0  0  0  0  0
   30.8920   66.3500    7.6650 C   0  0  0  0  0
   29.0740   66.5930    7.5690 S   0  0  0  0  0
   28.9250   66.0320    5.8850 C   0  0  0  0  0
   30.6684   67.0033    9.7128 H   0  0  0  0  0
   31.3218   65.0354   10.7226 H   0  0  0  0  0
   30.0583   64.7591    9.6720 H   0  0  0  0  0
   31.6042   64.2967    9.2558 H   0  0  0  0  0
   33.0097   67.4447    9.8460 H   0  0  0  0  0
   33.3313   65.3024   10.4003 H   0  0  0  0  0
   33.7848   68.0383    7.7094 H   0  0  0  0  0
   34.5727   65.9932    7.2698 H   0  0  0  0  0
   31.3130   68.4988    7.3855 H   0  0  0  0  0
   32.2427   68.3351    5.4068 H   0  0  0  0  0
   31.1022   65.4460    7.0933 H   0  0  0  0  0
   29.5283   66.6677    5.2369 H   0  0  0  0  0
   29.2752   65.0022    5.8141 H   0  0  0  0  0
   27.8807   66.0840    5.5771 H   0  0  0  0  0
  1  2  1  0  0  0
  1  3  1  0  0  0
  1  9  1  0  0  0
  3  4  1  0  0  0
  3  5  1  0  0  0
  5  6  1  0  0  0
  5  7  1  0  0  0
  7  8  1  0  0  0
  7  9  1  0  0  0
  9 10  1  0  0  0
 10 11  1  0  0  0
  1 12  1  0  0  0
  2 13  1  0  0  0
  2 14  1  0  0  0
  2 15  1  0  0  0
  3 16  1  0  0  0
  4 17  1  0  0  0
  5 18  1  0  0  0
  6 19  1  0  0  0
  7 20  1  0  0  0
  8 21  1  0  0  0
  9 22  1  0  0  0
 11 23  1  0  0  0
 11 24  1  0  0  0
 11 25  1  0  0  0
M  END
$$$$
