5du4_ligand
  -I-interpret- 

 58 61  0  0  0  0  0  0  0  0999 V2000
  -13.6750   11.0050   37.3260 C   0  0  0  0  0
  -14.6450   11.7700   36.4130 C   0  0  0  0  0
  -14.0930   13.1410   36.0330 C   0  0  0  0  0
  -13.3040   13.0850   38.4270 C   0  0  0  0  0
  -14.6190   15.1700   34.9510 F   0  0  0  0  0
  -15.1280   14.0050   35.3220 C   0  0  0  0  0
  -16.1410   14.1940   36.1400 F   0  0  0  0  0
  -15.5310   13.3700   34.2410 F   0  0  0  0  0
  -14.2480    9.6810   37.6560 C   0  0  0  0  0
  -15.2760    9.5610   38.5840 C   0  0  0  0  0
  -15.8060    8.3130   38.8860 C   0  0  0  0  0
  -15.3190    7.1720   38.2560 C   0  0  0  0  0
  -15.8870    5.8070   38.5740 C   0  0  0  0  0
  -15.7470    5.4680   40.0410 C   0  0  0  0  0
  -14.2920    7.2940   37.3290 C   0  0  0  0  0
  -13.7600    8.5420   37.0290 C   0  0  0  0  0
  -13.3860   11.7480   38.5540 N   0  0  0  0  0
  -13.6240   13.7020   37.3200 N   0  0  0  0  0
  -13.4290   15.0840   37.5000 N   0  0  0  0  0
  -12.9700   15.2890   38.7710 C   0  0  0  0  0
  -12.8600   14.0680   39.4280 C   0  0  0  0  0
  -12.4150   13.7190   40.8030 C   0  0  0  0  0
  -12.4270   12.5550   41.1840 O   0  0  0  0  0
  -11.9820   14.7200   41.5730 N   0  0  0  0  0
  -11.5240   14.4900   42.9310 C   0  0  0  0  0
  -12.6540   14.8940   43.8500 C   0  0  0  0  0
  -12.8210   16.2300   44.1980 C   0  0  0  0  0
  -13.8610   16.6090   45.0390 C   0  0  0  0  0
  -14.7450   15.6560   45.5280 C   0  0  0  0  0
  -15.7700   16.0420   46.3570 O   0  0  0  0  0
  -16.8770   15.1720   46.5920 C   0  0  0  0  0
  -14.5800   14.3190   45.1760 C   0  0  0  0  0
  -13.5370   13.9390   44.3370 C   0  0  0  0  0
  -12.7341   10.8780   36.7905 H   0  0  0  0  0
  -15.5834   11.9124   36.9489 H   0  0  0  0  0
  -14.7891   11.1912   35.5007 H   0  0  0  0  0
  -13.2840   13.0880   35.3044 H   0  0  0  0  0
  -15.6681   10.4505   39.0771 H   0  0  0  0  0
  -16.6072    8.2272   39.6200 H   0  0  0  0  0
  -15.3366    5.0641   37.9968 H   0  0  0  0  0
  -16.9477    5.8105   38.3230 H   0  0  0  0  0
  -14.6919    5.4724   40.3145 H   0  0  0  0  0
  -16.2810    6.2086   40.6363 H   0  0  0  0  0
  -16.1675    4.4795   40.2259 H   0  0  0  0  0
  -13.9009    6.4052   36.8338 H   0  0  0  0  0
  -12.9559    8.6275   36.2981 H   0  0  0  0  0
  -13.2548   11.2806   39.4511 H   0  0  0  0  0
  -12.7275   16.2598   39.2032 H   0  0  0  0  0
  -11.9728   15.6686   41.1982 H   0  0  0  0  0
  -10.6276   15.0736   43.1408 H   0  0  0  0  0
  -11.2616   13.4424   43.0783 H   0  0  0  0  0
  -12.1343   16.9824   43.8101 H   0  0  0  0  0
  -13.9829   17.6564   45.3152 H   0  0  0  0  0
  -17.3749   14.9561   45.6467 H   0  0  0  0  0
  -16.5195   14.2431   47.0363 H   0  0  0  0  0
  -17.5790   15.6548   47.2719 H   0  0  0  0  0
  -15.2703   13.5674   45.5590 H   0  0  0  0  0
  -13.4129   12.8916   44.0619 H   0  0  0  0  0
  1  2  1  0  0  0
  1  9  1  0  0  0
  1 17  1  0  0  0
  2  3  1  0  0  0
  3  6  1  0  0  0
  3 18  1  0  0  0
 17  4  1  0  0  0
  4 18  4  0  0  0
  4 21  4  0  0  0
  6  5  1  0  0  0
  6  7  1  0  0  0
  6  8  1  0  0  0
  9 10  4  0  0  0
  9 16  4  0  0  0
 10 11  4  0  0  0
 11 12  4  0  0  0
 12 13  1  0  0  0
 12 15  4  0  0  0
 13 14  1  0  0  0
 15 16  4  0  0  0
 18 19  4  0  0  0
 19 20  4  0  0  0
 20 21  4  0  0  0
 21 22  1  0  0  0
 22 23  2  0  0  0
 22 24  1  0  0  0
 24 25  1  0  0  0
 25 26  1  0  0  0
 26 27  4  0  0  0
 26 33  4  0  0  0
 27 28  4  0  0  0
 28 29  4  0  0  0
 29 30  1  0  0  0
 29 32  4  0  0  0
 30 31  1  0  0  0
 32 33  4  0  0  0
  1 34  1  0  0  0
  2 35  1  0  0  0
  2 36  1  0  0  0
  3 37  1  0  0  0
 10 38  1  0  0  0
 11 39  1  0  0  0
 13 40  1  0  0  0
 13 41  1  0  0  0
 14 42  1  0  0  0
 14 43  1  0  0  0
 14 44  1  0  0  0
 15 45  1  0  0  0
 16 46  1  0  0  0
 17 47  1  0  0  0
 20 48  1  0  0  0
 24 49  1  0  0  0
 25 50  1  0  0  0
 25 51  1  0  0  0
 27 52  1  0  0  0
 28 53  1  0  0  0
 31 54  1  0  0  0
 31 55  1  0  0  0
 31 56  1  0  0  0
 32 57  1  0  0  0
 33 58  1  0  0  0
M  END
$$$$
