4wxi_ligand
  -I-interpret- 

 67 71  0  0  0  0  0  0  0  0999 V2000
   44.6710  -21.0240   29.9870 C   0  0  0  0  0
   48.0600  -21.7420   32.3490 C   0  0  0  0  0
   41.2770  -20.5920   28.4550 C   0  0  0  0  0
   46.9880  -20.8590   30.6150 C   0  0  0  0  0
   39.7930  -23.1480   28.7650 C   0  0  0  0  0
   38.9350  -18.3080   29.1450 C   0  0  0  0  0
   37.0570  -16.6750   29.5400 C   0  0  0  0  0
   38.8170  -16.1700   27.7430 C   0  0  0  0  0
   36.1690  -15.6170   28.8960 C   0  0  0  0  0
   37.9120  -15.0640   27.1730 C   0  0  0  0  0
   38.0460  -17.2550   28.5220 C   0  0  0  0  0
   42.8720  -20.3320   26.7800 C   0  0  0  0  0
   46.7740  -21.6190   31.7730 C   0  0  0  0  0
   36.0570  -13.4210   27.7670 C   0  0  0  0  0
   41.1530  -25.3760   29.7200 C   0  0  0  0  0
   41.1770  -25.0580   28.3560 C   0  0  0  0  0
   40.4590  -24.5740   30.6120 C   0  0  0  0  0
   45.4740  -22.1030   32.0520 C   0  0  0  0  0
   44.4390  -21.8040   31.1440 C   0  0  0  0  0
   40.5010  -23.9420   27.8650 C   0  0  0  0  0
   39.7900  -23.4480   30.1310 C   0  0  0  0  0
   43.9010  -20.5410   27.6910 C   0  0  0  0  0
   45.9570  -20.5280   29.7090 C   0  0  0  0  0
   42.2450  -20.8290   29.4320 C   0  0  0  0  0
   43.5890  -20.7700   29.0400 C   0  0  0  0  0
   37.0070  -14.4950   28.2670 C   0  0  0  0  0
   39.1080  -21.8990   28.2890 C   0  0  0  0  0
   39.8060  -20.6420   28.8440 C   0  0  0  0  0
   41.5630  -20.3640   27.1330 N   0  0  0  0  0
   48.9900  -21.0540   31.6710 N   0  0  0  0  0
   48.3270  -20.5490   30.6250 N   0  0  0  0  0
   48.2680  -22.4190   33.5130 N   0  0  0  0  0
   36.7440  -12.2190   27.4830 N   0  3  0  0  0
   39.0390  -19.4840   28.4300 N   0  0  0  0  0
   39.5010  -18.0990   30.2030 O   0  0  0  0  0
   36.4259  -17.4815   29.9134 H   0  0  0  0  0
   37.6201  -16.2129   30.3509 H   0  0  0  0  0
   39.5119  -15.6989   28.4382 H   0  0  0  0  0
   39.3082  -16.6578   26.9010 H   0  0  0  0  0
   35.5304  -15.1839   29.6659 H   0  0  0  0  0
   35.5775  -16.0901   28.1121 H   0  0  0  0  0
   37.2904  -15.4869   26.3838 H   0  0  0  0  0
   38.5374  -14.2630   26.7788 H   0  0  0  0  0
   37.4567  -17.7682   27.7622 H   0  0  0  0  0
   43.1278  -20.1343   25.7391 H   0  0  0  0  0
   35.3179  -13.2230   28.5433 H   0  0  0  0  0
   35.5844  -13.7752   26.8509 H   0  0  0  0  0
   41.6823  -26.2577   30.0812 H   0  0  0  0  0
   41.7334  -25.6936   27.6671 H   0  0  0  0  0
   40.4361  -24.8192   31.6738 H   0  0  0  0  0
   45.2781  -22.6927   32.9475 H   0  0  0  0  0
   43.4355  -22.1828   31.3377 H   0  0  0  0  0
   40.5257  -23.6966   26.8033 H   0  0  0  0  0
   39.2604  -22.7964   30.8260 H   0  0  0  0  0
   44.9397  -20.5272   27.3609 H   0  0  0  0  0
   46.1501  -19.9131   28.8300 H   0  0  0  0  0
   41.9659  -21.0517   30.4618 H   0  0  0  0  0
   37.6748  -14.0394   28.9981 H   0  0  0  0  0
   38.0761  -21.9102   28.6399 H   0  0  0  0  0
   39.1491  -21.8704   27.2002 H   0  0  0  0  0
   39.8252  -20.6616   29.9337 H   0  0  0  0  0
   47.4831  -22.8561   33.9960 H   0  0  0  0  0
   49.2086  -22.4887   33.9013 H   0  0  0  0  0
   36.0801  -11.5198   27.1503 H   0  0  0  0  0
   37.1997  -11.8808   28.3306 H   0  0  0  0  0
   37.4464  -12.3920   26.7638 H   0  0  0  0  0
   38.5383  -19.5425   27.5433 H   0  0  0  0  0
  1 19  4  0  0  0
  1 23  4  0  0  0
 25  1  1  0  0  0
 13  2  4  0  0  0
  2 30  4  0  0  0
  2 32  1  0  0  0
  3 24  4  0  0  0
 28  3  1  0  0  0
  3 29  4  0  0  0
  4 13  4  0  0  0
 23  4  4  0  0  0
  4 31  4  0  0  0
  5 20  4  0  0  0
  5 21  4  0  0  0
 27  5  1  0  0  0
  6 11  1  0  0  0
 34  6  1  0  0  0
  6 35  2  0  0  0
  7  9  1  0  0  0
 11  7  1  0  0  0
  8 10  1  0  0  0
 11  8  1  0  0  0
  9 26  1  0  0  0
 10 26  1  0  0  0
 12 22  4  0  0  0
 29 12  4  0  0  0
 18 13  4  0  0  0
 26 14  1  0  0  0
 14 33  1  0  0  0
 16 15  4  0  0  0
 17 15  4  0  0  0
 20 16  4  0  0  0
 21 17  4  0  0  0
 19 18  4  0  0  0
 25 22  4  0  0  0
 24 25  4  0  0  0
 28 27  1  0  0  0
 28 34  1  0  0  0
 30 31  4  0  0  0
  7 36  1  0  0  0
  7 37  1  0  0  0
  8 38  1  0  0  0
  8 39  1  0  0  0
  9 40  1  0  0  0
  9 41  1  0  0  0
 10 42  1  0  0  0
 10 43  1  0  0  0
 11 44  1  0  0  0
 12 45  1  0  0  0
 14 46  1  0  0  0
 14 47  1  0  0  0
 15 48  1  0  0  0
 16 49  1  0  0  0
 17 50  1  0  0  0
 18 51  1  0  0  0
 19 52  1  0  0  0
 20 53  1  0  0  0
 21 54  1  0  0  0
 22 55  1  0  0  0
 23 56  1  0  0  0
 24 57  1  0  0  0
 26 58  1  0  0  0
 27 59  1  0  0  0
 27 60  1  0  0  0
 28 61  1  0  0  0
 32 62  1  0  0  0
 32 63  1  0  0  0
 33 64  1  0  0  0
 33 65  1  0  0  0
 33 66  1  0  0  0
 34 67  1  0  0  0
M  END
$$$$
