4gtq_ligand
  -I-interpret- 

 85 90  0  0  0  0  0  0  0  0999 V2000
  -21.1980   64.5940    3.6460 C   0  0  0  0  0
  -21.9180   65.8140    3.2950 O   0  0  0  0  0
  -21.3550   66.9580    3.8060 C   0  0  0  0  0
  -22.0720   68.1550    3.8430 C   0  0  0  0  0
  -21.4730   69.3060    4.3890 C   0  0  0  0  0
  -20.0590   66.9360    4.3200 C   0  0  0  0  0
  -19.4710   68.0780    4.8480 C   0  0  0  0  0
  -20.1570   69.2800    4.8870 C   0  0  0  0  0
  -19.2260   70.8110    5.6030 S   0  0  0  0  0
  -18.2300   70.3550    6.6720 O   0  0  0  0  0
  -20.2080   71.8270    6.2260 O   0  0  0  0  0
  -18.2610   71.6960    4.3880 N   0  0  0  0  0
  -19.1360   72.1850    3.3070 C   0  0  0  0  0
  -19.6150   71.2810    2.3640 C   0  0  0  0  0
  -20.7840   71.7710    1.7680 C   0  0  0  0  0
  -21.4360   71.0490    0.7690 C   0  0  0  0  0
  -22.6320   71.6220    0.1930 C   0  0  0  0  0
  -23.4490   72.0670   -0.1690 N   0  0  0  0  0
  -20.9000   69.8420    0.3190 C   0  0  0  0  0
  -19.7510   69.3480    0.9180 C   0  0  0  0  0
  -19.0900   70.0490    1.9650 C   0  0  0  0  0
  -17.9110   69.5110    2.4050 N   0  0  0  0  0
  -17.5900   68.0860    2.2670 C   0  0  0  0  0
  -16.7890   67.9650    0.9260 C   0  0  0  0  0
  -16.4210   68.9710    0.1060 C   0  0  0  0  0
  -15.7350   68.4460   -0.9140 N   0  0  0  0  0
  -15.6820   67.1390   -0.7340 C   0  0  0  0  0
  -16.3340   66.8270    0.4120 N   0  0  0  0  0
  -16.4640   65.4290    0.9250 C   0  0  0  0  0
  -16.7690   70.3470    2.7720 C   0  0  0  0  0
  -16.9020   71.1620    4.0690 C   0  0  0  0  0
  -15.7920   72.2370    3.9540 C   0  0  0  0  0
  -15.9530   73.2340    4.9060 C   0  0  0  0  0
  -16.7180   74.3640    4.5950 C   0  0  0  0  0
  -16.8860   75.3750    5.5350 C   0  0  0  0  0
  -15.3350   73.1250    6.1600 C   0  0  0  0  0
  -15.5000   74.1300    7.1170 C   0  0  0  0  0
  -16.2690   75.2610    6.7950 C   0  0  0  0  0
  -16.4710   76.2560    7.7190 O   0  0  0  0  0
  -17.4260   75.7620    8.6040 C   0  0  0  0  0
  -17.2770   75.9400    9.8200 O   0  0  0  0  0
  -18.5110   75.0750    8.1400 N   0  0  0  0  0
  -19.5160   74.4670    8.9760 C   0  0  0  0  0
  -20.2790   75.4170    9.6280 C   0  0  0  0  0
  -20.3700   75.4180   11.0120 C   0  0  0  0  0
  -21.1750   76.3520   11.6470 C   0  0  0  0  0
  -21.8940   77.2850   10.9090 C   0  0  0  0  0
  -21.8080   77.2850    9.5280 C   0  0  0  0  0
  -20.9990   76.3410    8.8990 C   0  0  0  0  0
  -20.1791   64.6521    3.2633 H   0  0  0  0  0
  -21.1746   64.4867    4.7305 H   0  0  0  0  0
  -21.7045   63.7352    3.2055 H   0  0  0  0  0
  -23.0885   68.1982    3.4519 H   0  0  0  0  0
  -22.0400   70.2362    4.4268 H   0  0  0  0  0
  -19.4956   66.0030    4.3071 H   0  0  0  0  0
  -18.4542   68.0273    5.2375 H   0  0  0  0  0
  -18.5181   72.8809    2.7395 H   0  0  0  0  0
  -20.0256   72.5588    3.8140 H   0  0  0  0  0
  -21.1898   72.7302    2.0896 H   0  0  0  0  0
  -21.3783   69.2943   -0.4930 H   0  0  0  0  0
  -19.3430   68.3964    0.5773 H   0  0  0  0  0
  -18.4914   67.4734    2.2503 H   0  0  0  0  0
  -17.0074   67.7241    3.1142 H   0  0  0  0  0
  -16.6442   70.0281    0.2502 H   0  0  0  0  0
  -15.1933   66.4270   -1.3991 H   0  0  0  0  0
  -16.0029   65.3606    1.9103 H   0  0  0  0  0
  -17.5195   65.1666    0.9973 H   0  0  0  0  0
  -15.9641   64.7441    0.2401 H   0  0  0  0  0
  -16.6583   71.0753    1.9686 H   0  0  0  0  0
  -15.9341   69.6642    2.9295 H   0  0  0  0  0
  -16.7706   70.5185    4.9389 H   0  0  0  0  0
  -15.8500   72.6903    2.9644 H   0  0  0  0  0
  -14.8268   71.7569    4.1150 H   0  0  0  0  0
  -17.1834   74.4519    3.6133 H   0  0  0  0  0
  -17.4914   76.2498    5.2977 H   0  0  0  0  0
  -14.7232   72.2525    6.3894 H   0  0  0  0  0
  -15.0383   74.0377    8.1001 H   0  0  0  0  0
  -18.6181   74.9856    7.1296 H   0  0  0  0  0
  -19.0154   73.8540    9.7255 H   0  0  0  0  0
  -20.1746   73.8710    8.3443 H   0  0  0  0  0
  -19.8114   74.6881   11.5979 H   0  0  0  0  0
  -21.2445   76.3544   12.7348 H   0  0  0  0  0
  -22.5242   78.0150   11.4170 H   0  0  0  0  0
  -22.3658   78.0139    8.9400 H   0  0  0  0  0
  -20.9337   76.3323    7.8110 H   0  0  0  0  0
  1  2  1  0  0  0
  2  3  1  0  0  0
  3  4  4  0  0  0
  3  6  4  0  0  0
  4  5  4  0  0  0
  5  8  4  0  0  0
  6  7  4  0  0  0
  7  8  4  0  0  0
  8  9  1  0  0  0
  9 10  2  0  0  0
  9 11  2  0  0  0
  9 12  1  0  0  0
 12 13  1  0  0  0
 12 31  1  0  0  0
 13 14  1  0  0  0
 14 15  4  0  0  0
 14 21  4  0  0  0
 15 16  4  0  0  0
 16 17  1  0  0  0
 16 19  4  0  0  0
 17 18  3  0  0  0
 19 20  4  0  0  0
 20 21  4  0  0  0
 21 22  1  0  0  0
 22 23  1  0  0  0
 22 30  1  0  0  0
 23 24  1  0  0  0
 24 25  4  0  0  0
 24 28  4  0  0  0
 25 26  4  0  0  0
 26 27  4  0  0  0
 27 28  4  0  0  0
 28 29  1  0  0  0
 30 31  1  0  0  0
 31 32  1  0  0  0
 32 33  1  0  0  0
 33 34  4  0  0  0
 33 36  4  0  0  0
 34 35  4  0  0  0
 35 38  4  0  0  0
 36 37  4  0  0  0
 37 38  4  0  0  0
 38 39  1  0  0  0
 39 40  1  0  0  0
 40 41  2  0  0  0
 40 42  1  0  0  0
 42 43  1  0  0  0
 43 44  1  0  0  0
 44 45  4  0  0  0
 44 49  4  0  0  0
 45 46  4  0  0  0
 46 47  4  0  0  0
 47 48  4  0  0  0
 48 49  4  0  0  0
  1 50  1  0  0  0
  1 51  1  0  0  0
  1 52  1  0  0  0
  4 53  1  0  0  0
  5 54  1  0  0  0
  6 55  1  0  0  0
  7 56  1  0  0  0
 13 57  1  0  0  0
 13 58  1  0  0  0
 15 59  1  0  0  0
 19 60  1  0  0  0
 20 61  1  0  0  0
 23 62  1  0  0  0
 23 63  1  0  0  0
 25 64  1  0  0  0
 27 65  1  0  0  0
 29 66  1  0  0  0
 29 67  1  0  0  0
 29 68  1  0  0  0
 30 69  1  0  0  0
 30 70  1  0  0  0
 31 71  1  0  0  0
 32 72  1  0  0  0
 32 73  1  0  0  0
 34 74  1  0  0  0
 35 75  1  0  0  0
 36 76  1  0  0  0
 37 77  1  0  0  0
 42 78  1  0  0  0
 43 79  1  0  0  0
 43 80  1  0  0  0
 45 81  1  0  0  0
 46 82  1  0  0  0
 47 83  1  0  0  0
 48 84  1  0  0  0
 49 85  1  0  0  0
M  END
$$$$
