1xb7_ligand
  -I-interpret- 

159159  0  0  0  0  0  0  0  0999 V2000
  -13.3380   71.0180   12.7420 N   0  3  0  0  0
  -12.4910   72.2520   12.8970 C   0  0  0  0  0
  -11.8790   72.4070   14.2920 C   0  0  0  0  0
  -10.6640   72.3470   14.4080 O   0  0  0  0  0
  -13.2520   73.5260   12.5130 C   0  0  0  0  0
  -12.3870   74.6720   12.5670 O   0  0  0  0  0
  -12.6650   72.6110   15.3480 N   0  0  0  0  0
  -12.1050   72.3910   16.7040 C   0  0  0  0  0
  -11.6570   70.9230   16.8050 C   0  0  0  0  0
  -10.5930   70.6010   17.3000 O   0  0  0  0  0
  -13.1110   72.6770   17.8290 C   0  0  0  0  0
  -13.2290   74.1310   18.2840 C   0  0  0  0  0
  -11.8900   74.8160   18.5440 C   0  0  0  0  0
  -11.1340   74.3890   19.4660 O   0  0  0  0  0
  -11.5910   75.7910   17.8090 O   0  0  0  0  0
  -12.5140   70.0530   16.3150 N   0  0  0  0  0
  -12.2330   68.6450   16.1820 C   0  0  0  0  0
  -10.9830   68.3990   15.3380 C   0  0  0  0  0
  -10.1580   67.5580   15.6850 O   0  0  0  0  0
  -13.4580   67.9650   15.5700 C   0  0  0  0  0
  -13.4020   66.4780   15.2880 C   0  0  0  0  0
  -12.8200   65.6970   16.4580 C   0  0  0  0  0
  -14.7910   65.9880   14.9340 C   0  0  0  0  0
  -10.8140   69.1250   14.2390 N   0  0  0  0  0
   -9.5840   68.9400   13.4560 C   0  0  0  0  0
   -8.3610   69.3040   14.2860 C   0  0  0  0  0
   -7.3530   68.6050   14.2240 O   0  0  0  0  0
   -9.5910   69.7170   12.1390 C   0  0  0  0  0
   -8.3190   69.5270   11.3090 C   0  0  0  0  0
   -8.2260   68.1260   10.7440 C   0  0  0  0  0
   -8.2290   70.5620   10.1830 C   0  0  0  0  0
   -8.4530   70.3680   15.0800 N   0  0  0  0  0
   -7.3250   70.7950   15.9070 C   0  0  0  0  0
   -6.9330   69.7530   16.9480 C   0  0  0  0  0
   -5.7490   69.4960   17.1320 O   0  0  0  0  0
   -7.6080   72.1370   16.5790 C   0  0  0  0  0
   -7.5850   73.3320   15.6280 C   0  0  0  0  0
   -8.1660   74.5940   16.3010 C   0  0  0  0  0
   -8.9590   75.4770   15.3140 C   0  0  0  0  0
   -9.8690   76.4480   16.0110 N   0  3  0  0  0
   -7.8950   69.1230   17.6220 N   0  0  0  0  0
   -7.5020   68.0710   18.5890 C   0  0  0  0  0
   -7.0490   66.7720   17.9290 C   0  0  0  0  0
   -6.2600   66.0340   18.5240 O   0  0  0  0  0
   -8.6060   67.7470   19.5810 C   0  0  0  0  0
   -8.9400   68.8390   20.5700 C   0  0  0  0  0
  -10.0030   69.7070   20.3260 C   0  0  0  0  0
   -8.2340   68.9760   21.7650 C   0  0  0  0  0
  -10.3450   70.7000   21.2290 C   0  0  0  0  0
   -8.5760   69.9720   22.6980 C   0  0  0  0  0
   -9.6400   70.8270   22.4150 C   0  0  0  0  0
  -10.0100   71.8060   23.3000 O   0  0  0  0  0
   -7.5290   66.4870   16.7200 N   0  0  0  0  0
   -7.1540   65.2490   16.0340 C   0  0  0  0  0
   -5.7090   65.2560   15.5290 C   0  0  0  0  0
   -5.0450   64.2200   15.4650 O   0  0  0  0  0
   -8.0720   64.9850   14.8490 C   0  0  0  0  0
   -9.1420   63.9260   15.0690 C   0  0  0  0  0
  -10.0680   63.9080   13.8710 C   0  0  0  0  0
   -8.5080   62.5560   15.3020 C   0  0  0  0  0
   -5.2620   66.4410   15.1410 N   0  0  0  0  0
   -3.9750   66.6610   14.4810 C   0  0  0  0  0
   -2.9540   67.2070   15.4620 C   0  0  0  0  0
   -1.8220   67.4740   15.0790 O   0  0  0  0  0
   -4.1320   67.6390   13.3170 C   0  0  0  0  0
   -4.6380   68.8970   13.8000 O   0  0  0  0  0
   -5.1680   67.1310   12.3390 C   0  0  0  0  0
   -3.3640   67.3850   16.7200 N   0  0  0  0  0
   -2.4140   67.5460   17.8220 C   0  0  0  0  0
   -1.6120   66.2370   17.9400 C   0  0  0  0  0
   -0.4710   66.2210   18.4180 O   0  0  0  0  0
   -3.1530   67.8200   19.1560 C   0  0  0  0  0
   -3.6580   69.1620   19.1670 O   0  0  0  0  0
   -2.2200   67.7810   20.3350 C   0  0  0  0  0
   -2.1574   65.0993   17.5191 O   0  0  0  0  0
  -13.7110   70.9800   11.7934 H   0  0  0  0  0
  -12.7673   70.1911   12.9176 H   0  0  0  0  0
  -14.1079   71.0494   13.4103 H   0  0  0  0  0
  -11.6654   72.1115   12.1993 H   0  0  0  0  0
  -14.0723   73.6711   13.2159 H   0  0  0  0  0
  -13.6290   73.4175   11.4960 H   0  0  0  0  0
  -12.8826   75.4573   12.3235 H   0  0  0  0  0
  -13.6319   72.9123   15.2267 H   0  0  0  0  0
  -11.2749   73.0853   16.8339 H   0  0  0  0  0
  -12.7617   72.1166   18.6962 H   0  0  0  0  0
  -14.0900   72.4032   17.4356 H   0  0  0  0  0
  -13.7777   74.1297   19.2258 H   0  0  0  0  0
  -13.7206   74.6803   17.4811 H   0  0  0  0  0
  -11.5521   73.6423   19.9010 H   0  0  0  0  0
  -13.4269   70.3932   16.0128 H   0  0  0  0  0
  -12.0294   68.2212   17.1654 H   0  0  0  0  0
  -13.5828   68.4332   14.5936 H   0  0  0  0  0
  -14.2469   68.0822   16.3130 H   0  0  0  0  0
  -12.7332   66.3079   14.4443 H   0  0  0  0  0
  -11.8063   66.0447   16.6569 H   0  0  0  0  0
  -13.4390   65.8534   17.3414 H   0  0  0  0  0
  -12.7994   64.6357   16.2104 H   0  0  0  0  0
  -15.4657   66.1784   15.7686 H   0  0  0  0  0
  -15.1469   66.5164   14.0496 H   0  0  0  0  0
  -14.7563   64.9178   14.7300 H   0  0  0  0  0
  -11.5228   69.7968   13.9445 H   0  0  0  0  0
   -9.5380   67.8830   13.1936 H   0  0  0  0  0
   -9.6658   70.7763   12.3848 H   0  0  0  0  0
  -10.4270   69.3469   11.5455 H   0  0  0  0  0
   -7.4744   69.6767   11.9816 H   0  0  0  0  0
   -8.2144   67.4057   11.5620 H   0  0  0  0  0
   -9.0871   67.9361   10.1032 H   0  0  0  0  0
   -7.3098   68.0307   10.1613 H   0  0  0  0  0
   -9.0918   70.4573    9.5252 H   0  0  0  0  0
   -8.2172   71.5639   10.6122 H   0  0  0  0  0
   -7.3142   70.3986    9.6133 H   0  0  0  0  0
   -9.3257   70.8950   15.1123 H   0  0  0  0  0
   -6.4776   70.9125   15.2316 H   0  0  0  0  0
   -6.8223   72.2987   17.3170 H   0  0  0  0  0
   -8.6121   72.0803   16.9993 H   0  0  0  0  0
   -8.1923   73.0930   14.7550 H   0  0  0  0  0
   -6.5511   73.5327   15.3472 H   0  0  0  0  0
   -7.3340   75.1834   16.6864 H   0  0  0  0  0
   -8.8483   74.2722   17.0878 H   0  0  0  0  0
   -9.5755   74.8219   14.6985 H   0  0  0  0  0
   -8.2422   76.0511   14.7269 H   0  0  0  0  0
  -10.3670   77.0043   15.3161 H   0  0  0  0  0
  -10.5404   75.9337   16.5812 H   0  0  0  0  0
   -9.3153   77.0630   16.6073 H   0  0  0  0  0
   -8.8765   69.3589   17.4760 H   0  0  0  0  0
   -6.6527   68.5045   19.1170 H   0  0  0  0  0
   -8.2549   66.8973   20.1666 H   0  0  0  0  0
   -9.5082   67.5763   18.9936 H   0  0  0  0  0
  -10.5771   69.6021   19.4054 H   0  0  0  0  0
   -7.4050   68.3015   21.9793 H   0  0  0  0  0
  -11.1672   71.3803   21.0070 H   0  0  0  0  0
   -8.0172   70.0736   23.6284 H   0  0  0  0  0
  -10.7552   72.2942   22.9423 H   0  0  0  0  0
   -8.1669   67.1403   16.2654 H   0  0  0  0  0
   -7.2528   64.4603   16.7799 H   0  0  0  0  0
   -7.4374   64.6205   14.0412 H   0  0  0  0  0
   -8.5974   65.9191   14.6505 H   0  0  0  0  0
   -9.7194   64.1684   15.9612 H   0  0  0  0  0
  -10.5348   64.8867   13.7595 H   0  0  0  0  0
   -9.4950   63.6730   12.9740 H   0  0  0  0  0
  -10.8384   63.1515   14.0202 H   0  0  0  0  0
   -7.9126   62.2799   14.4317 H   0  0  0  0  0
   -7.8678   62.5985   16.1832 H   0  0  0  0  0
   -9.2927   61.8155   15.4568 H   0  0  0  0  0
   -5.8540   67.2535   15.3137 H   0  0  0  0  0
   -3.6251   65.7011   14.1012 H   0  0  0  0  0
   -3.1550   67.7455   12.8456 H   0  0  0  0  0
   -4.7340   69.5058   13.0640 H   0  0  0  0  0
   -4.8545   66.1622   11.9502 H   0  0  0  0  0
   -6.1261   67.0268   12.8481 H   0  0  0  0  0
   -5.2673   67.8392   11.5164 H   0  0  0  0  0
   -4.3643   67.4094   16.9182 H   0  0  0  0  0
   -1.7590   68.3940   17.6220 H   0  0  0  0  0
   -3.9283   67.0572   19.2282 H   0  0  0  0  0
   -4.1142   69.3242   19.9959 H   0  0  0  0  0
   -1.7568   66.7963   20.3977 H   0  0  0  0  0
   -1.4477   68.5401   20.2108 H   0  0  0  0  0
   -2.7818   67.9785   21.2480 H   0  0  0  0  0
   -3.0374   65.2746   17.1778 H   0  0  0  0  0
  2  1  1  0  0  0
  2  5  1  0  0  0
  3  2  1  0  0  0
  3  4  2  0  0  0
  5  6  1  0  0  0
  8  7  1  0  0  0
  8 11  1  0  0  0
  9  8  1  0  0  0
  9 10  2  0  0  0
 11 12  1  0  0  0
 12 13  1  0  0  0
 13 15  2  0  0  0
 13 14  1  0  0  0
  7  3  1  0  0  0
 17 16  1  0  0  0
 17 20  1  0  0  0
 18 17  1  0  0  0
 18 19  2  0  0  0
 20 21  1  0  0  0
 21 22  1  0  0  0
 21 23  1  0  0  0
 16  9  1  0  0  0
 25 24  1  0  0  0
 25 28  1  0  0  0
 26 25  1  0  0  0
 26 27  2  0  0  0
 28 29  1  0  0  0
 29 30  1  0  0  0
 29 31  1  0  0  0
 24 18  1  0  0  0
 33 32  1  0  0  0
 33 36  1  0  0  0
 34 33  1  0  0  0
 34 35  2  0  0  0
 36 37  1  0  0  0
 37 38  1  0  0  0
 38 39  1  0  0  0
 39 40  1  0  0  0
 32 26  1  0  0  0
 42 41  1  0  0  0
 42 45  1  0  0  0
 43 42  1  0  0  0
 43 44  2  0  0  0
 45 46  1  0  0  0
 46 47  4  0  0  0
 46 48  4  0  0  0
 48 50  4  0  0  0
 50 51  4  0  0  0
 51 52  1  0  0  0
 49 51  4  0  0  0
 47 49  4  0  0  0
 41 34  1  0  0  0
 54 53  1  0  0  0
 54 57  1  0  0  0
 55 54  1  0  0  0
 55 56  2  0  0  0
 57 58  1  0  0  0
 58 59  1  0  0  0
 58 60  1  0  0  0
 53 43  1  0  0  0
 62 61  1  0  0  0
 62 65  1  0  0  0
 63 62  1  0  0  0
 63 64  2  0  0  0
 65 67  1  0  0  0
 65 66  1  0  0  0
 61 55  1  0  0  0
 68 69  1  0  0  0
 69 72  1  0  0  0
 69 70  1  0  0  0
 70 71  2  0  0  0
 72 74  1  0  0  0
 72 73  1  0  0  0
 63 68  1  0  0  0
 70 75  1  0  0  0
  1 76  1  0  0  0
  1 77  1  0  0  0
  1 78  1  0  0  0
  2 79  1  0  0  0
  5 80  1  0  0  0
  5 81  1  0  0  0
  6 82  1  0  0  0
  7 83  1  0  0  0
  8 84  1  0  0  0
 11 85  1  0  0  0
 11 86  1  0  0  0
 12 87  1  0  0  0
 12 88  1  0  0  0
 14 89  1  0  0  0
 16 90  1  0  0  0
 17 91  1  0  0  0
 20 92  1  0  0  0
 20 93  1  0  0  0
 21 94  1  0  0  0
 22 95  1  0  0  0
 22 96  1  0  0  0
 22 97  1  0  0  0
 23 98  1  0  0  0
 23 99  1  0  0  0
 23100  1  0  0  0
 24101  1  0  0  0
 25102  1  0  0  0
 28103  1  0  0  0
 28104  1  0  0  0
 29105  1  0  0  0
 30106  1  0  0  0
 30107  1  0  0  0
 30108  1  0  0  0
 31109  1  0  0  0
 31110  1  0  0  0
 31111  1  0  0  0
 32112  1  0  0  0
 33113  1  0  0  0
 36114  1  0  0  0
 36115  1  0  0  0
 37116  1  0  0  0
 37117  1  0  0  0
 38118  1  0  0  0
 38119  1  0  0  0
 39120  1  0  0  0
 39121  1  0  0  0
 40122  1  0  0  0
 40123  1  0  0  0
 40124  1  0  0  0
 41125  1  0  0  0
 42126  1  0  0  0
 45127  1  0  0  0
 45128  1  0  0  0
 47129  1  0  0  0
 48130  1  0  0  0
 49131  1  0  0  0
 50132  1  0  0  0
 52133  1  0  0  0
 53134  1  0  0  0
 54135  1  0  0  0
 57136  1  0  0  0
 57137  1  0  0  0
 58138  1  0  0  0
 59139  1  0  0  0
 59140  1  0  0  0
 59141  1  0  0  0
 60142  1  0  0  0
 60143  1  0  0  0
 60144  1  0  0  0
 61145  1  0  0  0
 62146  1  0  0  0
 65147  1  0  0  0
 66148  1  0  0  0
 67149  1  0  0  0
 67150  1  0  0  0
 67151  1  0  0  0
 68152  1  0  0  0
 69153  1  0  0  0
 72154  1  0  0  0
 73155  1  0  0  0
 74156  1  0  0  0
 74157  1  0  0  0
 74158  1  0  0  0
 75159  1  0  0  0
M  END
$$$$
