### 
### Created by X-TOOL on Mon Sep 10 21:12:51 2018
### 

@<TRIPOS>MOLECULE
1xb7_ligand
  158   158     1     0     0
SMALL
GAST_HUCK


@<TRIPOS>ATOM
      1 N         -13.3380   71.0180   12.7420 N.4       1 SER         0.2396
      2 CA        -12.4910   72.2520   12.8970 C.3       1 SER         0.0885
      3 C         -11.8790   72.4070   14.2920 C.2       1 SER         0.2290
      4 O         -10.6640   72.3470   14.4080 O.2       1 SER        -0.3906
      5 CB        -13.2520   73.5260   12.5130 C.3       1 SER         0.1041
      6 OG        -12.3870   74.6720   12.5670 O.3       1 SER        -0.3870
      7 N         -12.6650   72.6110   15.3480 N.am      1 GLU        -0.2608
      8 CA        -12.1050   72.3910   16.7040 C.3       1 GLU         0.1326
      9 C         -11.6570   70.9230   16.8050 C.2       1 GLU         0.2040
     10 O         -10.5930   70.6010   17.3000 O.2       1 GLU        -0.3944
     11 CB        -13.1110   72.6770   17.8290 C.3       1 GLU        -0.0008
     12 CG        -13.2290   74.1310   18.2840 C.3       1 GLU         0.0044
     13 CD        -11.8900   74.8160   18.5440 C.2       1 GLU         0.0350
     14 OE1       -11.1340   74.3890   19.4660 O.co2     1 GLU        -0.5690
     15 OE2       -11.5910   75.7910   17.8090 O.co2     1 GLU        -0.5690
     16 N         -12.5140   70.0530   16.3150 N.am      1 LEU        -0.2637
     17 CA        -12.2330   68.6450   16.1820 C.3       1 LEU         0.1312
     18 C         -10.9830   68.3990   15.3380 C.2       1 LEU         0.2039
     19 O         -10.1580   67.5580   15.6850 O.2       1 LEU        -0.3944
     20 CB        -13.4580   67.9650   15.5700 C.3       1 LEU        -0.0101
     21 CG        -13.4020   66.4780   15.2880 C.3       1 LEU        -0.0425
     22 CD1       -12.8200   65.6970   16.4580 C.3       1 LEU        -0.0625
     23 CD2       -14.7910   65.9880   14.9340 C.3       1 LEU        -0.0625
     24 N         -10.8140   69.1250   14.2390 N.am      1 LEU        -0.2637
     25 CA         -9.5840   68.9400   13.4560 C.3       1 LEU         0.1312
     26 C          -8.3610   69.3040   14.2860 C.2       1 LEU         0.2039
     27 O          -7.3530   68.6050   14.2240 O.2       1 LEU        -0.3944
     28 CB         -9.5910   69.7170   12.1390 C.3       1 LEU        -0.0101
     29 CG         -8.3190   69.5270   11.3090 C.3       1 LEU        -0.0425
     30 CD1        -8.2260   68.1260   10.7440 C.3       1 LEU        -0.0625
     31 CD2        -8.2290   70.5620   10.1830 C.3       1 LEU        -0.0625
     32 N          -8.4530   70.3680   15.0800 N.am      1 LYS        -0.2637
     33 CA         -7.3250   70.7950   15.9070 C.3       1 LYS         0.1310
     34 C          -6.9330   69.7530   16.9480 C.2       1 LYS         0.2040
     35 O          -5.7490   69.4960   17.1320 O.2       1 LYS        -0.3944
     36 CB         -7.6080   72.1370   16.5790 C.3       1 LYS        -0.0122
     37 CG         -7.5850   73.3320   15.6280 C.3       1 LYS        -0.0440
     38 CD         -8.1660   74.5940   16.3010 C.3       1 LYS        -0.0124
     39 CE         -8.9590   75.4770   15.3140 C.3       1 LYS        -0.0354
     40 NZ         -9.8690   76.4480   16.0110 N.4       1 LYS         0.2185
     41 N          -7.8950   69.1230   17.6220 N.am      1 TYR        -0.2621
     42 CA         -7.5020   68.0710   18.5890 C.3       1 TYR         0.1390
     43 C          -7.0490   66.7720   17.9290 C.2       1 TYR         0.2057
     44 O          -6.2600   66.0340   18.5240 O.2       1 TYR        -0.3942
     45 CB         -8.6060   67.7470   19.5810 C.3       1 TYR         0.0163
     46 CG         -8.9400   68.8390   20.5700 C.ar      1 TYR        -0.0493
     47 CD1       -10.0030   69.7070   20.3260 C.ar      1 TYR        -0.0685
     48 CD2        -8.2340   68.9760   21.7650 C.ar      1 TYR        -0.0685
     49 CE1       -10.3450   70.7000   21.2290 C.ar      1 TYR        -0.0398
     50 CE2        -8.5760   69.9720   22.6980 C.ar      1 TYR        -0.0398
     51 CZ         -9.6400   70.8270   22.4150 C.ar      1 TYR         0.0805
     52 OH        -10.0100   71.8060   23.3000 O.3       1 TYR        -0.3376
     53 N          -7.5290   66.4870   16.7200 N.am      1 LEU        -0.2636
     54 CA         -7.1540   65.2490   16.0340 C.3       1 LEU         0.1312
     55 C          -5.7090   65.2560   15.5290 C.2       1 LEU         0.2040
     56 O          -5.0450   64.2200   15.4650 O.2       1 LEU        -0.3944
     57 CB         -8.0720   64.9850   14.8490 C.3       1 LEU        -0.0101
     58 CG         -9.1420   63.9260   15.0690 C.3       1 LEU        -0.0425
     59 CD1       -10.0680   63.9080   13.8710 C.3       1 LEU        -0.0625
     60 CD2        -8.5080   62.5560   15.3020 C.3       1 LEU        -0.0625
     61 N          -5.2620   66.4410   15.1410 N.am      1 THR        -0.2613
     62 CA         -3.9750   66.6610   14.4810 C.3       1 THR         0.1565
     63 C          -2.9540   67.2070   15.4620 C.2       1 THR         0.2066
     64 O          -1.8220   67.4740   15.0790 O.2       1 THR        -0.3943
     65 CB         -4.1320   67.6390   13.3170 C.3       1 THR         0.0924
     66 OG1        -4.6380   68.8970   13.8000 O.3       1 THR        -0.3874
     67 CG2        -5.1680   67.1310   12.3390 C.3       1 THR        -0.0346
     68 N          -3.3640   67.3850   16.7200 N.am      1 THR        -0.2601
     69 CA         -2.4140   67.5460   17.8220 C.3       1 THR         0.1677
     70 C          -1.6120   66.2370   17.9400 C.2       1 THR         0.2597
     71 O          -0.4710   66.2210   18.4180 O.2       1 THR        -0.3679
     72 CB         -3.1530   67.8200   19.1560 C.3       1 THR         0.0937
     73 OG1        -3.6580   69.1620   19.1670 O.3       1 THR        -0.3873
     74 CG2        -2.2200   67.7810   20.3350 C.3       1 THR        -0.0344
     75 O1         -2.1574   65.0993   17.5191 O.3       1 THR        -0.2909
     76 H1        -13.7072   70.9794   11.8048 H         1 SER         0.2016
     77 H2        -14.0993   71.0479   13.4020 H         1 SER         0.2016
     78 H3        -12.7750   70.2000   12.9152 H         1 SER         0.2016
     79 H4        -11.6543   72.1472   12.1907 H         1 SER         0.1122
     80 H5        -14.0879   73.6717   13.2129 H         1 SER         0.0640
     81 H6        -13.6441   73.4178   11.4910 H         1 SER         0.0640
     82 H7        -11.6651   74.5513   11.9614 H         1 SER         0.2099
     83 H8        -13.6130   72.9063   15.2291 H         1 GLU         0.1885
     84 H9        -11.2353   73.0513   16.8365 H         1 GLU         0.0801
     85 H10       -12.8159   72.0765   18.7021 H         1 GLU         0.0330
     86 H11       -14.1031   72.3543   17.4804 H         1 GLU         0.0330
     87 H12       -13.8150   74.1548   19.2146 H         1 GLU         0.0433
     88 H13       -13.7590   74.6951   17.5024 H         1 GLU         0.0433
     89 H14       -13.4090   70.3865   16.0187 H         1 LEU         0.1883
     90 H15       -12.0581   68.2242   17.1832 H         1 LEU         0.0800
     91 H16       -13.6629   68.4680   14.6134 H         1 LEU         0.0315
     92 H17       -14.2987   68.1319   16.2595 H         1 LEU         0.0315
     93 H18       -12.7470   66.3177   14.4190 H         1 LEU         0.0298
     94 H19       -12.7987   64.6257   16.2093 H         1 LEU         0.0232
     95 H20       -13.4439   65.8540   17.3502 H         1 LEU         0.0232
     96 H21       -11.7969   66.0469   16.6598 H         1 LEU         0.0232
     97 H22       -15.1810   66.5719   14.0873 H         1 LEU         0.0232
     98 H23       -15.4557   66.1116   15.8017 H         1 LEU         0.0232
     99 H24       -14.7450   64.9247   14.6559 H         1 LEU         0.0232
    100 H25       -11.5089   69.7836   13.9503 H         1 LEU         0.1883
    101 H26        -9.5136   67.8714   13.2050 H         1 LEU         0.0800
    102 H27        -9.7006   70.7874   12.3673 H         1 LEU         0.0315
    103 H28       -10.4502   69.3797   11.5407 H         1 LEU         0.0315
    104 H29        -7.4587   69.6788   11.9774 H         1 LEU         0.0298
    105 H30        -7.3017   68.0286   10.1556 H         1 LEU         0.0232
    106 H31        -9.0945   67.9331   10.0970 H         1 LEU         0.0232
    107 H32        -8.2142   67.3981   11.5686 H         1 LEU         0.0232
    108 H33        -8.2980   71.5739   10.6088 H         1 LEU         0.0232
    109 H34        -9.0554   70.4054    9.4741 H         1 LEU         0.0232
    110 H35        -7.2690   70.4499    9.6578 H         1 LEU         0.0232
    111 H36        -9.3086   70.8847   15.1117 H         1 LYS         0.1883
    112 H37        -6.4631   70.9317   15.2373 H         1 LYS         0.0800
    113 H38        -6.8472   72.3005   17.3564 H         1 LYS         0.0312
    114 H39        -8.6032   72.0863   17.0448 H         1 LYS         0.0312
    115 H40        -8.1841   73.0928   14.7370 H         1 LYS         0.0269
    116 H41        -6.5457   73.5318   15.3283 H         1 LYS         0.0269
    117 H42        -7.3371   75.1859   16.7164 H         1 LYS         0.0317
    118 H43        -8.8380   74.2827   17.1143 H         1 LYS         0.0317
    119 H44        -9.5666   74.8258   14.6685 H         1 LYS         0.0813
    120 H45        -8.2461   76.0432   14.6966 H         1 LYS         0.0813
    121 H46       -10.3617   76.9983   15.3251 H         1 LYS         0.1994
    122 H47        -9.3229   77.0564   16.6006 H         1 LYS         0.1994
    123 H48       -10.5330   75.9408   16.5748 H         1 LYS         0.1994
    124 H49        -8.8573   69.3543   17.4788 H         1 TYR         0.1885
    125 H50        -6.6480   68.4680   19.1574 H         1 TYR         0.0821
    126 H51        -8.2981   66.8579   20.1507 H         1 TYR         0.0453
    127 H52        -9.5176   67.5186   19.0093 H         1 TYR         0.0453
    128 H53       -10.5739   69.6027   19.4104 H         1 TYR         0.0530
    129 H54        -7.4096   68.3052   21.9781 H         1 TYR         0.0530
    130 H55       -11.1627   71.3765   21.0082 H         1 TYR         0.0525
    131 H56        -8.0203   70.0730   23.6232 H         1 TYR         0.0525
    132 H57       -10.7474   72.2891   22.9460 H         1 TYR         0.2458
    133 H58        -8.1544   67.1275   16.2743 H         1 LEU         0.1883
    134 H59        -7.2622   64.4234   16.7527 H         1 LEU         0.0800
    135 H60        -7.4476   64.6642   14.0021 H         1 LEU         0.0315
    136 H61        -8.5771   65.9287   14.5954 H         1 LEU         0.0315
    137 H62        -9.7263   64.1927   15.9620 H         1 LEU         0.0298
    138 H63       -10.8460   63.1448   14.0204 H         1 LEU         0.0232
    139 H64        -9.4910   63.6708   12.9650 H         1 LEU         0.0232
    140 H65       -10.5398   64.8952   13.7573 H         1 LEU         0.0232
    141 H66        -7.8431   62.6037   16.1770 H         1 LEU         0.0232
    142 H67        -7.9262   62.2655   14.4148 H         1 LEU         0.0232
    143 H68        -9.2981   61.8121   15.4821 H         1 LEU         0.0232
    144 H69        -5.8424   67.2376   15.3103 H         1 THR         0.1884
    145 H70        -3.6122   65.6987   14.0906 H         1 THR         0.0826
    146 H71        -3.1628   67.7776   12.8155 H         1 THR         0.0639
    147 H72        -5.4763   68.7578   14.2247 H         1 THR         0.2101
    148 H73        -5.2692   67.8449   11.5083 H         1 THR         0.0257
    149 H74        -6.1355   67.0254   12.8516 H         1 THR         0.0257
    150 H75        -4.8527   66.1533   11.9458 H         1 THR         0.0257
    151 H76        -4.3446   67.4089   16.9143 H         1 THR         0.1885
    152 H77        -1.7348   68.3836   17.6048 H         1 THR         0.0843
    153 H78        -3.9664   67.0900   19.2806 H         1 THR         0.0641
    154 H79        -4.2644   69.2769   18.4448 H         1 THR         0.2101
    155 H80        -2.7858   67.9801   21.2571 H         1 THR         0.0257
    156 H81        -1.4400   68.5467   20.2109 H         1 THR         0.0257
    157 H82        -1.7518   66.7877   20.3994 H         1 THR         0.0257
    158 H83        -2.2138   64.4889   18.2449 H         1 THR         0.2540
@<TRIPOS>BOND
     1    2    1 1  
     2    2    5 1  
     3    3    2 1  
     4    3    4 2  
     5    5    6 1  
     6    8    7 1  
     7    8   11 1  
     8    9    8 1  
     9    9   10 2  
    10   11   12 1  
    11   12   13 1  
    12   13   15 ar 
    13   13   14 ar 
    14    7    3 am 
    15   17   16 1  
    16   17   20 1  
    17   18   17 1  
    18   18   19 2  
    19   20   21 1  
    20   21   22 1  
    21   21   23 1  
    22   16    9 am 
    23   25   24 1  
    24   25   28 1  
    25   26   25 1  
    26   26   27 2  
    27   28   29 1  
    28   29   30 1  
    29   29   31 1  
    30   24   18 am 
    31   33   32 1  
    32   33   36 1  
    33   34   33 1  
    34   34   35 2  
    35   36   37 1  
    36   37   38 1  
    37   38   39 1  
    38   39   40 1  
    39   32   26 am 
    40   42   41 1  
    41   42   45 1  
    42   43   42 1  
    43   43   44 2  
    44   45   46 1  
    45   46   47 ar 
    46   46   48 ar 
    47   48   50 ar 
    48   50   51 ar 
    49   51   52 1  
    50   49   51 ar 
    51   47   49 ar 
    52   41   34 am 
    53   54   53 1  
    54   54   57 1  
    55   55   54 1  
    56   55   56 2  
    57   57   58 1  
    58   58   59 1  
    59   58   60 1  
    60   53   43 am 
    61   62   61 1  
    62   62   65 1  
    63   63   62 1  
    64   63   64 2  
    65   65   67 1  
    66   65   66 1  
    67   61   55 am 
    68   68   69 1  
    69   69   72 1  
    70   69   70 1  
    71   70   71 2  
    72   72   74 1  
    73   72   73 1  
    74   63   68 am 
    75   70   75 1  
    76    1   76 1  
    77    1   77 1  
    78    1   78 1  
    79    2   79 1  
    80    5   80 1  
    81    5   81 1  
    82    6   82 1  
    83    7   83 1  
    84    8   84 1  
    85   11   85 1  
    86   11   86 1  
    87   12   87 1  
    88   12   88 1  
    89   16   89 1  
    90   17   90 1  
    91   20   91 1  
    92   20   92 1  
    93   21   93 1  
    94   22   94 1  
    95   22   95 1  
    96   22   96 1  
    97   23   97 1  
    98   23   98 1  
    99   23   99 1  
   100   24  100 1  
   101   25  101 1  
   102   28  102 1  
   103   28  103 1  
   104   29  104 1  
   105   30  105 1  
   106   30  106 1  
   107   30  107 1  
   108   31  108 1  
   109   31  109 1  
   110   31  110 1  
   111   32  111 1  
   112   33  112 1  
   113   36  113 1  
   114   36  114 1  
   115   37  115 1  
   116   37  116 1  
   117   38  117 1  
   118   38  118 1  
   119   39  119 1  
   120   39  120 1  
   121   40  121 1  
   122   40  122 1  
   123   40  123 1  
   124   41  124 1  
   125   42  125 1  
   126   45  126 1  
   127   45  127 1  
   128   47  128 1  
   129   48  129 1  
   130   49  130 1  
   131   50  131 1  
   132   52  132 1  
   133   53  133 1  
   134   54  134 1  
   135   57  135 1  
   136   57  136 1  
   137   58  137 1  
   138   59  138 1  
   139   59  139 1  
   140   59  140 1  
   141   60  141 1  
   142   60  142 1  
   143   60  143 1  
   144   61  144 1  
   145   62  145 1  
   146   65  146 1  
   147   66  147 1  
   148   67  148 1  
   149   67  149 1  
   150   67  150 1  
   151   68  151 1  
   152   69  152 1  
   153   72  153 1  
   154   73  154 1  
   155   74  155 1  
   156   74  156 1  
   157   74  157 1  
   158   75  158 1  
@<TRIPOS>SUBSTRUCTURE
     1 SER         1

