6qrc_ligand
  -I-interpret- 

 41 44  0  0  0  0  0  0  0  0999 V2000
  -24.4200  -20.1920   11.2350 C   0  0  0  0  0
  -22.1540  -23.4480    9.4270 C   0  0  0  0  0
  -20.7130  -24.5200    7.8260 C   0  0  0  0  0
  -22.4680  -22.4710    8.4770 C   0  0  0  0  0
  -23.3190  -20.6780    6.5060 C   0  0  0  0  0
  -25.4990  -21.0420   10.8210 C   0  0  0  0  0
  -17.9640  -16.0900   12.6150 N   0  0  0  0  0
  -18.8210  -17.1910   12.5210 C   0  0  0  0  0
  -18.4500  -18.4810   12.7070 N   0  0  0  0  0
  -19.5300  -19.2790   12.5430 N   0  0  0  0  0
  -20.5930  -18.5230   12.2920 C   0  0  0  0  0
  -20.1970  -17.1950   12.2280 C   0  0  0  0  0
  -21.9720  -19.0820   11.9780 C   0  0  0  0  0
  -23.0890  -18.2500   11.9360 C   0  0  0  0  0
  -24.3250  -18.8100   11.5620 C   0  0  0  0  0
  -23.2900  -21.0040   11.2680 C   0  0  0  0  0
  -22.0490  -20.4330   11.6330 C   0  0  0  0  0
  -23.6580  -22.2680   10.9140 N   0  0  0  0  0
  -22.7760  -23.3880   10.8240 C   0  0  0  0  0
  -21.2810  -24.4690    9.1100 C   0  0  0  0  0
  -21.0270  -23.5410    6.8740 C   0  0  0  0  0
  -21.8920  -22.5270    7.1850 C   0  0  0  0  0
  -22.1910  -21.5360    6.2210 O   0  0  0  0  0
  -24.9870  -22.3130   10.6420 C   0  0  0  0  0
  -20.0246  -25.3252    7.5691 H   0  0  0  0  0
  -23.1569  -21.6656    8.7315 H   0  0  0  0  0
  -24.2201  -21.2840    6.6003 H   0  0  0  0  0
  -23.1403  -20.1428    7.4386 H   0  0  0  0  0
  -23.4442  -19.9626    5.6932 H   0  0  0  0  0
  -26.5359  -20.7397   10.6741 H   0  0  0  0  0
  -16.9785  -16.2284   12.8386 H   0  0  0  0  0
  -18.3244  -15.1485   12.4599 H   0  0  0  0  0
  -20.8228  -16.3326   11.9981 H   0  0  0  0  0
  -23.0077  -17.1923   12.1864 H   0  0  0  0  0
  -25.2147  -18.1816   11.5226 H   0  0  0  0  0
  -21.1499  -21.0491   11.6451 H   0  0  0  0  0
  -21.9847  -23.2838   11.5664 H   0  0  0  0  0
  -23.3373  -24.3041   11.0080 H   0  0  0  0  0
  -21.0341  -25.2300    9.8503 H   0  0  0  0  0
  -20.5802  -23.5872    5.8809 H   0  0  0  0  0
  -25.5502  -23.1948   10.3367 H   0  0  0  0  0
  6  1  4  0  0  0
  1 15  4  0  0  0
 16  1  4  0  0  0
  4  2  4  0  0  0
  2 19  1  0  0  0
  2 20  4  0  0  0
  3 20  4  0  0  0
 21  3  4  0  0  0
 22  4  4  0  0  0
 23  5  1  0  0  0
 24  6  4  0  0  0
  8  7  1  0  0  0
  8  9  4  0  0  0
 12  8  4  0  0  0
 10  9  4  0  0  0
 11 10  4  0  0  0
 11 12  4  0  0  0
 13 11  1  0  0  0
 13 14  4  0  0  0
 17 13  4  0  0  0
 15 14  4  0  0  0
 16 17  4  0  0  0
 18 16  4  0  0  0
 19 18  1  0  0  0
 18 24  4  0  0  0
 22 21  4  0  0  0
 22 23  1  0  0  0
  3 25  1  0  0  0
  4 26  1  0  0  0
  5 27  1  0  0  0
  5 28  1  0  0  0
  5 29  1  0  0  0
  6 30  1  0  0  0
  7 31  1  0  0  0
  7 32  1  0  0  0
 12 33  1  0  0  0
 14 34  1  0  0  0
 15 35  1  0  0  0
 17 36  1  0  0  0
 19 37  1  0  0  0
 19 38  1  0  0  0
 20 39  1  0  0  0
 21 40  1  0  0  0
 24 41  1  0  0  0
M  END
$$$$
