3u18_ligand
  -I-interpret- 

 90 95  0  0  0  0  0  0  0  0999 V2000
  -34.9150    7.9880    2.2260 S   0  0  0  0  0
  -35.1060    6.6260    2.7450 O   0  0  0  0  0
  -35.9840    8.2880    1.2400 O   0  0  0  0  0
  -34.8890    9.0840    3.2090 O   0  0  0  0  0
  -23.7840    7.5630    1.6510 C   0  0  0  0  0
  -22.6250    1.5400    7.2840 C   0  0  0  0  0
  -29.8410    7.9750   -0.8050 N   0  0  0  0  0
  -16.7680   -0.2180   10.0630 N   0  0  0  0  0
  -33.8300    8.2280   -2.6890 O   0  0  0  0  0
  -31.7450    7.1240   -3.1250 O   0  0  0  0  0
  -11.6080    3.1020    7.7000 O   0  0  0  0  0
  -10.7460    1.8580    9.5370 O   0  0  0  0  0
  -12.8610   -1.9380   10.8700 O   0  0  0  0  0
  -15.0560   -2.4850   10.1030 O   0  0  0  0  0
  -28.6480    7.6530    1.4620 O   0  0  0  0  0
  -18.1460    1.8380    9.0150 O   0  0  0  0  0
  -31.7550    9.6500   -2.5930 O   0  0  0  0  0
  -11.8040    4.0170    9.8800 O   0  0  0  0  0
  -14.7850   -1.5080   12.2200 O   0  0  0  0  0
  -23.8760    6.6770    4.4590 C   0  0  0  0  0
  -21.5270    6.4290    6.4360 C   0  0  0  0  0
  -25.0580    7.0370    3.7540 C   0  0  0  0  0
  -20.3940    5.8330    7.0200 C   0  0  0  0  0
  -31.0900    7.4390    4.2380 C   0  0  0  0  0
  -15.6870    4.4940    8.0800 C   0  0  0  0  0
  -33.4760    8.1280   -0.0080 C   0  0  0  0  0
  -32.2640    7.6360    3.5320 C   0  0  0  0  0
  -33.5020    7.9790    1.3860 C   0  0  0  0  0
  -14.5080    3.8620    8.4880 C   0  0  0  0  0
  -25.2720    5.8700    6.3350 C   0  0  0  0  0
  -22.7500    4.3170    6.7800 C   0  0  0  0  0
  -13.1690    0.7060    9.9840 C   0  0  0  0  0
  -28.6650    7.2450    4.2570 N   0  0  0  0  0
  -18.0460    4.4590    7.8970 N   0  0  0  0  0
  -27.4950    7.2020    3.6540 N   0  0  0  0  0
  -19.2850    3.8540    7.8900 N   0  0  0  0  0
  -24.9910    7.5450    2.4660 O   0  0  0  0  0
  -21.5270    2.3850    7.6860 O   0  0  0  0  0
  -30.9990    7.9720   -0.0760 C   0  0  0  0  0
  -15.6040    0.5300    9.8480 C   0  0  0  0  0
  -24.0100    6.1250    5.7620 C   0  0  0  0  0
  -22.7100    5.6660    6.3730 C   0  0  0  0  0
  -29.8340    7.6230    2.1460 C   0  0  0  0  0
  -16.9420    2.4660    8.8680 C   0  0  0  0  0
  -29.8620    7.4630    3.5450 C   0  0  0  0  0
  -16.9150    3.8440    8.2490 C   0  0  0  0  0
  -26.3110    6.8800    4.3740 C   0  0  0  0  0
  -20.4130    4.4970    7.4010 C   0  0  0  0  0
  -26.4390    6.2570    5.6340 C   0  0  0  0  0
  -21.5550    3.7340    7.2930 C   0  0  0  0  0
  -32.2920    8.1200   -0.7770 C   0  0  0  0  0
  -14.3740   -0.0450   10.1840 C   0  0  0  0  0
  -13.1980    1.9920    9.4000 C   0  0  0  0  0
  -32.2250    7.8060    2.1310 C   0  0  0  0  0
  -14.4710    2.5650    9.0500 C   0  0  0  0  0
  -31.0210    7.7940    1.4210 C   0  0  0  0  0
  -15.6760    1.8320    9.2460 C   0  0  0  0  0
  -32.3580    8.2920   -2.4010 S   0  0  0  0  0
  -11.7360    2.7920    9.1260 S   0  0  0  0  0
  -14.2660   -1.5610   10.8550 S   0  0  0  0  0
  -35.8626    9.1770    0.8987 H   0  0  0  0  0
  -23.0139    8.1450    2.1573 H   0  0  0  0  0
  -23.4315    6.5422    1.5034 H   0  0  0  0  0
  -24.0064    8.0152    0.6845 H   0  0  0  0  0
  -23.5548    1.9357    7.6926 H   0  0  0  0  0
  -22.6852    1.5177    6.1959 H   0  0  0  0  0
  -22.4617    0.5303    7.6609 H   0  0  0  0  0
  -29.8770    8.0785   -1.8191 H   0  0  0  0  0
  -28.9418    7.8738   -0.3343 H   0  0  0  0  0
  -16.7054   -1.1574   10.4555 H   0  0  0  0  0
  -17.6786    0.1765    9.8271 H   0  0  0  0  0
  -30.7970    7.1169   -2.9737 H   0  0  0  0  0
  -12.2863    3.7331    7.4487 H   0  0  0  0  0
  -28.8230    7.7681    0.5251 H   0  0  0  0  0
  -18.0098    0.9778    9.4188 H   0  0  0  0  0
  -15.7118   -1.2586   12.1993 H   0  0  0  0  0
  -22.8926    6.8208    4.0114 H   0  0  0  0  0
  -21.4908    7.4461    6.0457 H   0  0  0  0  0
  -19.4923    6.4254    7.1751 H   0  0  0  0  0
  -31.1142    7.2678    5.3142 H   0  0  0  0  0
  -15.6498    5.4874    7.6328 H   0  0  0  0  0
  -34.4251    8.2575   -0.5282 H   0  0  0  0  0
  -33.2186    7.6599    4.0576 H   0  0  0  0  0
  -13.5668    4.3982    8.3662 H   0  0  0  0  0
  -25.3484    5.3808    7.3060 H   0  0  0  0  0
  -23.6692    3.7360    6.7045 H   0  0  0  0  0
  -12.2141    0.2772   10.2878 H   0  0  0  0  0
  -17.9903    5.4378    7.6155 H   0  0  0  0  0
  -19.3749    2.9058    8.2551 H   0  0  0  0  0
  -27.4249    6.0761    6.0621 H   0  0  0  0  0
  1  2  2  0  0  0
  1  3  1  0  0  0
  1  4  2  0  0  0
 28  1  1  0  0  0
 37  5  1  0  0  0
 38  6  1  0  0  0
 39  7  1  0  0  0
 40  8  1  0  0  0
 58  9  2  0  0  0
 58 10  1  0  0  0
 59 11  1  0  0  0
 59 12  2  0  0  0
 60 13  2  0  0  0
 60 14  2  0  0  0
 43 15  1  0  0  0
 44 16  1  0  0  0
 58 17  2  0  0  0
 59 18  2  0  0  0
 60 19  1  0  0  0
 20 22  4  0  0  0
 41 20  4  0  0  0
 23 21  4  0  0  0
 21 42  4  0  0  0
 22 37  1  0  0  0
 22 47  4  0  0  0
 48 23  4  0  0  0
 24 27  4  0  0  0
 45 24  4  0  0  0
 29 25  4  0  0  0
 25 46  4  0  0  0
 28 26  4  0  0  0
 51 26  4  0  0  0
 27 54  4  0  0  0
 54 28  4  0  0  0
 55 29  4  0  0  0
 41 30  4  0  0  0
 30 49  4  0  0  0
 31 42  4  0  0  0
 50 31  4  0  0  0
 32 52  4  0  0  0
 53 32  4  0  0  0
 35 33  2  0  0  0
 33 45  1  0  0  0
 34 36  1  0  0  0
 46 34  1  0  0  0
 47 35  1  0  0  0
 36 48  1  0  0  0
 50 38  1  0  0  0
 39 51  4  0  0  0
 56 39  4  0  0  0
 52 40  4  0  0  0
 40 57  4  0  0  0
 42 41  1  0  0  0
 45 43  4  0  0  0
 43 56  4  0  0  0
 46 44  4  0  0  0
 57 44  4  0  0  0
 49 47  4  0  0  0
 48 50  4  0  0  0
 51 58  1  0  0  0
 52 60  1  0  0  0
 53 55  4  0  0  0
 53 59  1  0  0  0
 54 56  4  0  0  0
 55 57  4  0  0  0
  3 61  1  0  0  0
  5 62  1  0  0  0
  5 63  1  0  0  0
  5 64  1  0  0  0
  6 65  1  0  0  0
  6 66  1  0  0  0
  6 67  1  0  0  0
  7 68  1  0  0  0
  7 69  1  0  0  0
  8 70  1  0  0  0
  8 71  1  0  0  0
 10 72  1  0  0  0
 11 73  1  0  0  0
 15 74  1  0  0  0
 16 75  1  0  0  0
 19 76  1  0  0  0
 20 77  1  0  0  0
 21 78  1  0  0  0
 23 79  1  0  0  0
 24 80  1  0  0  0
 25 81  1  0  0  0
 26 82  1  0  0  0
 27 83  1  0  0  0
 29 84  1  0  0  0
 30 85  1  0  0  0
 31 86  1  0  0  0
 32 87  1  0  0  0
 34 88  1  0  0  0
 36 89  1  0  0  0
 49 90  1  0  0  0
M  END
$$$$
