6gfy_ligand
  -I-interpret- 

 65 67  0  0  0  0  0  0  0  0999 V2000
    9.9200   56.9210   96.0810 C   0  0  0  0  0
   11.1950   56.3500   95.4450 C   0  0  0  0  0
   12.2600   56.9520   95.5870 O   0  0  0  0  0
   11.0330   55.1840   94.7740 N   0  0  0  0  0
   12.1240   54.4650   94.0680 C   0  0  0  0  0
   12.2920   53.0210   94.6190 C   0  0  0  0  0
   12.6480   53.1200   96.1020 C   0  0  0  0  0
   13.4200   52.2840   93.8740 C   0  0  0  0  0
   11.0200   52.1640   94.5010 C   0  0  0  0  0
   11.7900   54.4710   92.5550 C   0  0  0  0  0
   10.6380   54.2700   92.1880 O   0  0  0  0  0
   12.7800   54.7290   91.6770 N   0  0  0  0  0
   14.2300   55.0800   91.9070 C   0  0  0  0  0
   14.5920   55.9310   90.7110 C   0  0  0  0  0
   14.1060   57.2740   90.8960 O   0  0  0  0  0
   13.8450   55.2480   89.5770 C   0  0  0  0  0
   13.6440   56.0940   88.5720 F   0  0  0  0  0
   12.4950   54.8350   90.1940 C   0  0  0  0  0
   12.0760   53.6410   89.5870 C   0  0  0  0  0
   12.5840   52.5810   89.9420 O   0  0  0  0  0
   11.1750   53.7520   88.5680 N   0  0  0  0  0
   10.7390   52.5860   87.8000 C   0  0  0  0  0
   11.5590   52.4310   86.6320 C   0  0  0  0  0
   11.6090   51.1790   86.0020 C   0  0  0  0  0
   12.4060   50.9680   84.8700 C   0  0  0  0  0
   12.3450   53.4600   86.0760 C   0  0  0  0  0
   13.1410   53.2420   84.9350 C   0  0  0  0  0
   13.1760   51.9990   84.3050 C   0  0  0  0  0
   13.9460   51.7840   83.2160 C   0  0  0  0  0
   15.5570   52.2190   83.0610 S   0  0  0  0  0
   15.7650   51.6100   81.5400 C   0  0  0  0  0
   14.6010   51.0700   81.1530 N   0  0  0  0  0
   13.6110   51.1620   82.0630 C   0  0  0  0  0
   12.2330   50.5790   81.7390 C   0  0  0  0  0
   10.0525   56.9874   97.1609 H   0  0  0  0  0
    9.7267   57.9142   95.6756 H   0  0  0  0  0
    9.0786   56.2655   95.8565 H   0  0  0  0  0
   10.0998   54.7728   94.7523 H   0  0  0  0  0
   13.0784   54.9646   94.2343 H   0  0  0  0  0
   12.7646   52.1176   96.5140 H   0  0  0  0  0
   13.5816   53.6712   96.2142 H   0  0  0  0  0
   11.8508   53.6415   96.6317 H   0  0  0  0  0
   14.3522   52.8368   93.9904 H   0  0  0  0  0
   13.5352   51.2832   94.2902 H   0  0  0  0  0
   13.1684   52.2121   92.8159 H   0  0  0  0  0
   11.2115   51.1732   94.9129 H   0  0  0  0  0
   10.2106   52.6391   95.0553 H   0  0  0  0  0
   10.7397   52.0746   93.4514 H   0  0  0  0  0
   14.8615   54.1957   91.9923 H   0  0  0  0  0
   14.3845   55.6042   92.8501 H   0  0  0  0  0
   15.6650   56.0110   90.5367 H   0  0  0  0  0
   14.3406   57.8060   90.1321 H   0  0  0  0  0
   14.3999   54.4013   89.1730 H   0  0  0  0  0
   11.6741   55.5346   90.0368 H   0  0  0  0  0
   10.7964   54.6704   88.3363 H   0  0  0  0  0
    9.7024   52.7262   87.4937 H   0  0  0  0  0
   10.8281   51.6946   88.4209 H   0  0  0  0  0
   11.0168   50.3553   86.4006 H   0  0  0  0  0
   12.4298   49.9778   84.4150 H   0  0  0  0  0
   12.3367   54.4466   86.5394 H   0  0  0  0  0
   13.7409   54.0604   84.5370 H   0  0  0  0  0
   16.6845   51.6416   80.9555 H   0  0  0  0  0
   11.9832   49.8115   82.4716 H   0  0  0  0  0
   11.4868   51.3728   81.7736 H   0  0  0  0  0
   12.2513   50.1390   80.7419 H   0  0  0  0  0
  1  2  1  0  0  0
  2  3  2  0  0  0
  2  4  1  0  0  0
  4  5  1  0  0  0
  5  6  1  0  0  0
  5 10  1  0  0  0
  6  7  1  0  0  0
  6  8  1  0  0  0
  6  9  1  0  0  0
 10 11  2  0  0  0
 10 12  1  0  0  0
 12 13  1  0  0  0
 12 18  1  0  0  0
 13 14  1  0  0  0
 14 15  1  0  0  0
 14 16  1  0  0  0
 16 17  1  0  0  0
 16 18  1  0  0  0
 18 19  1  0  0  0
 19 20  2  0  0  0
 19 21  1  0  0  0
 21 22  1  0  0  0
 22 23  1  0  0  0
 23 24  4  0  0  0
 23 26  4  0  0  0
 24 25  4  0  0  0
 25 28  4  0  0  0
 26 27  4  0  0  0
 27 28  4  0  0  0
 28 29  1  0  0  0
 29 30  4  0  0  0
 29 33  4  0  0  0
 30 31  4  0  0  0
 31 32  4  0  0  0
 32 33  4  0  0  0
 33 34  1  0  0  0
  1 35  1  0  0  0
  1 36  1  0  0  0
  1 37  1  0  0  0
  4 38  1  0  0  0
  5 39  1  0  0  0
  7 40  1  0  0  0
  7 41  1  0  0  0
  7 42  1  0  0  0
  8 43  1  0  0  0
  8 44  1  0  0  0
  8 45  1  0  0  0
  9 46  1  0  0  0
  9 47  1  0  0  0
  9 48  1  0  0  0
 13 49  1  0  0  0
 13 50  1  0  0  0
 14 51  1  0  0  0
 15 52  1  0  0  0
 16 53  1  0  0  0
 18 54  1  0  0  0
 21 55  1  0  0  0
 22 56  1  0  0  0
 22 57  1  0  0  0
 24 58  1  0  0  0
 25 59  1  0  0  0
 26 60  1  0  0  0
 27 61  1  0  0  0
 31 62  1  0  0  0
 34 63  1  0  0  0
 34 64  1  0  0  0
 34 65  1  0  0  0
M  END
$$$$
