2xnn_ligand
  -I-interpret- 

 46 49  0  0  0  0  0  0  0  0999 V2000
   26.5820   11.8200  -13.2530 C   0  0  0  0  0
   26.0150   11.0440  -14.4250 C   0  0  0  0  0
   25.0730   10.0350  -14.0540 O   0  0  0  0  0
   24.6430    9.1050  -15.0070 C   0  0  0  0  0
   25.4920    8.7220  -16.4120 C   0  0  0  0  0
   24.7120    7.6870  -17.1750 C   0  0  0  0  0
   25.0620    7.2130  -18.4210 N   0  0  0  0  0
   24.7700    5.9620  -18.9550 C   0  0  0  0  0
   25.2160    5.9600  -20.3000 N   0  0  0  0  0
   25.7280    7.2250  -20.5970 C   0  0  0  0  0
   26.3160    7.8010  -21.8040 C   0  0  0  0  0
   26.7670    9.1950  -21.8360 C   0  0  0  0  0
   26.6360    9.9690  -20.7120 C   0  0  0  0  0
   26.0350    9.3780  -19.4810 C   0  0  0  0  0
   25.5900    8.0200  -19.4540 C   0  0  0  0  0
   23.3110    7.3580  -16.3200 S   0  0  0  0  0
   23.3430    8.2520  -14.9890 C   0  0  0  0  0
   22.2600    8.2880  -13.9290 C   0  0  0  0  0
   22.2150    7.3320  -12.8470 N   0  0  0  0  0
   21.4750    9.2050  -13.9240 O   0  0  0  0  0
   25.6160   11.9190  -15.5990 C   0  0  0  0  0
   24.2970   12.4350  -15.6870 C   0  0  0  0  0
   23.8770   13.3040  -16.8750 C   0  0  0  0  0
   24.7840   13.5950  -17.8940 C   0  0  0  0  0
   26.2310   13.0280  -17.7980 C   0  0  0  0  0
   26.6200   12.2410  -16.7200 C   0  0  0  0  0
   28.0640   11.7480  -16.6620 C   0  0  0  0  0
   28.7860   12.4170  -17.5500 F   0  0  0  0  0
   28.0890   10.4290  -16.9470 F   0  0  0  0  0
   28.5840   11.9530  -15.4520 F   0  0  0  0  0
   27.4726   12.3606  -13.5736 H   0  0  0  0  0
   25.8357   12.5280  -12.8925 H   0  0  0  0  0
   26.8440   11.1275  -12.4530 H   0  0  0  0  0
   26.8481   10.4621  -14.8192 H   0  0  0  0  0
   26.4461    9.1522  -16.7164 H   0  0  0  0  0
   24.2869    5.1352  -18.4344 H   0  0  0  0  0
   26.4211    7.1834  -22.6960 H   0  0  0  0  0
   27.2021    9.6122  -22.7441 H   0  0  0  0  0
   26.9681   11.0072  -20.7177 H   0  0  0  0  0
   25.9335    9.9926  -18.5865 H   0  0  0  0  0
   21.5295    7.4398  -12.0994 H   0  0  0  0  0
   22.8687    6.5492  -12.8306 H   0  0  0  0  0
   23.5760   12.2103  -14.9010 H   0  0  0  0  0
   22.8620   13.6982  -16.9251 H   0  0  0  0  0
   24.4848   14.2091  -18.7434 H   0  0  0  0  0
   26.9490   13.2513  -18.5871 H   0  0  0  0  0
  1  2  1  0  0  0
  2  3  1  0  0  0
  2 21  1  0  0  0
  3  4  1  0  0  0
  4  5  4  0  0  0
  4 17  4  0  0  0
  5  6  4  0  0  0
  6  7  1  0  0  0
  6 16  4  0  0  0
  7  8  4  0  0  0
  7 15  4  0  0  0
  8  9  4  0  0  0
  9 10  4  0  0  0
 10 11  4  0  0  0
 10 15  4  0  0  0
 11 12  4  0  0  0
 12 13  4  0  0  0
 13 14  4  0  0  0
 14 15  4  0  0  0
 16 17  4  0  0  0
 17 18  1  0  0  0
 18 19  1  0  0  0
 18 20  2  0  0  0
 21 22  4  0  0  0
 21 26  4  0  0  0
 22 23  4  0  0  0
 23 24  4  0  0  0
 24 25  4  0  0  0
 25 26  4  0  0  0
 26 27  1  0  0  0
 27 28  1  0  0  0
 27 29  1  0  0  0
 27 30  1  0  0  0
  1 31  1  0  0  0
  1 32  1  0  0  0
  1 33  1  0  0  0
  2 34  1  0  0  0
  5 35  1  0  0  0
  8 36  1  0  0  0
 11 37  1  0  0  0
 12 38  1  0  0  0
 13 39  1  0  0  0
 14 40  1  0  0  0
 19 41  1  0  0  0
 19 42  1  0  0  0
 22 43  1  0  0  0
 23 44  1  0  0  0
 24 45  1  0  0  0
 25 46  1  0  0  0
M  END
$$$$
