5eh0_ligand
  -I-interpret- 

 58 61  0  0  0  0  0  0  0  0999 V2000
    1.0950  -33.5660  -11.9990 C   0  0  0  0  0
    2.2120  -35.4060  -13.7960 N   0  0  0  0  0
   -1.8270  -38.4100   -9.0690 C   0  0  0  0  0
   -2.0210  -38.7240   -7.7290 C   0  0  0  0  0
   -1.8680  -37.7320   -6.7670 C   0  0  0  0  0
   -1.5410  -36.4420   -7.1480 C   0  0  0  0  0
   -1.5370  -35.6230   -4.8920 C   0  0  0  0  0
   -2.4270  -40.0920   -7.3130 C   0  0  0  0  0
   -3.2640  -40.4330   -6.1970 C   0  0  0  0  0
   -2.1120  -41.2890   -7.9040 C   0  0  0  0  0
    1.8550  -33.1510  -13.1170 C   0  0  0  0  0
    1.9030  -38.1680  -13.4730 C   0  0  0  0  0
    1.0400  -39.4460  -13.5270 C   0  0  0  0  0
   -0.2760  -39.1470  -14.2350 C   0  0  0  0  0
    0.7500  -39.9230  -12.1090 C   0  0  0  0  0
    1.7820  -40.5410  -14.2850 C   0  0  0  0  0
    1.3320  -37.1870  -12.5590 N   0  0  0  0  0
    1.5030  -35.8420  -12.7520 C   0  0  0  0  0
    2.3720  -34.0850  -13.9570 C   0  0  0  0  0
    0.8910  -34.9490  -11.7790 C   0  0  0  0  0
    0.1670  -35.4190  -10.7270 N   0  0  0  0  0
   -0.3440  -34.3810   -9.8970 C   0  0  0  0  0
   -0.2000  -33.0540  -10.0260 N   0  0  0  0  0
    0.5110  -32.6810  -11.0660 C   0  0  0  0  0
   -1.0700  -34.8100   -8.8370 N   0  0  0  0  0
   -1.3620  -36.1250   -8.4950 C   0  0  0  0  0
   -1.3690  -35.3900   -6.2900 O   0  0  0  0  0
   -1.5010  -37.1250   -9.4530 C   0  0  0  0  0
   -2.7160  -42.2510   -7.1970 N   0  0  0  0  0
   -2.6790  -43.6880   -7.4370 C   0  0  0  0  0
   -3.4340  -41.7420   -6.1350 N   0  0  0  0  0
   -1.9336  -39.1876   -9.8254 H   0  0  0  0  0
   -2.0056  -37.9702   -5.7123 H   0  0  0  0  0
   -2.5505  -35.9769   -4.7032 H   0  0  0  0  0
   -0.8206  -36.3752   -4.5617 H   0  0  0  0  0
   -1.3677  -34.6942   -4.3472 H   0  0  0  0  0
   -3.6971  -39.7149   -5.5007 H   0  0  0  0  0
   -1.4863  -41.4302   -8.7853 H   0  0  0  0  0
    2.0245  -32.0905  -13.3032 H   0  0  0  0  0
    1.9435  -37.7322  -14.4713 H   0  0  0  0  0
    2.8992  -38.4347  -13.1202 H   0  0  0  0  0
   -0.8124  -38.3706  -13.6894 H   0  0  0  0  0
   -0.0717  -38.8049  -15.2495 H   0  0  0  0  0
   -0.8818  -40.0524  -14.2706 H   0  0  0  0  0
    1.6895  -40.1393  -11.6005 H   0  0  0  0  0
    0.2134  -39.1439  -11.5676 H   0  0  0  0  0
    0.1404  -40.8257  -12.1482 H   0  0  0  0  0
    1.9883  -40.2024  -15.3003 H   0  0  0  0  0
    2.7205  -40.7612  -13.7763 H   0  0  0  0  0
    1.1658  -41.4395  -14.3184 H   0  0  0  0  0
    0.7920  -37.5099  -11.7562 H   0  0  0  0  0
    2.9516  -33.7396  -14.8131 H   0  0  0  0  0
    0.6608  -31.6123  -11.2197 H   0  0  0  0  0
   -1.4439  -34.0877   -8.2214 H   0  0  0  0  0
   -1.3523  -36.8931  -10.5076 H   0  0  0  0  0
   -3.0856  -43.9005   -8.4257 H   0  0  0  0  0
   -1.6479  -44.0375   -7.3839 H   0  0  0  0  0
   -3.2759  -44.1970   -6.6802 H   0  0  0  0  0
  1 11  4  0  0  0
 20  1  4  0  0  0
 24  1  4  0  0  0
 18  2  4  0  0  0
  2 19  4  0  0  0
  4  3  4  0  0  0
  3 28  4  0  0  0
  5  4  4  0  0  0
  4  8  1  0  0  0
  6  5  4  0  0  0
 26  6  4  0  0  0
  6 27  1  0  0  0
 27  7  1  0  0  0
  8  9  4  0  0  0
  8 10  4  0  0  0
  9 31  4  0  0  0
 10 29  4  0  0  0
 11 19  4  0  0  0
 12 13  1  0  0  0
 17 12  1  0  0  0
 13 14  1  0  0  0
 13 15  1  0  0  0
 13 16  1  0  0  0
 18 17  1  0  0  0
 20 18  4  0  0  0
 21 20  4  0  0  0
 22 21  4  0  0  0
 22 23  4  0  0  0
 25 22  1  0  0  0
 23 24  4  0  0  0
 25 26  1  0  0  0
 26 28  4  0  0  0
 29 30  1  0  0  0
 29 31  4  0  0  0
  3 32  1  0  0  0
  5 33  1  0  0  0
  7 34  1  0  0  0
  7 35  1  0  0  0
  7 36  1  0  0  0
  9 37  1  0  0  0
 10 38  1  0  0  0
 11 39  1  0  0  0
 12 40  1  0  0  0
 12 41  1  0  0  0
 14 42  1  0  0  0
 14 43  1  0  0  0
 14 44  1  0  0  0
 15 45  1  0  0  0
 15 46  1  0  0  0
 15 47  1  0  0  0
 16 48  1  0  0  0
 16 49  1  0  0  0
 16 50  1  0  0  0
 17 51  1  0  0  0
 19 52  1  0  0  0
 24 53  1  0  0  0
 25 54  1  0  0  0
 28 55  1  0  0  0
 30 56  1  0  0  0
 30 57  1  0  0  0
 30 58  1  0  0  0
M  END
$$$$
