5e2s_ligand
  -I-interpret- 

 36 37  0  0  0  0  0  0  0  0999 V2000
   -5.9150    0.8950   16.8260 S   0  0  0  0  0
   -5.1920   -0.4390   16.1700 N   0  0  0  0  0
   -7.3270    0.8820   16.7700 O   0  0  0  0  0
   -5.3560    1.0330   18.0380 O   0  0  0  0  0
   -5.5600    2.2520   15.7680 C   0  0  0  0  0
   -4.4710    2.2530   14.9380 C   0  0  0  0  0
   -4.2380    3.3410   14.1040 C   0  0  0  0  0
   -5.0890    4.4460   14.1570 C   0  0  0  0  0
   -6.1780    4.4090   14.9850 C   0  0  0  0  0
   -6.4030    3.3380   15.8140 C   0  0  0  0  0
   -4.9160    5.5880   13.2250 C   0  0  0  0  0
   -6.0180    5.8880   12.4140 C   0  0  0  0  0
   -6.0120    6.8990   11.4840 C   0  0  0  0  0
   -4.8270    7.6050   11.3310 C   0  0  0  0  0
   -3.7180    7.3120   12.1270 C   0  0  0  0  0
   -3.7630    6.2970   13.0730 C   0  0  0  0  0
   -2.5890    5.9950   13.9210 C   0  0  0  0  0
   -1.5430    5.4440   12.9750 C   0  0  0  0  0
   -2.0400    7.2900   14.5120 C   0  0  0  0  0
   -5.7628   -1.1836   15.7698 H   0  0  0  0  0
   -4.1750   -0.5176   16.1654 H   0  0  0  0  0
   -3.7885    1.4031   14.9310 H   0  0  0  0  0
   -3.3954    3.3309   13.4126 H   0  0  0  0  0
   -6.8786    5.2440   14.9863 H   0  0  0  0  0
   -7.2456    3.3482   16.5053 H   0  0  0  0  0
   -6.9231    5.2910   12.5262 H   0  0  0  0  0
   -6.8971    7.1358   10.8935 H   0  0  0  0  0
   -4.7615    8.3951   10.5829 H   0  0  0  0  0
   -2.8019    7.8896   12.0036 H   0  0  0  0  0
   -2.8450    5.3088   14.7283 H   0  0  0  0  0
   -1.9289    4.5465   12.4916 H   0  0  0  0  0
   -1.3082    6.1931   12.2188 H   0  0  0  0  0
   -0.6416    5.1972   13.5359 H   0  0  0  0  0
   -1.7426    7.9590   13.7045 H   0  0  0  0  0
   -2.8113    7.7679   15.1160 H   0  0  0  0  0
   -1.1753    7.0651   15.1363 H   0  0  0  0  0
  1  2  1  0  0  0
  1  3  2  0  0  0
  1  4  2  0  0  0
  1  5  1  0  0  0
  5  6  4  0  0  0
  5 10  4  0  0  0
  6  7  4  0  0  0
  7  8  4  0  0  0
  8  9  4  0  0  0
  8 11  1  0  0  0
  9 10  4  0  0  0
 11 12  4  0  0  0
 11 16  4  0  0  0
 12 13  4  0  0  0
 13 14  4  0  0  0
 14 15  4  0  0  0
 15 16  4  0  0  0
 16 17  1  0  0  0
 17 18  1  0  0  0
 17 19  1  0  0  0
  2 20  1  0  0  0
  2 21  1  0  0  0
  6 22  1  0  0  0
  7 23  1  0  0  0
  9 24  1  0  0  0
 10 25  1  0  0  0
 12 26  1  0  0  0
 13 27  1  0  0  0
 14 28  1  0  0  0
 15 29  1  0  0  0
 17 30  1  0  0  0
 18 31  1  0  0  0
 18 32  1  0  0  0
 18 33  1  0  0  0
 19 34  1  0  0  0
 19 35  1  0  0  0
 19 36  1  0  0  0
M  END
$$$$
