6msa_ligand
  -I-interpret- 

 29 31  0  0  0  0  0  0  0  0999 V2000
  -19.4850   11.3680  -35.4250 C   0  0  0  0  0
  -20.3710   12.7970  -33.7840 C   0  0  0  0  0
  -21.3410   14.5320  -35.7450 C   0  0  0  0  0
  -21.5410   14.7980  -34.4030 C   0  0  0  0  0
  -19.0110   10.5990  -36.5250 C   0  0  0  0  0
  -19.1200   10.8420  -37.9630 C   0  0  0  0  0
  -20.6460   13.3920  -36.1100 C   0  0  0  0  0
  -21.6060   15.0090  -38.0080 C   0  0  0  0  0
  -22.0900   16.3080  -32.7120 C   0  0  0  0  0
  -21.0660   13.9320  -33.4360 C   0  0  0  0  0
  -20.1710   12.5390  -35.1320 C   0  0  0  0  0
  -19.0720   10.6300  -34.3310 C   0  0  0  0  0
  -19.9350   11.9800  -32.8180 N   0  0  0  0  0
  -18.3570    9.4970  -36.1510 N   0  0  0  0  0
  -19.2980   10.9250  -33.0510 N   0  0  0  0  0
  -18.4170    9.5370  -34.8130 N   0  0  0  0  0
  -21.8630   15.4440  -36.6720 O   0  0  0  0  0
  -22.2520   15.9390  -34.0830 O   0  0  0  0  0
  -20.1722   10.8891  -38.2435 H   0  0  0  0  0
  -18.6346   11.7866  -38.2084 H   0  0  0  0  0
  -18.6341   10.0308  -38.5051 H   0  0  0  0  0
  -20.4743   13.1683  -37.1629 H   0  0  0  0  0
  -20.5300   14.9269  -38.1613 H   0  0  0  0  0
  -22.0724   14.0370  -38.1683 H   0  0  0  0  0
  -22.0202   15.7324  -38.7103 H   0  0  0  0  0
  -22.4437   15.4975  -32.0747 H   0  0  0  0  0
  -21.0357   16.4970  -32.5101 H   0  0  0  0  0
  -22.6675   17.2099  -32.5091 H   0  0  0  0  0
  -21.2446   14.1514  -32.3834 H   0  0  0  0  0
  1  5  4  0  0  0
 11  1  4  0  0  0
  1 12  4  0  0  0
 10  2  4  0  0  0
  2 11  4  0  0  0
  2 13  4  0  0  0
  4  3  4  0  0  0
  3  7  4  0  0  0
  3 17  1  0  0  0
  4 10  4  0  0  0
  4 18  1  0  0  0
  5  6  1  0  0  0
  5 14  4  0  0  0
  7 11  4  0  0  0
 17  8  1  0  0  0
 18  9  1  0  0  0
 12 15  4  0  0  0
 12 16  4  0  0  0
 13 15  4  0  0  0
 14 16  4  0  0  0
  6 19  1  0  0  0
  6 20  1  0  0  0
  6 21  1  0  0  0
  7 22  1  0  0  0
  8 23  1  0  0  0
  8 24  1  0  0  0
  8 25  1  0  0  0
  9 26  1  0  0  0
  9 27  1  0  0  0
  9 28  1  0  0  0
 10 29  1  0  0  0
M  END
$$$$
