6q73_ligand
  -I-interpret- 

 31 32  0  0  0  0  0  0  0  0999 V2000
  -11.3700  -29.2380   24.5630 N   0  0  0  0  0
  -10.1770  -29.0770   25.1400 C   0  0  0  0  0
  -11.4150  -29.9470   23.4550 C   0  0  0  0  0
   -7.6920  -29.4090   25.3390 C   0  0  0  0  0
   -6.6000  -30.2320   25.1810 C   0  0  0  0  0
   -5.3460  -29.9710   25.9450 C   0  0  0  0  0
   -7.6170  -28.2030   26.2700 C   0  0  0  0  0
  -13.0030  -30.2220   22.8070 Cl  0  0  0  0  0
  -10.3100  -30.5270   22.8200 C   0  0  0  0  0
  -10.4570  -31.2590   21.6050 N   0  0  0  0  0
   -9.3120  -31.9510   20.6810 S   0  0  0  0  0
   -8.2060  -31.0470   20.5850 O   0  0  0  0  0
   -9.9670  -32.3610   19.4810 O   0  0  0  0  0
   -8.7830  -33.3850   21.5380 C   0  0  0  0  0
   -9.0010  -29.6210   24.6380 C   0  0  0  0  0
   -9.0740  -30.3520   23.4520 C   0  0  0  0  0
   -6.4450  -28.2830   27.1790 C   0  0  0  0  0
   -5.2690  -28.6350   26.4340 O   0  0  0  0  0
  -10.1224  -28.4867   26.0547 H   0  0  0  0  0
   -6.6520  -31.0775   24.4950 H   0  0  0  0  0
   -4.5040  -30.1302   25.2713 H   0  0  0  0  0
   -5.3304  -30.6432   26.8029 H   0  0  0  0  0
   -8.5219  -28.1811   26.8773 H   0  0  0  0  0
   -7.5186  -27.3044   25.6609 H   0  0  0  0  0
  -11.4143  -31.3630   21.2686 H   0  0  0  0  0
   -7.9650  -33.8530   20.9903 H   0  0  0  0  0
   -8.4417  -33.1058   22.5348 H   0  0  0  0  0
   -9.6144  -34.0851   21.6201 H   0  0  0  0  0
   -8.1720  -30.7850   23.0195 H   0  0  0  0  0
   -6.6304  -29.0439   27.9371 H   0  0  0  0  0
   -6.2922  -27.3136   27.6534 H   0  0  0  0  0
  2  1  4  0  0  0
  1  3  4  0  0  0
 15  2  4  0  0  0
  3  8  1  0  0  0
  3  9  4  0  0  0
  4  5  2  0  0  0
  4  7  1  0  0  0
  4 15  1  0  0  0
  5  6  1  0  0  0
  6 18  1  0  0  0
  7 17  1  0  0  0
  9 10  1  0  0  0
  9 16  4  0  0  0
 10 11  1  0  0  0
 11 12  2  0  0  0
 11 13  2  0  0  0
 11 14  1  0  0  0
 15 16  4  0  0  0
 17 18  1  0  0  0
  2 19  1  0  0  0
  5 20  1  0  0  0
  6 21  1  0  0  0
  6 22  1  0  0  0
  7 23  1  0  0  0
  7 24  1  0  0  0
 10 25  1  0  0  0
 14 26  1  0  0  0
 14 27  1  0  0  0
 14 28  1  0  0  0
 16 29  1  0  0  0
 17 30  1  0  0  0
 17 31  1  0  0  0
M  END
$$$$
