5tx3_ligand
  -I-interpret- 

 69 74  0  0  0  0  0  0  0  0999 V2000
   17.1710   -8.5600   35.3550 C   0  0  0  0  0
   18.2720   -8.6720   34.6540 C   0  0  0  0  0
   18.8820   -7.5890   33.8950 C   0  0  0  0  0
   18.2630   -6.3800   33.9570 N   0  0  0  0  0
   16.5220   -7.2940   35.3880 N   0  0  0  0  0
   13.8910   -2.0040   38.9720 C   0  0  0  0  0
   15.2290   -1.2730   39.2110 C   0  0  0  0  0
   14.8030    0.1790   39.1350 C   0  0  0  0  0
   13.4830    0.1750   38.3570 C   0  0  0  0  0
   13.1640   -1.1680   38.0600 N   0  3  0  0  0
   13.4710   -1.3980   36.6540 C   0  0  0  0  0
   13.6790   -2.8900   36.2620 C   0  0  0  0  0
   14.8740   -3.2660   35.6700 C   0  0  0  0  0
   12.7050   -3.8560   36.4640 C   0  0  0  0  0
   12.9430   -5.1890   36.0900 C   0  0  0  0  0
   14.1570   -5.5490   35.5160 C   0  0  0  0  0
   15.1340   -4.5900   35.2900 C   0  0  0  0  0
   16.4260   -4.8860   34.6920 N   0  0  0  0  0
   17.0620   -6.1910   34.6860 C   0  0  0  0  0
   18.8750  -10.0850   34.6570 C   0  0  0  0  0
   20.3340  -10.3200   35.1520 C   0  0  0  0  0
   18.9730  -10.7920   33.3090 C   0  0  0  0  0
   17.8250  -10.7210   35.5640 C   0  0  0  0  0
   17.8210  -12.0380   35.9530 O   0  0  0  0  0
   16.8580   -9.8010   35.9400 N   0  0  0  0  0
   15.7570  -10.1070   36.7710 C   0  0  0  0  0
   15.6770   -9.0020   37.6830 C   0  0  0  0  0
   14.1900   -8.6290   37.8110 C   0  0  0  0  0
   13.7550   -9.1630   36.4310 C   0  0  0  0  0
   14.6400   -9.9800   35.9030 C   0  0  0  0  0
   14.3940  -10.6000   34.5760 C   0  0  0  0  0
   13.2250  -10.3340   33.8800 C   0  0  0  0  0
   12.2640   -9.4490   34.4660 C   0  0  0  0  0
   12.5170   -8.8740   35.7060 C   0  0  0  0  0
   11.5760   -8.0050   36.2670 O   0  0  0  0  0
   19.7878   -7.7398   33.3077 H   0  0  0  0  0
   13.3436   -2.1558   39.9023 H   0  0  0  0  0
   14.0456   -3.0035   38.5656 H   0  0  0  0  0
   16.0033   -1.5371   38.4907 H   0  0  0  0  0
   15.7062   -1.5372   40.1547 H   0  0  0  0  0
   15.5569    0.7922   38.6414 H   0  0  0  0  0
   14.6816    0.6132   40.1274 H   0  0  0  0  0
   13.5823    0.7534   37.4385 H   0  0  0  0  0
   12.6910    0.6305   38.9514 H   0  0  0  0  0
   12.1760   -1.3888   38.1845 H   0  0  0  0  0
   14.4104   -0.8847   36.4488 H   0  0  0  0  0
   12.6155   -1.0386   36.0821 H   0  0  0  0  0
   15.6368   -2.5075   35.4940 H   0  0  0  0  0
   11.7515   -3.5802   36.9145 H   0  0  0  0  0
   12.1731   -5.9438   36.2504 H   0  0  0  0  0
   14.3419   -6.5878   35.2427 H   0  0  0  0  0
   16.9237   -4.1177   34.2422 H   0  0  0  0  0
   20.5271  -11.3909   35.2144 H   0  0  0  0  0
   21.0323   -9.8639   34.4502 H   0  0  0  0  0
   20.4594   -9.8689   36.1363 H   0  0  0  0  0
   19.7407  -10.3110   32.7029 H   0  0  0  0  0
   19.2355  -11.8381   33.4670 H   0  0  0  0  0
   18.0126  -10.7304   32.7972 H   0  0  0  0  0
   17.9300  -11.7517   35.9029 H   0  0  0  0  0
   17.0638  -12.2006   36.5203 H   0  0  0  0  0
   15.8134  -11.0712   37.2762 H   0  0  0  0  0
   16.2560   -8.1554   37.3139 H   0  0  0  0  0
   16.0909   -9.2735   38.6541 H   0  0  0  0  0
   13.9710   -7.5807   38.0139 H   0  0  0  0  0
   13.6629   -9.0356   38.6741 H   0  0  0  0  0
   15.1387  -11.2697   34.1458 H   0  0  0  0  0
   13.0412  -10.7891   32.9068 H   0  0  0  0  0
   11.3353   -9.2265   33.9405 H   0  0  0  0  0
   10.8264   -7.9203   35.6733 H   0  0  0  0  0
  1  2  4  0  0  0
  5  1  4  0  0  0
  1 25  1  0  0  0
  3  2  4  0  0  0
  2 20  1  0  0  0
  4  3  4  0  0  0
 19  4  4  0  0  0
 19  5  4  0  0  0
  6  7  1  0  0  0
 10  6  1  0  0  0
  8  7  1  0  0  0
  9  8  1  0  0  0
 10  9  1  0  0  0
 11 10  1  0  0  0
 12 11  1  0  0  0
 13 12  4  0  0  0
 12 14  4  0  0  0
 17 13  4  0  0  0
 15 14  4  0  0  0
 16 15  4  0  0  0
 17 16  4  0  0  0
 18 17  1  0  0  0
 18 19  1  0  0  0
 20 21  1  0  0  0
 20 22  1  0  0  0
 20 23  1  0  0  0
 23 24  1  0  0  0
 23 25  1  0  0  0
 25 26  1  0  0  0
 26 27  1  0  0  0
 26 30  1  0  0  0
 27 28  1  0  0  0
 28 29  1  0  0  0
 29 30  4  0  0  0
 29 34  4  0  0  0
 30 31  4  0  0  0
 31 32  4  0  0  0
 32 33  4  0  0  0
 33 34  4  0  0  0
 34 35  1  0  0  0
  3 36  1  0  0  0
  6 37  1  0  0  0
  6 38  1  0  0  0
  7 39  1  0  0  0
  7 40  1  0  0  0
  8 41  1  0  0  0
  8 42  1  0  0  0
  9 43  1  0  0  0
  9 44  1  0  0  0
 10 45  1  0  0  0
 11 46  1  0  0  0
 11 47  1  0  0  0
 13 48  1  0  0  0
 14 49  1  0  0  0
 15 50  1  0  0  0
 16 51  1  0  0  0
 18 52  1  0  0  0
 21 53  1  0  0  0
 21 54  1  0  0  0
 21 55  1  0  0  0
 22 56  1  0  0  0
 22 57  1  0  0  0
 22 58  1  0  0  0
 23 59  1  0  0  0
 24 60  1  0  0  0
 26 61  1  0  0  0
 27 62  1  0  0  0
 27 63  1  0  0  0
 28 64  1  0  0  0
 28 65  1  0  0  0
 31 66  1  0  0  0
 32 67  1  0  0  0
 33 68  1  0  0  0
 35 69  1  0  0  0
M  END
$$$$
