5tbm_ligand
  -I-interpret- 

 38 40  0  0  0  0  0  0  0  0999 V2000
   18.4410    1.9630   -8.6380 N   0  0  0  0  0
   18.9930    1.1240   -9.2640 C   0  0  0  0  0
   19.6600    0.2230   -9.9320 C   0  0  0  0  0
   20.9310    0.4810  -10.4490 C   0  0  0  0  0
   21.5770   -0.5060  -11.1640 C   0  0  0  0  0
   20.9740   -1.7390  -11.4300 C   0  0  0  0  0
   19.7070   -1.9960  -10.8990 C   0  0  0  0  0
   19.0800   -3.1860  -11.0780 F   0  0  0  0  0
   19.0800   -1.0060  -10.1670 C   0  0  0  0  0
   22.7890   -0.1240  -11.6490 O   0  0  0  0  0
   23.8520   -0.2850  -10.8040 C   0  0  0  0  0
   25.0140    0.1030  -11.3920 C   0  0  0  0  0
   25.2150    0.6460  -12.7980 C   0  0  0  0  0
   26.7090    0.3960  -12.9980 C   0  0  0  0  0
   27.1860    1.2990  -13.8460 F   0  0  0  0  0
   26.8660   -0.7880  -13.5470 F   0  0  0  0  0
   26.1910   -0.0630  -10.6900 C   0  0  0  0  0
   27.3040    0.3940  -11.5650 C   0  0  0  0  0
   27.6340    1.7260  -11.1860 O   0  0  0  0  0
   26.1720   -0.5850   -9.3900 C   0  0  0  0  0
   27.5880   -0.7470   -8.5480 S   0  0  0  0  0
   27.9060    0.8240   -8.2260 C   0  0  0  0  0
   27.2230   -1.5850   -7.4420 O   0  0  0  0  0
   28.4630   -1.3900   -9.4780 O   0  0  0  0  0
   24.9940   -0.9350   -8.7570 C   0  0  0  0  0
   23.7690   -0.7790   -9.5060 C   0  0  0  0  0
   21.4062    1.4490  -10.2898 H   0  0  0  0  0
   21.4824   -2.4857  -12.0400 H   0  0  0  0  0
   18.0886   -1.2040   -9.7595 H   0  0  0  0  0
   24.9239    1.6901  -12.9127 H   0  0  0  0  0
   24.5843    0.1695  -13.5485 H   0  0  0  0  0
   28.1953   -0.2297  -11.4965 H   0  0  0  0  0
   28.0020    1.7234  -10.2993 H   0  0  0  0  0
   27.0233    1.2896   -7.7875 H   0  0  0  0  0
   28.7384    0.8887   -7.5253 H   0  0  0  0  0
   28.1675    1.3375   -9.1512 H   0  0  0  0  0
   24.9898   -1.3131   -7.7347 H   0  0  0  0  0
   22.8065   -1.0409   -9.0667 H   0  0  0  0  0
  1  2  3  0  0  0
  2  3  1  0  0  0
  3  4  4  0  0  0
  3  9  4  0  0  0
  4  5  4  0  0  0
  5  6  4  0  0  0
  5 10  1  0  0  0
  6  7  4  0  0  0
  7  8  1  0  0  0
  7  9  4  0  0  0
 10 11  1  0  0  0
 11 12  4  0  0  0
 11 26  4  0  0  0
 12 13  1  0  0  0
 12 17  4  0  0  0
 13 14  1  0  0  0
 14 15  1  0  0  0
 14 16  1  0  0  0
 14 18  1  0  0  0
 17 18  1  0  0  0
 17 20  4  0  0  0
 18 19  1  0  0  0
 20 21  1  0  0  0
 20 25  4  0  0  0
 21 22  1  0  0  0
 21 23  2  0  0  0
 21 24  2  0  0  0
 25 26  4  0  0  0
  4 27  1  0  0  0
  6 28  1  0  0  0
  9 29  1  0  0  0
 13 30  1  0  0  0
 13 31  1  0  0  0
 18 32  1  0  0  0
 19 33  1  0  0  0
 22 34  1  0  0  0
 22 35  1  0  0  0
 22 36  1  0  0  0
 25 37  1  0  0  0
 26 38  1  0  0  0
M  END
$$$$
