6gxa_ligand
  -I-interpret- 

 21 21  0  0  0  0  0  0  0  0999 V2000
   46.5530   36.7230   83.9740 Cl  0  0  0  0  0
   44.9050   36.0880   83.6370 C   0  0  0  0  0
   44.0040   36.8400   82.8890 C   0  0  0  0  0
   42.7310   36.3430   82.6300 C   0  0  0  0  0
   42.3540   35.0990   83.1190 C   0  0  0  0  0
   43.2530   34.3510   83.8670 C   0  0  0  0  0
   44.5280   34.8450   84.1250 C   0  0  0  0  0
   45.4880   34.0410   84.9190 C   0  0  0  0  0
   45.7760   32.8020   84.5210 C   0  0  0  0  0
   46.7280   31.9500   85.2640 C   0  0  0  0  0
   47.3510   32.4020   86.2130 O   0  0  0  0  0
   46.8830   30.6890   84.8790 N   0  0  0  0  0
   48.1560   30.1330   84.8120 O   0  0  0  0  0
   44.2958   37.8180   82.5063 H   0  0  0  0  0
   42.0272   36.9316   82.0415 H   0  0  0  0  0
   41.3557   34.7113   82.9162 H   0  0  0  0  0
   42.9595   33.3748   84.2530 H   0  0  0  0  0
   45.9509   34.4566   85.8140 H   0  0  0  0  0
   45.2973   32.4071   83.6249 H   0  0  0  0  0
   46.0680   30.1276   84.6322 H   0  0  0  0  0
   48.0907   29.2213   84.5185 H   0  0  0  0  0
  1  2  1  0  0  0
  2  3  4  0  0  0
  2  7  4  0  0  0
  3  4  4  0  0  0
  4  5  4  0  0  0
  5  6  4  0  0  0
  6  7  4  0  0  0
  7  8  1  0  0  0
  8  9  2  0  0  0
  9 10  1  0  0  0
 10 11  2  0  0  0
 10 12  1  0  0  0
 12 13  1  0  0  0
  3 14  1  0  0  0
  4 15  1  0  0  0
  5 16  1  0  0  0
  6 17  1  0  0  0
  8 18  1  0  0  0
  9 19  1  0  0  0
 12 20  1  0  0  0
 13 21  1  0  0  0
M  END
$$$$
