3d7d_ligand
  -I-interpret- 

 46 46  0  0  0  0  0  0  0  0999 V2000
   23.3590   50.3460   47.3820 F   0  0  0  0  0
   23.2990   49.5500   46.2740 C   0  0  0  0  0
   23.8850   48.2920   46.3700 C   0  0  0  0  0
   23.8950   47.4320   45.2760 C   0  0  0  0  0
   22.7150   49.9690   45.0580 C   0  0  0  0  0
   22.7210   49.0930   43.9480 C   0  0  0  0  0
   23.3160   47.8160   44.0620 C   0  0  0  0  0
   23.3790   46.8260   42.8950 C   0  0  0  0  0
   22.5380   45.3090   43.2950 S   0  0  0  0  0
   20.8500   45.8770   43.4020 C   0  0  0  0  0
   19.9710   45.0980   44.4060 C   0  0  0  0  0
   20.1220   45.7220   45.7830 C   0  0  0  0  0
   20.6320   45.0090   46.6720 O   0  0  0  0  0
   19.6860   46.8890   45.9740 O   0  0  0  0  0
   18.6570   45.4730   43.9010 N   0  0  0  0  0
   17.9670   44.7330   43.0320 C   0  0  0  0  0
   18.4020   43.6600   42.5560 O   0  0  0  0  0
   16.7240   45.1550   42.7020 N   0  0  0  0  0
   16.0380   44.4360   41.6140 C   0  0  0  0  0
   17.0080   44.6360   40.4370 C   0  0  0  0  0
   17.9050   45.5240   40.4540 O   0  0  0  0  0
   16.9350   43.8740   39.4100 O   0  0  0  0  0
   14.7710   45.2090   41.1750 C   0  0  0  0  0
   14.9850   46.7270   41.0920 C   0  0  0  0  0
   13.8570   47.4960   40.4060 C   0  0  0  0  0
   13.7890   48.7330   40.5830 O   0  0  0  0  0
   13.0100   46.8860   39.6980 O   0  0  0  0  0
   24.3398   47.9775   47.3093 H   0  0  0  0  0
   24.3585   46.4496   45.3660 H   0  0  0  0  0
   22.2641   50.9580   44.9761 H   0  0  0  0  0
   22.2676   49.4020   43.0062 H   0  0  0  0  0
   24.4245   46.6002   42.6853 H   0  0  0  0  0
   22.8933   47.2762   42.0292 H   0  0  0  0  0
   20.4052   45.7393   42.4165 H   0  0  0  0  0
   20.8837   46.9112   43.7446 H   0  0  0  0  0
   20.1835   44.0321   44.4879 H   0  0  0  0  0
   19.3414   47.2396   45.1494 H   0  0  0  0  0
   18.2436   46.3460   44.2287 H   0  0  0  0  0
   16.2815   45.9366   43.1854 H   0  0  0  0  0
   15.7843   43.4146   41.8978 H   0  0  0  0  0
   16.2154   43.2494   39.5269 H   0  0  0  0  0
   13.9977   45.0254   41.9209 H   0  0  0  0  0
   14.5000   44.8593   40.1788 H   0  0  0  0  0
   15.8847   46.8879   40.4981 H   0  0  0  0  0
   15.0419   47.0952   42.1163 H   0  0  0  0  0
   13.2246   45.9505   39.6792 H   0  0  0  0  0
  1  2  1  0  0  0
  2  3  4  0  0  0
  2  5  4  0  0  0
  3  4  4  0  0  0
  4  7  4  0  0  0
  5  6  4  0  0  0
  6  7  4  0  0  0
  7  8  1  0  0  0
  8  9  1  0  0  0
  9 10  1  0  0  0
 10 11  1  0  0  0
 11 12  1  0  0  0
 11 15  1  0  0  0
 12 13  2  0  0  0
 12 14  1  0  0  0
 15 16  1  0  0  0
 16 17  2  0  0  0
 16 18  1  0  0  0
 18 19  1  0  0  0
 19 20  1  0  0  0
 19 23  1  0  0  0
 20 21  2  0  0  0
 20 22  1  0  0  0
 23 24  1  0  0  0
 24 25  1  0  0  0
 25 26  2  0  0  0
 25 27  1  0  0  0
  3 28  1  0  0  0
  4 29  1  0  0  0
  5 30  1  0  0  0
  6 31  1  0  0  0
  8 32  1  0  0  0
  8 33  1  0  0  0
 10 34  1  0  0  0
 10 35  1  0  0  0
 11 36  1  0  0  0
 14 37  1  0  0  0
 15 38  1  0  0  0
 18 39  1  0  0  0
 19 40  1  0  0  0
 22 41  1  0  0  0
 23 42  1  0  0  0
 23 43  1  0  0  0
 24 44  1  0  0  0
 24 45  1  0  0  0
 27 46  1  0  0  0
M  END
$$$$
