5w5u_ligand
  -I-interpret- 

207212  0  0  0  0  0  0  0  0999 V2000
  -23.3630  -51.4890  -22.1050 C   0  0  0  0  0
  -23.3960  -52.6660  -21.8190 O   0  0  0  0  0
  -22.0810  -50.8220  -22.5200 C   0  0  0  0  0
  -26.1570  -52.2280  -22.6580 C   0  0  0  0  0
  -24.4090  -50.7040  -22.0920 N   0  0  0  0  0
  -25.7620  -52.2280  -23.7970 O   0  0  0  0  0
  -25.7220  -51.1560  -21.7100 C   0  0  0  0  0
  -26.6030  -49.9450  -21.8440 C   0  0  0  0  0
  -28.2530  -49.1370  -19.6590 C   0  0  0  0  0
  -28.0650  -50.3050  -21.7540 C   0  0  0  0  0
  -28.5150  -50.3170  -20.3070 C   0  0  0  0  0
  -27.7400  -46.7850  -18.3460 C   0  0  0  0  0
  -26.9770  -48.8410  -19.2380 C   0  0  0  0  0
  -29.2760  -48.2590  -19.4150 C   0  0  0  0  0
  -26.7070  -47.6640  -18.5730 C   0  0  0  0  0
  -29.0180  -47.0780  -18.7590 C   0  0  0  0  0
  -26.9240  -53.1640  -22.1540 N   0  0  0  0  0
  -27.4350  -54.2460  -22.9540 C   0  0  0  0  0
  -26.8190  -55.5240  -22.4980 C   0  0  0  0  0
  -25.4980  -55.7970  -23.1720 C   0  0  0  0  0
  -25.4730  -57.2070  -23.6950 C   0  0  0  0  0
  -25.0750  -57.1460  -25.0950 N   0  0  0  0  0
  -28.7840  -54.3310  -22.7240 C   0  0  0  0  0
  -29.1870  -54.0350  -21.6200 O   0  0  0  0  0
  -29.6600  -54.7340  -23.6490 N   0  0  0  0  0
  -29.2310  -55.0800  -25.0000 C   0  0  0  0  0
  -31.1020  -54.8380  -23.3390 C   0  0  0  0  0
  -31.9880  -54.0250  -24.2800 C   0  0  0  0  0
  -31.4400  -52.6260  -24.4640 C   0  0  0  0  0
  -32.0570  -52.0530  -25.7140 C   0  0  0  0  0
  -31.8590  -51.7460  -23.3180 C   0  0  0  0  0
  -31.4580  -56.1640  -23.3570 C   0  0  0  0  0
  -31.7890  -56.7170  -24.3840 O   0  0  0  0  0
  -31.4270  -56.9010  -22.2010 N   0  0  0  0  0
  -31.7480  -58.3270  -22.2130 C   0  0  0  0  0
  -33.0860  -58.4870  -21.9780 C   0  0  0  0  0
  -33.5460  -58.7230  -20.8780 O   0  0  0  0  0
  -30.8880  -59.0330  -21.1830 C   0  0  0  0  0
  -29.4230  -58.6990  -21.3510 C   0  0  0  0  0
  -28.8520  -58.7110  -19.9540 C   0  0  0  0  0
  -29.4400  -58.0130  -19.1210 O   0  0  0  0  0
  -27.8830  -59.4400  -19.7340 O   0  0  0  0  0
  -33.9490  -58.3640  -23.0210 N   0  0  0  0  0
  -35.3870  -58.4190  -22.8330 C   0  0  0  0  0
  -35.9010  -59.6100  -23.2260 C   0  0  0  0  0
  -37.0370  -59.9030  -22.9380 O   0  0  0  0  0
  -35.9850  -57.3630  -23.7240 C   0  0  0  0  0
  -35.7670  -56.0630  -23.3280 C   0  0  0  0  0
  -35.4390  -55.6790  -22.0460 C   0  0  0  0  0
  -35.9370  -55.0830  -24.2690 C   0  0  0  0  0
  -35.2630  -54.3430  -21.7270 C   0  0  0  0  0
  -35.7580  -53.7560  -23.9620 C   0  0  0  0  0
  -35.4250  -53.3790  -22.6910 C   0  0  0  0  0
  -35.2660  -52.0830  -22.4120 O   0  0  0  0  0
  -35.1590  -60.4640  -23.9880 N   0  0  0  0  0
  -35.6700  -61.7520  -24.4290 C   0  0  0  0  0
  -34.6270  -62.6410  -24.3000 C   0  0  0  0  0
  -33.4890  -62.2310  -24.2770 O   0  0  0  0  0
  -36.1510  -61.6680  -25.8530 C   0  0  0  0  0
  -37.1470  -60.7170  -25.9810 C   0  0  0  0  0
  -38.3690  -60.8760  -25.3900 C   0  0  0  0  0
  -36.9200  -59.5990  -26.7410 C   0  0  0  0  0
  -39.3290  -59.9150  -25.5520 C   0  0  0  0  0
  -37.8810  -58.6400  -26.9030 C   0  0  0  0  0
  -39.0930  -58.7970  -26.3060 C   0  0  0  0  0
  -34.8220  -63.9990  -24.1300 N   0  0  0  0  0
  -33.6900  -64.8990  -23.8550 C   0  0  0  0  0
  -32.9260  -65.2080  -24.9280 C   0  0  0  0  0
  -31.7740  -65.5390  -24.7400 O   0  0  0  0  0
  -34.1600  -66.2140  -23.2540 C   0  0  0  0  0
  -34.1390  -66.1160  -21.7350 C   0  0  0  0  0
  -33.5610  -67.3800  -21.0830 C   0  0  0  0  0
  -34.1410  -68.4610  -21.3000 O   0  0  0  0  0
  -32.5740  -67.2250  -20.3350 O   0  0  0  0  0
  -33.4150  -65.1700  -26.1980 N   0  0  0  0  0
  -32.5830  -65.5500  -27.3180 C   0  0  0  0  0
  -31.9350  -64.5060  -27.9270 C   0  0  0  0  0
  -31.3610  -64.6840  -28.9840 O   0  0  0  0  0
  -33.5040  -66.1870  -28.3090 C   0  0  0  0  0
  -34.6330  -65.2410  -28.6400 C   0  0  0  0  0
  -35.8070  -65.2590  -28.0730 C   0  0  0  0  0
  -34.5880  -64.3050  -29.5490 C   0  0  0  0  0
  -36.5020  -64.3100  -28.6400 N   0  0  0  0  0
  -35.7570  -63.7200  -29.5400 C   0  0  0  0  0
  -33.6310  -63.9170  -30.3610 C   0  0  0  0  0
  -36.0180  -62.7180  -30.3450 C   0  0  0  0  0
  -33.8410  -62.8780  -31.2320 C   0  0  0  0  0
  -35.0650  -62.2600  -31.2220 C   0  0  0  0  0
  -31.8770  -63.2600  -27.3570 N   0  0  0  0  0
  -31.1970  -62.1600  -28.0460 C   0  0  0  0  0
  -29.8870  -62.4360  -28.0950 C   0  0  0  0  0
  -29.4050  -63.1300  -27.2300 O   0  0  0  0  0
  -31.4050  -60.8800  -27.2900 C   0  0  0  0  0
  -32.8580  -60.5410  -27.4400 C   0  0  0  0  0
  -33.1590  -59.3530  -26.5870 C   0  0  0  0  0
  -33.1030  -60.1790  -28.8760 C   0  0  0  0  0
  -29.1100  -61.9220  -29.0960 N   0  0  0  0  0
  -27.7010  -62.2370  -29.1250 C   0  0  0  0  0
  -26.9570  -61.2210  -28.5980 C   0  0  0  0  0
  -26.7400  -60.2060  -29.2210 O   0  0  0  0  0
  -27.2530  -62.5110  -30.5370 C   0  0  0  0  0
  -27.3420  -61.3320  -31.2720 O   0  0  0  0  0
  -26.4190  -61.3320  -27.3440 N   0  0  0  0  0
  -25.5450  -60.2770  -26.7960 C   0  0  0  0  0
  -26.1950  -59.1430  -25.9940 C   0  0  0  0  0
  -25.4080  -57.9990  -26.1280 C   0  0  0  0  0
  -24.9510  -57.6770  -27.2110 O   0  0  0  0  0
  -21.3521  -50.9053  -21.7139 H   0  0  0  0  0
  -21.6926  -51.3090  -23.4145 H   0  0  0  0  0
  -22.2722  -49.7699  -22.7315 H   0  0  0  0  0
  -24.2896  -49.7284  -22.3645 H   0  0  0  0  0
  -25.7576  -51.5670  -20.7011 H   0  0  0  0  0
  -26.4201  -49.4938  -22.8192 H   0  0  0  0  0
  -26.3681  -49.2581  -21.0309 H   0  0  0  0  0
  -28.2145  -51.2964  -22.1816 H   0  0  0  0  0
  -28.6483  -49.5651  -22.3021 H   0  0  0  0  0
  -29.5938  -50.4724  -20.2943 H   0  0  0  0  0
  -27.9681  -51.1081  -19.7940 H   0  0  0  0  0
  -27.5429  -45.8441  -17.8321 H   0  0  0  0  0
  -26.1691  -49.5463  -19.4328 H   0  0  0  0  0
  -30.2895  -48.4953  -19.7392 H   0  0  0  0  0
  -25.6965  -47.4350  -18.2344 H   0  0  0  0  0
  -29.8275  -46.3739  -18.5665 H   0  0  0  0  0
  -27.1663  -53.1243  -21.1640 H   0  0  0  0  0
  -27.2145  -54.0742  -24.0075 H   0  0  0  0  0
  -27.5008  -56.3362  -22.7501 H   0  0  0  0  0
  -26.6415  -55.4493  -21.4252 H   0  0  0  0  0
  -24.6919  -55.6666  -22.4500 H   0  0  0  0  0
  -25.3673  -55.1029  -24.0022 H   0  0  0  0  0
  -26.4559  -57.6680  -23.5972 H   0  0  0  0  0
  -24.7698  -57.8135  -23.1242 H   0  0  0  0  0
  -24.4672  -56.3664  -25.3463 H   0  0  0  0  0
  -29.4959  -56.1163  -25.2097 H   0  0  0  0  0
  -29.7268  -54.4248  -25.7163 H   0  0  0  0  0
  -28.1510  -54.9564  -25.0797 H   0  0  0  0  0
  -31.2621  -54.4100  -22.3494 H   0  0  0  0  0
  -32.9868  -53.9563  -23.8489 H   0  0  0  0  0
  -32.0163  -54.5207  -25.2503 H   0  0  0  0  0
  -30.3523  -52.6684  -24.5199 H   0  0  0  0  0
  -31.7945  -52.6788  -26.5670 H   0  0  0  0  0
  -33.1409  -52.0246  -25.6025 H   0  0  0  0  0
  -31.6802  -51.0427  -25.8734 H   0  0  0  0  0
  -32.9472  -51.6998  -23.2760 H   0  0  0  0  0
  -31.4754  -52.1592  -22.3852 H   0  0  0  0  0
  -31.4569  -50.7436  -23.4654 H   0  0  0  0  0
  -31.1768  -56.4485  -21.3218 H   0  0  0  0  0
  -31.5316  -58.7713  -23.1846 H   0  0  0  0  0
  -31.0114  -60.1082  -21.3125 H   0  0  0  0  0
  -31.2025  -58.7061  -20.1919 H   0  0  0  0  0
  -29.2838  -57.7319  -21.8341 H   0  0  0  0  0
  -28.9185  -59.4167  -21.9979 H   0  0  0  0  0
  -30.1587  -57.5425  -19.5496 H   0  0  0  0  0
  -33.5760  -58.2295  -23.9608 H   0  0  0  0  0
  -35.6111  -58.2733  -21.7763 H   0  0  0  0  0
  -37.0640  -57.5165  -23.7072 H   0  0  0  0  0
  -35.5116  -57.4745  -24.6995 H   0  0  0  0  0
  -35.3164  -56.4371  -21.2725 H   0  0  0  0  0
  -36.2206  -55.3618  -25.2839 H   0  0  0  0  0
  -34.9957  -54.0566  -20.7099 H   0  0  0  0  0
  -35.8823  -52.9992  -24.7366 H   0  0  0  0  0
  -35.0356  -51.9822  -21.4855 H   0  0  0  0  0
  -34.2142  -60.1900  -24.2575 H   0  0  0  0  0
  -36.5254  -62.0724  -23.8343 H   0  0  0  0  0
  -36.5524  -62.6382  -26.1457 H   0  0  0  0  0
  -35.3129  -61.3865  -26.4905 H   0  0  0  0  0
  -38.5775  -61.7637  -24.7928 H   0  0  0  0  0
  -35.9525  -59.4718  -27.2267 H   0  0  0  0  0
  -40.2994  -60.0417  -25.0720 H   0  0  0  0  0
  -37.6772  -57.7555  -27.5066 H   0  0  0  0  0
  -39.8684  -58.0405  -26.4267 H   0  0  0  0  0
  -35.7646  -64.3832  -24.1961 H   0  0  0  0  0
  -33.0785  -64.3250  -23.1588 H   0  0  0  0  0
  -33.4965  -67.0171  -23.5748 H   0  0  0  0  0
  -35.1755  -66.4239  -23.5899 H   0  0  0  0  0
  -35.1649  -65.9930  -21.3879 H   0  0  0  0  0
  -33.5084  -65.2714  -21.4574 H   0  0  0  0  0
  -32.3145  -66.3008  -20.3369 H   0  0  0  0  0
  -34.3765  -64.8709  -26.3609 H   0  0  0  0  0
  -31.7935  -66.2069  -26.9530 H   0  0  0  0  0
  -33.9143  -67.1025  -27.8828 H   0  0  0  0  0
  -32.9499  -66.4189  -29.2186 H   0  0  0  0  0
  -36.1415  -65.9319  -27.2834 H   0  0  0  0  0
  -32.6657  -64.4229  -30.3427 H   0  0  0  0  0
  -36.9995  -62.2446  -30.3179 H   0  0  0  0  0
  -33.0555  -62.5524  -31.9140 H   0  0  0  0  0
  -35.2763  -61.4270  -31.8925 H   0  0  0  0  0
  -32.3099  -63.0980  -26.4478 H   0  0  0  0  0
  -31.6000  -62.0483  -29.0526 H   0  0  0  0  0
  -30.7720  -60.0837  -27.6814 H   0  0  0  0  0
  -31.1329  -60.9933  -26.2406 H   0  0  0  0  0
  -33.4848  -61.3821  -27.1439 H   0  0  0  0  0
  -32.9374  -59.5891  -25.5462 H   0  0  0  0  0
  -32.5453  -58.5115  -26.9086 H   0  0  0  0  0
  -34.2132  -59.0942  -26.6857 H   0  0  0  0  0
  -32.4858  -59.3213  -29.1435 H   0  0  0  0  0
  -32.8455  -61.0260  -29.5119 H   0  0  0  0  0
  -34.1549  -59.9277  -29.0116 H   0  0  0  0  0
  -29.5204  -61.3238  -29.8130 H   0  0  0  0  0
  -27.5486  -63.1293  -28.5178 H   0  0  0  0  0
  -27.8888  -63.2747  -30.9849 H   0  0  0  0  0
  -26.2233  -62.8687  -30.5353 H   0  0  0  0  0
  -27.0583  -61.4965  -32.1742 H   0  0  0  0  0
  -26.6255  -62.1564  -26.7800 H   0  0  0  0  0
  -24.8859  -60.7858  -26.0926 H   0  0  0  0  0
  -25.0965  -59.7948  -27.6646 H   0  0  0  0  0
  -26.2672  -59.4241  -24.9434 H   0  0  0  0  0
  -27.1997  -58.9497  -26.3699 H   0  0  0  0  0
  1  2  2  0  0  0
  1  3  1  0  0  0
  4  6  2  0  0  0
  4  7  1  0  0  0
  7  5  1  0  0  0
  7  8  1  0  0  0
  8 10  1  0  0  0
 11  9  1  0  0  0
  9 13  4  0  0  0
  9 14  4  0  0  0
 10 11  1  0  0  0
 15 12  4  0  0  0
 16 12  4  0  0  0
 13 15  4  0  0  0
 14 16  4  0  0  0
  5  1  1  0  0  0
 18 17  1  0  0  0
 18 19  1  0  0  0
 23 18  1  0  0  0
 23 24  2  0  0  0
 19 20  1  0  0  0
 20 21  1  0  0  0
 21 22  1  0  0  0
 17  4  1  0  0  0
 25 26  1  0  0  0
 27 25  1  0  0  0
 27 28  1  0  0  0
 32 27  1  0  0  0
 28 29  1  0  0  0
 29 30  1  0  0  0
 29 31  1  0  0  0
 32 33  2  0  0  0
 25 23  1  0  0  0
 35 34  1  0  0  0
 35 38  1  0  0  0
 36 35  1  0  0  0
 36 37  2  0  0  0
 38 39  1  0  0  0
 39 40  1  0  0  0
 40 42  2  0  0  0
 40 41  1  0  0  0
 34 32  1  0  0  0
 44 43  1  0  0  0
 44 47  1  0  0  0
 45 44  1  0  0  0
 45 46  2  0  0  0
 47 48  1  0  0  0
 48 49  4  0  0  0
 48 50  4  0  0  0
 50 52  4  0  0  0
 52 53  4  0  0  0
 53 54  1  0  0  0
 51 53  4  0  0  0
 49 51  4  0  0  0
 43 36  1  0  0  0
 56 55  1  0  0  0
 56 59  1  0  0  0
 57 56  1  0  0  0
 57 58  2  0  0  0
 59 60  1  0  0  0
 60 61  4  0  0  0
 60 62  4  0  0  0
 62 64  4  0  0  0
 64 65  4  0  0  0
 63 65  4  0  0  0
 61 63  4  0  0  0
 55 45  1  0  0  0
 67 66  1  0  0  0
 67 70  1  0  0  0
 68 67  1  0  0  0
 68 69  2  0  0  0
 70 71  1  0  0  0
 71 72  1  0  0  0
 72 74  1  0  0  0
 72 73  2  0  0  0
 66 57  1  0  0  0
 76 75  1  0  0  0
 76 79  1  0  0  0
 77 76  1  0  0  0
 77 78  2  0  0  0
 79 80  1  0  0  0
 80 81  4  0  0  0
 80 82  4  0  0  0
 82 85  4  0  0  0
 82 84  4  0  0  0
 84 86  4  0  0  0
 84 83  4  0  0  0
 81 83  4  0  0  0
 86 88  4  0  0  0
 87 88  4  0  0  0
 85 87  4  0  0  0
 75 68  1  0  0  0
 90 89  1  0  0  0
 90 93  1  0  0  0
 91 90  1  0  0  0
 91 92  2  0  0  0
 93 94  1  0  0  0
 94 95  1  0  0  0
 94 96  1  0  0  0
 89 77  1  0  0  0
 98 97  1  0  0  0
 98101  1  0  0  0
 99 98  1  0  0  0
 99100  2  0  0  0
101102  1  0  0  0
 97 91  1  0  0  0
104105  1  0  0  0
103104  1  0  0  0
105106  1  0  0  0
106107  2  0  0  0
 99103  1  0  0  0
106 22  1  0  0  0
  3108  1  0  0  0
  3109  1  0  0  0
  3110  1  0  0  0
  5111  1  0  0  0
  7112  1  0  0  0
  8113  1  0  0  0
  8114  1  0  0  0
 10115  1  0  0  0
 10116  1  0  0  0
 11117  1  0  0  0
 11118  1  0  0  0
 12119  1  0  0  0
 13120  1  0  0  0
 14121  1  0  0  0
 15122  1  0  0  0
 16123  1  0  0  0
 17124  1  0  0  0
 18125  1  0  0  0
 19126  1  0  0  0
 19127  1  0  0  0
 20128  1  0  0  0
 20129  1  0  0  0
 21130  1  0  0  0
 21131  1  0  0  0
 22132  1  0  0  0
 26133  1  0  0  0
 26134  1  0  0  0
 26135  1  0  0  0
 27136  1  0  0  0
 28137  1  0  0  0
 28138  1  0  0  0
 29139  1  0  0  0
 30140  1  0  0  0
 30141  1  0  0  0
 30142  1  0  0  0
 31143  1  0  0  0
 31144  1  0  0  0
 31145  1  0  0  0
 34146  1  0  0  0
 35147  1  0  0  0
 38148  1  0  0  0
 38149  1  0  0  0
 39150  1  0  0  0
 39151  1  0  0  0
 41152  1  0  0  0
 43153  1  0  0  0
 44154  1  0  0  0
 47155  1  0  0  0
 47156  1  0  0  0
 49157  1  0  0  0
 50158  1  0  0  0
 51159  1  0  0  0
 52160  1  0  0  0
 54161  1  0  0  0
 55162  1  0  0  0
 56163  1  0  0  0
 59164  1  0  0  0
 59165  1  0  0  0
 61166  1  0  0  0
 62167  1  0  0  0
 63168  1  0  0  0
 64169  1  0  0  0
 65170  1  0  0  0
 66171  1  0  0  0
 67172  1  0  0  0
 70173  1  0  0  0
 70174  1  0  0  0
 71175  1  0  0  0
 71176  1  0  0  0
 74177  1  0  0  0
 75178  1  0  0  0
 76179  1  0  0  0
 79180  1  0  0  0
 79181  1  0  0  0
 81182  1  0  0  0
 85183  1  0  0  0
 86184  1  0  0  0
 87185  1  0  0  0
 88186  1  0  0  0
 89187  1  0  0  0
 90188  1  0  0  0
 93189  1  0  0  0
 93190  1  0  0  0
 94191  1  0  0  0
 95192  1  0  0  0
 95193  1  0  0  0
 95194  1  0  0  0
 96195  1  0  0  0
 96196  1  0  0  0
 96197  1  0  0  0
 97198  1  0  0  0
 98199  1  0  0  0
101200  1  0  0  0
101201  1  0  0  0
102202  1  0  0  0
103203  1  0  0  0
104204  1  0  0  0
104205  1  0  0  0
105206  1  0  0  0
105207  1  0  0  0
M  END
$$$$
