### 
### Created by X-TOOL on Mon Sep 10 21:13:33 2018
### 

@<TRIPOS>MOLECULE
5w5u_ligand
  206   211     1     0     0
SMALL
GAST_HUCK


@<TRIPOS>ATOM
      1 C         -23.3630  -51.4890  -22.1050 C.2       1 ACE         0.1751
      2 O         -23.3960  -52.6660  -21.8190 O.2       1 ACE        -0.3972
      3 CH3       -22.0810  -50.8220  -22.5200 C.3       1 ACE         0.0258
      4 C         -26.1570  -52.2280  -22.6580 C.2       1 PH8         0.2039
      5 N         -24.4090  -50.7040  -22.0920 N.am      1 PH8        -0.2658
      6 O         -25.7620  -52.2280  -23.7970 O.2       1 PH8        -0.3944
      7 CA        -25.7220  -51.1560  -21.7100 C.3       1 PH8         0.1310
      8 CB        -26.6030  -49.9450  -21.8440 C.3       1 PH8        -0.0106
      9 CG        -28.2530  -49.1370  -19.6590 C.ar      1 PH8        -0.0430
     10 CI        -28.0650  -50.3050  -21.7540 C.3       1 PH8        -0.0390
     11 CJ        -28.5150  -50.3170  -20.3070 C.3       1 PH8        -0.0189
     12 CZ        -27.7400  -46.7850  -18.3460 C.ar      1 PH8        -0.0687
     13 CD1       -26.9770  -48.8410  -19.2380 C.ar      1 PH8        -0.0603
     14 CD2       -29.2760  -48.2590  -19.4150 C.ar      1 PH8        -0.0603
     15 CE1       -26.7070  -47.6640  -18.5730 C.ar      1 PH8        -0.0686
     16 CE2       -29.0180  -47.0780  -18.7590 C.ar      1 PH8        -0.0686
     17 N         -26.9240  -53.1640  -22.1540 N.am      1 ORN        -0.2637
     18 CA        -27.4350  -54.2460  -22.9540 C.3       1 ORN         0.1312
     19 CB        -26.8190  -55.5240  -22.4980 C.3       1 ORN        -0.0106
     20 CG        -25.4980  -55.7970  -23.1720 C.3       1 ORN        -0.0285
     21 CD        -25.4730  -57.2070  -23.6950 C.3       1 ORN         0.0311
     22 NE        -25.0750  -57.1460  -25.0950 N.am      1 ORN        -0.2869
     23 C         -28.7840  -54.3310  -22.7240 C.2       1 ORN         0.2061
     24 O         -29.1870  -54.0350  -21.6200 O.2       1 ORN        -0.3942
     25 N         -29.6600  -54.7340  -23.6490 N.am      1 MLE        -0.2529
     26 CN        -29.2310  -55.0800  -25.0000 C.3       1 MLE         0.0254
     27 CA        -31.1020  -54.8380  -23.3390 C.3       1 MLE         0.1336
     28 CB        -31.9880  -54.0250  -24.2800 C.3       1 MLE        -0.0099
     29 CG        -31.4400  -52.6260  -24.4640 C.3       1 MLE        -0.0425
     30 CD1       -32.0570  -52.0530  -25.7140 C.3       1 MLE        -0.0625
     31 CD2       -31.8590  -51.7460  -23.3180 C.3       1 MLE        -0.0625
     32 C         -31.4580  -56.1640  -23.3570 C.2       1 MLE         0.2041
     33 O         -31.7890  -56.7170  -24.3840 O.2       1 MLE        -0.3944
     34 N         -31.4270  -56.9010  -22.2010 N.am      1 GLU        -0.2636
     35 CA        -31.7480  -58.3270  -22.2130 C.3       1 GLU         0.1325
     36 C         -33.0860  -58.4870  -21.9780 C.2       1 GLU         0.2041
     37 O         -33.5460  -58.7230  -20.8780 O.2       1 GLU        -0.3944
     38 CB        -30.8880  -59.0330  -21.1830 C.3       1 GLU        -0.0008
     39 CG        -29.4230  -58.6990  -21.3510 C.3       1 GLU         0.0044
     40 CD        -28.8520  -58.7110  -19.9540 C.2       1 GLU         0.0350
     41 OE1       -29.4400  -58.0130  -19.1210 O.co2     1 GLU        -0.5690
     42 OE2       -27.8830  -59.4400  -19.7340 O.co2     1 GLU        -0.5690
     43 N         -33.9490  -58.3640  -23.0210 N.am      1 TYR        -0.2621
     44 CA        -35.3870  -58.4190  -22.8330 C.3       1 TYR         0.1390
     45 C         -35.9010  -59.6100  -23.2260 C.2       1 TYR         0.2059
     46 O         -37.0370  -59.9030  -22.9380 O.2       1 TYR        -0.3942
     47 CB        -35.9850  -57.3630  -23.7240 C.3       1 TYR         0.0163
     48 CG        -35.7670  -56.0630  -23.3280 C.ar      1 TYR        -0.0493
     49 CD1       -35.4390  -55.6790  -22.0460 C.ar      1 TYR        -0.0685
     50 CD2       -35.9370  -55.0830  -24.2690 C.ar      1 TYR        -0.0685
     51 CE1       -35.2630  -54.3430  -21.7270 C.ar      1 TYR        -0.0398
     52 CE2       -35.7580  -53.7560  -23.9620 C.ar      1 TYR        -0.0398
     53 CZ        -35.4250  -53.3790  -22.6910 C.ar      1 TYR         0.0805
     54 OH        -35.2660  -52.0830  -22.4120 O.3       1 TYR        -0.3376
     55 N         -35.1590  -60.4640  -23.9880 N.am      1 PHE        -0.2618
     56 CA        -35.6700  -61.7520  -24.4290 C.3       1 PHE         0.1404
     57 C         -34.6270  -62.6410  -24.3000 C.2       1 PHE         0.2060
     58 O         -33.4890  -62.2310  -24.2770 O.2       1 PHE        -0.3942
     59 CB        -36.1510  -61.6680  -25.8530 C.3       1 PHE         0.0214
     60 CG        -37.1470  -60.7170  -25.9810 C.ar      1 PHE        -0.0386
     61 CD1       -38.3690  -60.8760  -25.3900 C.ar      1 PHE        -0.0601
     62 CD2       -36.9200  -59.5990  -26.7410 C.ar      1 PHE        -0.0601
     63 CE1       -39.3290  -59.9150  -25.5520 C.ar      1 PHE        -0.0686
     64 CE2       -37.8810  -58.6400  -26.9030 C.ar      1 PHE        -0.0686
     65 CZ        -39.0930  -58.7970  -26.3060 C.ar      1 PHE        -0.0687
     66 N         -34.8220  -63.9990  -24.1300 N.am      1 GLU        -0.2635
     67 CA        -33.6900  -64.8990  -23.8550 C.3       1 GLU         0.1325
     68 C         -32.9260  -65.2080  -24.9280 C.2       1 GLU         0.2041
     69 O         -31.7740  -65.5390  -24.7400 O.2       1 GLU        -0.3944
     70 CB        -34.1600  -66.2140  -23.2540 C.3       1 GLU        -0.0008
     71 CG        -34.1390  -66.1160  -21.7350 C.3       1 GLU         0.0044
     72 CD        -33.5610  -67.3800  -21.0830 C.2       1 GLU         0.0350
     73 OE1       -34.1410  -68.4610  -21.3000 O.co2     1 GLU        -0.5690
     74 OE2       -32.5740  -67.2250  -20.3350 O.co2     1 GLU        -0.5690
     75 N         -33.4150  -65.1700  -26.1980 N.am      1 TRP        -0.2627
     76 CA        -32.5830  -65.5500  -27.3180 C.3       1 TRP         0.1352
     77 C         -31.9350  -64.5060  -27.9270 C.2       1 TRP         0.2052
     78 O         -31.3610  -64.6840  -28.9840 O.2       1 TRP        -0.3942
     79 CB        -33.5040  -66.1870  -28.3090 C.3       1 TRP         0.0042
     80 CG        -34.6330  -65.2410  -28.6400 C.2       1 TRP        -0.0418
     81 CD1       -35.8070  -65.2590  -28.0730 C.2       1 TRP         0.0167
     82 CD2       -34.5880  -64.3050  -29.5490 C.ar      1 TRP        -0.0214
     83 NE1       -36.5020  -64.3100  -28.6400 N.pl3     1 TRP        -0.2890
     84 CE2       -35.7570  -63.7200  -29.5400 C.ar      1 TRP         0.0603
     85 CE3       -33.6310  -63.9170  -30.3610 C.ar      1 TRP        -0.0747
     86 CZ2       -36.0180  -62.7180  -30.3450 C.ar      1 TRP        -0.0443
     87 CZ3       -33.8410  -62.8780  -31.2320 C.ar      1 TRP        -0.0792
     88 CH2       -35.0650  -62.2600  -31.2220 C.ar      1 TRP        -0.0768
     89 N         -31.8770  -63.2600  -27.3570 N.am      1 LEU        -0.2636
     90 CA        -31.1970  -62.1600  -28.0460 C.3       1 LEU         0.1312
     91 C         -29.8870  -62.4360  -28.0950 C.2       1 LEU         0.2040
     92 O         -29.4050  -63.1300  -27.2300 O.2       1 LEU        -0.3944
     93 CB        -31.4050  -60.8800  -27.2900 C.3       1 LEU        -0.0101
     94 CG        -32.8580  -60.5410  -27.4400 C.3       1 LEU        -0.0425
     95 CD1       -33.1590  -59.3530  -26.5870 C.3       1 LEU        -0.0625
     96 CD2       -33.1030  -60.1790  -28.8760 C.3       1 LEU        -0.0625
     97 N         -29.1100  -61.9220  -29.0960 N.am      1 SER        -0.2616
     98 CA        -27.7010  -62.2370  -29.1250 C.3       1 SER         0.1538
     99 C         -26.9570  -61.2210  -28.5980 C.2       1 SER         0.2041
    100 O         -26.7400  -60.2060  -29.2210 O.2       1 SER        -0.3944
    101 CB        -27.2530  -62.5110  -30.5370 C.3       1 SER         0.0843
    102 OG        -27.3420  -61.3320  -31.2720 O.3       1 SER        -0.3903
    103 N         -26.4190  -61.3320  -27.3440 N.am      1 BAL        -0.2827
    104 CB        -25.5450  -60.2770  -26.7960 C.3       1 BAL         0.0477
    105 CA        -26.1950  -59.1430  -25.9940 C.3       1 BAL         0.0574
    106 C         -25.4080  -57.9990  -26.1280 C.2       1 BAL         0.1779
    107 O         -24.9510  -57.6770  -27.2110 O.2       1 BAL        -0.3970
    108 H1        -22.2727  -49.7601  -22.7337 H         1 ACE         0.0467
    109 H2        -21.6880  -51.3125  -23.4227 H         1 ACE         0.0467
    110 H3        -21.3445  -50.9053  -21.7072 H         1 ACE         0.0467
    111 H4        -24.2919  -49.7475  -22.3592 H         1 PH8         0.1882
    112 H5        -25.7296  -51.5358  -20.6777 H         1 PH8         0.0800
    113 H6        -26.4120  -49.4714  -22.8183 H         1 PH8         0.0314
    114 H7        -26.3602  -49.2368  -21.0381 H         1 PH8         0.0314
    115 H8        -28.2208  -51.3025  -22.1908 H         1 PH8         0.0289
    116 H9        -28.6563  -49.5640  -22.3118 H         1 PH8         0.0289
    117 H10       -29.5991  -50.5009  -20.2777 H         1 PH8         0.0426
    118 H11       -27.9909  -51.1297  -19.7828 H         1 PH8         0.0426
    119 H12       -27.5440  -45.8493  -17.8350 H         1 PH8         0.0559
    120 H13       -26.1735  -49.5424  -19.4317 H         1 PH8         0.0557
    121 H14       -30.2839  -48.4940  -19.7374 H         1 PH8         0.0557
    122 H15       -25.7021  -47.4363  -18.2363 H         1 PH8         0.0599
    123 H16       -29.8230  -46.3777  -18.5675 H         1 PH8         0.0599
    124 H17       -27.1615  -53.1251  -21.1834 H         1 ORN         0.1883
    125 H18       -27.2270  -54.0729  -24.0202 H         1 ORN         0.0800
    126 H19       -27.5091  -56.3499  -22.7254 H         1 ORN         0.0313
    127 H20       -26.6568  -55.4703  -21.4114 H         1 ORN         0.0313
    128 H21       -24.6830  -55.6628  -22.4455 H         1 ORN         0.0287
    129 H22       -25.3631  -55.0952  -24.0082 H         1 ORN         0.0287
    130 H23       -26.4725  -57.6581  -23.6077 H         1 ORN         0.0520
    131 H24       -24.7489  -57.8068  -23.1242 H         1 ORN         0.0520
    132 H25       -24.4791  -56.3817  -25.3414 H         1 ORN         0.1850
    133 H26       -30.1046  -55.3835  -25.5956 H         1 MLE         0.0488
    134 H27       -28.5116  -55.9109  -24.9548 H         1 MLE         0.0488
    135 H28       -28.7536  -54.2066  -25.4681 H         1 MLE         0.0488
    136 H29       -31.2579  -54.4498  -22.3217 H         1 MLE         0.0802
    137 H30       -33.0011  -53.9620  -23.8561 H         1 MLE         0.0315
    138 H31       -32.0303  -54.5267  -25.2580 H         1 MLE         0.0315
    139 H32       -30.3433  -52.6537  -24.5446 H         1 MLE         0.0298
    140 H33       -31.6775  -51.0333  -25.8759 H         1 MLE         0.0232
    141 H34       -33.1510  -52.0237  -25.6027 H         1 MLE         0.0232
    142 H35       -31.7928  -52.6837  -26.5756 H         1 MLE         0.0232
    143 H36       -31.4274  -52.1318  -22.3826 H         1 MLE         0.0232
    144 H37       -32.9563  -51.7417  -23.2411 H         1 MLE         0.0232
    145 H38       -31.4996  -50.7211  -23.4922 H         1 MLE         0.0232
    146 H39       -31.1817  -56.4573  -21.3390 H         1 GLU         0.1883
    147 H40       -31.5163  -58.7418  -23.2051 H         1 GLU         0.0801
    148 H41       -31.0204  -60.1194  -21.2930 H         1 GLU         0.0330
    149 H42       -31.2106  -58.7242  -20.1777 H         1 GLU         0.0330
    150 H43       -29.3037  -57.7056  -21.8080 H         1 GLU         0.0433
    151 H44       -28.9248  -59.4532  -21.9779 H         1 GLU         0.0433
    152 H45       -33.5833  -58.2321  -23.9423 H         1 TYR         0.1885
    153 H46       -35.6364  -58.2318  -21.7781 H         1 TYR         0.0821
    154 H47       -37.0718  -57.5279  -23.7633 H         1 TYR         0.0453
    155 H48       -35.5587  -57.4870  -24.7304 H         1 TYR         0.0453
    156 H49       -35.3171  -56.4329  -21.2767 H         1 TYR         0.0530
    157 H50       -36.2190  -55.3603  -25.2783 H         1 TYR         0.0530
    158 H51       -34.9971  -54.0581  -20.7154 H         1 TYR         0.0525
    159 H52       -35.8816  -53.0034  -24.7323 H         1 TYR         0.0525
    160 H53       -36.0763  -51.6201  -22.5901 H         1 TYR         0.2458
    161 H54       -34.2327  -60.1954  -24.2522 H         1 PHE         0.1885
    162 H55       -36.5071  -62.0644  -23.7874 H         1 PHE         0.0823
    163 H56       -36.5470  -62.6478  -26.1580 H         1 PHE         0.0474
    164 H57       -35.3067  -61.3952  -26.5031 H         1 PHE         0.0474
    165 H58       -38.5764  -61.7588  -24.7961 H         1 PHE         0.0557
    166 H59       -35.9578  -59.4725  -27.2240 H         1 PHE         0.0557
    167 H60       -40.2941  -60.0410  -25.0747 H         1 PHE         0.0599
    168 H61       -37.6783  -57.7604  -27.5032 H         1 PHE         0.0599
    169 H62       -39.8641  -58.0446  -26.4260 H         1 PHE         0.0559
    170 H63       -35.7461  -64.3757  -24.1948 H         1 GLU         0.1883
    171 H64       -33.0477  -64.3895  -23.1217 H         1 GLU         0.0801
    172 H65       -33.4910  -67.0248  -23.5780 H         1 GLU         0.0330
    173 H66       -35.1846  -66.4264  -23.5932 H         1 GLU         0.0330
    174 H67       -35.1680  -65.9698  -21.3747 H         1 GLU         0.0433
    175 H68       -33.5224  -65.2529  -21.4437 H         1 GLU         0.0433
    176 H69       -34.3576  -64.8768  -26.3577 H         1 TRP         0.1884
    177 H70       -31.8303  -66.2757  -26.9763 H         1 TRP         0.0815
    178 H71       -33.9168  -67.1126  -27.8814 H         1 TRP         0.0397
    179 H72       -32.9456  -66.4241  -29.2265 H         1 TRP         0.0397
    180 H73       -36.1412  -65.9312  -27.2841 H         1 TRP         0.0795
    181 H74       -37.4771  -64.0657  -28.4157 H         1 TRP         0.2216
    182 H75       -32.6710  -64.4201  -30.3428 H         1 TRP         0.0540
    183 H76       -36.9941  -62.2472  -30.3181 H         1 TRP         0.0541
    184 H77       -33.0599  -62.5542  -31.9102 H         1 TRP         0.0510
    185 H78       -35.2752  -61.4316  -31.8888 H         1 TRP         0.0530
    186 H79       -32.3014  -63.1012  -26.4656 H         1 LEU         0.1883
    187 H80       -31.5961  -62.0559  -29.0657 H         1 LEU         0.0800
    188 H81       -30.7805  -60.0800  -27.7142 H         1 LEU         0.0315
    189 H82       -31.1527  -61.0182  -26.2283 H         1 LEU         0.0315
    190 H83       -33.4864  -61.3942  -27.1448 H         1 LEU         0.0298
    191 H84       -34.2227  -59.0908  -26.6857 H         1 LEU         0.0232
    192 H85       -32.5403  -58.5030  -26.9106 H         1 LEU         0.0232
    193 H86       -32.9358  -59.5900  -25.5363 H         1 LEU         0.0232
    194 H87       -32.8845  -61.0470  -29.5153 H         1 LEU         0.0232
    195 H88       -32.4493  -59.3410  -29.1596 H         1 LEU         0.0232
    196 H89       -34.1547  -59.8838  -29.0055 H         1 LEU         0.0232
    197 H90       -29.5124  -61.3355  -29.7989 H         1 SER         0.1884
    198 H91       -27.5354  -63.1412  -28.5209 H         1 SER         0.0823
    199 H92       -27.9000  -63.2777  -30.9881 H         1 SER         0.0606
    200 H93       -26.2119  -62.8662  -30.5324 H         1 SER         0.0606
    201 H94       -26.7834  -60.6720  -30.8786 H         1 SER         0.2097
    202 H95       -26.6214  -62.1403  -26.7911 H         1 BAL         0.1853
    203 H96       -24.8159  -60.7681  -26.1348 H         1 BAL         0.0545
    204 H97       -25.0182  -59.8162  -27.6446 H         1 BAL         0.0545
    205 H98       -26.2584  -59.4276  -24.9334 H         1 BAL         0.0522
    206 H99       -27.2053  -58.9459  -26.3819 H         1 BAL         0.0522
@<TRIPOS>BOND
     1    1    2 2  
     2    1    3 1  
     3    4    6 2  
     4    4    7 1  
     5    7    5 1  
     6    7    8 1  
     7    8   10 1  
     8   11    9 1  
     9    9   13 ar 
    10    9   14 ar 
    11   10   11 1  
    12   15   12 ar 
    13   16   12 ar 
    14   13   15 ar 
    15   14   16 ar 
    16    5    1 am 
    17   18   17 1  
    18   18   19 1  
    19   23   18 1  
    20   23   24 2  
    21   19   20 1  
    22   20   21 1  
    23   21   22 1  
    24   17    4 am 
    25   25   26 1  
    26   27   25 1  
    27   27   28 1  
    28   32   27 1  
    29   28   29 1  
    30   29   30 1  
    31   29   31 1  
    32   32   33 2  
    33   25   23 am 
    34   35   34 1  
    35   35   38 1  
    36   36   35 1  
    37   36   37 2  
    38   38   39 1  
    39   39   40 1  
    40   40   42 ar 
    41   40   41 ar 
    42   34   32 am 
    43   44   43 1  
    44   44   47 1  
    45   45   44 1  
    46   45   46 2  
    47   47   48 1  
    48   48   49 ar 
    49   48   50 ar 
    50   50   52 ar 
    51   52   53 ar 
    52   53   54 1  
    53   51   53 ar 
    54   49   51 ar 
    55   43   36 am 
    56   56   55 1  
    57   56   59 1  
    58   57   56 1  
    59   57   58 2  
    60   59   60 1  
    61   60   61 ar 
    62   60   62 ar 
    63   62   64 ar 
    64   64   65 ar 
    65   63   65 ar 
    66   61   63 ar 
    67   55   45 am 
    68   67   66 1  
    69   67   70 1  
    70   68   67 1  
    71   68   69 2  
    72   70   71 1  
    73   71   72 1  
    74   72   74 ar 
    75   72   73 ar 
    76   66   57 am 
    77   76   75 1  
    78   76   79 1  
    79   77   76 1  
    80   77   78 2  
    81   79   80 1  
    82   80   81 2  
    83   80   82 1  
    84   82   85 ar 
    85   82   84 ar 
    86   84   86 ar 
    87   84   83 1  
    88   81   83 1  
    89   86   88 ar 
    90   87   88 ar 
    91   85   87 ar 
    92   75   68 am 
    93   90   89 1  
    94   90   93 1  
    95   91   90 1  
    96   91   92 2  
    97   93   94 1  
    98   94   95 1  
    99   94   96 1  
   100   89   77 am 
   101   98   97 1  
   102   98  101 1  
   103   99   98 1  
   104   99  100 2  
   105  101  102 1  
   106   97   91 am 
   107  104  105 1  
   108  103  104 1  
   109  105  106 1  
   110  106  107 2  
   111   99  103 am 
   112  106   22 am 
   113    3  108 1  
   114    3  109 1  
   115    3  110 1  
   116    5  111 1  
   117    7  112 1  
   118    8  113 1  
   119    8  114 1  
   120   10  115 1  
   121   10  116 1  
   122   11  117 1  
   123   11  118 1  
   124   12  119 1  
   125   13  120 1  
   126   14  121 1  
   127   15  122 1  
   128   16  123 1  
   129   17  124 1  
   130   18  125 1  
   131   19  126 1  
   132   19  127 1  
   133   20  128 1  
   134   20  129 1  
   135   21  130 1  
   136   21  131 1  
   137   22  132 1  
   138   26  133 1  
   139   26  134 1  
   140   26  135 1  
   141   27  136 1  
   142   28  137 1  
   143   28  138 1  
   144   29  139 1  
   145   30  140 1  
   146   30  141 1  
   147   30  142 1  
   148   31  143 1  
   149   31  144 1  
   150   31  145 1  
   151   34  146 1  
   152   35  147 1  
   153   38  148 1  
   154   38  149 1  
   155   39  150 1  
   156   39  151 1  
   157   43  152 1  
   158   44  153 1  
   159   47  154 1  
   160   47  155 1  
   161   49  156 1  
   162   50  157 1  
   163   51  158 1  
   164   52  159 1  
   165   54  160 1  
   166   55  161 1  
   167   56  162 1  
   168   59  163 1  
   169   59  164 1  
   170   61  165 1  
   171   62  166 1  
   172   63  167 1  
   173   64  168 1  
   174   65  169 1  
   175   66  170 1  
   176   67  171 1  
   177   70  172 1  
   178   70  173 1  
   179   71  174 1  
   180   71  175 1  
   181   75  176 1  
   182   76  177 1  
   183   79  178 1  
   184   79  179 1  
   185   81  180 1  
   186   83  181 1  
   187   85  182 1  
   188   86  183 1  
   189   87  184 1  
   190   88  185 1  
   191   89  186 1  
   192   90  187 1  
   193   93  188 1  
   194   93  189 1  
   195   94  190 1  
   196   95  191 1  
   197   95  192 1  
   198   95  193 1  
   199   96  194 1  
   200   96  195 1  
   201   96  196 1  
   202   97  197 1  
   203   98  198 1  
   204  101  199 1  
   205  101  200 1  
   206  102  201 1  
   207  103  202 1  
   208  104  203 1  
   209  104  204 1  
   210  105  205 1  
   211  105  206 1  
@<TRIPOS>SUBSTRUCTURE
     1 ACE         1

