2xk1_ligand
  -I-interpret- 

 39 40  0  0  0  0  0  0  0  0999 V2000
  -26.5250   43.1340   62.3490 O   0  0  0  0  0
  -26.8930   42.7560   61.2440 C   0  0  0  0  0
  -26.8090   41.4770   60.8500 N   0  0  0  0  0
  -26.2390   40.4940   61.7680 C   0  0  0  0  0
  -24.7490   40.4360   61.4670 C   0  0  0  0  0
  -26.8890   39.0340   61.6290 B   0  0  0  0  0
  -26.9960   38.6530   60.1420 O   0  0  0  0  0
  -28.2780   39.0490   62.2880 O   0  0  0  0  0
  -27.4350   43.7810   60.3000 C   0  0  0  0  0
  -28.6320   44.4570   60.5540 C   0  0  0  0  0
  -29.0800   45.4070   59.6380 C   0  0  0  0  0
  -28.3280   45.6750   58.4930 C   0  0  0  0  0
  -27.1320   45.0040   58.2430 C   0  0  0  0  0
  -26.6870   44.0530   59.1500 C   0  0  0  0  0
  -29.4560   44.1910   61.8080 C   0  0  0  0  0
  -30.2250   42.8840   61.7850 C   0  0  0  0  0
  -30.5450   42.2770   63.0000 C   0  0  0  0  0
  -31.2660   41.0850   63.0060 C   0  0  0  0  0
  -31.6630   40.4980   61.7970 C   0  0  0  0  0
  -31.3520   41.1020   60.5760 C   0  0  0  0  0
  -30.6280   42.2950   60.5770 C   0  0  0  0  0
  -27.1371   41.1956   59.9261 H   0  0  0  0  0
  -26.4456   40.8030   62.7927 H   0  0  0  0  0
  -24.2635   39.7600   62.1708 H   0  0  0  0  0
  -24.5989   40.0731   60.4502 H   0  0  0  0  0
  -24.3207   41.4335   61.5651 H   0  0  0  0  0
  -26.1197   38.6494   59.7499 H   0  0  0  0  0
  -28.1893   39.2885   63.2134 H   0  0  0  0  0
  -30.0147   45.9391   59.8151 H   0  0  0  0  0
  -28.6820   46.4217   57.7822 H   0  0  0  0  0
  -26.5534   45.2238   57.3458 H   0  0  0  0  0
  -25.7551   43.5183   58.9664 H   0  0  0  0  0
  -30.1899   44.9932   61.8853 H   0  0  0  0  0
  -28.7588   44.1379   62.6442 H   0  0  0  0  0
  -30.2325   42.7331   63.9394 H   0  0  0  0  0
  -31.5217   40.6083   63.9523 H   0  0  0  0  0
  -32.2199   39.5611   61.8092 H   0  0  0  0  0
  -31.6700   40.6484   59.6373 H   0  0  0  0  0
  -30.3734   42.7733   59.6312 H   0  0  0  0  0
  1  2  2  0  0  0
  2  3  1  0  0  0
  2  9  1  0  0  0
  3  4  1  0  0  0
  4  5  1  0  0  0
  4  6  1  0  0  0
  6  7  1  0  0  0
  6  8  1  0  0  0
  9 10  4  0  0  0
  9 14  4  0  0  0
 10 11  4  0  0  0
 10 15  1  0  0  0
 11 12  4  0  0  0
 12 13  4  0  0  0
 13 14  4  0  0  0
 15 16  1  0  0  0
 16 17  4  0  0  0
 16 21  4  0  0  0
 17 18  4  0  0  0
 18 19  4  0  0  0
 19 20  4  0  0  0
 20 21  4  0  0  0
  3 22  1  0  0  0
  4 23  1  0  0  0
  5 24  1  0  0  0
  5 25  1  0  0  0
  5 26  1  0  0  0
  7 27  1  0  0  0
  8 28  1  0  0  0
 11 29  1  0  0  0
 12 30  1  0  0  0
 13 31  1  0  0  0
 14 32  1  0  0  0
 15 33  1  0  0  0
 15 34  1  0  0  0
 17 35  1  0  0  0
 18 36  1  0  0  0
 19 37  1  0  0  0
 20 38  1  0  0  0
 21 39  1  0  0  0
M  END
$$$$
