### 
### Created by X-TOOL on Mon Sep 10 21:13:07 2018
### 

@<TRIPOS>MOLECULE
2xk1_ligand
   39    40     1     0     0
SMALL
GAST_HUCK


@<TRIPOS>ATOM
      1 O6        -26.5250   43.1340   62.3490 O.2       1 EWB        -0.3910
      2 C5        -26.8930   42.7560   61.2440 C.2       1 EWB         0.1721
      3 N4        -26.8090   41.4770   60.8500 N.am      1 EWB        -0.4390
      4 C3        -26.2390   40.4940   61.7680 C.3       1 EWB        -0.2301
      5 C16       -24.7490   40.4360   61.4670 C.3       1 EWB        -0.1732
      6 B         -26.8890   39.0340   61.6290 B         1 EWB         3.0000
      7 O1        -26.9960   38.6530   60.1420 O.3       1 EWB        -0.8710
      8 O2        -28.2780   39.0490   62.2880 O.3       1 EWB        -0.8710
      9 C7        -27.4350   43.7810   60.3000 C.ar      1 EWB         0.0507
     10 C8        -28.6320   44.4570   60.5540 C.ar      1 EWB        -0.0116
     11 C11       -29.0800   45.4070   59.6380 C.ar      1 EWB        -0.0524
     12 C12       -28.3280   45.6750   58.4930 C.ar      1 EWB        -0.0638
     13 C13       -27.1320   45.0040   58.2430 C.ar      1 EWB        -0.0628
     14 C14       -26.6870   44.0530   59.1500 C.ar      1 EWB        -0.0482
     15 C9        -29.4560   44.1910   61.8080 C.3       1 EWB         0.0175
     16 C17       -30.2250   42.8840   61.7850 C.ar      1 EWB        -0.0309
     17 C22       -30.5450   42.2770   63.0000 C.ar      1 EWB        -0.0581
     18 C21       -31.2660   41.0850   63.0060 C.ar      1 EWB        -0.0681
     19 C20       -31.6630   40.4980   61.7970 C.ar      1 EWB        -0.0684
     20 C19       -31.3520   41.1020   60.5760 C.ar      1 EWB        -0.0681
     21 C18       -30.6280   42.2950   60.5770 C.ar      1 EWB        -0.0581
     22 H         -27.1371   41.1956   59.9261 H         1 EWB         0.1452
     23 H         -26.4456   40.8030   62.7927 H         1 EWB        -0.1825
     24 H         -24.2635   39.7600   62.1708 H         1 EWB        -0.0100
     25 H         -24.5989   40.0731   60.4502 H         1 EWB        -0.0100
     26 H         -24.3207   41.4335   61.5651 H         1 EWB        -0.0100
     27 H         -27.5485   39.2933   59.6877 H         1 EWB        -0.1290
     28 H         -28.1893   39.2885   63.2134 H         1 EWB        -0.1290
     29 H         -30.0147   45.9391   59.8151 H         1 EWB         0.0573
     30 H         -28.6820   46.4217   57.7822 H         1 EWB         0.0635
     31 H         -26.5534   45.2238   57.3458 H         1 EWB         0.0573
     32 H         -25.7551   43.5183   58.9664 H         1 EWB         0.0651
     33 H         -30.1899   44.9932   61.8853 H         1 EWB         0.0597
     34 H         -28.7588   44.1379   62.6442 H         1 EWB         0.0597
     35 H         -30.2325   42.7331   63.9394 H         1 EWB         0.0561
     36 H         -31.5217   40.6083   63.9523 H         1 EWB         0.0600
     37 H         -32.2199   39.5611   61.8092 H         1 EWB         0.0561
     38 H         -31.6700   40.6484   59.6373 H         1 EWB         0.0600
     39 H         -30.3734   42.7733   59.6312 H         1 EWB         0.0561
@<TRIPOS>BOND
     1    1    2 2  
     2    2    3 am 
     3    2    9 1  
     4    3    4 1  
     5    4    5 1  
     6    4    6 1  
     7    6    7 1  
     8    6    8 1  
     9    9   10 ar 
    10    9   14 ar 
    11   10   11 ar 
    12   10   15 1  
    13   11   12 ar 
    14   12   13 ar 
    15   13   14 ar 
    16   15   16 1  
    17   16   17 ar 
    18   16   21 ar 
    19   17   18 ar 
    20   18   19 ar 
    21   19   20 ar 
    22   20   21 ar 
    23    3   22 1  
    24    4   23 1  
    25    5   24 1  
    26    5   25 1  
    27    5   26 1  
    28    7   27 1  
    29    8   28 1  
    30   11   29 1  
    31   12   30 1  
    32   13   31 1  
    33   14   32 1  
    34   15   33 1  
    35   15   34 1  
    36   17   35 1  
    37   18   36 1  
    38   19   37 1  
    39   20   38 1  
    40   21   39 1  
@<TRIPOS>SUBSTRUCTURE
     1 EWB         1

