4ck3_ligand
  -I-interpret- 

 55 56  0  0  0  0  0  0  0  0999 V2000
   68.8980   48.5020   -0.0160 C   0  0  0  0  0
   69.3610   49.2160    1.2340 C   0  0  0  0  0
   69.8320   48.1980    2.2570 C   0  0  0  0  0
   70.5140   50.1650    0.9410 C   0  0  0  0  0
   70.2580   51.1820   -0.1620 C   0  0  0  0  0
   69.0690   52.0450    0.1970 C   0  0  0  0  0
   68.6200   53.0100   -0.8640 C   0  0  0  0  0
   68.3900   54.3620   -0.6180 C   0  0  0  0  0
   67.9520   55.1240   -1.6770 C   0  0  0  0  0
   67.7350   54.6010   -2.9140 C   0  0  0  0  0
   67.9500   53.2730   -3.1730 C   0  0  0  0  0
   68.3890   52.4890   -2.1290 C   0  0  0  0  0
   67.2850   55.5270   -3.8100 O   0  0  0  0  0
   66.9960   56.5940   -2.9050 C   0  0  0  0  0
   67.6620   56.4650   -1.6410 O   0  0  0  0  0
   68.5900   55.0490    0.6880 C   0  0  0  0  0
   67.6550   55.7890    1.1110 O   0  0  0  0  0
   69.6980   54.8770    1.2710 O   0  0  0  0  0
   71.4850   52.0570   -0.3060 C   0  0  0  0  0
   71.7130   52.8560    0.8750 N   0  0  0  0  0
   72.8660   52.6760    1.6060 C   0  0  0  0  0
   73.6260   51.7260    1.4930 O   0  0  0  0  0
   73.1280   53.7840    2.5800 C   0  0  0  0  0
   72.7580   53.3280    3.9680 C   0  0  0  0  0
   73.1800   54.4030    4.9420 C   0  0  0  0  0
   72.7300   54.0360    6.3040 N   0  3  0  0  0
   68.5633   49.2358   -0.7492 H   0  0  0  0  0
   69.7242   47.9239   -0.4298 H   0  0  0  0  0
   68.0740   47.8334    0.2331 H   0  0  0  0  0
   68.5175   49.7908    1.6164 H   0  0  0  0  0
   70.6798   47.6446    1.8532 H   0  0  0  0  0
   70.1340   48.7138    3.1685 H   0  0  0  0  0
   69.0191   47.5073    2.4812 H   0  0  0  0  0
   71.3483   49.5477    0.6078 H   0  0  0  0  0
   70.6889   50.7337    1.8543 H   0  0  0  0  0
   70.0502   50.6634   -1.0979 H   0  0  0  0  0
   69.3721   52.6471    1.0536 H   0  0  0  0  0
   68.2347   51.3649    0.3687 H   0  0  0  0  0
   67.7806   52.8539   -4.1648 H   0  0  0  0  0
   68.5602   51.4265   -2.3020 H   0  0  0  0  0
   65.9230   56.5812   -2.7138 H   0  0  0  0  0
   67.3425   57.5189   -3.3661 H   0  0  0  0  0
   66.9186   55.7554    0.4960 H   0  0  0  0  0
   71.3305   52.7287   -1.1504 H   0  0  0  0  0
   72.3508   51.4122   -0.4567 H   0  0  0  0  0
   71.0241   53.5496    1.1660 H   0  0  0  0  0
   72.5294   54.6543    2.3110 H   0  0  0  0  0
   74.1848   54.0496    2.5537 H   0  0  0  0  0
   73.2610   52.3898    4.2022 H   0  0  0  0  0
   71.6830   53.1608    4.0349 H   0  0  0  0  0
   72.7300   55.3529    4.6534 H   0  0  0  0  0
   74.2657   54.4989    4.9307 H   0  0  0  0  0
   73.0147   54.7616    6.9619 H   0  0  0  0  0
   71.7139   53.9472    6.3127 H   0  0  0  0  0
   73.1524   53.1472    6.5724 H   0  0  0  0  0
  1  2  1  0  0  0
  2  3  1  0  0  0
  2  4  1  0  0  0
  4  5  1  0  0  0
  5  6  1  0  0  0
  5 19  1  0  0  0
  6  7  1  0  0  0
  7  8  4  0  0  0
  7 12  4  0  0  0
  8  9  4  0  0  0
  8 16  1  0  0  0
  9 10  4  0  0  0
  9 15  1  0  0  0
 10 11  4  0  0  0
 10 13  1  0  0  0
 11 12  4  0  0  0
 13 14  1  0  0  0
 14 15  1  0  0  0
 16 17  1  0  0  0
 16 18  2  0  0  0
 19 20  1  0  0  0
 20 21  1  0  0  0
 21 22  2  0  0  0
 21 23  1  0  0  0
 23 24  1  0  0  0
 24 25  1  0  0  0
 25 26  1  0  0  0
  1 27  1  0  0  0
  1 28  1  0  0  0
  1 29  1  0  0  0
  2 30  1  0  0  0
  3 31  1  0  0  0
  3 32  1  0  0  0
  3 33  1  0  0  0
  4 34  1  0  0  0
  4 35  1  0  0  0
  5 36  1  0  0  0
  6 37  1  0  0  0
  6 38  1  0  0  0
 11 39  1  0  0  0
 12 40  1  0  0  0
 14 41  1  0  0  0
 14 42  1  0  0  0
 17 43  1  0  0  0
 19 44  1  0  0  0
 19 45  1  0  0  0
 20 46  1  0  0  0
 23 47  1  0  0  0
 23 48  1  0  0  0
 24 49  1  0  0  0
 24 50  1  0  0  0
 25 51  1  0  0  0
 25 52  1  0  0  0
 26 53  1  0  0  0
 26 54  1  0  0  0
 26 55  1  0  0  0
M  END
$$$$
