3shy_ligand
  -I-interpret- 

 58 60  0  0  0  0  0  0  0  0999 V2000
  -49.5060   19.0570   42.2130 C   0  0  0  0  0
  -45.0740   13.7960   37.1840 C   0  0  0  0  0
  -45.3960   10.5640   41.8790 C   0  0  0  0  0
  -46.1670   18.9470   38.6750 O   0  0  0  0  0
  -42.8740   13.9660   45.9720 O   0  0  0  0  0
  -41.8070   14.1360   43.7930 O   0  0  0  0  0
  -45.0160   17.2410   36.8230 F   0  0  0  0  0
  -45.4680   14.9910   44.7680 C   0  0  0  0  0
  -46.4830   15.8060   44.2770 C   0  0  0  0  0
  -44.4050   15.0740   42.6320 C   0  0  0  0  0
  -49.8230   17.5630   42.3150 C   0  0  0  0  0
  -43.9650   14.6770   37.7760 C   0  0  0  0  0
  -48.7480   16.8150   43.1140 C   0  0  0  0  0
  -43.1460   10.2550   42.5390 C   0  0  0  0  0
  -44.8130   10.1140   44.2470 C   0  0  0  0  0
  -42.9670   11.7550   42.8100 C   0  0  0  0  0
  -44.6580   11.6150   44.5260 C   0  0  0  0  0
  -44.7310   15.4540   39.9530 N   0  0  0  0  0
  -45.8430   17.4690   40.3540 N   0  0  0  0  0
  -47.4590   17.0370   42.4650 O   0  0  0  0  0
  -44.3890   14.6810   43.9510 C   0  0  0  0  0
  -46.4520   16.2640   42.9610 C   0  0  0  0  0
  -44.6250   15.7450   38.6460 C   0  0  0  0  0
  -45.1230   16.9530   38.1490 C   0  0  0  0  0
  -45.3530   15.9580   42.1640 C   0  0  0  0  0
  -45.2370   16.3230   40.8300 C   0  0  0  0  0
  -45.7140   17.8530   39.0310 C   0  0  0  0  0
  -44.5180    9.8360   42.8200 N   0  3  0  0  0
  -43.2730   12.0510   44.2250 N   0  0  0  0  0
  -43.0530   13.6860   44.5020 S   0  0  0  0  0
  -49.4574   19.4860   43.2139 H   0  0  0  0  0
  -48.5471   19.1903   41.7122 H   0  0  0  0  0
  -50.2886   19.5549   41.6405 H   0  0  0  0  0
  -45.6361   13.3292   37.9928 H   0  0  0  0  0
  -45.7432   14.4115   36.5829 H   0  0  0  0  0
  -44.6274   13.0240   36.5574 H   0  0  0  0  0
  -45.2818   11.6369   42.0336 H   0  0  0  0  0
  -45.1183   10.3115   40.8557 H   0  0  0  0  0
  -46.4328   10.2783   42.0565 H   0  0  0  0  0
  -45.5193   14.5997   45.7840 H   0  0  0  0  0
  -47.3104   16.0891   44.9277 H   0  0  0  0  0
  -43.6553   14.6794   41.9461 H   0  0  0  0  0
  -49.8573   17.1472   41.3080 H   0  0  0  0  0
  -50.7782   17.4463   42.8269 H   0  0  0  0  0
  -43.3888   15.1447   36.9776 H   0  0  0  0  0
  -43.2827   14.0728   38.3739 H   0  0  0  0  0
  -48.9751   15.7493   43.1408 H   0  0  0  0  0
  -48.7193   17.1836   44.1394 H   0  0  0  0  0
  -42.4691    9.6979   43.1867 H   0  0  0  0  0
  -42.9270   10.0592   41.4893 H   0  0  0  0  0
  -45.8355    9.8094   44.4700 H   0  0  0  0  0
  -44.1173    9.5568   44.8744 H   0  0  0  0  0
  -43.6454   12.3192   42.1700 H   0  0  0  0  0
  -41.9358   12.0378   42.5986 H   0  0  0  0  0
  -44.8720   11.8066   45.5775 H   0  0  0  0  0
  -45.3520   12.1691   43.8940 H   0  0  0  0  0
  -46.3963   18.0434   40.9899 H   0  0  0  0  0
  -44.6689    8.8367   42.6821 H   0  0  0  0  0
 11  1  1  0  0  0
 12  2  1  0  0  0
 28  3  1  0  0  0
 27  4  2  0  0  0
 30  5  2  0  0  0
 30  6  2  0  0  0
 24  7  1  0  0  0
  8  9  4  0  0  0
 21  8  4  0  0  0
  9 22  4  0  0  0
 21 10  4  0  0  0
 10 25  4  0  0  0
 13 11  1  0  0  0
 23 12  1  0  0  0
 20 13  1  0  0  0
 16 14  1  0  0  0
 14 28  1  0  0  0
 17 15  1  0  0  0
 15 28  1  0  0  0
 29 16  1  0  0  0
 29 17  1  0  0  0
 18 23  1  0  0  0
 26 18  2  0  0  0
 26 19  1  0  0  0
 19 27  1  0  0  0
 22 20  1  0  0  0
 30 21  1  0  0  0
 25 22  4  0  0  0
 23 24  2  0  0  0
 27 24  1  0  0  0
 25 26  1  0  0  0
 29 30  1  0  0  0
  1 31  1  0  0  0
  1 32  1  0  0  0
  1 33  1  0  0  0
  2 34  1  0  0  0
  2 35  1  0  0  0
  2 36  1  0  0  0
  3 37  1  0  0  0
  3 38  1  0  0  0
  3 39  1  0  0  0
  8 40  1  0  0  0
  9 41  1  0  0  0
 10 42  1  0  0  0
 11 43  1  0  0  0
 11 44  1  0  0  0
 12 45  1  0  0  0
 12 46  1  0  0  0
 13 47  1  0  0  0
 13 48  1  0  0  0
 14 49  1  0  0  0
 14 50  1  0  0  0
 15 51  1  0  0  0
 15 52  1  0  0  0
 16 53  1  0  0  0
 16 54  1  0  0  0
 17 55  1  0  0  0
 17 56  1  0  0  0
 19 57  1  0  0  0
 28 58  1  0  0  0
M  END
$$$$
