### 
### Created by X-TOOL on Mon Sep 10 21:13:07 2018
### 

@<TRIPOS>MOLECULE
3shy_ligand
   57    59     1     0     0
SMALL
GAST_HUCK


@<TRIPOS>ATOM
      1 CAA       -49.5060   19.0570   42.2130 C.3       1 5FO        -0.0628
      2 CAB       -45.0740   13.7960   37.1840 C.3       1 5FO        -0.0533
      3 CAC       -45.3960   10.5640   41.8790 C.3       1 5FO        -0.1255
      4 OAD       -46.1670   18.9470   38.6750 O.2       1 5FO        -0.4152
      5 OAE       -42.8740   13.9660   45.9720 O.2       1 5FO        -0.1513
      6 OAF       -41.8070   14.1360   43.7930 O.2       1 5FO        -0.1513
      7 FAG       -45.0160   17.2410   36.8230 F         1 5FO        -0.2080
      8 CAH       -45.4680   14.9910   44.7680 C.ar      1 5FO        -0.0373
      9 CAI       -46.4830   15.8060   44.2770 C.ar      1 5FO        -0.0219
     10 CAJ       -44.4050   15.0740   42.6320 C.ar      1 5FO        -0.0211
     11 CAK       -49.8230   17.5630   42.3150 C.3       1 5FO        -0.0274
     12 CAL       -43.9650   14.6770   37.7760 C.3       1 5FO        -0.0115
     13 CAM       -48.7480   16.8150   43.1140 C.3       1 5FO         0.0731
     14 CAN       -43.1460   10.2550   42.5390 C.3       1 5FO        -0.0959
     15 CAO       -44.8130   10.1140   44.2470 C.3       1 5FO        -0.0959
     16 CAP       -42.9670   11.7550   42.8100 C.3       1 5FO         0.0109
     17 CAQ       -44.6580   11.6150   44.5260 C.3       1 5FO         0.0109
     18 NAR       -44.7310   15.4540   39.9530 N.2       1 5FO        -0.2927
     19 NAS       -45.8430   17.4690   40.3540 N.am      1 5FO        -0.2053
     20 OAT       -47.4590   17.0370   42.4650 O.3       1 5FO        -0.3096
     21 CAU       -44.3890   14.6810   43.9510 C.ar      1 5FO         0.1051
     22 CAV       -46.4520   16.2640   42.9610 C.ar      1 5FO         0.1169
     23 CAW       -44.6250   15.7450   38.6460 C.2       1 5FO         0.0302
     24 CAX       -45.1230   16.9530   38.1490 C.2       1 5FO         0.1881
     25 CAY       -45.3530   15.9580   42.1640 C.ar      1 5FO         0.0785
     26 CAZ       -45.2370   16.3230   40.8300 C.2       1 5FO         0.1612
     27 CBA       -45.7140   17.8530   39.0310 C.2       1 5FO         0.2303
     28 NBB       -44.5180    9.8360   42.8200 N.4       1 5FO         0.4029
     29 NBC       -43.2730   12.0510   44.2250 N.am      1 5FO        -0.2390
     30 SBD       -43.0530   13.6860   44.5020 S.o2      1 5FO         0.0672
     31 H         -49.4574   19.4860   43.2139 H         1 5FO         0.0231
     32 H         -48.5471   19.1903   41.7122 H         1 5FO         0.0231
     33 H         -50.2886   19.5549   41.6405 H         1 5FO         0.0231
     34 H         -45.6361   13.3292   37.9928 H         1 5FO         0.0255
     35 H         -45.7432   14.4115   36.5829 H         1 5FO         0.0255
     36 H         -44.6274   13.0240   36.5574 H         1 5FO         0.0255
     37 H         -45.2818   11.6369   42.0336 H         1 5FO        -0.0019
     38 H         -45.1183   10.3115   40.8557 H         1 5FO        -0.0019
     39 H         -46.4328   10.2783   42.0565 H         1 5FO        -0.0019
     40 H         -45.5193   14.5997   45.7840 H         1 5FO         0.0661
     41 H         -47.3104   16.0891   44.9277 H         1 5FO         0.0561
     42 H         -43.6553   14.6794   41.9461 H         1 5FO         0.0675
     43 H         -49.8573   17.1472   41.3080 H         1 5FO         0.0289
     44 H         -50.7782   17.4463   42.8269 H         1 5FO         0.0289
     45 H         -43.3888   15.1447   36.9776 H         1 5FO         0.0454
     46 H         -43.2827   14.0728   38.3739 H         1 5FO         0.0454
     47 H         -48.9751   15.7493   43.1408 H         1 5FO         0.0620
     48 H         -48.7193   17.1836   44.1394 H         1 5FO         0.0620
     49 H         -42.4691    9.6979   43.1867 H         1 5FO         0.0033
     50 H         -42.9270   10.0592   41.4893 H         1 5FO         0.0033
     51 H         -45.8355    9.8094   44.4700 H         1 5FO         0.0033
     52 H         -44.1173    9.5568   44.8744 H         1 5FO         0.0033
     53 H         -43.6454   12.3192   42.1700 H         1 5FO         0.0458
     54 H         -41.9358   12.0378   42.5986 H         1 5FO         0.0458
     55 H         -44.8720   11.8066   45.5775 H         1 5FO         0.0458
     56 H         -45.3520   12.1691   43.8940 H         1 5FO         0.0458
     57 H         -46.3963   18.0434   40.9899 H         1 5FO         0.2514
@<TRIPOS>BOND
     1   11    1 1  
     2   12    2 1  
     3   28    3 1  
     4   27    4 2  
     5   30    5 2  
     6   30    6 2  
     7   24    7 1  
     8    8    9 ar 
     9   21    8 ar 
    10    9   22 ar 
    11   21   10 ar 
    12   10   25 ar 
    13   13   11 1  
    14   23   12 1  
    15   20   13 1  
    16   16   14 1  
    17   14   28 1  
    18   17   15 1  
    19   15   28 1  
    20   29   16 1  
    21   29   17 1  
    22   18   23 1  
    23   26   18 2  
    24   26   19 1  
    25   19   27 am 
    26   22   20 1  
    27   30   21 1  
    28   25   22 ar 
    29   23   24 2  
    30   27   24 1  
    31   25   26 1  
    32   29   30 am 
    33    1   31 1  
    34    1   32 1  
    35    1   33 1  
    36    2   34 1  
    37    2   35 1  
    38    2   36 1  
    39    3   37 1  
    40    3   38 1  
    41    3   39 1  
    42    8   40 1  
    43    9   41 1  
    44   10   42 1  
    45   11   43 1  
    46   11   44 1  
    47   12   45 1  
    48   12   46 1  
    49   13   47 1  
    50   13   48 1  
    51   14   49 1  
    52   14   50 1  
    53   15   51 1  
    54   15   52 1  
    55   16   53 1  
    56   16   54 1  
    57   17   55 1  
    58   17   56 1  
    59   19   57 1  
@<TRIPOS>SUBSTRUCTURE
     1 5FO         1

