1inq_ligand
  -I-interpret- 

144146  0  0  0  0  0  0  0  0999 V2000
   33.7560    7.5260   -3.5500 N   0  3  0  0  0
   33.6440    8.9480   -4.0140 C   0  0  0  0  0
   32.2080    9.1390   -4.5030 C   0  0  0  0  0
   31.7300    8.3830   -5.3560 O   0  0  0  0  0
   34.6360    9.2130   -5.1480 C   0  0  0  0  0
   34.5860   10.5720   -5.5430 O   0  0  0  0  0
   31.5210   10.1330   -3.9340 N   0  0  0  0  0
   30.1190   10.4120   -4.2620 C   0  0  0  0  0
   29.8850   11.1700   -5.5650 C   0  0  0  0  0
   30.8280   11.6790   -6.1820 O   0  0  0  0  0
   29.4960   11.2060   -3.1180 C   0  0  0  0  0
   30.2140   12.4160   -2.9220 O   0  0  0  0  0
   28.6120   11.2160   -5.9730 N   0  0  0  0  0
   28.1510   11.9240   -7.1650 C   0  0  0  0  0
   27.4760   13.1850   -6.6630 C   0  0  0  0  0
   26.9280   13.2060   -5.5750 O   0  0  0  0  0
   26.9500   11.2560   -7.9170 C   0  0  0  0  0
   27.2270   11.2010   -9.4120 C   0  0  0  0  0
   26.5980    9.9540   -7.3070 C   0  0  0  0  0
   27.4870   14.2210   -7.4830 N   0  0  0  0  0
   26.8030   15.4490   -7.1330 C   0  0  0  0  0
   25.6700   15.6300   -8.1500 C   0  0  0  0  0
   25.7140   15.1070   -9.2870 O   0  0  0  0  0
   27.7180   16.6800   -7.2240 C   0  0  0  0  0
   28.8670   16.5700   -6.2190 C   0  0  0  0  0
   28.2340   16.8310   -8.6280 C   0  0  0  0  0
   24.6510   16.3580   -7.7320 N   0  0  0  0  0
   23.5590   16.6440   -8.6430 C   0  0  0  0  0
   23.9250   17.9250   -9.3880 C   0  0  0  0  0
   24.6760   18.7590   -8.8840 O   0  0  0  0  0
   23.4280   18.0480  -10.6120 N   0  0  0  0  0
   23.6340   19.2190  -11.4400 C   0  0  0  0  0
   22.2010   19.7510  -11.5860 C   0  0  0  0  0
   21.7480   20.5370  -10.7610 O   0  0  0  0  0
   24.2590   18.7950  -12.7770 C   0  0  0  0  0
   24.5270   20.0040  -13.6850 C   0  0  0  0  0
   25.5670   18.0840  -12.4820 C   0  0  0  0  0
   21.4560   19.3020  -12.5910 N   0  0  0  0  0
   20.0710   19.7660  -12.7400 C   0  0  0  0  0
   19.2220   19.3580  -11.5410 C   0  0  0  0  0
   19.4020   18.2710  -10.9810 O   0  0  0  0  0
   19.4800   19.1900  -14.0330 C   0  0  0  0  0
   20.3480   19.5430  -15.1510 C   0  0  0  0  0
   20.4110   20.7590  -15.7850 C   0  0  0  0  0
   21.4660   18.7960  -15.6140 C   0  0  0  0  0
   21.5130   20.8120  -16.5900 N   0  0  0  0  0
   22.1800   19.6220  -16.5050 C   0  0  0  0  0
   21.9450   17.5090  -15.3520 C   0  0  0  0  0
   23.3480   19.2050  -17.1370 C   0  0  0  0  0
   23.1080   17.0930  -15.9800 C   0  0  0  0  0
   23.8000   17.9380  -16.8620 C   0  0  0  0  0
   18.2930   20.2260  -11.1550 N   0  0  0  0  0
   17.4180   19.9780  -10.0220 C   0  0  0  0  0
   16.2060   19.1610  -10.4260 C   0  0  0  0  0
   15.9090   19.0070  -11.6140 O   0  0  0  0  0
   16.9350   21.3030   -9.3990 C   0  0  0  0  0
   18.0570   22.2580   -9.0680 C   0  0  0  0  0
   18.3060   23.3740   -9.8640 C   0  0  0  0  0
   18.8870   22.0370   -7.9570 C   0  0  0  0  0
   19.3400   24.2510   -9.5650 C   0  0  0  0  0
   19.9250   22.9030   -7.6580 C   0  0  0  0  0
   20.1440   24.0080   -8.4660 C   0  0  0  0  0
   21.1810   24.8590   -8.1900 O   0  0  0  0  0
   15.5310   18.6070   -9.4240 N   0  0  0  0  0
   14.3280   17.8300   -9.6700 C   0  0  0  0  0
   13.2670   18.7670  -10.2520 C   0  0  0  0  0
   13.4390   20.0030  -10.1170 O   0  0  0  0  0
   13.8190   17.2230   -8.3590 C   0  0  0  0  0
   14.7610   16.1780   -7.7530 C   0  0  0  0  0
   14.1680   15.6550   -6.4320 C   0  0  0  0  0
   14.9460   15.0390   -8.7650 C   0  0  0  0  0
   12.2750   18.2460  -10.8090 O   0  0  0  0  0
   33.0902    7.3626   -2.7948 H   0  0  0  0  0
   33.5506    6.8987   -4.3276 H   0  0  0  0  0
   34.7031    7.3531   -3.2132 H   0  0  0  0  0
   33.8756    9.6446   -3.2082 H   0  0  0  0  0
   34.3747    8.5864   -6.0008 H   0  0  0  0  0
   35.6426    8.9823   -4.7992 H   0  0  0  0  0
   35.2135   10.7207   -6.2541 H   0  0  0  0  0
   31.9895   10.7209   -3.2446 H   0  0  0  0  0
   29.6540    9.4363   -4.4028 H   0  0  0  0  0
   29.5360   10.6123   -2.2048 H   0  0  0  0  0
   28.4600   11.4386   -3.3642 H   0  0  0  0  0
   29.8162   12.9096   -2.2011 H   0  0  0  0  0
   27.9156   10.7232   -5.4139 H   0  0  0  0  0
   29.0233   12.0010   -7.8141 H   0  0  0  0  0
   26.0570   11.8706   -7.8033 H   0  0  0  0  0
   27.3665   12.2131   -9.7918 H   0  0  0  0  0
   28.1293   10.6165   -9.5918 H   0  0  0  0  0
   26.3830   10.7341   -9.9197 H   0  0  0  0  0
   27.4577    9.2859   -7.3584 H   0  0  0  0  0
   26.3166   10.1066   -6.2651 H   0  0  0  0  0
   25.7614    9.5142   -7.8499 H   0  0  0  0  0
   27.9825   14.1554   -8.3721 H   0  0  0  0  0
   26.4521   15.3727   -6.1038 H   0  0  0  0  0
   27.1430   17.5712   -6.9726 H   0  0  0  0  0
   28.4603   16.5044   -5.2098 H   0  0  0  0  0
   29.4525   15.6763   -6.4349 H   0  0  0  0  0
   29.5036   17.4512   -6.2990 H   0  0  0  0  0
   28.7993   15.9408   -8.9037 H   0  0  0  0  0
   27.3938   16.9554   -9.3111 H   0  0  0  0  0
   28.8817   17.7059   -8.6836 H   0  0  0  0  0
   24.6318   16.7161   -6.7771 H   0  0  0  0  0
   22.6236   16.7684   -8.0975 H   0  0  0  0  0
   23.4125   15.8198   -9.3410 H   0  0  0  0  0
   22.8731   17.2797  -10.9890 H   0  0  0  0  0
   24.3144   19.9701  -11.0386 H   0  0  0  0  0
   23.5641   18.1380  -13.3001 H   0  0  0  0  0
   23.5877   20.5172  -13.8912 H   0  0  0  0  0
   25.2136   20.6871  -13.1850 H   0  0  0  0  0
   24.9692   19.6628  -14.6210 H   0  0  0  0  0
   26.2362   18.7620  -11.9523 H   0  0  0  0  0
   25.3714   17.2079  -11.8637 H   0  0  0  0  0
   26.0295   17.7733  -13.4188 H   0  0  0  0  0
   21.8460   18.6360  -13.2579 H   0  0  0  0  0
   20.0696   20.8548  -12.7910 H   0  0  0  0  0
   18.4841   19.6015  -14.1969 H   0  0  0  0  0
   19.4074   18.1054  -13.9525 H   0  0  0  0  0
   19.6870   21.5648  -15.6636 H   0  0  0  0  0
   21.4146   16.8466  -14.6679 H   0  0  0  0  0
   23.8837   19.8597  -17.8244 H   0  0  0  0  0
   23.4925   16.0917  -15.7857 H   0  0  0  0  0
   24.7136   17.5814  -17.3376 H   0  0  0  0  0
   18.1904   21.0986  -11.6732 H   0  0  0  0  0
   17.9997   19.4178   -9.2899 H   0  0  0  0  0
   16.4261   21.0599   -8.4662 H   0  0  0  0  0
   16.2925   21.7936  -10.1302 H   0  0  0  0  0
   17.6789   23.5616  -10.7356 H   0  0  0  0  0
   18.7113   21.1701   -7.3201 H   0  0  0  0  0
   19.5170   25.1249  -10.1919 H   0  0  0  0  0
   20.5644   22.7176   -6.7949 H   0  0  0  0  0
   21.6401   24.5574   -7.4027 H   0  0  0  0  0
   15.8627   18.7292   -8.4672 H   0  0  0  0  0
   14.5415   17.0192  -10.3665 H   0  0  0  0  0
   14.2685   20.1615   -9.6605 H   0  0  0  0  0
   12.8762   16.7218   -8.5780 H   0  0  0  0  0
   13.7294   18.0358   -7.6383 H   0  0  0  0  0
   15.7334   16.6198   -7.5353 H   0  0  0  0  0
   14.0489   16.4846   -5.7351 H   0  0  0  0  0
   13.1969   15.1997   -6.6262 H   0  0  0  0  0
   14.8398   14.9117   -6.0027 H   0  0  0  0  0
   13.9784   14.5860   -8.9811 H   0  0  0  0  0
   15.3754   15.4375   -9.6842 H   0  0  0  0  0
   15.6151   14.2874   -8.3459 H   0  0  0  0  0
  1  2  1  0  0  0
  2  3  1  0  0  0
  2  5  1  0  0  0
  3  4  2  0  0  0
  3  7  1  0  0  0
  5  6  1  0  0  0
  7  8  1  0  0  0
  8  9  1  0  0  0
  8 11  1  0  0  0
  9 10  2  0  0  0
  9 13  1  0  0  0
 11 12  1  0  0  0
 13 14  1  0  0  0
 14 15  1  0  0  0
 14 17  1  0  0  0
 15 16  2  0  0  0
 15 20  1  0  0  0
 17 18  1  0  0  0
 17 19  1  0  0  0
 20 21  1  0  0  0
 21 22  1  0  0  0
 21 24  1  0  0  0
 22 23  2  0  0  0
 22 27  1  0  0  0
 24 25  1  0  0  0
 24 26  1  0  0  0
 27 28  1  0  0  0
 28 29  1  0  0  0
 29 30  2  0  0  0
 29 31  1  0  0  0
 31 32  1  0  0  0
 32 33  1  0  0  0
 32 35  1  0  0  0
 33 34  2  0  0  0
 33 38  1  0  0  0
 35 36  1  0  0  0
 35 37  1  0  0  0
 38 39  1  0  0  0
 39 40  1  0  0  0
 39 42  1  0  0  0
 40 41  2  0  0  0
 40 52  1  0  0  0
 42 43  1  0  0  0
 43 44  4  0  0  0
 43 45  4  0  0  0
 44 46  4  0  0  0
 45 47  4  0  0  0
 45 48  4  0  0  0
 46 47  4  0  0  0
 47 49  4  0  0  0
 48 50  4  0  0  0
 49 51  4  0  0  0
 50 51  4  0  0  0
 52 53  1  0  0  0
 53 54  1  0  0  0
 53 56  1  0  0  0
 54 55  2  0  0  0
 54 64  1  0  0  0
 56 57  1  0  0  0
 57 58  4  0  0  0
 57 59  4  0  0  0
 58 60  4  0  0  0
 59 61  4  0  0  0
 60 62  4  0  0  0
 61 62  4  0  0  0
 62 63  1  0  0  0
 64 65  1  0  0  0
 65 66  1  0  0  0
 65 68  1  0  0  0
 66 67  1  0  0  0
 66 72  2  0  0  0
 68 69  1  0  0  0
 69 70  1  0  0  0
 69 71  1  0  0  0
  1 73  1  0  0  0
  1 74  1  0  0  0
  1 75  1  0  0  0
  2 76  1  0  0  0
  5 77  1  0  0  0
  5 78  1  0  0  0
  6 79  1  0  0  0
  7 80  1  0  0  0
  8 81  1  0  0  0
 11 82  1  0  0  0
 11 83  1  0  0  0
 12 84  1  0  0  0
 13 85  1  0  0  0
 14 86  1  0  0  0
 17 87  1  0  0  0
 18 88  1  0  0  0
 18 89  1  0  0  0
 18 90  1  0  0  0
 19 91  1  0  0  0
 19 92  1  0  0  0
 19 93  1  0  0  0
 20 94  1  0  0  0
 21 95  1  0  0  0
 24 96  1  0  0  0
 25 97  1  0  0  0
 25 98  1  0  0  0
 25 99  1  0  0  0
 26100  1  0  0  0
 26101  1  0  0  0
 26102  1  0  0  0
 27103  1  0  0  0
 28104  1  0  0  0
 28105  1  0  0  0
 31106  1  0  0  0
 32107  1  0  0  0
 35108  1  0  0  0
 36109  1  0  0  0
 36110  1  0  0  0
 36111  1  0  0  0
 37112  1  0  0  0
 37113  1  0  0  0
 37114  1  0  0  0
 38115  1  0  0  0
 39116  1  0  0  0
 42117  1  0  0  0
 42118  1  0  0  0
 44119  1  0  0  0
 48120  1  0  0  0
 49121  1  0  0  0
 50122  1  0  0  0
 51123  1  0  0  0
 52124  1  0  0  0
 53125  1  0  0  0
 56126  1  0  0  0
 56127  1  0  0  0
 58128  1  0  0  0
 59129  1  0  0  0
 60130  1  0  0  0
 61131  1  0  0  0
 63132  1  0  0  0
 64133  1  0  0  0
 65134  1  0  0  0
 67135  1  0  0  0
 68136  1  0  0  0
 68137  1  0  0  0
 69138  1  0  0  0
 70139  1  0  0  0
 70140  1  0  0  0
 70141  1  0  0  0
 71142  1  0  0  0
 71143  1  0  0  0
 71144  1  0  0  0
M  END
$$$$
