### 
### Created by X-TOOL on Mon Sep 10 21:12:49 2018
### 

@<TRIPOS>MOLECULE
1inq_ligand
  144   146     1     0     0
SMALL
GAST_HUCK


@<TRIPOS>ATOM
      1 N          33.7560    7.5260   -3.5500 N.4       1 SER         0.2396
      2 CA         33.6440    8.9480   -4.0140 C.3       1 SER         0.0885
      3 C          32.2080    9.1390   -4.5030 C.2       1 SER         0.2290
      4 O          31.7300    8.3830   -5.3560 O.2       1 SER        -0.3906
      5 CB         34.6360    9.2130   -5.1480 C.3       1 SER         0.1041
      6 OG         34.5860   10.5720   -5.5430 O.3       1 SER        -0.3870
      7 N          31.5210   10.1330   -3.9340 N.am      1 SER        -0.2588
      8 CA         30.1190   10.4120   -4.2620 C.3       1 SER         0.1540
      9 C          29.8850   11.1700   -5.5650 C.2       1 SER         0.2062
     10 O          30.8280   11.6790   -6.1820 O.2       1 SER        -0.3943
     11 CB         29.4960   11.2060   -3.1180 C.3       1 SER         0.0843
     12 OG         30.2140   12.4160   -2.9220 O.3       1 SER        -0.3903
     13 N          28.6120   11.2160   -5.9730 N.am      1 VAL        -0.2634
     14 CA         28.1510   11.9240   -7.1650 C.3       1 VAL         0.1333
     15 C          27.4760   13.1850   -6.6630 C.2       1 VAL         0.2042
     16 O          26.9280   13.2060   -5.5750 O.2       1 VAL        -0.3944
     17 CB         26.9500   11.2560   -7.9170 C.3       1 VAL        -0.0063
     18 CG1        27.2270   11.2010   -9.4120 C.3       1 VAL        -0.0584
     19 CG2        26.5980    9.9540   -7.3070 C.3       1 VAL        -0.0584
     20 N          27.4870   14.2210   -7.4830 N.am      1 VAL        -0.2635
     21 CA         26.8030   15.4490   -7.1330 C.3       1 VAL         0.1332
     22 C          25.6700   15.6300   -8.1500 C.2       1 VAL         0.2039
     23 O          25.7140   15.1070   -9.2870 O.2       1 VAL        -0.3944
     24 CB         27.7180   16.6800   -7.2240 C.3       1 VAL        -0.0063
     25 CG1        28.8670   16.5700   -6.2190 C.3       1 VAL        -0.0584
     26 CG2        28.2340   16.8310   -8.6280 C.3       1 VAL        -0.0584
     27 N          24.6510   16.3580   -7.7320 N.am      1 GLY        -0.2664
     28 CA         23.5590   16.6440   -8.6430 C.3       1 GLY         0.1201
     29 C          23.9250   17.9250   -9.3880 C.2       1 GLY         0.2008
     30 O          24.6760   18.7590   -8.8840 O.2       1 GLY        -0.3947
     31 N          23.4280   18.0480  -10.6120 N.am      1 VAL        -0.2637
     32 CA         23.6340   19.2190  -11.4400 C.3       1 VAL         0.1332
     33 C          22.2010   19.7510  -11.5860 C.2       1 VAL         0.2042
     34 O          21.7480   20.5370  -10.7610 O.2       1 VAL        -0.3944
     35 CB         24.2590   18.7950  -12.7770 C.3       1 VAL        -0.0063
     36 CG1        24.5270   20.0040  -13.6850 C.3       1 VAL        -0.0584
     37 CG2        25.5670   18.0840  -12.4820 C.3       1 VAL        -0.0584
     38 N          21.4560   19.3020  -12.5910 N.am      1 TRP        -0.2627
     39 CA         20.0710   19.7660  -12.7400 C.3       1 TRP         0.1352
     40 C          19.2220   19.3580  -11.5410 C.2       1 TRP         0.2053
     41 O          19.4020   18.2710  -10.9810 O.2       1 TRP        -0.3942
     42 CB         19.4800   19.1900  -14.0330 C.3       1 TRP         0.0042
     43 CG         20.3480   19.5430  -15.1510 C.2       1 TRP        -0.0418
     44 CD1        20.4110   20.7590  -15.7850 C.2       1 TRP         0.0167
     45 CD2        21.4660   18.7960  -15.6140 C.ar      1 TRP        -0.0214
     46 NE1        21.5130   20.8120  -16.5900 N.pl3     1 TRP        -0.2890
     47 CE2        22.1800   19.6220  -16.5050 C.ar      1 TRP         0.0603
     48 CE3        21.9450   17.5090  -15.3520 C.ar      1 TRP        -0.0747
     49 CZ2        23.3480   19.2050  -17.1370 C.ar      1 TRP        -0.0443
     50 CZ3        23.1080   17.0930  -15.9800 C.ar      1 TRP        -0.0792
     51 CH2        23.8000   17.9380  -16.8620 C.ar      1 TRP        -0.0768
     52 N          18.2930   20.2260  -11.1550 N.am      1 TYR        -0.2620
     53 CA         17.4180   19.9780  -10.0220 C.3       1 TYR         0.1390
     54 C          16.2060   19.1610  -10.4260 C.2       1 TYR         0.2052
     55 O          15.9090   19.0070  -11.6140 O.2       1 TYR        -0.3943
     56 CB         16.9350   21.3030   -9.3990 C.3       1 TYR         0.0163
     57 CG         18.0570   22.2580   -9.0680 C.ar      1 TYR        -0.0493
     58 CD1        18.3060   23.3740   -9.8640 C.ar      1 TYR        -0.0685
     59 CD2        18.8870   22.0370   -7.9570 C.ar      1 TYR        -0.0685
     60 CE1        19.3400   24.2510   -9.5650 C.ar      1 TYR        -0.0398
     61 CE2        19.9250   22.9030   -7.6580 C.ar      1 TYR        -0.0398
     62 CZ         20.1440   24.0080   -8.4660 C.ar      1 TYR         0.0805
     63 OH         21.1810   24.8590   -8.1900 O.3       1 TYR        -0.3376
     64 N          15.5310   18.6070   -9.4240 N.am      1 LEU        -0.2693
     65 CA         14.3280   17.8300   -9.6700 C.3       1 LEU         0.0946
     66 C          13.2670   18.7670  -10.2520 C.2       1 LEU         0.0601
     67 O          13.4390   20.0030  -10.1170 O.co2     1 LEU        -0.5666
     68 CB         13.8190   17.2230   -8.3590 C.3       1 LEU        -0.0156
     69 CG         14.7610   16.1780   -7.7530 C.3       1 LEU        -0.0431
     70 CD1        14.1680   15.6550   -6.4320 C.3       1 LEU        -0.0625
     71 CD2        14.9460   15.0390   -8.7650 C.3       1 LEU        -0.0625
     72 OXT        12.2750   18.2460  -10.8090 O.co2     1 LEU        -0.5666
     73 H1         34.6917    7.3540   -3.2170 H         1 SER         0.2016
     74 H2         33.5532    6.9051   -4.3177 H         1 SER         0.2016
     75 H3         33.0985    7.3633   -2.8035 H         1 SER         0.2016
     76 H4         33.8523    9.6348   -3.1804 H         1 SER         0.1122
     77 H5         34.3811    8.5764   -6.0081 H         1 SER         0.0640
     78 H6         35.6527    8.9735   -4.8030 H         1 SER         0.0640
     79 H7         34.8081   11.1242   -4.8025 H         1 SER         0.2099
     80 H8         31.9804   10.7094   -3.2581 H         1 SER         0.1885
     81 H9         29.6017    9.4449   -4.3456 H         1 SER         0.0823
     82 H10        29.5323   10.6070   -2.1961 H         1 SER         0.0606
     83 H11        28.4492   11.4387   -3.3632 H         1 SER         0.0606
     84 H12        31.1179   12.2156   -2.7092 H         1 SER         0.2097
     85 H13        27.9293   10.7329   -5.4248 H         1 VAL         0.1883
     86 H14        28.9939   12.1182   -7.8446 H         1 VAL         0.0802
     87 H15        26.0755   11.9097   -7.7830 H         1 VAL         0.0343
     88 H16        26.3758   10.7300   -9.9255 H         1 VAL         0.0234
     89 H17        28.1374   10.6113   -9.5948 H         1 VAL         0.0234
     90 H18        27.3680   12.2219   -9.7966 H         1 VAL         0.0234
     91 H19        26.4161   10.0906   -6.2308 H         1 VAL         0.0234
     92 H20        27.4267    9.2453   -7.4517 H         1 VAL         0.0234
     93 H21        25.6896    9.5587   -7.7851 H         1 VAL         0.0234
     94 H22        27.9728   14.1566   -8.3547 H         1 VAL         0.1883
     95 H23        26.3983   15.3688   -6.1133 H         1 VAL         0.0802
     96 H24        27.1269   17.5735   -6.9744 H         1 VAL         0.0343
     97 H25        29.5102   17.4588   -6.2988 H         1 VAL         0.0234
     98 H26        29.4588   15.6685   -6.4358 H         1 VAL         0.0234
     99 H27        28.4579   16.5038   -5.2001 H         1 VAL         0.0234
    100 H28        27.3857   16.9073   -9.3242 H         1 VAL         0.0234
    101 H29        28.8457   15.9552   -8.8900 H         1 VAL         0.0234
    102 H30        28.8480   17.7411   -8.6971 H         1 VAL         0.0234
    103 H31        24.6322   16.7091   -6.7958 H         1 GLY         0.1881
    104 H32        22.6250   16.7879   -8.0801 H         1 GLY         0.0763
    105 H33        23.4340   15.8151   -9.3553 H         1 GLY         0.0763
    106 H34        22.8839   17.2947  -10.9816 H         1 VAL         0.1883
    107 H35        24.2825   19.9592  -10.9486 H         1 VAL         0.0802
    108 H36        23.5737   18.1068  -13.2935 H         1 VAL         0.0343
    109 H37        24.9733   19.6610  -14.6301 H         1 VAL         0.0234
    110 H38        25.2199   20.6942  -13.1816 H         1 VAL         0.0234
    111 H39        23.5798   20.5228  -13.8939 H         1 VAL         0.0234
    112 H40        25.3750   17.2180  -11.8316 H         1 VAL         0.0234
    113 H41        26.2551   18.7771  -11.9760 H         1 VAL         0.0234
    114 H42        26.0189   17.7415  -13.4246 H         1 VAL         0.0234
    115 H43        21.8383   18.6490  -13.2448 H         1 TRP         0.1884
    116 H44        20.0726   20.8639  -12.8085 H         1 TRP         0.0815
    117 H45        18.4766   19.6093  -14.1986 H         1 TRP         0.0397
    118 H46        19.4110   18.0952  -13.9512 H         1 TRP         0.0397
    119 H47        19.6877   21.5640  -15.6637 H         1 TRP         0.0795
    120 H48        21.7953   21.6172  -17.1669 H         1 TRP         0.2216
    121 H49        21.4175   16.8502  -14.6717 H         1 TRP         0.0540
    122 H50        23.8807   19.8561  -17.8206 H         1 TRP         0.0541
    123 H51        23.4903   16.0972  -15.7868 H         1 TRP         0.0510
    124 H52        24.7086   17.5834  -17.3350 H         1 TRP         0.0530
    125 H53        18.1924   21.0814  -11.6630 H         1 TYR         0.1885
    126 H54        17.9853   19.4165   -9.2651 H         1 TYR         0.0821
    127 H55        16.3888   21.0732   -8.4723 H         1 TYR         0.0453
    128 H56        16.2572   21.7959  -10.1115 H         1 TYR         0.0453
    129 H57        17.6824   23.5606  -10.7308 H         1 TYR         0.0530
    130 H58        18.7122   21.1748   -7.3236 H         1 TYR         0.0530
    131 H59        19.5160   25.1201  -10.1885 H         1 TYR         0.0525
    132 H60        20.5609   22.7186   -6.7997 H         1 TYR         0.0525
    133 H61        21.0652   25.2263   -7.3215 H         1 TYR         0.2458
    134 H62        15.8562   18.7268   -8.4860 H         1 LEU         0.1875
    135 H63        14.5462   17.0238  -10.3858 H         1 LEU         0.0726
    136 H64        12.8483   16.7433   -8.5531 H         1 LEU         0.0308
    137 H65        13.6872   18.0354   -7.6291 H         1 LEU         0.0308
    138 H66        15.7378   16.6404   -7.5480 H         1 LEU         0.0297
    139 H67        14.8452   14.9048   -5.9978 H         1 LEU         0.0232
    140 H68        13.1879   15.1952   -6.6267 H         1 LEU         0.0232
    141 H69        14.0474   16.4913   -5.7277 H         1 LEU         0.0232
    142 H70        15.3701   15.4416   -9.6967 H         1 LEU         0.0232
    143 H71        13.9716   14.5745   -8.9765 H         1 LEU         0.0232
    144 H72        15.6289   14.2846   -8.3473 H         1 LEU         0.0232
@<TRIPOS>BOND
     1    1    2 1  
     2    2    3 1  
     3    2    5 1  
     4    3    4 2  
     5    3    7 am 
     6    5    6 1  
     7    7    8 1  
     8    8    9 1  
     9    8   11 1  
    10    9   10 2  
    11    9   13 am 
    12   11   12 1  
    13   13   14 1  
    14   14   15 1  
    15   14   17 1  
    16   15   16 2  
    17   15   20 am 
    18   17   18 1  
    19   17   19 1  
    20   20   21 1  
    21   21   22 1  
    22   21   24 1  
    23   22   23 2  
    24   22   27 am 
    25   24   25 1  
    26   24   26 1  
    27   27   28 1  
    28   28   29 1  
    29   29   30 2  
    30   29   31 am 
    31   31   32 1  
    32   32   33 1  
    33   32   35 1  
    34   33   34 2  
    35   33   38 am 
    36   35   36 1  
    37   35   37 1  
    38   38   39 1  
    39   39   40 1  
    40   39   42 1  
    41   40   41 2  
    42   40   52 am 
    43   42   43 1  
    44   43   44 2  
    45   43   45 1  
    46   44   46 1  
    47   45   47 ar 
    48   45   48 ar 
    49   46   47 1  
    50   47   49 ar 
    51   48   50 ar 
    52   49   51 ar 
    53   50   51 ar 
    54   52   53 1  
    55   53   54 1  
    56   53   56 1  
    57   54   55 2  
    58   54   64 am 
    59   56   57 1  
    60   57   58 ar 
    61   57   59 ar 
    62   58   60 ar 
    63   59   61 ar 
    64   60   62 ar 
    65   61   62 ar 
    66   62   63 1  
    67   64   65 1  
    68   65   66 1  
    69   65   68 1  
    70   66   67 ar 
    71   66   72 ar 
    72   68   69 1  
    73   69   70 1  
    74   69   71 1  
    75    1   73 1  
    76    1   74 1  
    77    1   75 1  
    78    2   76 1  
    79    5   77 1  
    80    5   78 1  
    81    6   79 1  
    82    7   80 1  
    83    8   81 1  
    84   11   82 1  
    85   11   83 1  
    86   12   84 1  
    87   13   85 1  
    88   14   86 1  
    89   17   87 1  
    90   18   88 1  
    91   18   89 1  
    92   18   90 1  
    93   19   91 1  
    94   19   92 1  
    95   19   93 1  
    96   20   94 1  
    97   21   95 1  
    98   24   96 1  
    99   25   97 1  
   100   25   98 1  
   101   25   99 1  
   102   26  100 1  
   103   26  101 1  
   104   26  102 1  
   105   27  103 1  
   106   28  104 1  
   107   28  105 1  
   108   31  106 1  
   109   32  107 1  
   110   35  108 1  
   111   36  109 1  
   112   36  110 1  
   113   36  111 1  
   114   37  112 1  
   115   37  113 1  
   116   37  114 1  
   117   38  115 1  
   118   39  116 1  
   119   42  117 1  
   120   42  118 1  
   121   44  119 1  
   122   46  120 1  
   123   48  121 1  
   124   49  122 1  
   125   50  123 1  
   126   51  124 1  
   127   52  125 1  
   128   53  126 1  
   129   56  127 1  
   130   56  128 1  
   131   58  129 1  
   132   59  130 1  
   133   60  131 1  
   134   61  132 1  
   135   63  133 1  
   136   64  134 1  
   137   65  135 1  
   138   68  136 1  
   139   68  137 1  
   140   69  138 1  
   141   70  139 1  
   142   70  140 1  
   143   70  141 1  
   144   71  142 1  
   145   71  143 1  
   146   71  144 1  
@<TRIPOS>SUBSTRUCTURE
     1 SER         1

