4hzx_ligand
  -I-interpret- 

 47 47  0  0  0  0  0  0  0  0999 V2000
   30.8180    4.2460  -37.8990 C   0  0  0  0  0
   29.9260    3.4960  -38.2630 O   0  0  0  0  0
   32.1410    3.8620  -38.0300 O   0  0  0  0  0
   30.4790    5.5880  -37.3180 C   0  0  0  0  0
   29.0310    6.1310  -37.3600 C   0  0  0  0  0
   28.5890    6.9560  -36.1790 C   0  0  0  0  0
   29.5840    7.9800  -35.6240 C   0  0  0  0  0
   29.1640    8.9350  -34.6180 N   0  0  0  0  0
   28.6460   10.2110  -35.0130 C   0  0  0  0  0
   28.5560   10.4920  -36.1960 O   0  0  0  0  0
   28.2090   11.2000  -33.9730 C   0  0  0  0  0
   31.0930    7.6930  -35.8020 C   0  0  0  0  0
   31.5180    6.3300  -36.4270 C   0  0  0  0  0
   31.9990    8.7520  -35.7940 O   0  0  0  0  0
   32.5840    9.1580  -34.5870 C   0  0  0  0  0
   33.3690    8.0760  -33.9020 C   0  0  0  0  0
   33.3160   10.4660  -34.6810 C   0  0  0  0  0
   32.6060   11.6150  -35.3340 C   0  0  0  0  0
   34.5270    7.4860  -34.6370 C   0  0  0  0  0
   27.1760    7.1550  -35.9550 N   0  3  0  0  0
   32.7101    4.5607  -37.6990 H   0  0  0  0  0
   30.7430    5.9975  -38.2930 H   0  0  0  0  0
   28.3807    5.2565  -37.3781 H   0  0  0  0  0
   28.9808    6.7914  -38.2257 H   0  0  0  0  0
   28.6924    6.1999  -35.4007 H   0  0  0  0  0
   29.4485    8.7037  -36.4278 H   0  0  0  0  0
   29.2372    8.6986  -33.6285 H   0  0  0  0  0
   28.7949   12.1136  -34.0734 H   0  0  0  0  0
   27.1520   11.4276  -34.1113 H   0  0  0  0  0
   28.3636   10.7748  -32.9814 H   0  0  0  0  0
   31.2900    7.4300  -34.7627 H   0  0  0  0  0
   32.3561    6.5593  -37.0851 H   0  0  0  0  0
   31.7045    5.6670  -35.5822 H   0  0  0  0  0
   31.7426    9.3555  -33.9228 H   0  0  0  0  0
   32.6673    7.2547  -33.7564 H   0  0  0  0  0
   33.7949    8.5429  -33.0139 H   0  0  0  0  0
   34.1881   10.2688  -35.3045 H   0  0  0  0  0
   33.4911   10.7777  -33.6513 H   0  0  0  0  0
   32.3574   11.3500  -36.3617 H   0  0  0  0  0
   31.6918   11.8360  -34.7830 H   0  0  0  0  0
   33.2548   12.4909  -35.3301 H   0  0  0  0  0
   34.1759    7.0399  -35.5675 H   0  0  0  0  0
   35.2520    8.2691  -34.8589 H   0  0  0  0  0
   34.9955    6.7198  -34.0193 H   0  0  0  0  0
   26.6540    6.3913  -36.3848 H   0  0  0  0  0
   26.9911    7.1726  -34.9520 H   0  0  0  0  0
   26.8886    8.0411  -36.3705 H   0  0  0  0  0
  1  2  2  0  0  0
  1  3  1  0  0  0
  1  4  1  0  0  0
  4  5  1  0  0  0
  4 13  1  0  0  0
  5  6  1  0  0  0
  6  7  1  0  0  0
  6 20  1  0  0  0
  7  8  1  0  0  0
  7 12  1  0  0  0
  8  9  1  0  0  0
  9 10  2  0  0  0
  9 11  1  0  0  0
 12 13  1  0  0  0
 12 14  1  0  0  0
 14 15  1  0  0  0
 15 16  1  0  0  0
 15 17  1  0  0  0
 16 19  1  0  0  0
 17 18  1  0  0  0
  3 21  1  0  0  0
  4 22  1  0  0  0
  5 23  1  0  0  0
  5 24  1  0  0  0
  6 25  1  0  0  0
  7 26  1  0  0  0
  8 27  1  0  0  0
 11 28  1  0  0  0
 11 29  1  0  0  0
 11 30  1  0  0  0
 12 31  1  0  0  0
 13 32  1  0  0  0
 13 33  1  0  0  0
 15 34  1  0  0  0
 16 35  1  0  0  0
 16 36  1  0  0  0
 17 37  1  0  0  0
 17 38  1  0  0  0
 18 39  1  0  0  0
 18 40  1  0  0  0
 18 41  1  0  0  0
 19 42  1  0  0  0
 19 43  1  0  0  0
 19 44  1  0  0  0
 20 45  1  0  0  0
 20 46  1  0  0  0
 20 47  1  0  0  0
M  END
$$$$
