2iv9_ligand
  -I-interpret- 

125127  0  0  0  0  0  0  0  0999 V2000
  -21.2660    1.6620    0.8460 N   0  3  0  0  0
  -19.8780    2.0000    1.2750 C   0  0  0  0  0
  -18.9060    2.0620    0.0840 C   0  0  0  0  0
  -19.1850    1.5090   -0.9970 O   0  0  0  0  0
  -19.3880    0.9740    2.3130 C   0  0  0  0  0
  -19.2700   -0.3240    1.7500 O   0  0  0  0  0
  -17.7720    2.7310    0.2880 N   0  0  0  0  0
  -16.6650    2.6940   -0.6740 C   0  0  0  0  0
  -15.3020    2.5420    0.0070 C   0  0  0  0  0
  -14.8890    3.3970    0.7970 O   0  0  0  0  0
  -16.6500    3.9200   -1.5940 C   0  0  0  0  0
  -15.6930    3.7640   -2.7510 C   0  0  0  0  0
  -16.1420    3.2650   -3.9840 C   0  0  0  0  0
  -14.3340    4.0680   -2.5920 C   0  0  0  0  0
  -15.2450    3.0860   -5.0590 C   0  0  0  0  0
  -13.4180    3.8900   -3.6630 C   0  0  0  0  0
  -13.8740    3.4060   -4.8870 C   0  0  0  0  0
  -14.6150    1.4480   -0.3230 N   0  0  0  0  0
  -13.3740    1.0630    0.3220 C   0  0  0  0  0
  -13.4490   -0.0790    1.3270 C   0  0  0  0  0
  -12.4460   -0.4020    1.9580 O   0  0  0  0  0
  -14.6330   -0.6840    1.4850 N   0  0  0  0  0
  -14.8630   -1.7300    2.5030 C   0  0  0  0  0
  -14.9290   -3.1180    1.8480 C   0  0  0  0  0
  -15.5670   -4.0560    2.3580 O   0  0  0  0  0
  -16.1530   -1.4190    3.3000 C   0  0  0  0  0
  -16.1390   -1.9660    4.7350 C   0  0  0  0  0
  -15.0590   -2.2830    5.2770 O   0  0  0  0  0
  -17.2440   -2.0730    5.3320 O   0  0  0  0  0
  -14.2590   -3.2500    0.7120 N   0  0  0  0  0
  -14.0310   -4.5570    0.0890 C   0  0  0  0  0
  -15.3190   -5.1860   -0.4140 C   0  0  0  0  0
  -16.1510   -4.5110   -1.0510 O   0  0  0  0  0
  -15.4800   -6.4750   -0.1140 N   0  0  0  0  0
  -16.6880   -7.2300   -0.4520 C   0  0  0  0  0
  -17.9710   -6.5610    0.0500 C   0  0  0  0  0
  -19.0220   -6.7270   -0.5340 O   0  0  0  0  0
  -16.5940   -8.6700    0.0880 C   0  0  0  0  0
  -15.5400   -9.5370   -0.6010 C   0  0  0  0  0
  -14.5080  -10.1020    0.1300 C   0  0  0  0  0
  -15.6060   -9.8080   -1.9700 C   0  0  0  0  0
  -13.5440  -10.9070   -0.4860 C   0  0  0  0  0
  -14.6530  -10.6100   -2.5980 C   0  0  0  0  0
  -13.6190  -11.1630   -1.8550 C   0  0  0  0  0
  -17.8840   -5.7960    1.1290 N   0  0  0  0  0
  -19.0490   -5.1250    1.6960 C   0  0  0  0  0
  -19.5350   -3.9310    0.8490 C   0  0  0  0  0
  -20.6450   -3.4300    1.0490 O   0  0  0  0  0
  -18.7680   -4.7100    3.1280 C   0  0  0  0  0
  -18.7100   -3.4860   -0.1020 N   0  0  0  0  0
  -19.1100   -2.4630   -1.0700 C   0  0  0  0  0
  -20.1780   -2.9590   -2.0520 C   0  0  0  0  0
  -20.8670   -2.1530   -2.6730 O   0  0  0  0  0
  -17.9020   -2.0140   -1.9130 C   0  0  0  0  0
  -16.9210   -1.1310   -1.1470 C   0  0  0  0  0
  -17.1020   -0.8960    0.0650 O   0  0  0  0  0
  -15.9440   -0.6640   -1.7770 O   0  0  0  0  0
  -20.2780   -4.2730   -2.2210 N   0  0  0  0  0
  -21.0880   -4.8770   -3.2900 C   0  0  0  0  0
  -22.2430   -5.7490   -2.7760 C   0  0  0  0  0
  -22.0660   -6.5300   -1.8370 O   0  0  0  0  0
  -20.1990   -5.7070   -4.2230 C   0  0  0  0  0
  -19.2740   -4.8830   -5.0710 C   0  0  0  0  0
  -18.0080   -4.5310   -4.5960 C   0  0  0  0  0
  -19.6750   -4.4420   -6.3320 C   0  0  0  0  0
  -17.1370   -3.7440   -5.3900 C   0  0  0  0  0
  -18.8360   -3.6590   -7.1230 C   0  0  0  0  0
  -17.5620   -3.3020   -6.6440 C   0  0  0  0  0
  -23.4413   -5.6619   -3.3463 O   0  0  0  0  0
  -21.8753    1.6314    1.6634 H   0  0  0  0  0
  -21.6023    2.3727    0.1962 H   0  0  0  0  0
  -21.2662    0.7516    0.3861 H   0  0  0  0  0
  -19.9007    2.9921    1.7258 H   0  0  0  0  0
  -20.1139    0.9323    3.1250 H   0  0  0  0  0
  -18.4058    1.2858    2.6681 H   0  0  0  0  0
  -18.9633   -0.9366    2.4225 H   0  0  0  0  0
  -17.6705    3.2853    1.1382 H   0  0  0  0  0
  -16.8423    1.8085   -1.2844 H   0  0  0  0  0
  -16.3275    4.7784   -1.0047 H   0  0  0  0  0
  -17.6528    4.0461   -2.0021 H   0  0  0  0  0
  -17.1947    3.0131   -4.1126 H   0  0  0  0  0
  -13.9755    4.4458   -1.6345 H   0  0  0  0  0
  -15.6036    2.7044   -6.0150 H   0  0  0  0  0
  -12.3636    4.1309   -3.5277 H   0  0  0  0  0
  -13.1762    3.2730   -5.7137 H   0  0  0  0  0
  -14.9802    0.8521   -1.0659 H   0  0  0  0  0
  -13.0454    1.9365    0.8851 H   0  0  0  0  0
  -12.7164    0.7174   -0.4757 H   0  0  0  0  0
  -15.4068   -0.4121    0.8786 H   0  0  0  0  0
  -14.0256   -1.7361    3.2007 H   0  0  0  0  0
  -16.9820   -1.8961    2.7774 H   0  0  0  0  0
  -16.2423   -0.3346    3.3654 H   0  0  0  0  0
  -17.9500   -1.7808    4.7508 H   0  0  0  0  0
  -13.8902   -2.4151    0.2567 H   0  0  0  0  0
  -13.6007   -5.2199    0.8397 H   0  0  0  0  0
  -13.3676   -4.4148   -0.7641 H   0  0  0  0  0
  -14.7258   -6.9581    0.3741 H   0  0  0  0  0
  -16.7459   -7.2514   -1.5402 H   0  0  0  0  0
  -17.5607   -9.1413   -0.0893 H   0  0  0  0  0
  -16.3122   -8.5993    1.1386 H   0  0  0  0  0
  -14.4461   -9.9164    1.2023 H   0  0  0  0  0
  -16.4189   -9.3840   -2.5595 H   0  0  0  0  0
  -12.7336  -11.3345    0.1044 H   0  0  0  0  0
  -14.7200  -10.8019   -3.6689 H   0  0  0  0  0
  -12.8714  -11.7925   -2.3378 H   0  0  0  0  0
  -16.9756   -5.6727    1.5762 H   0  0  0  0  0
  -19.8676   -5.8446    1.6885 H   0  0  0  0  0
  -18.5396   -5.5942    3.7230 H   0  0  0  0  0
  -17.9179   -4.0281    3.1471 H   0  0  0  0  0
  -19.6453   -4.2106    3.5390 H   0  0  0  0  0
  -17.7676   -3.8725   -0.1560 H   0  0  0  0  0
  -19.5156   -1.6423   -0.4784 H   0  0  0  0  0
  -18.2849   -1.4296   -2.7496 H   0  0  0  0  0
  -17.3647   -2.9113   -2.2202 H   0  0  0  0  0
  -15.9832   -0.9582   -2.6900 H   0  0  0  0  0
  -19.7724   -4.8881   -1.5834 H   0  0  0  0  0
  -21.5392   -4.0443   -3.8296 H   0  0  0  0  0
  -20.8576   -6.2539   -4.8977 H   0  0  0  0  0
  -19.5799   -6.3486   -3.5960 H   0  0  0  0  0
  -17.6883   -4.8638   -3.6085 H   0  0  0  0  0
  -20.6621   -4.7145   -6.7055 H   0  0  0  0  0
  -16.1431   -3.4859   -5.0244 H   0  0  0  0  0
  -19.1649   -3.3251   -8.1071 H   0  0  0  0  0
  -16.9062   -2.6796   -7.2528 H   0  0  0  0  0
  -23.4111   -5.0146   -4.0546 H   0  0  0  0  0
  2  1  1  0  0  0
  2  5  1  0  0  0
  3  2  1  0  0  0
  3  4  2  0  0  0
  5  6  1  0  0  0
  8  7  1  0  0  0
  8 11  1  0  0  0
  9  8  1  0  0  0
  9 10  2  0  0  0
 11 12  1  0  0  0
 12 13  4  0  0  0
 12 14  4  0  0  0
 14 16  4  0  0  0
 16 17  4  0  0  0
 15 17  4  0  0  0
 13 15  4  0  0  0
  7  3  1  0  0  0
 19 18  1  0  0  0
 20 19  1  0  0  0
 20 21  2  0  0  0
 18  9  1  0  0  0
 23 22  1  0  0  0
 23 26  1  0  0  0
 24 23  1  0  0  0
 24 25  2  0  0  0
 26 27  1  0  0  0
 27 28  2  0  0  0
 27 29  1  0  0  0
 22 20  1  0  0  0
 31 30  1  0  0  0
 32 31  1  0  0  0
 32 33  2  0  0  0
 30 24  1  0  0  0
 35 34  1  0  0  0
 35 38  1  0  0  0
 36 35  1  0  0  0
 36 37  2  0  0  0
 38 39  1  0  0  0
 39 40  4  0  0  0
 39 41  4  0  0  0
 41 43  4  0  0  0
 43 44  4  0  0  0
 42 44  4  0  0  0
 40 42  4  0  0  0
 34 32  1  0  0  0
 46 45  1  0  0  0
 46 49  1  0  0  0
 47 46  1  0  0  0
 47 48  2  0  0  0
 45 36  1  0  0  0
 51 50  1  0  0  0
 51 54  1  0  0  0
 52 51  1  0  0  0
 52 53  2  0  0  0
 54 55  1  0  0  0
 55 56  2  0  0  0
 55 57  1  0  0  0
 50 47  1  0  0  0
 58 59  1  0  0  0
 59 62  1  0  0  0
 59 60  1  0  0  0
 60 61  2  0  0  0
 62 63  1  0  0  0
 63 64  4  0  0  0
 63 65  4  0  0  0
 65 67  4  0  0  0
 67 68  4  0  0  0
 66 68  4  0  0  0
 64 66  4  0  0  0
 52 58  1  0  0  0
 60 69  1  0  0  0
  1 70  1  0  0  0
  1 71  1  0  0  0
  1 72  1  0  0  0
  2 73  1  0  0  0
  5 74  1  0  0  0
  5 75  1  0  0  0
  6 76  1  0  0  0
  7 77  1  0  0  0
  8 78  1  0  0  0
 11 79  1  0  0  0
 11 80  1  0  0  0
 13 81  1  0  0  0
 14 82  1  0  0  0
 15 83  1  0  0  0
 16 84  1  0  0  0
 17 85  1  0  0  0
 18 86  1  0  0  0
 19 87  1  0  0  0
 19 88  1  0  0  0
 22 89  1  0  0  0
 23 90  1  0  0  0
 26 91  1  0  0  0
 26 92  1  0  0  0
 29 93  1  0  0  0
 30 94  1  0  0  0
 31 95  1  0  0  0
 31 96  1  0  0  0
 34 97  1  0  0  0
 35 98  1  0  0  0
 38 99  1  0  0  0
 38100  1  0  0  0
 40101  1  0  0  0
 41102  1  0  0  0
 42103  1  0  0  0
 43104  1  0  0  0
 44105  1  0  0  0
 45106  1  0  0  0
 46107  1  0  0  0
 49108  1  0  0  0
 49109  1  0  0  0
 49110  1  0  0  0
 50111  1  0  0  0
 51112  1  0  0  0
 54113  1  0  0  0
 54114  1  0  0  0
 57115  1  0  0  0
 58116  1  0  0  0
 59117  1  0  0  0
 62118  1  0  0  0
 62119  1  0  0  0
 64120  1  0  0  0
 65121  1  0  0  0
 66122  1  0  0  0
 67123  1  0  0  0
 68124  1  0  0  0
 69125  1  0  0  0
M  END
$$$$
