### 
### Created by X-TOOL on Mon Sep 10 21:12:56 2018
### 

@<TRIPOS>MOLECULE
2iv9_ligand
  123   125     1     0     0
SMALL
GAST_HUCK


@<TRIPOS>ATOM
      1 N         -21.2660    1.6620    0.8460 N.4       1 SER         0.2396
      2 CA        -19.8780    2.0000    1.2750 C.3       1 SER         0.0885
      3 C         -18.9060    2.0620    0.0840 C.2       1 SER         0.2291
      4 O         -19.1850    1.5090   -0.9970 O.2       1 SER        -0.3906
      5 CB        -19.3880    0.9740    2.3130 C.3       1 SER         0.1041
      6 OG        -19.2700   -0.3240    1.7500 O.3       1 SER        -0.3870
      7 N         -17.7720    2.7310    0.2880 N.am      1 PHE        -0.2592
      8 CA        -16.6650    2.6940   -0.6740 C.3       1 PHE         0.1406
      9 C         -15.3020    2.5420    0.0070 C.2       1 PHE         0.2058
     10 O         -14.8890    3.3970    0.7970 O.2       1 PHE        -0.3942
     11 CB        -16.6500    3.9200   -1.5940 C.3       1 PHE         0.0214
     12 CG        -15.6930    3.7640   -2.7510 C.ar      1 PHE        -0.0386
     13 CD1       -16.1420    3.2650   -3.9840 C.ar      1 PHE        -0.0601
     14 CD2       -14.3340    4.0680   -2.5920 C.ar      1 PHE        -0.0601
     15 CE1       -15.2450    3.0860   -5.0590 C.ar      1 PHE        -0.0686
     16 CE2       -13.4180    3.8900   -3.6630 C.ar      1 PHE        -0.0686
     17 CZ        -13.8740    3.4060   -4.8870 C.ar      1 PHE        -0.0687
     18 N         -14.6150    1.4480   -0.3230 N.am      1 GLY        -0.2663
     19 CA        -13.3740    1.0630    0.3220 C.3       1 GLY         0.1201
     20 C         -13.4490   -0.0790    1.3270 C.2       1 GLY         0.2008
     21 O         -12.4460   -0.4020    1.9580 O.2       1 GLY        -0.3947
     22 N         -14.6330   -0.6840    1.4850 N.am      1 ASP        -0.2624
     23 CA        -14.8630   -1.7300    2.5030 C.3       1 ASP         0.1423
     24 C         -14.9290   -3.1180    1.8480 C.2       1 ASP         0.2054
     25 O         -15.5670   -4.0560    2.3580 O.2       1 ASP        -0.3943
     26 CB        -16.1530   -1.4190    3.3000 C.3       1 ASP         0.0406
     27 CG        -16.1390   -1.9660    4.7350 C.2       1 ASP         0.0393
     28 OD1       -15.0590   -2.2830    5.2770 O.co2     1 ASP        -0.5688
     29 OD2       -17.2440   -2.0730    5.3320 O.co2     1 ASP        -0.5688
     30 N         -14.2590   -3.2500    0.7120 N.am      1 GLY        -0.2663
     31 CA        -14.0310   -4.5570    0.0890 C.3       1 GLY         0.1201
     32 C         -15.3190   -5.1860   -0.4140 C.2       1 GLY         0.2009
     33 O         -16.1510   -4.5110   -1.0510 O.2       1 GLY        -0.3947
     34 N         -15.4800   -6.4750   -0.1140 N.am      1 PHE        -0.2622
     35 CA        -16.6880   -7.2300   -0.4520 C.3       1 PHE         0.1404
     36 C         -17.9710   -6.5610    0.0500 C.2       1 PHE         0.2059
     37 O         -19.0220   -6.7270   -0.5340 O.2       1 PHE        -0.3942
     38 CB        -16.5940   -8.6700    0.0880 C.3       1 PHE         0.0214
     39 CG        -15.5400   -9.5370   -0.6010 C.ar      1 PHE        -0.0386
     40 CD1       -14.5080  -10.1020    0.1300 C.ar      1 PHE        -0.0601
     41 CD2       -15.6060   -9.8080   -1.9700 C.ar      1 PHE        -0.0601
     42 CE1       -13.5440  -10.9070   -0.4860 C.ar      1 PHE        -0.0686
     43 CE2       -14.6530  -10.6100   -2.5980 C.ar      1 PHE        -0.0686
     44 CZ        -13.6190  -11.1630   -1.8550 C.ar      1 PHE        -0.0687
     45 N         -17.8840   -5.7960    1.1290 N.am      1 ALA        -0.2639
     46 CA        -19.0490   -5.1250    1.6960 C.3       1 ALA         0.1282
     47 C         -19.5350   -3.9310    0.8490 C.2       1 ALA         0.2037
     48 O         -20.6450   -3.4300    1.0490 O.2       1 ALA        -0.3944
     49 CB        -18.7680   -4.7100    3.1280 C.3       1 ALA        -0.0244
     50 N         -18.7100   -3.4860   -0.1020 N.am      1 ASP        -0.2622
     51 CA        -19.1100   -2.4630   -1.0700 C.3       1 ASP         0.1423
     52 C         -20.1780   -2.9590   -2.0520 C.2       1 ASP         0.2058
     53 O         -20.8670   -2.1530   -2.6730 O.2       1 ASP        -0.3942
     54 CB        -17.9020   -2.0140   -1.9130 C.3       1 ASP         0.0406
     55 CG        -16.9210   -1.1310   -1.1470 C.2       1 ASP         0.0393
     56 OD1       -17.1020   -0.8960    0.0650 O.co2     1 ASP        -0.5688
     57 OD2       -15.9440   -0.6640   -1.7770 O.co2     1 ASP        -0.5688
     58 N         -20.2780   -4.2730   -2.2210 N.am      1 PHE        -0.2605
     59 CA        -21.0880   -4.8770   -3.2900 C.3       1 PHE         0.1515
     60 C         -22.2430   -5.7490   -2.7760 C.2       1 PHE         0.2591
     61 O         -22.0660   -6.5300   -1.8370 O.2       1 PHE        -0.3678
     62 CB        -20.1990   -5.7070   -4.2230 C.3       1 PHE         0.0228
     63 CG        -19.2740   -4.8830   -5.0710 C.ar      1 PHE        -0.0384
     64 CD1       -18.0080   -4.5310   -4.5960 C.ar      1 PHE        -0.0601
     65 CD2       -19.6750   -4.4420   -6.3320 C.ar      1 PHE        -0.0601
     66 CE1       -17.1370   -3.7440   -5.3900 C.ar      1 PHE        -0.0686
     67 CE2       -18.8360   -3.6590   -7.1230 C.ar      1 PHE        -0.0686
     68 CZ        -17.5620   -3.3020   -6.6440 C.ar      1 PHE        -0.0687
     69 O1        -23.4413   -5.6619   -3.3463 O.3       1 PHE        -0.2908
     70 H1        -21.8691    1.6315    1.6531 H         1 SER         0.2016
     71 H2        -21.2675    0.7624    0.3913 H         1 SER         0.2016
     72 H3        -21.5995    2.3637    0.2038 H         1 SER         0.2016
     73 H4        -19.8986    2.9923    1.7493 H         1 SER         0.1122
     74 H5        -20.1059    0.9379    3.1456 H         1 SER         0.0640
     75 H6        -18.4043    1.2900    2.6904 H         1 SER         0.0640
     76 H7        -18.6473   -0.3015    1.0329 H         1 SER         0.2099
     77 H8        -17.6725    3.2744    1.1215 H         1 PHE         0.1886
     78 H9        -16.8190    1.8074   -1.3066 H         1 PHE         0.0823
     79 H10       -16.3505    4.7993   -1.0049 H         1 PHE         0.0474
     80 H11       -17.6634    4.0738   -1.9930 H         1 PHE         0.0474
     81 H12       -17.1889    3.0145   -4.1118 H         1 PHE         0.0557
     82 H13       -13.9775    4.4437   -1.6397 H         1 PHE         0.0557
     83 H14       -15.6016    2.7065   -6.0097 H         1 PHE         0.0599
     84 H15       -12.3694    4.1296   -3.5285 H         1 PHE         0.0599
     85 H16       -13.1801    3.2737   -5.7092 H         1 PHE         0.0559
     86 H17       -14.9730    0.8638   -1.0514 H         1 GLY         0.1881
     87 H18       -12.9852    1.9462    0.8500 H         1 GLY         0.0763
     88 H19       -12.6668    0.7665   -0.4667 H         1 GLY         0.0763
     89 H20       -15.3916   -0.4174    0.8905 H         1 ASP         0.1884
     90 H21       -14.0156   -1.7234    3.2043 H         1 ASP         0.0819
     91 H22       -17.0063   -1.8639    2.7671 H         1 ASP         0.0478
     92 H23       -16.2782   -0.3271    3.3458 H         1 ASP         0.0478
     93 H24       -13.8974   -2.4315    0.2656 H         1 GLY         0.1881
     94 H25       -13.5754   -5.2286    0.8315 H         1 GLY         0.0763
     95 H26       -13.3439   -4.4294   -0.7605 H         1 GLY         0.0763
     96 H27       -14.7406   -6.9486    0.3646 H         1 PHE         0.1885
     97 H28       -16.7487   -7.2814   -1.5491 H         1 PHE         0.0823
     98 H29       -17.5744   -9.1512   -0.0436 H         1 PHE         0.0474
     99 H30       -16.3509   -8.6201    1.1596 H         1 PHE         0.0474
    100 H31       -14.4464   -9.9174    1.1964 H         1 PHE         0.0557
    101 H32       -16.4144   -9.3863   -2.5562 H         1 PHE         0.0557
    102 H33       -12.7380  -11.3322    0.1011 H         1 PHE         0.0599
    103 H34       -14.7197  -10.8008   -3.6630 H         1 PHE         0.0599
    104 H35       -12.8756  -11.7890   -2.3351 H         1 PHE         0.0559
    105 H36       -16.9934   -5.6751    1.5675 H         1 ALA         0.1883
    106 H37       -19.8687   -5.8582    1.7174 H         1 ALA         0.0797
    107 H38       -19.6528   -4.2058    3.5439 H         1 ALA         0.0277
    108 H39       -17.9102   -4.0217    3.1487 H         1 ALA         0.0277
    109 H40       -18.5374   -5.6015    3.7296 H         1 ALA         0.0277
    110 H41       -17.7861   -3.8650   -0.1549 H         1 ASP         0.1884
    111 H42       -19.5085   -1.6012   -0.5146 H         1 ASP         0.0819
    112 H43       -18.2734   -1.4501   -2.7813 H         1 ASP         0.0478
    113 H44       -17.3666   -2.9102   -2.2595 H         1 ASP         0.0478
    114 H45       -19.7824   -4.8760   -1.5959 H         1 PHE         0.1886
    115 H46       -21.5277   -4.0549   -3.8738 H         1 PHE         0.0840
    116 H47       -20.8483   -6.2946   -4.8886 H         1 PHE         0.0475
    117 H48       -19.5917   -6.3878   -3.6084 H         1 PHE         0.0475
    118 H49       -17.6900   -4.8620   -3.6140 H         1 PHE         0.0557
    119 H50       -20.6566   -4.7130   -6.7035 H         1 PHE         0.0557
    120 H51       -16.1486   -3.4873   -5.0264 H         1 PHE         0.0599
    121 H52       -19.1631   -3.3269   -8.1017 H         1 PHE         0.0599
    122 H53       -16.9098   -2.6830   -7.2495 H         1 PHE         0.0559
    123 H54       -23.6846   -6.5093   -3.7003 H         1 PHE         0.2540
@<TRIPOS>BOND
     1    2    1 1  
     2    2    5 1  
     3    3    2 1  
     4    3    4 2  
     5    5    6 1  
     6    8    7 1  
     7    8   11 1  
     8    9    8 1  
     9    9   10 2  
    10   11   12 1  
    11   12   13 ar 
    12   12   14 ar 
    13   14   16 ar 
    14   16   17 ar 
    15   15   17 ar 
    16   13   15 ar 
    17    7    3 am 
    18   19   18 1  
    19   20   19 1  
    20   20   21 2  
    21   18    9 am 
    22   23   22 1  
    23   23   26 1  
    24   24   23 1  
    25   24   25 2  
    26   26   27 1  
    27   27   28 ar 
    28   27   29 ar 
    29   22   20 am 
    30   31   30 1  
    31   32   31 1  
    32   32   33 2  
    33   30   24 am 
    34   35   34 1  
    35   35   38 1  
    36   36   35 1  
    37   36   37 2  
    38   38   39 1  
    39   39   40 ar 
    40   39   41 ar 
    41   41   43 ar 
    42   43   44 ar 
    43   42   44 ar 
    44   40   42 ar 
    45   34   32 am 
    46   46   45 1  
    47   46   49 1  
    48   47   46 1  
    49   47   48 2  
    50   45   36 am 
    51   51   50 1  
    52   51   54 1  
    53   52   51 1  
    54   52   53 2  
    55   54   55 1  
    56   55   56 ar 
    57   55   57 ar 
    58   50   47 am 
    59   58   59 1  
    60   59   62 1  
    61   59   60 1  
    62   60   61 2  
    63   62   63 1  
    64   63   64 ar 
    65   63   65 ar 
    66   65   67 ar 
    67   67   68 ar 
    68   66   68 ar 
    69   64   66 ar 
    70   52   58 am 
    71   60   69 1  
    72    1   70 1  
    73    1   71 1  
    74    1   72 1  
    75    2   73 1  
    76    5   74 1  
    77    5   75 1  
    78    6   76 1  
    79    7   77 1  
    80    8   78 1  
    81   11   79 1  
    82   11   80 1  
    83   13   81 1  
    84   14   82 1  
    85   15   83 1  
    86   16   84 1  
    87   17   85 1  
    88   18   86 1  
    89   19   87 1  
    90   19   88 1  
    91   22   89 1  
    92   23   90 1  
    93   26   91 1  
    94   26   92 1  
    95   30   93 1  
    96   31   94 1  
    97   31   95 1  
    98   34   96 1  
    99   35   97 1  
   100   38   98 1  
   101   38   99 1  
   102   40  100 1  
   103   41  101 1  
   104   42  102 1  
   105   43  103 1  
   106   44  104 1  
   107   45  105 1  
   108   46  106 1  
   109   49  107 1  
   110   49  108 1  
   111   49  109 1  
   112   50  110 1  
   113   51  111 1  
   114   54  112 1  
   115   54  113 1  
   116   58  114 1  
   117   59  115 1  
   118   62  116 1  
   119   62  117 1  
   120   64  118 1  
   121   65  119 1  
   122   66  120 1  
   123   67  121 1  
   124   68  122 1  
   125   69  123 1  
@<TRIPOS>SUBSTRUCTURE
     1 SER         1

