### 
### Created by X-TOOL on Wed Jan  1 15:39:38 2020
### 

@<TRIPOS>MOLECULE
5xgl_ligand
  211   216     1     0     0
SMALL
GAST_HUCK


@<TRIPOS>ATOM
      1 N         -27.1120  -36.0840    9.3440 N.4       1 GLY         0.2357
      2 CA        -25.6670  -36.1720    9.2260 C.3       1 GLY         0.0545
      3 C         -24.9280  -35.2560   10.1840 C.2       1 GLY         0.2237
      4 O         -23.7230  -35.4100   10.4020 O.2       1 GLY        -0.3910
      5 N         -25.6670  -34.2910   10.7430 N.am      1 CYS        -0.2604
      6 CA        -25.0860  -33.3410   11.6900 C.3       1 CYS         0.1407
      7 C         -24.4470  -34.0540   12.8720 C.2       1 CYS         0.2048
      8 O         -23.3360  -33.7070   13.2900 O.2       1 CYS        -0.3944
      9 CB        -26.1600  -32.3670   12.1750 C.3       1 CYS         0.0443
     10 SG        -25.7300  -31.2350   13.5450 S.3       1 CYS        -0.0882
     11 N         -25.1300  -35.0620   13.4220 N.am      1 CYS        -0.2629
     12 CA        -24.6730  -35.6870   14.6570 C.3       1 CYS         0.1406
     13 C         -23.3100  -36.3650   14.5170 C.2       1 CYS         0.2048
     14 O         -22.7540  -36.7990   15.5310 O.2       1 CYS        -0.3944
     15 CB        -25.7270  -36.6570   15.1860 C.3       1 CYS         0.0443
     16 SG        -27.2540  -35.8050   15.6870 S.3       1 CYS        -0.0882
     17 N         -22.7740  -36.4930   13.2990 N.am      1 SER        -0.2615
     18 CA        -21.4130  -36.9840   13.1020 C.3       1 SER         0.1539
     19 C         -20.3620  -35.8810   13.1430 C.2       1 SER         0.2063
     20 O         -19.1740  -36.1840   13.3080 O.2       1 SER        -0.3943
     21 CB        -21.3020  -37.7240   11.7640 C.3       1 SER         0.0843
     22 OG        -20.0020  -38.2580   11.5850 O.3       1 SER        -0.3903
     23 N         -20.7650  -34.6190   13.0030 N.am      1 HIS        -0.2624
     24 CA        -19.8150  -33.5110   12.9650 C.3       1 HIS         0.1371
     25 C         -19.6470  -32.9210   14.3600 C.2       1 HIS         0.2079
     26 O         -20.6420  -32.5010   14.9640 O.2       1 HIS        -0.3940
     27 CB        -20.2920  -32.4450   11.9960 C.3       1 HIS         0.0145
     28 CG        -19.3160  -31.3300   11.7820 C.2       1 HIS        -0.0027
     29 ND1       -19.3650  -30.1510   12.4940 N.2       1 HIS        -0.3252
     30 CD2       -18.2720  -31.2120   10.9290 C.2       1 HIS         0.0291
     31 CE1       -18.3920  -29.3540   12.0880 C.2       1 HIS         0.0907
     32 NE2       -17.7130  -29.9750   11.1410 N.pl3     1 HIS        -0.2752
     33 N         -18.4220  -32.8590   14.8990 N.am      1 PRO        -0.2497
     34 CA        -18.2530  -32.4290   16.3050 C.3       1 PRO         0.1338
     35 C         -18.7730  -31.0310   16.5940 C.2       1 PRO         0.2041
     36 O         -19.4490  -30.8180   17.6100 O.2       1 PRO        -0.3944
     37 CB        -16.7350  -32.5290   16.5090 C.3       1 PRO        -0.0104
     38 CG        -16.2860  -33.5260   15.4950 C.3       1 PRO        -0.0281
     39 CD        -17.1480  -33.2760   14.2940 C.3       1 PRO         0.0369
     40 N         -18.4610  -30.0590   15.7330 N.am      1 ALA        -0.2640
     41 CA        -18.9690  -28.7090   15.9480 C.3       1 ALA         0.1282
     42 C         -20.4820  -28.6550   15.7890 C.2       1 ALA         0.2036
     43 O         -21.1480  -27.8770   16.4810 O.2       1 ALA        -0.3944
     44 CB        -18.2910  -27.7230   14.9950 C.3       1 ALA        -0.0244
     45 N         -21.0400  -29.4690   14.8900 N.am      1 CYS        -0.2629
     46 CA        -22.4820  -29.4410   14.6680 C.3       1 CYS         0.1406
     47 C         -23.2300  -30.0260   15.8560 C.2       1 CYS         0.2049
     48 O         -24.3170  -29.5540   16.2070 O.2       1 CYS        -0.3944
     49 CB        -22.8440  -30.2040   13.3910 C.3       1 CYS         0.0443
     50 SG        -24.4980  -29.8180   12.7590 S.3       1 CYS        -0.0882
     51 N         -22.6830  -31.0860   16.4510 N.am      1 ASN        -0.2616
     52 CA        -23.3280  -31.7220   17.5890 C.3       1 ASN         0.1476
     53 C         -23.5950  -30.7320   18.7050 C.2       1 ASN         0.2063
     54 O         -24.6740  -30.7320   19.3080 O.2       1 ASN        -0.3942
     55 CB        -22.4520  -32.8390   18.1400 C.3       1 ASN         0.0773
     56 CG        -22.1680  -33.8920   17.1310 C.2       1 ASN         0.1780
     57 OD1       -22.8260  -33.9550   16.1020 O.2       1 ASN        -0.3970
     58 ND2       -21.2080  -34.7550   17.4270 N.am      1 ASN        -0.3007
     59 N         -22.6080  -29.8960   19.0140 N.am      1 VAL        -0.2633
     60 CA        -22.6850  -29.1220   20.2370 C.3       1 VAL         0.1333
     61 C         -23.6720  -27.9640   20.1010 C.2       1 VAL         0.2042
     62 O         -24.4340  -27.6740   21.0300 O.2       1 VAL        -0.3944
     63 CB        -21.2720  -28.6740   20.6130 C.3       1 VAL        -0.0063
     64 CG1       -21.3080  -28.1210   21.9900 C.3       1 VAL        -0.0584
     65 CG2       -20.2970  -29.8510   20.4510 C.3       1 VAL        -0.0584
     66 N         -23.7410  -27.3380   18.9290 N.am      1 ASP        -0.2622
     67 CA        -24.6950  -26.2480   18.7710 C.3       1 ASP         0.1423
     68 C         -26.1350  -26.7410   18.6960 C.2       1 ASP         0.2057
     69 O         -27.0550  -25.9120   18.7250 O.2       1 ASP        -0.3943
     70 CB        -24.3650  -25.3960   17.5370 C.3       1 ASP         0.0406
     71 CG        -23.5040  -24.1890   17.8750 C.2       1 ASP         0.0393
     72 OD1       -23.3540  -23.9010   19.0880 O.co2     1 ASP        -0.5688
     73 OD2       -22.9780  -23.5360   16.9490 O.co2     1 ASP        -0.5688
     74 N         -26.3490  -28.0610   18.6580 N.am      1 HIS        -0.2618
     75 CA        -27.6860  -28.6490   18.5950 C.3       1 HIS         0.1423
     76 C         -27.7350  -29.8660   19.5150 C.2       1 HIS         0.2085
     77 O         -27.8690  -31.0040   19.0570 O.2       1 HIS        -0.3940
     78 CB        -28.0040  -29.0270   17.1510 C.3       1 HIS         0.0427
     79 CG        -27.8710  -27.8820   16.1980 C.2       1 HIS         0.0561
     80 ND1       -28.7060  -26.7830   16.2140 N.pl3     1 HIS        -0.2623
     81 CD2       -26.8960  -27.6050   15.3000 C.2       1 HIS        -0.0276
     82 CE1       -28.2940  -25.9220   15.2980 C.2       1 HIS         0.0875
     83 NE2       -27.2000  -26.3980   14.7300 N.2       1 HIS        -0.3437
     84 N         -27.6310  -29.6580   20.8350 N.am      1 PRO        -0.2497
     85 CA        -27.7260  -30.8000   21.7610 C.3       1 PRO         0.1338
     86 C         -29.1180  -31.4070   21.8400 C.2       1 PRO         0.2041
     87 O         -29.2530  -32.5420   22.3160 O.2       1 PRO        -0.3944
     88 CB        -27.2820  -30.2030   23.1120 C.3       1 PRO        -0.0104
     89 CG        -27.2920  -28.6780   22.9230 C.3       1 PRO        -0.0281
     90 CD        -27.8040  -28.3800   21.5370 C.3       1 PRO         0.0369
     91 N         -30.1500  -30.6900   21.3940 N.am      1 GLU        -0.2636
     92 CA        -31.5030  -31.2330   21.3490 C.3       1 GLU         0.1325
     93 C         -31.6900  -32.2360   20.2150 C.2       1 GLU         0.2040
     94 O         -32.6350  -33.0340   20.2550 O.2       1 GLU        -0.3944
     95 CB        -32.5290  -30.1000   21.2310 C.3       1 GLU        -0.0008
     96 CG        -32.5740  -29.1920   22.4580 C.3       1 GLU         0.0044
     97 CD        -33.5120  -28.0010   22.2950 C.2       1 GLU         0.0350
     98 OE1       -33.9640  -27.7380   21.1550 O.co2     1 GLU        -0.5690
     99 OE2       -33.7980  -27.3300   23.3140 O.co2     1 GLU        -0.5690
    100 N         -30.8160  -32.2200   19.2090 N.am      1 ILE        -0.2635
    101 CA        -30.9370  -33.1340   18.0780 C.3       1 ILE         0.1335
    102 C         -29.9700  -34.2990   18.2460 C.2       1 ILE         0.2042
    103 O         -30.2580  -35.4260   17.8280 O.2       1 ILE        -0.3944
    104 CB        -30.6880  -32.3920   16.7510 C.3       1 ILE        -0.0037
    105 CG1       -31.5360  -31.1210   16.6910 C.3       1 ILE        -0.0491
    106 CG2       -30.9820  -33.2930   15.5600 C.3       1 ILE        -0.0582
    107 CD1       -31.2120  -30.2240   15.5200 C.3       1 ILE        -0.0648
    108 N         -28.8290  -34.0480   18.8770 N.am      1 CYS        -0.2629
    109 CA        -27.8020  -35.0740   18.9930 C.3       1 CYS         0.1403
    110 C         -27.6020  -35.4980   20.4450 C.2       1 CYS         0.2000
    111 O         -27.6640  -34.6730   21.3550 O.2       1 CYS        -0.3947
    112 CB        -26.4890  -34.5800   18.3860 C.3       1 CYS         0.0443
    113 SG        -26.6260  -34.1180   16.6420 S.3       1 CYS        -0.0882
    114 N         -27.3640  -36.7890   20.6520 N.am      1 NH2        -0.2989
    115 H1        -27.5419  -36.7134    8.6844 H         1 GLY         0.2012
    116 H2        -27.4081  -35.1403    9.1499 H         1 GLY         0.2012
    117 H3        -27.3888  -36.3373   10.2795 H         1 GLY         0.2012
    118 H4        -25.3839  -35.9028    8.1977 H         1 GLY         0.1061
    119 H5        -25.3628  -37.2091    9.4305 H         1 GLY         0.1061
    120 H6        -26.6363  -34.2181   10.5083 H         1 CYS         0.1885
    121 H7        -24.3040  -32.7686   11.1696 H         1 CYS         0.0808
    122 H8        -27.0220  -32.9663   12.5032 H         1 CYS         0.0432
    123 H9        -26.4514  -31.7455   11.3154 H         1 CYS         0.0432
    124 H10       -25.9648  -35.3917   12.9811 H         1 CYS         0.1884
    125 H11       -24.5577  -34.8862   15.4022 H         1 CYS         0.0808
    126 H12       -25.3150  -37.1874   16.0572 H         1 CYS         0.0432
    127 H13       -25.9692  -37.3827   14.3957 H         1 CYS         0.0432
    128 H14       -23.3211  -36.2452   12.4994 H         1 SER         0.1884
    129 H15       -21.1928  -37.6930   13.9137 H         1 SER         0.0823
    130 H16       -21.5181  -37.0216   10.9455 H         1 SER         0.0606
    131 H17       -22.0337  -38.5451   11.7453 H         1 SER         0.0606
    132 H18       -19.3665  -37.5520   11.5968 H         1 SER         0.2097
    133 H19       -21.7428  -34.4257   12.9219 H         1 HIS         0.1885
    134 H20       -18.8414  -33.8904   12.6214 H         1 HIS         0.0817
    135 H21       -21.2259  -32.0156   12.3876 H         1 HIS         0.0420
    136 H22       -20.4873  -32.9237   11.0251 H         1 HIS         0.0420
    137 H23       -17.9376  -31.9578   10.2094 H         1 HIS         0.0729
    138 H24       -18.1854  -28.3552   12.4696 H         1 HIS         0.1199
    139 H25       -16.8965  -29.5938   10.6420 H         1 HIS         0.2361
    140 H26       -18.7737  -33.1302   16.9737 H         1 PRO         0.0802
    141 H27       -16.5016  -32.8770   17.5260 H         1 PRO         0.0313
    142 H28       -16.2545  -31.5548   16.3355 H         1 PRO         0.0313
    143 H29       -16.4323  -34.5501   15.8690 H         1 PRO         0.0287
    144 H30       -15.2251  -33.3741   15.2473 H         1 PRO         0.0287
    145 H31       -16.7282  -32.4794   13.6621 H         1 PRO         0.0524
    146 H32       -17.2722  -34.1910   13.6963 H         1 PRO         0.0524
    147 H33       -17.8806  -30.2563   14.9430 H         1 ALA         0.1883
    148 H34       -18.7245  -28.4131   16.9788 H         1 ALA         0.0797
    149 H35       -18.6862  -26.7118   15.1716 H         1 ALA         0.0277
    150 H36       -18.4938  -28.0195   13.9553 H         1 ALA         0.0277
    151 H37       -17.2055  -27.7286   15.1728 H         1 ALA         0.0277
    152 H38       -20.4676  -30.1003   14.3667 H         1 CYS         0.1884
    153 H39       -22.7915  -28.3925   14.5464 H         1 CYS         0.0808
    154 H40       -22.7963  -31.2820   13.6047 H         1 CYS         0.0432
    155 H41       -22.1073  -29.9512   12.6142 H         1 CYS         0.0432
    156 H42       -21.8161  -31.4494   16.1098 H         1 ASN         0.1885
    157 H43       -24.2855  -32.1472   17.2539 H         1 ASN         0.0826
    158 H44       -22.9662  -33.3006   18.9958 H         1 ASN         0.0551
    159 H45       -21.4981  -32.4059   18.4754 H         1 ASN         0.0551
    160 H46       -20.9754  -35.4843   16.7835 H         1 ASN         0.1814
    161 H47       -20.7157  -34.6773   18.2940 H         1 ASN         0.1814
    162 H48       -21.8187  -29.8021   18.4072 H         1 VAL         0.1883
    163 H49       -23.0568  -29.7773   21.0384 H         1 VAL         0.0802
    164 H50       -20.9553  -27.8734   19.9283 H         1 VAL         0.0343
    165 H51       -20.2990  -27.7925   22.2797 H         1 VAL         0.0234
    166 H52       -21.6553  -28.8971   22.6879 H         1 VAL         0.0234
    167 H53       -21.9963  -27.2636   22.0230 H         1 VAL         0.0234
    168 H54       -20.3228  -30.2080   19.4109 H         1 VAL         0.0234
    169 H55       -20.5924  -30.6675   21.1263 H         1 VAL         0.0234
    170 H56       -19.2779  -29.5199   20.6998 H         1 VAL         0.0234
    171 H57       -23.1490  -27.6105   18.1705 H         1 ASP         0.1884
    172 H58       -24.6091  -25.6041   19.6587 H         1 ASP         0.0819
    173 H59       -25.3062  -25.0436   17.0899 H         1 ASP         0.0478
    174 H60       -23.8256  -26.0215   16.8106 H         1 ASP         0.0478
    175 H61       -25.5585  -28.6733   18.6734 H         1 HIS         0.1885
    176 H62       -28.4253  -27.9112   18.9399 H         1 HIS         0.0824
    177 H63       -29.0380  -29.3998   17.1070 H         1 HIS         0.0491
    178 H64       -27.3133  -29.8239   16.8382 H         1 HIS         0.0491
    179 H65       -29.5164  -26.6544   16.8366 H         1 HIS         0.2386
    180 H66       -26.0311  -28.2267   15.0734 H         1 HIS         0.0324
    181 H67       -28.7767  -24.9771   15.0526 H         1 HIS         0.1149
    182 H68       -27.0267  -31.5897   21.4491 H         1 PRO         0.0802
    183 H69       -26.2704  -30.5498   23.3695 H         1 PRO         0.0313
    184 H70       -27.9832  -30.4943   23.9079 H         1 PRO         0.0313
    185 H71       -26.2722  -28.2817   23.0366 H         1 PRO         0.0287
    186 H72       -27.9512  -28.2141   23.6714 H         1 PRO         0.0287
    187 H73       -28.8631  -28.0840   21.5627 H         1 PRO         0.0524
    188 H74       -27.2124  -27.5846   21.0603 H         1 PRO         0.0524
    189 H75       -29.9918  -29.7533   21.0815 H         1 GLU         0.1883
    190 H76       -31.6835  -31.7612   22.2968 H         1 GLU         0.0801
    191 H77       -33.5250  -30.5449   21.0899 H         1 GLU         0.0330
    192 H78       -32.2731  -29.4879   20.3536 H         1 GLU         0.0330
    193 H79       -31.5591  -28.8131   22.6490 H         1 GLU         0.0433
    194 H80       -32.9117  -29.7865   23.3197 H         1 GLU         0.0433
    195 H81       -30.0595  -31.5663   19.2297 H         1 ILE         0.1883
    196 H82       -31.9616  -33.5338   18.0614 H         1 ILE         0.0803
    197 H83       -29.6274  -32.1033   16.7099 H         1 ILE         0.0345
    198 H84       -31.3736  -30.5521   17.6183 H         1 ILE         0.0267
    199 H85       -32.5941  -31.4135   16.6208 H         1 ILE         0.0267
    200 H86       -30.3619  -34.1993   15.6240 H         1 ILE         0.0235
    201 H87       -30.7513  -32.7560   14.6281 H         1 ILE         0.0235
    202 H88       -32.0452  -33.5750   15.5671 H         1 ILE         0.0235
    203 H89       -31.8610  -29.3363   15.5476 H         1 ILE         0.0230
    204 H90       -31.3798  -30.7718   14.5810 H         1 ILE         0.0230
    205 H91       -30.1593  -29.9104   15.5785 H         1 ILE         0.0230
    206 H92       -28.6732  -33.1448   19.2769 H         1 CYS         0.1884
    207 H93       -28.1335  -35.9552   18.4242 H         1 CYS         0.0808
    208 H94       -25.7411  -35.3816   18.4757 H         1 CYS         0.0432
    209 H95       -26.1529  -33.6997   18.9536 H         1 CYS         0.0432
    210 H96       -27.2243  -37.1288   21.5821 H         1 NH2         0.1815
    211 H97       -27.3246  -37.4206   19.8777 H         1 NH2         0.1815
@<TRIPOS>BOND
     1    1    2 1  
     2    2    3 1  
     3    3    4 2  
     4    3    5 am 
     5    5    6 1  
     6    6    7 1  
     7    6    9 1  
     8    7    8 2  
     9    7   11 am 
    10    9   10 1  
    11   10   50 1  
    12   11   12 1  
    13   12   13 1  
    14   12   15 1  
    15   13   14 2  
    16   13   17 am 
    17   15   16 1  
    18   16  113 1  
    19   17   18 1  
    20   18   19 1  
    21   18   21 1  
    22   19   20 2  
    23   19   23 am 
    24   21   22 1  
    25   23   24 1  
    26   24   25 1  
    27   24   27 1  
    28   25   26 2  
    29   25   33 am 
    30   27   28 1  
    31   28   29 1  
    32   28   30 2  
    33   29   31 2  
    34   30   32 1  
    35   31   32 1  
    36   33   34 1  
    37   33   39 1  
    38   34   35 1  
    39   34   37 1  
    40   35   36 2  
    41   35   40 am 
    42   37   38 1  
    43   38   39 1  
    44   40   41 1  
    45   41   42 1  
    46   41   44 1  
    47   42   43 2  
    48   42   45 am 
    49   45   46 1  
    50   46   47 1  
    51   46   49 1  
    52   47   48 2  
    53   47   51 am 
    54   49   50 1  
    55   51   52 1  
    56   52   53 1  
    57   52   55 1  
    58   53   54 2  
    59   53   59 am 
    60   55   56 1  
    61   56   57 2  
    62   56   58 am 
    63   59   60 1  
    64   60   61 1  
    65   60   63 1  
    66   61   62 2  
    67   61   66 am 
    68   63   64 1  
    69   63   65 1  
    70   66   67 1  
    71   67   68 1  
    72   67   70 1  
    73   68   69 2  
    74   68   74 am 
    75   70   71 1  
    76   71   72 ar 
    77   71   73 ar 
    78   74   75 1  
    79   75   76 1  
    80   75   78 1  
    81   76   77 2  
    82   76   84 am 
    83   78   79 1  
    84   79   80 1  
    85   79   81 2  
    86   80   82 1  
    87   81   83 1  
    88   82   83 2  
    89   84   85 1  
    90   84   90 1  
    91   85   86 1  
    92   85   88 1  
    93   86   87 2  
    94   86   91 am 
    95   88   89 1  
    96   89   90 1  
    97   91   92 1  
    98   92   93 1  
    99   92   95 1  
   100   93   94 2  
   101   93  100 am 
   102   95   96 1  
   103   96   97 1  
   104   97   98 ar 
   105   97   99 ar 
   106  100  101 1  
   107  101  102 1  
   108  101  104 1  
   109  102  103 2  
   110  102  108 am 
   111  104  105 1  
   112  104  106 1  
   113  105  107 1  
   114  108  109 1  
   115  109  110 1  
   116  109  112 1  
   117  110  111 2  
   118  110  114 am 
   119  112  113 1  
   120    1  115 1  
   121    1  116 1  
   122    1  117 1  
   123    2  118 1  
   124    2  119 1  
   125    5  120 1  
   126    6  121 1  
   127    9  122 1  
   128    9  123 1  
   129   11  124 1  
   130   12  125 1  
   131   15  126 1  
   132   15  127 1  
   133   17  128 1  
   134   18  129 1  
   135   21  130 1  
   136   21  131 1  
   137   22  132 1  
   138   23  133 1  
   139   24  134 1  
   140   27  135 1  
   141   27  136 1  
   142   30  137 1  
   143   31  138 1  
   144   32  139 1  
   145   34  140 1  
   146   37  141 1  
   147   37  142 1  
   148   38  143 1  
   149   38  144 1  
   150   39  145 1  
   151   39  146 1  
   152   40  147 1  
   153   41  148 1  
   154   44  149 1  
   155   44  150 1  
   156   44  151 1  
   157   45  152 1  
   158   46  153 1  
   159   49  154 1  
   160   49  155 1  
   161   51  156 1  
   162   52  157 1  
   163   55  158 1  
   164   55  159 1  
   165   58  160 1  
   166   58  161 1  
   167   59  162 1  
   168   60  163 1  
   169   63  164 1  
   170   64  165 1  
   171   64  166 1  
   172   64  167 1  
   173   65  168 1  
   174   65  169 1  
   175   65  170 1  
   176   66  171 1  
   177   67  172 1  
   178   70  173 1  
   179   70  174 1  
   180   74  175 1  
   181   75  176 1  
   182   78  177 1  
   183   78  178 1  
   184   80  179 1  
   185   81  180 1  
   186   82  181 1  
   187   85  182 1  
   188   88  183 1  
   189   88  184 1  
   190   89  185 1  
   191   89  186 1  
   192   90  187 1  
   193   90  188 1  
   194   91  189 1  
   195   92  190 1  
   196   95  191 1  
   197   95  192 1  
   198   96  193 1  
   199   96  194 1  
   200  100  195 1  
   201  101  196 1  
   202  104  197 1  
   203  105  198 1  
   204  105  199 1  
   205  106  200 1  
   206  106  201 1  
   207  106  202 1  
   208  107  203 1  
   209  107  204 1  
   210  107  205 1  
   211  108  206 1  
   212  109  207 1  
   213  112  208 1  
   214  112  209 1  
   215  114  210 1  
   216  114  211 1  
@<TRIPOS>SUBSTRUCTURE
     1 GLY         1

