5xgl_ligand
  -I-interpret- 

211216  0  0  0  0  0  0  0  0999 V2000
  -27.1120  -36.0840    9.3440 N   0  3  0  0  0
  -25.6670  -36.1720    9.2260 C   0  0  0  0  0
  -24.9280  -35.2560   10.1840 C   0  0  0  0  0
  -23.7230  -35.4100   10.4020 O   0  0  0  0  0
  -25.6670  -34.2910   10.7430 N   0  0  0  0  0
  -25.0860  -33.3410   11.6900 C   0  0  0  0  0
  -24.4470  -34.0540   12.8720 C   0  0  0  0  0
  -23.3360  -33.7070   13.2900 O   0  0  0  0  0
  -26.1600  -32.3670   12.1750 C   0  0  0  0  0
  -25.7300  -31.2350   13.5450 S   0  0  0  0  0
  -25.1300  -35.0620   13.4220 N   0  0  0  0  0
  -24.6730  -35.6870   14.6570 C   0  0  0  0  0
  -23.3100  -36.3650   14.5170 C   0  0  0  0  0
  -22.7540  -36.7990   15.5310 O   0  0  0  0  0
  -25.7270  -36.6570   15.1860 C   0  0  0  0  0
  -27.2540  -35.8050   15.6870 S   0  0  0  0  0
  -22.7740  -36.4930   13.2990 N   0  0  0  0  0
  -21.4130  -36.9840   13.1020 C   0  0  0  0  0
  -20.3620  -35.8810   13.1430 C   0  0  0  0  0
  -19.1740  -36.1840   13.3080 O   0  0  0  0  0
  -21.3020  -37.7240   11.7640 C   0  0  0  0  0
  -20.0020  -38.2580   11.5850 O   0  0  0  0  0
  -20.7650  -34.6190   13.0030 N   0  0  0  0  0
  -19.8150  -33.5110   12.9650 C   0  0  0  0  0
  -19.6470  -32.9210   14.3600 C   0  0  0  0  0
  -20.6420  -32.5010   14.9640 O   0  0  0  0  0
  -20.2920  -32.4450   11.9960 C   0  0  0  0  0
  -19.3160  -31.3300   11.7820 C   0  0  0  0  0
  -19.3650  -30.1510   12.4940 N   0  0  0  0  0
  -18.2720  -31.2120   10.9290 C   0  0  0  0  0
  -18.3920  -29.3540   12.0880 C   0  0  0  0  0
  -17.7130  -29.9750   11.1410 N   0  0  0  0  0
  -18.4220  -32.8590   14.8990 N   0  0  0  0  0
  -18.2530  -32.4290   16.3050 C   0  0  0  0  0
  -18.7730  -31.0310   16.5940 C   0  0  0  0  0
  -19.4490  -30.8180   17.6100 O   0  0  0  0  0
  -16.7350  -32.5290   16.5090 C   0  0  0  0  0
  -16.2860  -33.5260   15.4950 C   0  0  0  0  0
  -17.1480  -33.2760   14.2940 C   0  0  0  0  0
  -18.4610  -30.0590   15.7330 N   0  0  0  0  0
  -18.9690  -28.7090   15.9480 C   0  0  0  0  0
  -20.4820  -28.6550   15.7890 C   0  0  0  0  0
  -21.1480  -27.8770   16.4810 O   0  0  0  0  0
  -18.2910  -27.7230   14.9950 C   0  0  0  0  0
  -21.0400  -29.4690   14.8900 N   0  0  0  0  0
  -22.4820  -29.4410   14.6680 C   0  0  0  0  0
  -23.2300  -30.0260   15.8560 C   0  0  0  0  0
  -24.3170  -29.5540   16.2070 O   0  0  0  0  0
  -22.8440  -30.2040   13.3910 C   0  0  0  0  0
  -24.4980  -29.8180   12.7590 S   0  0  0  0  0
  -22.6830  -31.0860   16.4510 N   0  0  0  0  0
  -23.3280  -31.7220   17.5890 C   0  0  0  0  0
  -23.5950  -30.7320   18.7050 C   0  0  0  0  0
  -24.6740  -30.7320   19.3080 O   0  0  0  0  0
  -22.4520  -32.8390   18.1400 C   0  0  0  0  0
  -22.1680  -33.8920   17.1310 C   0  0  0  0  0
  -22.8260  -33.9550   16.1020 O   0  0  0  0  0
  -21.2080  -34.7550   17.4270 N   0  0  0  0  0
  -22.6080  -29.8960   19.0140 N   0  0  0  0  0
  -22.6850  -29.1220   20.2370 C   0  0  0  0  0
  -23.6720  -27.9640   20.1010 C   0  0  0  0  0
  -24.4340  -27.6740   21.0300 O   0  0  0  0  0
  -21.2720  -28.6740   20.6130 C   0  0  0  0  0
  -21.3080  -28.1210   21.9900 C   0  0  0  0  0
  -20.2970  -29.8510   20.4510 C   0  0  0  0  0
  -23.7410  -27.3380   18.9290 N   0  0  0  0  0
  -24.6950  -26.2480   18.7710 C   0  0  0  0  0
  -26.1350  -26.7410   18.6960 C   0  0  0  0  0
  -27.0550  -25.9120   18.7250 O   0  0  0  0  0
  -24.3650  -25.3960   17.5370 C   0  0  0  0  0
  -23.5040  -24.1890   17.8750 C   0  0  0  0  0
  -23.3540  -23.9010   19.0880 O   0  0  0  0  0
  -22.9780  -23.5360   16.9490 O   0  0  0  0  0
  -26.3490  -28.0610   18.6580 N   0  0  0  0  0
  -27.6860  -28.6490   18.5950 C   0  0  0  0  0
  -27.7350  -29.8660   19.5150 C   0  0  0  0  0
  -27.8690  -31.0040   19.0570 O   0  0  0  0  0
  -28.0040  -29.0270   17.1510 C   0  0  0  0  0
  -27.8710  -27.8820   16.1980 C   0  0  0  0  0
  -28.7060  -26.7830   16.2140 N   0  0  0  0  0
  -26.8960  -27.6050   15.3000 C   0  0  0  0  0
  -28.2940  -25.9220   15.2980 C   0  0  0  0  0
  -27.2000  -26.3980   14.7300 N   0  0  0  0  0
  -27.6310  -29.6580   20.8350 N   0  0  0  0  0
  -27.7260  -30.8000   21.7610 C   0  0  0  0  0
  -29.1180  -31.4070   21.8400 C   0  0  0  0  0
  -29.2530  -32.5420   22.3160 O   0  0  0  0  0
  -27.2820  -30.2030   23.1120 C   0  0  0  0  0
  -27.2920  -28.6780   22.9230 C   0  0  0  0  0
  -27.8040  -28.3800   21.5370 C   0  0  0  0  0
  -30.1500  -30.6900   21.3940 N   0  0  0  0  0
  -31.5030  -31.2330   21.3490 C   0  0  0  0  0
  -31.6900  -32.2360   20.2150 C   0  0  0  0  0
  -32.6350  -33.0340   20.2550 O   0  0  0  0  0
  -32.5290  -30.1000   21.2310 C   0  0  0  0  0
  -32.5740  -29.1920   22.4580 C   0  0  0  0  0
  -33.5120  -28.0010   22.2950 C   0  0  0  0  0
  -33.9640  -27.7380   21.1550 O   0  0  0  0  0
  -33.7980  -27.3300   23.3140 O   0  0  0  0  0
  -30.8160  -32.2200   19.2090 N   0  0  0  0  0
  -30.9370  -33.1340   18.0780 C   0  0  0  0  0
  -29.9700  -34.2990   18.2460 C   0  0  0  0  0
  -30.2580  -35.4260   17.8280 O   0  0  0  0  0
  -30.6880  -32.3920   16.7510 C   0  0  0  0  0
  -31.5360  -31.1210   16.6910 C   0  0  0  0  0
  -30.9820  -33.2930   15.5600 C   0  0  0  0  0
  -31.2120  -30.2240   15.5200 C   0  0  0  0  0
  -28.8290  -34.0480   18.8770 N   0  0  0  0  0
  -27.8020  -35.0740   18.9930 C   0  0  0  0  0
  -27.6020  -35.4980   20.4450 C   0  0  0  0  0
  -27.6640  -34.6730   21.3550 O   0  0  0  0  0
  -26.4890  -34.5800   18.3860 C   0  0  0  0  0
  -26.6260  -34.1180   16.6420 S   0  0  0  0  0
  -27.3640  -36.7890   20.6520 N   0  0  0  0  0
  -27.5459  -36.7213    8.6761 H   0  0  0  0  0
  -27.3908  -36.3405   10.2910 H   0  0  0  0  0
  -27.4104  -35.1287    9.1474 H   0  0  0  0  0
  -25.4009  -35.8716    8.2126 H   0  0  0  0  0
  -25.3795  -37.1964    9.4628 H   0  0  0  0  0
  -26.6557  -34.2166   10.5036 H   0  0  0  0  0
  -24.3020  -32.7857   11.1751 H   0  0  0  0  0
  -26.9676  -32.9916   12.5568 H   0  0  0  0  0
  -26.3745  -31.7228   11.3223 H   0  0  0  0  0
  -25.9815  -35.3983   12.9723 H   0  0  0  0  0
  -24.5351  -34.8879   15.3853 H   0  0  0  0  0
  -25.3163  -37.1601   16.0614 H   0  0  0  0  0
  -25.9751  -37.3569   14.3880 H   0  0  0  0  0
  -23.3321  -36.2403   12.4835 H   0  0  0  0  0
  -21.2140  -37.6595   13.9340 H   0  0  0  0  0
  -21.5047  -37.0197   10.9572 H   0  0  0  0  0
  -22.0205  -38.5436   11.7572 H   0  0  0  0  0
  -19.9584  -38.7153   10.7420 H   0  0  0  0  0
  -21.7623  -34.4218   12.9203 H   0  0  0  0  0
  -18.8498  -33.8845   12.6230 H   0  0  0  0  0
  -21.1948  -32.0055   12.4200 H   0  0  0  0  0
  -20.4423  -32.9306   11.0318 H   0  0  0  0  0
  -17.9373  -31.9585   10.2087 H   0  0  0  0  0
  -18.1853  -28.3542   12.4699 H   0  0  0  0  0
  -18.8349  -33.0457   16.9900 H   0  0  0  0  0
  -16.4787  -32.8347   17.5234 H   0  0  0  0  0
  -16.2415  -31.5656   16.3806 H   0  0  0  0  0
  -16.3900  -34.5476   15.8604 H   0  0  0  0  0
  -15.2271  -33.4148   15.2615 H   0  0  0  0  0
  -16.7319  -32.5299   13.6171 H   0  0  0  0  0
  -17.2466  -34.1494   13.6494 H   0  0  0  0  0
  -17.8690  -30.2603   14.9272 H   0  0  0  0  0
  -18.7321  -28.4214   16.9723 H   0  0  0  0  0
  -17.2155  -27.7296   15.1722 H   0  0  0  0  0
  -18.4927  -28.0179   13.9652 H   0  0  0  0  0
  -18.6834  -26.7214   15.1709 H   0  0  0  0  0
  -20.4562  -30.1130   14.3563 H   0  0  0  0  0
  -22.7821  -28.3994   14.5535 H   0  0  0  0  0
  -22.8253  -31.2674   13.6294 H   0  0  0  0  0
  -22.1256  -29.9159   12.6235 H   0  0  0  0  0
  -21.7988  -31.4567   16.1030 H   0  0  0  0  0
  -24.2767  -32.1239   17.2334 H   0  0  0  0  0
  -22.9838  -33.3042   18.9700 H   0  0  0  0  0
  -21.5015  -32.4009   18.4446 H   0  0  0  0  0
  -20.9893  -35.5152   16.7831 H   0  0  0  0  0
  -20.6874  -34.6594   18.2989 H   0  0  0  0  0
  -21.8029  -29.8002   18.3950 H   0  0  0  0  0
  -23.0766  -29.7337   21.0498 H   0  0  0  0  0
  -20.9117  -27.8863   19.9513 H   0  0  0  0  0
  -21.9903  -27.2716   22.0213 H   0  0  0  0  0
  -21.6523  -28.8909   22.6805 H   0  0  0  0  0
  -20.3077  -27.7958   22.2758 H   0  0  0  0  0
  -20.6041  -30.6680   21.1039 H   0  0  0  0  0
  -20.3065  -30.1890   19.4148 H   0  0  0  0  0
  -19.2914  -29.5277   20.7199 H   0  0  0  0  0
  -23.1372  -27.6160   18.1553 H   0  0  0  0  0
  -24.6047  -25.6287   19.6634 H   0  0  0  0  0
  -25.3037  -25.0326   17.1188 H   0  0  0  0  0
  -23.8092  -26.0197   16.8369 H   0  0  0  0  0
  -23.8414  -24.5281   19.6273 H   0  0  0  0  0
  -25.5427  -28.6856   18.6737 H   0  0  0  0  0
  -28.4368  -27.9331   18.9295 H   0  0  0  0  0
  -29.0400  -29.3643   17.1188 H   0  0  0  0  0
  -27.2921  -29.7941   16.8464 H   0  0  0  0  0
  -26.0303  -28.2272   15.0732 H   0  0  0  0  0
  -28.7771  -24.9763   15.0524 H   0  0  0  0  0
  -27.1088  -31.6364   21.4328 H   0  0  0  0  0
  -26.2919  -30.5598   23.3956 H   0  0  0  0  0
  -27.9513  -30.5060   23.9172 H   0  0  0  0  0
  -26.2854  -28.2781   23.0452 H   0  0  0  0  0
  -27.9355  -28.2117   23.6690 H   0  0  0  0  0
  -28.8381  -28.0353   21.5353 H   0  0  0  0  0
  -27.2686  -27.5605   21.0576 H   0  0  0  0  0
  -29.9887  -29.7346   21.0752 H   0  0  0  0  0
  -31.6637  -31.7702   22.2837 H   0  0  0  0  0
  -33.5127  -30.5574   21.1246 H   0  0  0  0  0
  -32.2427  -29.4852   20.3777 H   0  0  0  0  0
  -31.5689  -28.8001   22.6140 H   0  0  0  0  0
  -32.9406  -29.7872   23.2943 H   0  0  0  0  0
  -33.6206  -28.3725   20.5217 H   0  0  0  0  0
  -30.0444  -31.5532   19.2302 H   0  0  0  0  0
  -31.9521  -33.5302   18.0503 H   0  0  0  0  0
  -29.6357  -32.1115   16.7051 H   0  0  0  0  0
  -31.3344  -30.5536   17.5996 H   0  0  0  0  0
  -32.5759  -31.4298   16.5848 H   0  0  0  0  0
  -30.3335  -34.1682   15.5993 H   0  0  0  0  0
  -32.0244  -33.6098   15.5943 H   0  0  0  0  0
  -30.7979  -32.7440   14.6365 H   0  0  0  0  0
  -30.1687  -29.9141   15.5792 H   0  0  0  0  0
  -31.3786  -30.7680   14.5903 H   0  0  0  0  0
  -31.8557  -29.3448   15.5484 H   0  0  0  0  0
  -28.6701  -33.1267   19.2849 H   0  0  0  0  0
  -28.1351  -35.9508   18.4377 H   0  0  0  0  0
  -25.7705  -35.3970   18.4522 H   0  0  0  0  0
  -26.1887  -33.6891   18.9375 H   0  0  0  0  0
  -27.2229  -37.1359   21.6008 H   0  0  0  0  0
  -27.3225  -37.4330   19.8621 H   0  0  0  0  0
  1  2  1  0  0  0
  2  3  1  0  0  0
  3  4  2  0  0  0
  3  5  1  0  0  0
  5  6  1  0  0  0
  6  7  1  0  0  0
  6  9  1  0  0  0
  7  8  2  0  0  0
  7 11  1  0  0  0
  9 10  1  0  0  0
 10 50  1  0  0  0
 11 12  1  0  0  0
 12 13  1  0  0  0
 12 15  1  0  0  0
 13 14  2  0  0  0
 13 17  1  0  0  0
 15 16  1  0  0  0
 16113  1  0  0  0
 17 18  1  0  0  0
 18 19  1  0  0  0
 18 21  1  0  0  0
 19 20  2  0  0  0
 19 23  1  0  0  0
 21 22  1  0  0  0
 23 24  1  0  0  0
 24 25  1  0  0  0
 24 27  1  0  0  0
 25 26  2  0  0  0
 25 33  1  0  0  0
 27 28  1  0  0  0
 28 29  4  0  0  0
 28 30  4  0  0  0
 29 31  4  0  0  0
 30 32  4  0  0  0
 31 32  4  0  0  0
 33 34  1  0  0  0
 33 39  1  0  0  0
 34 35  1  0  0  0
 34 37  1  0  0  0
 35 36  2  0  0  0
 35 40  1  0  0  0
 37 38  1  0  0  0
 38 39  1  0  0  0
 40 41  1  0  0  0
 41 42  1  0  0  0
 41 44  1  0  0  0
 42 43  2  0  0  0
 42 45  1  0  0  0
 45 46  1  0  0  0
 46 47  1  0  0  0
 46 49  1  0  0  0
 47 48  2  0  0  0
 47 51  1  0  0  0
 49 50  1  0  0  0
 51 52  1  0  0  0
 52 53  1  0  0  0
 52 55  1  0  0  0
 53 54  2  0  0  0
 53 59  1  0  0  0
 55 56  1  0  0  0
 56 57  2  0  0  0
 56 58  1  0  0  0
 59 60  1  0  0  0
 60 61  1  0  0  0
 60 63  1  0  0  0
 61 62  2  0  0  0
 61 66  1  0  0  0
 63 64  1  0  0  0
 63 65  1  0  0  0
 66 67  1  0  0  0
 67 68  1  0  0  0
 67 70  1  0  0  0
 68 69  2  0  0  0
 68 74  1  0  0  0
 70 71  1  0  0  0
 71 72  1  0  0  0
 71 73  2  0  0  0
 74 75  1  0  0  0
 75 76  1  0  0  0
 75 78  1  0  0  0
 76 77  2  0  0  0
 76 84  1  0  0  0
 78 79  1  0  0  0
 79 80  4  0  0  0
 79 81  4  0  0  0
 80 82  4  0  0  0
 81 83  4  0  0  0
 82 83  4  0  0  0
 84 85  1  0  0  0
 84 90  1  0  0  0
 85 86  1  0  0  0
 85 88  1  0  0  0
 86 87  2  0  0  0
 86 91  1  0  0  0
 88 89  1  0  0  0
 89 90  1  0  0  0
 91 92  1  0  0  0
 92 93  1  0  0  0
 92 95  1  0  0  0
 93 94  2  0  0  0
 93100  1  0  0  0
 95 96  1  0  0  0
 96 97  1  0  0  0
 97 98  1  0  0  0
 97 99  2  0  0  0
100101  1  0  0  0
101102  1  0  0  0
101104  1  0  0  0
102103  2  0  0  0
102108  1  0  0  0
104105  1  0  0  0
104106  1  0  0  0
105107  1  0  0  0
108109  1  0  0  0
109110  1  0  0  0
109112  1  0  0  0
110111  2  0  0  0
110114  1  0  0  0
112113  1  0  0  0
  1115  1  0  0  0
  1116  1  0  0  0
  1117  1  0  0  0
  2118  1  0  0  0
  2119  1  0  0  0
  5120  1  0  0  0
  6121  1  0  0  0
  9122  1  0  0  0
  9123  1  0  0  0
 11124  1  0  0  0
 12125  1  0  0  0
 15126  1  0  0  0
 15127  1  0  0  0
 17128  1  0  0  0
 18129  1  0  0  0
 21130  1  0  0  0
 21131  1  0  0  0
 22132  1  0  0  0
 23133  1  0  0  0
 24134  1  0  0  0
 27135  1  0  0  0
 27136  1  0  0  0
 30137  1  0  0  0
 31138  1  0  0  0
 34139  1  0  0  0
 37140  1  0  0  0
 37141  1  0  0  0
 38142  1  0  0  0
 38143  1  0  0  0
 39144  1  0  0  0
 39145  1  0  0  0
 40146  1  0  0  0
 41147  1  0  0  0
 44148  1  0  0  0
 44149  1  0  0  0
 44150  1  0  0  0
 45151  1  0  0  0
 46152  1  0  0  0
 49153  1  0  0  0
 49154  1  0  0  0
 51155  1  0  0  0
 52156  1  0  0  0
 55157  1  0  0  0
 55158  1  0  0  0
 58159  1  0  0  0
 58160  1  0  0  0
 59161  1  0  0  0
 60162  1  0  0  0
 63163  1  0  0  0
 64164  1  0  0  0
 64165  1  0  0  0
 64166  1  0  0  0
 65167  1  0  0  0
 65168  1  0  0  0
 65169  1  0  0  0
 66170  1  0  0  0
 67171  1  0  0  0
 70172  1  0  0  0
 70173  1  0  0  0
 72174  1  0  0  0
 74175  1  0  0  0
 75176  1  0  0  0
 78177  1  0  0  0
 78178  1  0  0  0
 81179  1  0  0  0
 82180  1  0  0  0
 85181  1  0  0  0
 88182  1  0  0  0
 88183  1  0  0  0
 89184  1  0  0  0
 89185  1  0  0  0
 90186  1  0  0  0
 90187  1  0  0  0
 91188  1  0  0  0
 92189  1  0  0  0
 95190  1  0  0  0
 95191  1  0  0  0
 96192  1  0  0  0
 96193  1  0  0  0
 98194  1  0  0  0
100195  1  0  0  0
101196  1  0  0  0
104197  1  0  0  0
105198  1  0  0  0
105199  1  0  0  0
106200  1  0  0  0
106201  1  0  0  0
106202  1  0  0  0
107203  1  0  0  0
107204  1  0  0  0
107205  1  0  0  0
108206  1  0  0  0
109207  1  0  0  0
112208  1  0  0  0
112209  1  0  0  0
114210  1  0  0  0
114211  1  0  0  0
M  END
$$$$
