2woa_ligand
  -I-interpret- 

 39 41  0  0  0  0  0  0  0  0999 V2000
   16.0320   25.3990    1.3780 O   0  0  0  0  0
   16.8480   26.5840    1.5250 C   0  0  0  0  0
   16.2970   27.5170    2.6270 C   0  0  0  0  0
   16.8190   28.9530    2.5700 C   0  0  0  0  0
   16.1310   29.8320    1.9890 O   0  0  0  0  0
   17.9250   29.1310    3.1370 O   0  0  0  0  0
   17.1360   27.1920    0.1340 C   0  0  0  0  0
   18.3950   26.5710   -0.5080 C   0  0  0  0  0
   18.8240   27.0780   -1.8750 C   0  0  0  0  0
   19.9100   26.4380   -2.5100 C   0  0  0  0  0
   20.3140   26.8800   -3.7670 C   0  0  0  0  0
   21.4410   26.3180   -4.6230 C   0  0  0  0  0
   21.3590   27.2290   -5.8580 C   0  0  0  0  0
   22.1830   27.1830   -7.0100 C   0  0  0  0  0
   21.9570   28.1070   -8.0620 C   0  0  0  0  0
   20.9120   29.0550   -7.9290 C   0  0  0  0  0
   20.0980   29.0880   -6.7580 C   0  0  0  0  0
   20.3340   28.1660   -5.7230 C   0  0  0  0  0
   19.6780   27.9490   -4.4150 C   0  0  0  0  0
   18.6110   28.6020   -3.8110 C   0  0  0  0  0
   18.1900   28.1560   -2.5350 C   0  0  0  0  0
   15.8552   25.0242    2.2439 H   0  0  0  0  0
   17.8375   26.3444    1.9142 H   0  0  0  0  0
   16.6164   27.1015    3.5828 H   0  0  0  0  0
   15.2169   27.5668    2.4891 H   0  0  0  0  0
   15.3306   29.4321    1.6412 H   0  0  0  0  0
   17.3029   28.2624    0.2539 H   0  0  0  0  0
   16.2833   26.9890   -0.5138 H   0  0  0  0  0
   18.1556   25.5175   -0.6528 H   0  0  0  0  0
   19.2157   26.8224    0.1639 H   0  0  0  0  0
   20.4250   25.6097   -2.0234 H   0  0  0  0  0
   21.3329   25.2576   -4.8510 H   0  0  0  0  0
   22.4140   26.3300   -4.1318 H   0  0  0  0  0
   22.9819   26.4454   -7.0868 H   0  0  0  0  0
   22.5770   28.0883   -8.9583 H   0  0  0  0  0
   20.7278   29.7685   -8.7322 H   0  0  0  0  0
   19.2984   29.8231   -6.6662 H   0  0  0  0  0
   18.1116   29.4349   -4.3059 H   0  0  0  0  0
   17.3539   28.6575   -2.0477 H   0  0  0  0  0
  1  2  1  0  0  0
  2  3  1  0  0  0
  2  7  1  0  0  0
  3  4  1  0  0  0
  4  5  1  0  0  0
  4  6  2  0  0  0
  7  8  1  0  0  0
  8  9  1  0  0  0
  9 10  4  0  0  0
  9 21  4  0  0  0
 10 11  4  0  0  0
 11 12  1  0  0  0
 11 19  4  0  0  0
 12 13  1  0  0  0
 13 14  4  0  0  0
 13 18  4  0  0  0
 14 15  4  0  0  0
 15 16  4  0  0  0
 16 17  4  0  0  0
 17 18  4  0  0  0
 18 19  1  0  0  0
 19 20  4  0  0  0
 20 21  4  0  0  0
  1 22  1  0  0  0
  2 23  1  0  0  0
  3 24  1  0  0  0
  3 25  1  0  0  0
  5 26  1  0  0  0
  7 27  1  0  0  0
  7 28  1  0  0  0
  8 29  1  0  0  0
  8 30  1  0  0  0
 10 31  1  0  0  0
 12 32  1  0  0  0
 12 33  1  0  0  0
 14 34  1  0  0  0
 15 35  1  0  0  0
 16 36  1  0  0  0
 17 37  1  0  0  0
 20 38  1  0  0  0
 21 39  1  0  0  0
M  END
$$$$
