### 
### Created by X-TOOL on Mon Sep 10 21:13:17 2018
### 

@<TRIPOS>MOLECULE
4qt0_ligand
   51    54     1     0     0
SMALL
GAST_HUCK


@<TRIPOS>ATOM
      1 O19       -59.8660   26.1680  -47.6700 O.co2     1 38Q        -0.5607
      2 C18       -60.9710   25.9500  -47.1810 C.2       1 38Q         0.0604
      3 O20       -61.6570   26.8830  -46.7170 O.co2     1 38Q        -0.5607
      4 C14       -61.4090   24.5260  -47.1150 C.ar      1 38Q         0.0011
      5 C15       -60.7150   23.5360  -47.7780 C.ar      1 38Q        -0.0588
      6 C16       -61.1520   22.2090  -47.6600 C.ar      1 38Q        -0.0674
      7 C17       -62.2690   21.8530  -46.8850 C.ar      1 38Q        -0.0347
      8 C13       -62.4920   24.1690  -46.3360 C.ar      1 38Q        -0.0232
      9 C12       -62.9360   22.8430  -46.2090 C.ar      1 38Q         0.0700
     10 N11       -64.0560   22.7270  -45.4530 N.pl3     1 38Q        -0.2559
     11 C10       -64.8180   21.5820  -45.4020 C.ar      1 38Q         0.1119
     12 C9        -64.7150   20.6190  -44.3750 C.ar      1 38Q         0.0963
     13 C21       -63.9650   20.8940  -43.1020 C.2       1 38Q         0.1968
     14 N22       -63.4150   19.9060  -42.4160 N.am      1 38Q        -0.3026
     15 O33       -63.8310   22.0330  -42.7010 O.2       1 38Q        -0.3937
     16 C5        -65.5170   21.2290  -46.5780 C.ar      1 38Q         0.0392
     17 C6        -66.1210   19.9750  -46.6800 C.ar      1 38Q         0.0329
     18 N7        -66.0220   19.0920  -45.6510 N.ar      1 38Q        -0.3167
     19 C8        -65.3420   19.3910  -44.5330 C.ar      1 38Q         0.0089
     20 C4        -65.6480   22.1170  -47.6500 C.ar      1 38Q        -0.0454
     21 C3        -66.3590   21.7670  -48.7950 C.ar      1 38Q        -0.0520
     22 C2        -66.9300   20.5060  -48.9330 C.ar      1 38Q        -0.0126
     23 C1        -66.8230   19.6330  -47.8440 C.ar      1 38Q        -0.0401
     24 C23       -67.7590   20.1030  -50.1340 C.ar      1 38Q         0.0562
     25 C24       -67.7780   18.7860  -50.6510 C.ar      1 38Q         0.0173
     26 N25       -68.5870   18.4490  -51.6770 N.ar      1 38Q        -0.2549
     27 C26       -69.3940   19.4080  -52.2040 C.ar      1 38Q         0.2367
     28 O31       -70.2700   19.2290  -53.2520 O.3       1 38Q        -0.2821
     29 C32       -71.4000   20.1230  -53.4340 C.3       1 38Q         0.0683
     30 N27       -69.3950   20.6490  -51.7160 N.ar      1 38Q        -0.2138
     31 C28       -68.6340   21.0350  -50.7020 C.ar      1 38Q         0.1828
     32 O29       -68.7810   22.3520  -50.3070 O.3       1 38Q        -0.2927
     33 C30       -69.5370   23.3000  -51.0950 C.3       1 38Q         0.0670
     34 H         -59.8469   23.7794  -48.3798 H         1 38Q         0.0556
     35 H         -60.6096   21.4308  -48.1846 H         1 38Q         0.0595
     36 H         -62.5956   20.8212  -46.8229 H         1 38Q         0.0561
     37 H         -63.0227   24.9468  -45.7989 H         1 38Q         0.0573
     38 H         -64.3512   23.5365  -44.8886 H         1 38Q         0.2199
     39 H         -62.9182   20.1005  -41.5702 H         1 38Q         0.1802
     40 H         -63.4959   18.9645  -42.7431 H         1 38Q         0.1802
     41 H         -65.2813   18.6579  -43.7368 H         1 38Q         0.0844
     42 H         -65.1874   23.0964  -47.5886 H         1 38Q         0.0664
     43 H         -66.4697   22.4910  -49.5941 H         1 38Q         0.0608
     44 H         -67.2986   18.6607  -47.9028 H         1 38Q         0.0594
     45 H         -67.1307   18.0339  -50.2148 H         1 38Q         0.0878
     46 H         -71.9734   19.8134  -54.3202 H         1 38Q         0.0592
     47 H         -71.0352   21.1512  -53.5742 H         1 38Q         0.0592
     48 H         -72.0472   20.0815  -52.5456 H         1 38Q         0.0592
     49 H         -69.5243   24.2817  -50.5989 H         1 38Q         0.0591
     50 H         -70.5758   22.9511  -51.1910 H         1 38Q         0.0591
     51 H         -69.0860   23.3884  -52.0944 H         1 38Q         0.0591
@<TRIPOS>BOND
     1    1    2 ar 
     2    2    3 ar 
     3    2    4 1  
     4    4    5 ar 
     5    4    8 ar 
     6    5    6 ar 
     7    6    7 ar 
     8    7    9 ar 
     9    8    9 ar 
    10    9   10 1  
    11   10   11 1  
    12   11   12 ar 
    13   11   16 ar 
    14   12   13 1  
    15   12   19 ar 
    16   13   14 am 
    17   13   15 2  
    18   16   17 ar 
    19   16   20 ar 
    20   17   18 ar 
    21   17   23 ar 
    22   18   19 ar 
    23   20   21 ar 
    24   21   22 ar 
    25   22   23 ar 
    26   22   24 1  
    27   24   25 ar 
    28   24   31 ar 
    29   25   26 ar 
    30   26   27 ar 
    31   27   28 1  
    32   27   30 ar 
    33   28   29 1  
    34   30   31 ar 
    35   31   32 1  
    36   32   33 1  
    37    5   34 1  
    38    6   35 1  
    39    7   36 1  
    40    8   37 1  
    41   10   38 1  
    42   14   39 1  
    43   14   40 1  
    44   19   41 1  
    45   20   42 1  
    46   21   43 1  
    47   23   44 1  
    48   25   45 1  
    49   29   46 1  
    50   29   47 1  
    51   29   48 1  
    52   33   49 1  
    53   33   50 1  
    54   33   51 1  
@<TRIPOS>SUBSTRUCTURE
     1 38Q         1

