4qt0_ligand
  -I-interpret- 

 52 55  0  0  0  0  0  0  0  0999 V2000
  -59.8660   26.1680  -47.6700 O   0  0  0  0  0
  -60.9710   25.9500  -47.1810 C   0  0  0  0  0
  -61.6570   26.8830  -46.7170 O   0  0  0  0  0
  -61.4090   24.5260  -47.1150 C   0  0  0  0  0
  -60.7150   23.5360  -47.7780 C   0  0  0  0  0
  -61.1520   22.2090  -47.6600 C   0  0  0  0  0
  -62.2690   21.8530  -46.8850 C   0  0  0  0  0
  -62.4920   24.1690  -46.3360 C   0  0  0  0  0
  -62.9360   22.8430  -46.2090 C   0  0  0  0  0
  -64.0560   22.7270  -45.4530 N   0  0  0  0  0
  -64.8180   21.5820  -45.4020 C   0  0  0  0  0
  -64.7150   20.6190  -44.3750 C   0  0  0  0  0
  -63.9650   20.8940  -43.1020 C   0  0  0  0  0
  -63.4150   19.9060  -42.4160 N   0  0  0  0  0
  -63.8310   22.0330  -42.7010 O   0  0  0  0  0
  -65.5170   21.2290  -46.5780 C   0  0  0  0  0
  -66.1210   19.9750  -46.6800 C   0  0  0  0  0
  -66.0220   19.0920  -45.6510 N   0  0  0  0  0
  -65.3420   19.3910  -44.5330 C   0  0  0  0  0
  -65.6480   22.1170  -47.6500 C   0  0  0  0  0
  -66.3590   21.7670  -48.7950 C   0  0  0  0  0
  -66.9300   20.5060  -48.9330 C   0  0  0  0  0
  -66.8230   19.6330  -47.8440 C   0  0  0  0  0
  -67.7590   20.1030  -50.1340 C   0  0  0  0  0
  -67.7780   18.7860  -50.6510 C   0  0  0  0  0
  -68.5870   18.4490  -51.6770 N   0  0  0  0  0
  -69.3940   19.4080  -52.2040 C   0  0  0  0  0
  -70.2700   19.2290  -53.2520 O   0  0  0  0  0
  -71.4000   20.1230  -53.4340 C   0  0  0  0  0
  -69.3950   20.6490  -51.7160 N   0  0  0  0  0
  -68.6340   21.0350  -50.7020 C   0  0  0  0  0
  -68.7810   22.3520  -50.3070 O   0  0  0  0  0
  -69.5370   23.3000  -51.0950 C   0  0  0  0  0
  -62.4844   26.5328  -46.3789 H   0  0  0  0  0
  -59.8421   23.7807  -48.3832 H   0  0  0  0  0
  -60.6066   21.4265  -48.1875 H   0  0  0  0  0
  -62.5974   20.8155  -46.8225 H   0  0  0  0  0
  -63.0256   24.9511  -45.7959 H   0  0  0  0  0
  -64.3483   23.5286  -44.8941 H   0  0  0  0  0
  -62.8889   20.1067  -41.5655 H   0  0  0  0  0
  -63.5170   18.9434  -42.7374 H   0  0  0  0  0
  -65.2810   18.6538  -43.7324 H   0  0  0  0  0
  -65.1849   23.1018  -47.5883 H   0  0  0  0  0
  -66.4703   22.4950  -49.5985 H   0  0  0  0  0
  -67.3012   18.6553  -47.9031 H   0  0  0  0  0
  -67.1271   18.0297  -50.2123 H   0  0  0  0  0
  -72.0405   20.0810  -52.5530 H   0  0  0  0  0
  -71.0372   21.1415  -53.5728 H   0  0  0  0  0
  -71.9674   19.8152  -54.3123 H   0  0  0  0  0
  -69.0891   23.3866  -52.0849 H   0  0  0  0  0
  -70.5660   22.9532  -51.1894 H   0  0  0  0  0
  -69.5237   24.2723  -50.6025 H   0  0  0  0  0
  1  2  2  0  0  0
  2  3  1  0  0  0
  2  4  1  0  0  0
  4  5  4  0  0  0
  4  8  4  0  0  0
  5  6  4  0  0  0
  6  7  4  0  0  0
  7  9  4  0  0  0
  8  9  4  0  0  0
  9 10  1  0  0  0
 10 11  1  0  0  0
 11 12  4  0  0  0
 11 16  4  0  0  0
 12 13  1  0  0  0
 12 19  4  0  0  0
 13 14  1  0  0  0
 13 15  2  0  0  0
 16 17  4  0  0  0
 16 20  4  0  0  0
 17 18  4  0  0  0
 17 23  4  0  0  0
 18 19  4  0  0  0
 20 21  4  0  0  0
 21 22  4  0  0  0
 22 23  4  0  0  0
 22 24  1  0  0  0
 24 25  4  0  0  0
 24 31  4  0  0  0
 25 26  4  0  0  0
 26 27  4  0  0  0
 27 28  1  0  0  0
 27 30  4  0  0  0
 28 29  1  0  0  0
 30 31  4  0  0  0
 31 32  1  0  0  0
 32 33  1  0  0  0
  3 34  1  0  0  0
  5 35  1  0  0  0
  6 36  1  0  0  0
  7 37  1  0  0  0
  8 38  1  0  0  0
 10 39  1  0  0  0
 14 40  1  0  0  0
 14 41  1  0  0  0
 19 42  1  0  0  0
 20 43  1  0  0  0
 21 44  1  0  0  0
 23 45  1  0  0  0
 25 46  1  0  0  0
 29 47  1  0  0  0
 29 48  1  0  0  0
 29 49  1  0  0  0
 33 50  1  0  0  0
 33 51  1  0  0  0
 33 52  1  0  0  0
M  END
$$$$
