2hmu_ligand
  -I-interpret- 

 47 49  0  0  0  0  0  0  0  0999 V2000
  111.0310   47.5970   19.2990 P   0  0  0  0  0
  109.6470   47.0510   19.2510 O   0  0  0  0  0
  112.0650   46.3900   19.5740 O   0  0  0  0  0
  111.1460   48.6870   20.4810 O   0  0  0  0  0
  112.9660   48.5530   17.6890 P   0  0  0  0  0
  113.6670   48.5760   18.9990 O   0  0  0  0  0
  113.5790   47.3620   16.7910 O   0  0  0  0  0
  111.3620   48.3120   17.8740 O   0  0  0  0  0
  112.2660   51.1210   17.5340 P   0  0  0  0  0
  112.8760   52.4450   17.2360 O   0  0  0  0  0
  112.1150   50.9840   19.1350 O   0  0  0  0  0
  113.2290   49.9630   16.9270 O   0  0  0  0  0
  109.4630   55.2030   13.4600 N   0  0  0  0  0
  110.0340   56.0850   14.3490 C   0  0  0  0  0
  109.4720   57.2470   14.2470 N   0  0  0  0  0
  108.5070   57.1950   13.2910 C   0  0  0  0  0
  107.5800   58.1230   12.7420 C   0  0  0  0  0
  107.5440   59.4330   13.1970 N   0  0  0  0  0
  106.7350   57.7040   11.7650 N   0  0  0  0  0
  106.7570   56.4450   11.3120 C   0  0  0  0  0
  107.6150   55.5440   11.8030 N   0  0  0  0  0
  108.4930   55.8740   12.7780 C   0  0  0  0  0
  110.7910   50.9690   16.8580 O   0  0  0  0  0
  110.4240   52.1940   16.2280 C   0  0  0  0  0
  110.1510   51.9730   14.7360 C   0  0  0  0  0
  109.1950   52.9790   14.2930 O   0  0  0  0  0
  111.4300   52.1460   13.8570 C   0  0  0  0  0
  111.4480   51.1950   12.7780 O   0  0  0  0  0
  111.3280   53.5850   13.3660 C   0  0  0  0  0
  112.0180   53.8010   12.1300 O   0  0  0  0  0
  109.8140   53.7980   13.2620 C   0  0  0  0  0
  112.9594   46.7373   19.6058 H   0  0  0  0  0
  112.0401   49.0356   20.5074 H   0  0  0  0  0
  113.1314   47.3399   15.9420 H   0  0  0  0  0
  111.7222   50.1340   19.3467 H   0  0  0  0  0
  110.8419   55.8408   15.0387 H   0  0  0  0  0
  108.1852   59.7361   13.9301 H   0  0  0  0  0
  106.8763   60.0931   12.7985 H   0  0  0  0  0
  106.0616   56.1477   10.5270 H   0  0  0  0  0
  111.2427   52.9055   16.3355 H   0  0  0  0  0
  109.5188   52.5763   16.6997 H   0  0  0  0  0
  109.7833   50.9533   14.6213 H   0  0  0  0  0
  112.3582   51.9629   14.3983 H   0  0  0  0  0
  112.2423   51.3221   12.2541 H   0  0  0  0  0
  111.8087   54.3013   14.0323 H   0  0  0  0  0
  111.9220   54.7194   11.8675 H   0  0  0  0  0
  109.4631   53.5157   12.2694 H   0  0  0  0  0
  1  2  2  0  0  0
  1  3  1  0  0  0
  1  4  1  0  0  0
  8  1  1  0  0  0
  5  6  2  0  0  0
  5  7  1  0  0  0
  5  8  1  0  0  0
 12  5  1  0  0  0
  9 10  2  0  0  0
  9 11  1  0  0  0
  9 12  1  0  0  0
 23  9  1  0  0  0
 13 14  4  0  0  0
 13 22  4  0  0  0
 31 13  1  0  0  0
 14 15  4  0  0  0
 16 15  4  0  0  0
 16 17  4  0  0  0
 22 16  4  0  0  0
 17 18  1  0  0  0
 17 19  4  0  0  0
 20 19  4  0  0  0
 21 20  4  0  0  0
 22 21  4  0  0  0
 24 23  1  0  0  0
 25 24  1  0  0  0
 26 25  1  0  0  0
 25 27  1  0  0  0
 26 31  1  0  0  0
 27 28  1  0  0  0
 27 29  1  0  0  0
 29 30  1  0  0  0
 29 31  1  0  0  0
  3 32  1  0  0  0
  4 33  1  0  0  0
  7 34  1  0  0  0
 11 35  1  0  0  0
 14 36  1  0  0  0
 18 37  1  0  0  0
 18 38  1  0  0  0
 20 39  1  0  0  0
 24 40  1  0  0  0
 24 41  1  0  0  0
 25 42  1  0  0  0
 27 43  1  0  0  0
 28 44  1  0  0  0
 29 45  1  0  0  0
 30 46  1  0  0  0
 31 47  1  0  0  0
M  END
$$$$
