5v83_ligand
  -I-interpret- 

 50 52  0  0  0  0  0  0  0  0999 V2000
    1.3850    9.3400  -10.8320 C   0  0  0  0  0
    1.7670    7.9070  -14.1210 C   0  0  0  0  0
    0.3710    8.4330  -10.4480 C   0  0  0  0  0
    0.1920    9.0240   -7.8390 C   0  0  0  0  0
    0.9720   10.3390   -3.6320 C   0  0  0  0  0
   -0.3990    9.4860   -5.3910 C   0  0  0  0  0
   -1.2680    8.9260   -4.4400 C   0  0  0  0  0
   -1.0240    9.0860   -3.0940 C   0  0  0  0  0
    0.0940    9.7780   -2.6800 C   0  0  0  0  0
    0.7350   10.1850   -4.9720 C   0  0  0  0  0
    2.2340   11.1130   -3.1740 C   0  0  0  0  0
    1.2240    8.2850  -13.0930 N   0  3  0  0  0
   -0.4020    8.7270   -9.1370 N   0  0  0  0  0
    2.1210    8.7900  -12.0640 C   0  0  0  0  0
   -0.7240    9.2260   -6.7750 N   0  0  0  0  0
    2.1930   12.3470   -3.7100 F   0  0  0  0  0
    3.3570   10.4830   -3.6030 F   0  0  0  0  0
    2.2630   11.2040   -1.8510 F   0  0  0  0  0
    1.3930    9.1220   -7.6600 O   0  0  0  0  0
   -0.5700    8.1280  -11.5140 C   0  0  0  0  0
    0.1810    7.4360  -12.6480 C   0  0  0  0  0
    2.7790    6.7310  -13.9660 C   0  0  0  0  0
    2.3370    5.4010  -13.9980 C   0  0  0  0  0
    3.2730    4.3750  -13.8620 C   0  0  0  0  0
    4.6500    4.6690  -13.7220 C   0  0  0  0  0
    5.1080    5.9970  -13.7060 C   0  0  0  0  0
    4.1660    7.0090  -13.8290 C   0  0  0  0  0
    2.0915    9.4653  -10.0115 H   0  0  0  0  0
    0.9384   10.3042  -11.0749 H   0  0  0  0  0
    2.3389    8.7560  -14.4954 H   0  0  0  0  0
    0.9717    7.5431  -14.7716 H   0  0  0  0  0
    0.9764    7.5548  -10.2235 H   0  0  0  0  0
   -2.1404    8.3616   -4.7692 H   0  0  0  0  0
   -1.7119    8.6673   -2.3594 H   0  0  0  0  0
    0.3003    9.8921   -1.6158 H   0  0  0  0  0
    1.4249   10.6040   -5.7045 H   0  0  0  0  0
    0.7327    9.1361  -13.3661 H   0  0  0  0  0
   -1.4207    8.7112   -9.1870 H   0  0  0  0  0
    2.7428    7.9585  -11.7322 H   0  0  0  0  0
    2.6930    9.6096  -12.4990 H   0  0  0  0  0
   -1.7153    9.1833   -7.0113 H   0  0  0  0  0
   -1.0257    9.0482  -11.8796 H   0  0  0  0  0
   -1.3560    7.4735  -11.1374 H   0  0  0  0  0
    0.5990    6.4943  -12.2923 H   0  0  0  0  0
   -0.5031    7.2302  -13.4713 H   0  0  0  0  0
    1.2792    5.1720  -14.1270 H   0  0  0  0  0
    2.9402    3.3371  -13.8636 H   0  0  0  0  0
    5.3661    3.8529  -13.6251 H   0  0  0  0  0
    6.1686    6.2252  -13.6004 H   0  0  0  0  0
    4.4996    8.0467  -13.8203 H   0  0  0  0  0
  1  3  1  0  0  0
 14  1  1  0  0  0
 12  2  1  0  0  0
  2 22  1  0  0  0
  3 13  1  0  0  0
  3 20  1  0  0  0
 13  4  1  0  0  0
  4 15  1  0  0  0
  4 19  2  0  0  0
  5  9  4  0  0  0
 10  5  4  0  0  0
  5 11  1  0  0  0
  6  7  4  0  0  0
  6 10  4  0  0  0
 15  6  1  0  0  0
  7  8  4  0  0  0
  8  9  4  0  0  0
 11 16  1  0  0  0
 11 17  1  0  0  0
 11 18  1  0  0  0
 12 14  1  0  0  0
 12 21  1  0  0  0
 20 21  1  0  0  0
 22 23  4  0  0  0
 22 27  4  0  0  0
 23 24  4  0  0  0
 24 25  4  0  0  0
 25 26  4  0  0  0
 26 27  4  0  0  0
  1 28  1  0  0  0
  1 29  1  0  0  0
  2 30  1  0  0  0
  2 31  1  0  0  0
  3 32  1  0  0  0
  7 33  1  0  0  0
  8 34  1  0  0  0
  9 35  1  0  0  0
 10 36  1  0  0  0
 12 37  1  0  0  0
 13 38  1  0  0  0
 14 39  1  0  0  0
 14 40  1  0  0  0
 15 41  1  0  0  0
 20 42  1  0  0  0
 20 43  1  0  0  0
 21 44  1  0  0  0
 21 45  1  0  0  0
 23 46  1  0  0  0
 24 47  1  0  0  0
 25 48  1  0  0  0
 26 49  1  0  0  0
 27 50  1  0  0  0
M  END
$$$$
