5e1s_ligand
  -I-interpret- 

 78 83  0  0  0  0  0  0  0  0999 V2000
    5.4830   21.3110   18.1690 N   0  0  0  0  0
    5.6060   20.3500   15.6600 C   0  0  0  0  0
    6.5210   21.6490   17.3990 C   0  0  0  0  0
    6.6130   21.1720   16.0880 C   0  0  0  0  0
    8.3850   22.8870   15.4830 C   0  0  0  0  0
    8.4350   23.1890   16.9390 C   0  0  0  0  0
    1.0910   19.0980   23.0840 C   0  0  0  0  0
    7.7200   21.7570   21.1160 C   0  0  0  0  0
    7.2430   21.5690   22.3980 C   0  0  0  0  0
    6.4940   22.5350   23.0020 C   0  0  0  0  0
    6.6780   23.8950   21.0550 C   0  0  0  0  0
    8.8930   20.4960   15.3230 C   0  0  0  0  0
    3.9680   21.3280   20.5740 C   0  0  0  0  0
    7.4320   22.9210   20.4240 C   0  0  0  0  0
    4.5620   20.5040   17.6420 C   0  0  0  0  0
    3.4910   20.1350   18.4300 N   0  0  0  0  0
    4.5750   19.9970   16.4130 N   0  0  0  0  0
    7.7750   21.5230   15.2110 C   0  0  0  0  0
    7.9460   23.1400   19.0610 C   0  0  0  0  0
    7.5600   22.5620   17.8640 C   0  0  0  0  0
    9.2480   23.9670   17.4840 N   0  0  0  0  0
    8.9740   23.9510   18.7720 N   0  0  0  0  0
   -0.1370   18.8950   23.8430 N   0  3  0  0  0
    1.1960   20.4560   22.6330 C   0  0  0  0  0
    2.2080   20.6160   21.5980 N   0  0  0  0  0
    6.2100   23.6930   22.3330 C   0  0  0  0  0
    9.7750   24.7690   19.6670 C   0  0  0  0  0
    3.2950   21.3790   21.7410 C   0  0  0  0  0
    3.2280   20.5140   19.7220 C   0  0  0  0  0
    2.1230   20.0800   20.3590 N   0  0  0  0  0
   -0.0150   19.4460   25.2010 C   0  0  0  0  0
   -1.2660   19.1600   26.0170 C   0  0  0  0  0
   -1.5450   17.7210   26.0430 N   0  3  0  0  0
   -1.7050   17.2240   24.6830 C   0  0  0  0  0
   -0.4460   17.4700   23.8890 C   0  0  0  0  0
   -2.7080   17.3920   26.8740 C   0  0  0  0  0
   -2.3680   17.1270   28.3230 C   0  0  0  0  0
   -1.8910   15.8080   28.4530 O   0  0  0  0  0
   -2.9030   14.8850   28.7570 C   0  0  0  0  0
    5.6551   19.9639   14.6418 H   0  0  0  0  0
    9.4044   22.8897   15.0972 H   0  0  0  0  0
    7.7667   23.6420   14.9974 H   0  0  0  0  0
    1.0786   18.4402   22.2150 H   0  0  0  0  0
    1.9418   18.8759   23.7281 H   0  0  0  0  0
    8.3274   20.9838   20.6456 H   0  0  0  0  0
    7.4663   20.6440   22.9297 H   0  0  0  0  0
    6.1226   22.3844   24.0156 H   0  0  0  0  0
    6.4537   24.8273   20.5367 H   0  0  0  0  0
    9.6673   20.7223   14.5899 H   0  0  0  0  0
    9.3186   20.5321   16.3258 H   0  0  0  0  0
    8.4908   19.5008   15.1332 H   0  0  0  0  0
    4.9089   21.8273   20.3428 H   0  0  0  0  0
    2.8137   19.5049   18.0004 H   0  0  0  0  0
    7.3448   21.5361   14.2096 H   0  0  0  0  0
   -0.8991   19.3894   23.3791 H   0  0  0  0  0
    1.4809   21.0746   23.4840 H   0  0  0  0  0
    0.2334   20.7493   22.2140 H   0  0  0  0  0
    5.6079   24.4625   22.8161 H   0  0  0  0  0
    9.1306   25.4850   20.1771 H   0  0  0  0  0
   10.2633   24.1295   20.4023 H   0  0  0  0  0
   10.5297   25.3039   19.0905 H   0  0  0  0  0
    3.5831   21.9369   22.6320 H   0  0  0  0  0
    0.1184   20.5255   25.1306 H   0  0  0  0  0
    0.8387   18.9799   25.6930 H   0  0  0  0  0
   -2.1112   19.6762   25.5617 H   0  0  0  0  0
   -1.1100   19.5087   27.0379 H   0  0  0  0  0
   -0.7468   17.2548   26.4741 H   0  0  0  0  0
   -2.5354   17.7456   24.2071 H   0  0  0  0  0
   -1.9039   16.1528   24.7149 H   0  0  0  0  0
    0.3809   16.9449   24.3671 H   0  0  0  0  0
   -0.5942   17.1081   22.8716 H   0  0  0  0  0
   -3.1472   16.4793   26.4713 H   0  0  0  0  0
   -3.3782   18.2513   26.8495 H   0  0  0  0  0
   -3.2591   17.2560   28.9374 H   0  0  0  0  0
   -1.6009   17.8276   28.6528 H   0  0  0  0  0
   -3.3736   15.1614   29.7005 H   0  0  0  0  0
   -3.6488   14.8906   27.9621 H   0  0  0  0  0
   -2.4700   13.8885   28.8437 H   0  0  0  0  0
  1  3  4  0  0  0
 15  1  4  0  0  0
  2  4  4  0  0  0
 17  2  4  0  0  0
  3  4  4  0  0  0
  3 20  1  0  0  0
  4 18  1  0  0  0
  6  5  1  0  0  0
 18  5  1  0  0  0
 20  6  4  0  0  0
  6 21  4  0  0  0
  7 23  1  0  0  0
 24  7  1  0  0  0
  8  9  4  0  0  0
 14  8  4  0  0  0
  9 10  4  0  0  0
 26 10  4  0  0  0
 14 11  4  0  0  0
 11 26  4  0  0  0
 18 12  1  0  0  0
 28 13  4  0  0  0
 13 29  4  0  0  0
 19 14  1  0  0  0
 16 15  1  0  0  0
 15 17  4  0  0  0
 29 16  1  0  0  0
 20 19  4  0  0  0
 19 22  4  0  0  0
 22 21  4  0  0  0
 22 27  1  0  0  0
 23 31  1  0  0  0
 23 35  1  0  0  0
 25 24  1  0  0  0
 25 28  4  0  0  0
 25 30  4  0  0  0
 29 30  4  0  0  0
 31 32  1  0  0  0
 32 33  1  0  0  0
 33 34  1  0  0  0
 33 36  1  0  0  0
 34 35  1  0  0  0
 36 37  1  0  0  0
 37 38  1  0  0  0
 38 39  1  0  0  0
  2 40  1  0  0  0
  5 41  1  0  0  0
  5 42  1  0  0  0
  7 43  1  0  0  0
  7 44  1  0  0  0
  8 45  1  0  0  0
  9 46  1  0  0  0
 10 47  1  0  0  0
 11 48  1  0  0  0
 12 49  1  0  0  0
 12 50  1  0  0  0
 12 51  1  0  0  0
 13 52  1  0  0  0
 16 53  1  0  0  0
 18 54  1  0  0  0
 23 55  1  0  0  0
 24 56  1  0  0  0
 24 57  1  0  0  0
 26 58  1  0  0  0
 27 59  1  0  0  0
 27 60  1  0  0  0
 27 61  1  0  0  0
 28 62  1  0  0  0
 31 63  1  0  0  0
 31 64  1  0  0  0
 32 65  1  0  0  0
 32 66  1  0  0  0
 33 67  1  0  0  0
 34 68  1  0  0  0
 34 69  1  0  0  0
 35 70  1  0  0  0
 35 71  1  0  0  0
 36 72  1  0  0  0
 36 73  1  0  0  0
 37 74  1  0  0  0
 37 75  1  0  0  0
 39 76  1  0  0  0
 39 77  1  0  0  0
 39 78  1  0  0  0
M  END
$$$$
