5lto_ligand
  -I-interpret- 

 21 20  0  0  0  0  0  0  0  0999 V2000
   47.6040   68.2790   22.8540 N   0  3  0  0  0
   46.2750   68.8720   22.8520 C   0  0  0  0  0
   46.3510   70.3770   22.6250 C   0  0  0  0  0
   47.1490   70.8510   21.8170 O   0  0  0  0  0
   45.5510   68.5680   24.1630 C   0  0  0  0  0
   46.4480   68.5210   25.3890 C   0  0  0  0  0
   45.8770   67.6460   26.4880 C   0  0  0  0  0
   44.8780   66.9550   26.2890 O   0  0  0  0  0
   46.5010   67.6810   27.6600 N   0  0  0  0  0
   45.6160   71.1530   23.2350 O   0  0  0  0  0
   48.0714   68.4920   21.9727 H   0  0  0  0  0
   48.1452   68.6630   23.6287 H   0  0  0  0  0
   47.5237   67.2679   22.9620 H   0  0  0  0  0
   45.7094   68.4314   22.0310 H   0  0  0  0  0
   45.1065   67.5784   24.0574 H   0  0  0  0  0
   44.8358   69.3745   24.3244 H   0  0  0  0  0
   46.5411   69.5348   25.7785 H   0  0  0  0  0
   47.4086   68.1025   25.0888 H   0  0  0  0  0
   46.1550   67.1207   28.4389 H   0  0  0  0  0
   47.3262   68.2682   27.7811 H   0  0  0  0  0
   45.0482   70.6550   23.8277 H   0  0  0  0  0
  1  2  1  0  0  0
  2  3  1  0  0  0
  2  5  1  0  0  0
  3  4  2  0  0  0
  3 10  1  0  0  0
  5  6  1  0  0  0
  6  7  1  0  0  0
  7  8  2  0  0  0
  7  9  1  0  0  0
  1 11  1  0  0  0
  1 12  1  0  0  0
  1 13  1  0  0  0
  2 14  1  0  0  0
  5 15  1  0  0  0
  5 16  1  0  0  0
  6 17  1  0  0  0
  6 18  1  0  0  0
  9 19  1  0  0  0
  9 20  1  0  0  0
 10 21  1  0  0  0
M  END
$$$$
