1tkz_ligand
  -I-interpret- 

 44 46  0  0  0  0  0  0  0  0999 V2000
    2.5250  -36.1120   23.0990 C   0  0  0  0  0
    4.0300  -36.1670   23.4990 C   0  0  0  0  0
    4.4440  -34.9640   24.3630 C   0  0  0  0  0
    3.6640  -34.9480   25.6650 C   0  0  0  0  0
    2.1580  -34.7830   25.4080 C   0  0  0  0  0
    1.5800  -35.8180   24.3620 C   0  0  0  0  0
    1.3350  -37.0170   17.8490 N   0  0  0  0  0
    2.5640  -37.5470   18.2750 C   0  0  0  0  0
    3.4380  -37.8530   17.4410 O   0  0  0  0  0
    2.7660  -37.7600   19.7400 C   0  0  0  0  0
    1.7600  -37.4150   20.6290 C   0  0  0  0  0
    2.0220  -37.7240   22.4120 S   0  0  0  0  0
    0.3410  -36.6970   18.7630 C   0  0  0  0  0
    0.5560  -36.8940   20.1720 C   0  0  0  0  0
   -0.4910  -36.5890   21.0750 C   0  0  0  0  0
   -1.7240  -36.1110   20.6050 C   0  0  0  0  0
   -1.9320  -35.9280   19.2310 C   0  0  0  0  0
   -0.8920  -36.2220   18.3010 C   0  0  0  0  0
   -2.9710  -35.7450   21.7040 Cl  0  0  0  0  0
    4.0150  -38.4670   20.2460 C   0  0  0  0  0
    3.8790  -40.0000   20.0820 C   0  0  0  0  0
    3.5340  -40.7230   21.4070 C   0  0  0  0  0
    2.4148  -35.3083   22.3710 H   0  0  0  0  0
    4.6251  -36.1503   22.5859 H   0  0  0  0  0
    4.1943  -37.0748   24.0795 H   0  0  0  0  0
    4.2341  -34.0460   23.8141 H   0  0  0  0  0
    5.5075  -35.0409   24.5892 H   0  0  0  0  0
    4.0086  -34.1071   26.2669 H   0  0  0  0  0
    3.8275  -35.8944   26.1804 H   0  0  0  0  0
    2.0026  -33.7840   25.0007 H   0  0  0  0  0
    1.6437  -34.9514   26.3542 H   0  0  0  0  0
    1.4605  -36.7638   24.8906 H   0  0  0  0  0
    0.6591  -35.3861   23.9702 H   0  0  0  0  0
    1.1708  -36.8652   16.8538 H   0  0  0  0  0
   -0.3380  -36.7267   22.1454 H   0  0  0  0  0
   -2.8929  -35.5594   18.8719 H   0  0  0  0  0
   -1.0566  -36.0773   17.2333 H   0  0  0  0  0
    4.1475  -38.2357   21.3029 H   0  0  0  0  0
    4.8729  -38.1251   19.6670 H   0  0  0  0  0
    4.8388  -40.3829   19.7354 H   0  0  0  0  0
    3.0662  -40.1877   19.3804 H   0  0  0  0  0
    4.3217  -40.5365   22.1370 H   0  0  0  0  0
    2.5857  -40.3453   21.7893 H   0  0  0  0  0
    3.4526  -41.7945   21.2242 H   0  0  0  0  0
  1  2  1  0  0  0
  1  6  1  0  0  0
 12  1  1  0  0  0
  2  3  1  0  0  0
  3  4  1  0  0  0
  5  4  1  0  0  0
  6  5  1  0  0  0
  8  7  1  0  0  0
  7 13  1  0  0  0
  8  9  2  0  0  0
 10  8  1  0  0  0
 11 10  2  0  0  0
 10 20  1  0  0  0
 11 12  1  0  0  0
 11 14  1  0  0  0
 13 14  4  0  0  0
 13 18  4  0  0  0
 14 15  4  0  0  0
 15 16  4  0  0  0
 16 17  4  0  0  0
 16 19  1  0  0  0
 17 18  4  0  0  0
 20 21  1  0  0  0
 21 22  1  0  0  0
  1 23  1  0  0  0
  2 24  1  0  0  0
  2 25  1  0  0  0
  3 26  1  0  0  0
  3 27  1  0  0  0
  4 28  1  0  0  0
  4 29  1  0  0  0
  5 30  1  0  0  0
  5 31  1  0  0  0
  6 32  1  0  0  0
  6 33  1  0  0  0
  7 34  1  0  0  0
 15 35  1  0  0  0
 17 36  1  0  0  0
 18 37  1  0  0  0
 20 38  1  0  0  0
 20 39  1  0  0  0
 21 40  1  0  0  0
 21 41  1  0  0  0
 22 42  1  0  0  0
 22 43  1  0  0  0
 22 44  1  0  0  0
M  END
$$$$
