2or9_ligand
  -I-interpret- 

186185  0  0  0  0  0  0  0  0999 V2000
   43.1710   46.9300   -2.0440 N   0  3  0  0  0
   43.3530   48.3990   -1.8440 C   0  0  0  0  0
   44.8410   48.7850   -1.6900 C   0  0  0  0  0
   45.6540   48.0020   -1.1690 O   0  0  0  0  0
   42.5620   48.8650   -0.6160 C   0  0  0  0  0
   42.5120   50.3850   -0.4680 C   0  0  0  0  0
   42.0020   50.8840    0.8990 C   0  0  0  0  0
   41.9920   52.1210    1.0830 O   0  0  0  0  0
   41.6210   50.0690    1.7770 O   0  0  0  0  0
   45.1870   49.9860   -2.1650 N   0  0  0  0  0
   46.5530   50.5120   -2.0730 C   0  0  0  0  0
   46.5210   51.9850   -1.6890 C   0  0  0  0  0
   45.8400   52.7840   -2.3310 O   0  0  0  0  0
   47.2950   50.3490   -3.3960 C   0  0  0  0  0
   47.4670   48.9200   -3.7980 C   0  0  0  0  0
   48.3310   48.7610   -5.0240 C   0  0  0  0  0
   49.5100   49.1070   -5.0010 O   0  0  0  0  0
   47.7510   48.2350   -6.1100 N   0  0  0  0  0
   47.2580   52.3320   -0.6400 N   0  0  0  0  0
   47.3000   53.6980   -0.1710 C   0  0  0  0  0
   48.4540   53.9770    0.7850 C   0  0  0  0  0
   48.9760   53.0800    1.4500 O   0  0  0  0  0
   45.9930   54.0540    0.5400 C   0  0  0  0  0
   45.9410   53.5810    1.9880 C   0  0  0  0  0
   44.6720   54.0240    2.6990 C   0  0  0  0  0
   44.7590   53.7020    4.1880 C   0  0  0  0  0
   43.4310   53.6660    4.8450 N   0  3  0  0  0
   48.8350   55.2470    0.8540 N   0  0  0  0  0
   49.9010   55.6710    1.7320 C   0  0  0  0  0
   49.2880   55.8420    3.1070 C   0  0  0  0  0
   48.0770   56.0290    3.2340 O   0  0  0  0  0
   50.5030   56.9830    1.2290 C   0  0  0  0  0
   51.1620   56.9210   -0.1580 C   0  0  0  0  0
   51.4590   58.3410   -0.6000 C   0  0  0  0  0
   52.4500   56.0890   -0.1380 C   0  0  0  0  0
   50.1240   55.7790    4.1330 N   0  0  0  0  0
   49.6660   55.8790    5.5120 C   0  0  0  0  0
   50.7710   56.3920    6.4160 C   0  0  0  0  0
   51.9330   56.4490    6.0300 O   0  0  0  0  0
   49.2830   54.5020    6.0350 C   0  0  0  0  0
   50.4560   53.5360    5.7710 C   0  0  0  0  0
   48.0100   54.0210    5.3590 C   0  0  0  0  0
   50.4070   52.2510    6.5290 C   0  0  0  0  0
   50.4100   56.7260    7.6440 N   0  0  0  0  0
   51.3870   57.2210    8.5890 C   0  0  0  0  0
   52.1300   56.0290    9.1820 C   0  0  0  0  0
   51.6250   54.9090    9.1690 O   0  0  0  0  0
   50.6880   57.9890    9.7050 C   0  0  0  0  0
   50.0220   57.0960   10.5810 O   0  0  0  0  0
   53.3290   56.2670    9.6950 N   0  0  0  0  0
   54.0910   55.2030   10.3070 C   0  0  0  0  0
   53.2390   54.6610   11.4540 C   0  0  0  0  0
   53.2770   53.4700   11.7540 O   0  0  0  0  0
   55.4110   55.7420   10.8560 C   0  0  0  0  0
   56.4200   54.6540   11.1900 C   0  0  0  0  0
   57.6530   55.1700   11.9300 C   0  0  0  0  0
   58.1180   56.2910   11.6200 O   0  0  0  0  0
   58.1690   54.4450   12.8120 O   0  0  0  0  0
   52.4620   55.5370   12.0860 N   0  0  0  0  0
   51.6140   55.1300   13.2020 C   0  0  0  0  0
   50.5250   54.1370   12.8070 C   0  0  0  0  0
   50.2330   53.2000   13.5580 O   0  0  0  0  0
   50.9690   56.3480   13.8620 C   0  0  0  0  0
   51.9330   57.1890   14.6910 C   0  0  0  0  0
   52.3660   56.5130   15.9840 C   0  0  0  0  0
   51.4750   56.0200   16.7140 O   0  0  0  0  0
   53.5890   56.4890   16.2760 O   0  0  0  0  0
   49.9120   54.3400   11.6430 N   0  0  0  0  0
   48.8760   53.4250   11.1930 C   0  0  0  0  0
   49.5420   52.1780   10.6440 C   0  0  0  0  0
   48.8730   51.2460   10.2090 O   0  0  0  0  0
   48.0140   54.0440   10.0870 C   0  0  0  0  0
   47.3590   55.3360   10.5080 C   0  0  0  0  0
   47.0990   55.4960   11.7160 O   0  0  0  0  0
   47.0940   56.1830    9.6230 O   0  0  0  0  0
   50.8670   52.1570   10.6670 N   0  0  0  0  0
   51.5900   51.0150   10.1430 C   0  0  0  0  0
   51.4250   49.7360   10.9550 C   0  0  0  0  0
   51.1320   48.6960   10.3910 O   0  0  0  0  0
   53.0740   51.3540    9.9910 C   0  0  0  0  0
   53.9080   50.2650    9.3140 C   0  0  0  0  0
   55.1070   50.8980    8.6350 C   0  0  0  0  0
   54.3410   49.2070   10.3340 C   0  0  0  0  0
   51.6050   49.8020   12.2700 N   0  0  0  0  0
   51.4810   48.6000   13.1030 C   0  0  0  0  0
   50.0440   48.1620   13.4310 C   0  0  0  0  0
   49.8620   46.9960   13.8540 O   0  0  0  0  0
   52.2900   48.7550   14.4050 C   0  0  0  0  0
   52.0500   50.0820   15.0970 C   0  0  0  0  0
   52.4890   51.1330   14.6180 O   0  0  0  0  0
   51.3520   50.0450   16.2320 N   0  0  0  0  0
   49.1150   48.9780   13.2710 O   0  0  0  0  0
   43.7010   46.6313   -2.8627 H   0  0  0  0  0
   43.5067   46.4317   -1.2198 H   0  0  0  0  0
   42.1814   46.7274   -2.1856 H   0  0  0  0  0
   42.9746   48.8988   -2.7357 H   0  0  0  0  0
   43.0601   48.4649    0.2671 H   0  0  0  0  0
   41.5372   48.5121   -0.7317 H   0  0  0  0  0
   41.8147   50.7538   -1.2202 H   0  0  0  0  0
   43.5341   50.7477   -0.5765 H   0  0  0  0  0
   41.7072   49.1741    1.4403 H   0  0  0  0  0
   44.4711   50.5604   -2.6099 H   0  0  0  0  0
   47.0802   49.9442   -1.3063 H   0  0  0  0  0
   48.2882   50.7813   -3.2747 H   0  0  0  0  0
   46.7064   50.8426   -4.1694 H   0  0  0  0  0
   46.4812   48.5158   -4.0282 H   0  0  0  0  0
   47.9538   48.3968   -2.9750 H   0  0  0  0  0
   48.2916   48.1070   -6.9654 H   0  0  0  0  0
   46.7685   47.9623   -6.0819 H   0  0  0  0  0
   47.8051   51.6202   -0.1559 H   0  0  0  0  0
   47.4463   54.3116   -1.0599 H   0  0  0  0  0
   45.1830   53.5592    0.0042 H   0  0  0  0  0
   45.9090   55.1407    0.5469 H   0  0  0  0  0
   46.7910   54.0149    2.5146 H   0  0  0  0  0
   45.9635   52.4912    1.9872 H   0  0  0  0  0
   43.8208   53.4955    2.2699 H   0  0  0  0  0
   44.5514   55.1001    2.5742 H   0  0  0  0  0
   45.3472   54.4856    4.6657 H   0  0  0  0  0
   45.2097   52.7149    4.2908 H   0  0  0  0  0
   43.5483   53.4474    5.8344 H   0  0  0  0  0
   42.9801   54.5757    4.7477 H   0  0  0  0  0
   42.8539   52.9502    4.4035 H   0  0  0  0  0
   48.3636   55.9402    0.2729 H   0  0  0  0  0
   50.7088   54.9398    1.7636 H   0  0  0  0  0
   51.2891   57.2537    1.9339 H   0  0  0  0  0
   49.6788   57.6918    1.1492 H   0  0  0  0  0
   50.4819   56.4346   -0.8573 H   0  0  0  0  0
   50.5287   58.9068   -0.6497 H   0  0  0  0  0
   52.1330   58.8099    0.1169 H   0  0  0  0  0
   51.9280   58.3234   -1.5838 H   0  0  0  0  0
   53.1587   56.5356    0.5593 H   0  0  0  0  0
   52.2191   55.0718    0.1783 H   0  0  0  0  0
   52.8845   56.0703   -1.1375 H   0  0  0  0  0
   51.1202   55.6566    3.9513 H   0  0  0  0  0
   48.8161   56.5614    5.5198 H   0  0  0  0  0
   49.0882   54.5446    7.1066 H   0  0  0  0  0
   51.3624   54.0514    6.0887 H   0  0  0  0  0
   50.4144   53.2762    4.7132 H   0  0  0  0  0
   47.2016   54.7213    5.5692 H   0  0  0  0  0
   48.1714   53.9629    4.2826 H   0  0  0  0  0
   47.7470   53.0350    5.7420 H   0  0  0  0  0
   50.4130   52.4611    7.5985 H   0  0  0  0  0
   49.4964   51.7115    6.2685 H   0  0  0  0  0
   51.2759   51.6454    6.2715 H   0  0  0  0  0
   49.4344   56.6337    7.9270 H   0  0  0  0  0
   52.0843   57.8899    8.0846 H   0  0  0  0  0
   49.9552   58.6650    9.2643 H   0  0  0  0  0
   51.4332   58.5490   10.2699 H   0  0  0  0  0
   49.5881   57.5957   11.2764 H   0  0  0  0  0
   53.7170   57.2096    9.6573 H   0  0  0  0  0
   54.3250   54.4251    9.5802 H   0  0  0  0  0
   55.1876   56.2757   11.7797 H   0  0  0  0  0
   55.8531   56.3725   10.0846 H   0  0  0  0  0
   56.7603   54.2235   10.2482 H   0  0  0  0  0
   55.9231   53.9367   11.8432 H   0  0  0  0  0
   57.6624   53.6337   12.8945 H   0  0  0  0  0
   52.4590   56.5115   11.7848 H   0  0  0  0  0
   52.2744   54.6240   13.9062 H   0  0  0  0  0
   50.1989   55.9783   14.5390 H   0  0  0  0  0
   50.5898   56.9851   13.0630 H   0  0  0  0  0
   51.4177   58.1114   14.9589 H   0  0  0  0  0
   52.8275   57.3521   14.0898 H   0  0  0  0  0
   54.0913   56.9205   15.5809 H   0  0  0  0  0
   50.1700   55.1399   11.0651 H   0  0  0  0  0
   48.2306   53.1939   12.0404 H   0  0  0  0  0
   47.2238   53.3337    9.8436 H   0  0  0  0  0
   48.6645   54.2609    9.2397 H   0  0  0  0  0
   47.3808   55.8520    8.7687 H   0  0  0  0  0
   51.3805   52.9482   11.0553 H   0  0  0  0  0
   51.1455   50.8067    9.1698 H   0  0  0  0  0
   53.4757   51.4847   10.9958 H   0  0  0  0  0
   53.1354   52.2409    9.3603 H   0  0  0  0  0
   53.3038   49.7630    8.5583 H   0  0  0  0  0
   54.7639   51.6126    7.8868 H   0  0  0  0  0
   55.7146   51.4128    9.3793 H   0  0  0  0  0
   55.7013   50.1220    8.1526 H   0  0  0  0  0
   54.9398   49.6788   11.1130 H   0  0  0  0  0
   53.4571   48.7506   10.7796 H   0  0  0  0  0
   54.9330   48.4415    9.8324 H   0  0  0  0  0
   51.8315   50.6966   12.7046 H   0  0  0  0  0
   51.8902   47.8008   12.4850 H   0  0  0  0  0
   50.7049   46.5390   13.9021 H   0  0  0  0  0
   53.3477   48.7015   14.1471 H   0  0  0  0  0
   51.9772   47.9638   15.0864 H   0  0  0  0  0
   51.1612   50.9077   16.7417 H   0  0  0  0  0
   51.0087   49.1540   16.5908 H   0  0  0  0  0
  1  2  1  0  0  0
  2  3  1  0  0  0
  2  5  1  0  0  0
  3  4  2  0  0  0
  3 10  1  0  0  0
  5  6  1  0  0  0
  6  7  1  0  0  0
  7  8  2  0  0  0
  7  9  1  0  0  0
 10 11  1  0  0  0
 11 12  1  0  0  0
 11 14  1  0  0  0
 12 13  2  0  0  0
 12 19  1  0  0  0
 14 15  1  0  0  0
 15 16  1  0  0  0
 16 17  2  0  0  0
 16 18  1  0  0  0
 19 20  1  0  0  0
 20 21  1  0  0  0
 20 23  1  0  0  0
 21 22  2  0  0  0
 21 28  1  0  0  0
 23 24  1  0  0  0
 24 25  1  0  0  0
 25 26  1  0  0  0
 26 27  1  0  0  0
 28 29  1  0  0  0
 29 30  1  0  0  0
 29 32  1  0  0  0
 30 31  2  0  0  0
 30 36  1  0  0  0
 32 33  1  0  0  0
 33 34  1  0  0  0
 33 35  1  0  0  0
 36 37  1  0  0  0
 37 38  1  0  0  0
 37 40  1  0  0  0
 38 39  2  0  0  0
 38 44  1  0  0  0
 40 41  1  0  0  0
 40 42  1  0  0  0
 41 43  1  0  0  0
 44 45  1  0  0  0
 45 46  1  0  0  0
 45 48  1  0  0  0
 46 47  2  0  0  0
 46 50  1  0  0  0
 48 49  1  0  0  0
 50 51  1  0  0  0
 51 52  1  0  0  0
 51 54  1  0  0  0
 52 53  2  0  0  0
 52 59  1  0  0  0
 54 55  1  0  0  0
 55 56  1  0  0  0
 56 57  2  0  0  0
 56 58  1  0  0  0
 59 60  1  0  0  0
 60 61  1  0  0  0
 60 63  1  0  0  0
 61 62  2  0  0  0
 61 68  1  0  0  0
 63 64  1  0  0  0
 64 65  1  0  0  0
 65 66  2  0  0  0
 65 67  1  0  0  0
 68 69  1  0  0  0
 69 70  1  0  0  0
 69 72  1  0  0  0
 70 71  2  0  0  0
 70 76  1  0  0  0
 72 73  1  0  0  0
 73 74  2  0  0  0
 73 75  1  0  0  0
 76 77  1  0  0  0
 77 78  1  0  0  0
 77 80  1  0  0  0
 78 79  2  0  0  0
 78 84  1  0  0  0
 80 81  1  0  0  0
 81 82  1  0  0  0
 81 83  1  0  0  0
 84 85  1  0  0  0
 85 86  1  0  0  0
 85 88  1  0  0  0
 86 87  1  0  0  0
 86 92  2  0  0  0
 88 89  1  0  0  0
 89 90  2  0  0  0
 89 91  1  0  0  0
  1 93  1  0  0  0
  1 94  1  0  0  0
  1 95  1  0  0  0
  2 96  1  0  0  0
  5 97  1  0  0  0
  5 98  1  0  0  0
  6 99  1  0  0  0
  6100  1  0  0  0
  9101  1  0  0  0
 10102  1  0  0  0
 11103  1  0  0  0
 14104  1  0  0  0
 14105  1  0  0  0
 15106  1  0  0  0
 15107  1  0  0  0
 18108  1  0  0  0
 18109  1  0  0  0
 19110  1  0  0  0
 20111  1  0  0  0
 23112  1  0  0  0
 23113  1  0  0  0
 24114  1  0  0  0
 24115  1  0  0  0
 25116  1  0  0  0
 25117  1  0  0  0
 26118  1  0  0  0
 26119  1  0  0  0
 27120  1  0  0  0
 27121  1  0  0  0
 27122  1  0  0  0
 28123  1  0  0  0
 29124  1  0  0  0
 32125  1  0  0  0
 32126  1  0  0  0
 33127  1  0  0  0
 34128  1  0  0  0
 34129  1  0  0  0
 34130  1  0  0  0
 35131  1  0  0  0
 35132  1  0  0  0
 35133  1  0  0  0
 36134  1  0  0  0
 37135  1  0  0  0
 40136  1  0  0  0
 41137  1  0  0  0
 41138  1  0  0  0
 42139  1  0  0  0
 42140  1  0  0  0
 42141  1  0  0  0
 43142  1  0  0  0
 43143  1  0  0  0
 43144  1  0  0  0
 44145  1  0  0  0
 45146  1  0  0  0
 48147  1  0  0  0
 48148  1  0  0  0
 49149  1  0  0  0
 50150  1  0  0  0
 51151  1  0  0  0
 54152  1  0  0  0
 54153  1  0  0  0
 55154  1  0  0  0
 55155  1  0  0  0
 58156  1  0  0  0
 59157  1  0  0  0
 60158  1  0  0  0
 63159  1  0  0  0
 63160  1  0  0  0
 64161  1  0  0  0
 64162  1  0  0  0
 67163  1  0  0  0
 68164  1  0  0  0
 69165  1  0  0  0
 72166  1  0  0  0
 72167  1  0  0  0
 75168  1  0  0  0
 76169  1  0  0  0
 77170  1  0  0  0
 80171  1  0  0  0
 80172  1  0  0  0
 81173  1  0  0  0
 82174  1  0  0  0
 82175  1  0  0  0
 82176  1  0  0  0
 83177  1  0  0  0
 83178  1  0  0  0
 83179  1  0  0  0
 84180  1  0  0  0
 85181  1  0  0  0
 87182  1  0  0  0
 88183  1  0  0  0
 88184  1  0  0  0
 91185  1  0  0  0
 91186  1  0  0  0
M  END
$$$$
