### 
### Created by X-TOOL on Mon Sep 10 21:12:59 2018
### 

@<TRIPOS>MOLECULE
2or9_ligand
  181   180     1     0     0
SMALL
GAST_HUCK


@<TRIPOS>ATOM
      1 N          43.1710   46.9300   -2.0440 N.4       1 GLU         0.2380
      2 CA         43.3530   48.3990   -1.8440 C.3       1 GLU         0.0665
      3 C          44.8410   48.7850   -1.6900 C.2       1 GLU         0.2268
      4 O          45.6540   48.0020   -1.1690 O.2       1 GLU        -0.3907
      5 CB         42.5620   48.8650   -0.6160 C.3       1 GLU         0.0194
      6 CG         42.5120   50.3850   -0.4680 C.3       1 GLU         0.0075
      7 CD         42.0020   50.8840    0.8990 C.2       1 GLU         0.0351
      8 OE1        41.9920   52.1210    1.0830 O.co2     1 GLU        -0.5690
      9 OE2        41.6210   50.0690    1.7770 O.co2     1 GLU        -0.5690
     10 N          45.1870   49.9860   -2.1650 N.am      1 GLN        -0.2609
     11 CA         46.5530   50.5120   -2.0730 C.3       1 GLN         0.1331
     12 C          46.5210   51.9850   -1.6890 C.2       1 GLN         0.2040
     13 O          45.8400   52.7840   -2.3310 O.2       1 GLN        -0.3944
     14 CB         47.2950   50.3490   -3.3960 C.3       1 GLN         0.0045
     15 CG         47.4670   48.9200   -3.7980 C.3       1 GLN         0.0412
     16 CD         48.3310   48.7610   -5.0240 C.2       1 GLN         0.1737
     17 OE1        49.5100   49.1070   -5.0010 O.2       1 GLN        -0.3973
     18 NE2        47.7510   48.2350   -6.1100 N.am      1 GLN        -0.3009
     19 N          47.2580   52.3320   -0.6400 N.am      1 LYS        -0.2637
     20 CA         47.3000   53.6980   -0.1710 C.3       1 LYS         0.1310
     21 C          48.4540   53.9770    0.7850 C.2       1 LYS         0.2039
     22 O          48.9760   53.0800    1.4500 O.2       1 LYS        -0.3944
     23 CB         45.9930   54.0540    0.5400 C.3       1 LYS        -0.0122
     24 CG         45.9410   53.5810    1.9880 C.3       1 LYS        -0.0440
     25 CD         44.6720   54.0240    2.6990 C.3       1 LYS        -0.0124
     26 CE         44.7590   53.7020    4.1880 C.3       1 LYS        -0.0354
     27 NZ         43.4310   53.6660    4.8450 N.4       1 LYS         0.2185
     28 N          48.8350   55.2470    0.8540 N.am      1 LEU        -0.2637
     29 CA         49.9010   55.6710    1.7320 C.3       1 LEU         0.1312
     30 C          49.2880   55.8420    3.1070 C.2       1 LEU         0.2039
     31 O          48.0770   56.0290    3.2340 O.2       1 LEU        -0.3944
     32 CB         50.5030   56.9830    1.2290 C.3       1 LEU        -0.0101
     33 CG         51.1620   56.9210   -0.1580 C.3       1 LEU        -0.0425
     34 CD1        51.4590   58.3410   -0.6000 C.3       1 LEU        -0.0625
     35 CD2        52.4500   56.0890   -0.1380 C.3       1 LEU        -0.0625
     36 N          50.1240   55.7790    4.1330 N.am      1 ILE        -0.2635
     37 CA         49.6660   55.8790    5.5120 C.3       1 ILE         0.1335
     38 C          50.7710   56.3920    6.4160 C.2       1 ILE         0.2042
     39 O          51.9330   56.4490    6.0300 O.2       1 ILE        -0.3944
     40 CB         49.2830   54.5020    6.0350 C.3       1 ILE        -0.0037
     41 CG1        50.4560   53.5360    5.7710 C.3       1 ILE        -0.0491
     42 CG2        48.0100   54.0210    5.3590 C.3       1 ILE        -0.0582
     43 CD1        50.4070   52.2510    6.5290 C.3       1 ILE        -0.0648
     44 N          50.4100   56.7260    7.6440 N.am      1 SER        -0.2616
     45 CA         51.3870   57.2210    8.5890 C.3       1 SER         0.1539
     46 C          52.1300   56.0290    9.1820 C.2       1 SER         0.2062
     47 O          51.6250   54.9090    9.1690 O.2       1 SER        -0.3943
     48 CB         50.6880   57.9890    9.7050 C.3       1 SER         0.0843
     49 OG         50.0220   57.0960   10.5810 O.3       1 SER        -0.3903
     50 N          53.3290   56.2670    9.6950 N.am      1 GLU        -0.2636
     51 CA         54.0910   55.2030   10.3070 C.3       1 GLU         0.1325
     52 C          53.2390   54.6610   11.4540 C.2       1 GLU         0.2040
     53 O          53.2770   53.4700   11.7540 O.2       1 GLU        -0.3944
     54 CB         55.4110   55.7420   10.8560 C.3       1 GLU        -0.0008
     55 CG         56.4200   54.6540   11.1900 C.3       1 GLU         0.0044
     56 CD         57.6530   55.1700   11.9300 C.2       1 GLU         0.0350
     57 OE1        58.1180   56.2910   11.6200 O.co2     1 GLU        -0.5690
     58 OE2        58.1690   54.4450   12.8120 O.co2     1 GLU        -0.5690
     59 N          52.4620   55.5370   12.0860 N.am      1 GLU        -0.2636
     60 CA         51.6140   55.1300   13.2020 C.3       1 GLU         0.1325
     61 C          50.5250   54.1370   12.8070 C.2       1 GLU         0.2041
     62 O          50.2330   53.2000   13.5580 O.2       1 GLU        -0.3944
     63 CB         50.9690   56.3480   13.8620 C.3       1 GLU        -0.0008
     64 CG         51.9330   57.1890   14.6910 C.3       1 GLU         0.0044
     65 CD         52.3660   56.5130   15.9840 C.2       1 GLU         0.0350
     66 OE1        51.4750   56.0200   16.7140 O.co2     1 GLU        -0.5690
     67 OE2        53.5890   56.4890   16.2760 O.co2     1 GLU        -0.5690
     68 N          49.9120   54.3400   11.6430 N.am      1 ASP        -0.2622
     69 CA         48.8760   53.4250   11.1930 C.3       1 ASP         0.1423
     70 C          49.5420   52.1780   10.6440 C.2       1 ASP         0.2056
     71 O          48.8730   51.2460   10.2090 O.2       1 ASP        -0.3943
     72 CB         48.0140   54.0440   10.0870 C.3       1 ASP         0.0406
     73 CG         47.3590   55.3360   10.5080 C.2       1 ASP         0.0393
     74 OD1        47.0990   55.4960   11.7160 O.co2     1 ASP        -0.5688
     75 OD2        47.0940   56.1830    9.6230 O.co2     1 ASP        -0.5688
     76 N          50.8670   52.1570   10.6670 N.am      1 LEU        -0.2636
     77 CA         51.5900   51.0150   10.1430 C.3       1 LEU         0.1312
     78 C          51.4250   49.7360   10.9550 C.2       1 LEU         0.2035
     79 O          51.1320   48.6960   10.3910 O.2       1 LEU        -0.3944
     80 CB         53.0740   51.3540    9.9910 C.3       1 LEU        -0.0101
     81 CG         53.9080   50.2650    9.3140 C.3       1 LEU        -0.0425
     82 CD1        55.1070   50.8980    8.6350 C.3       1 LEU        -0.0625
     83 CD2        54.3410   49.2070   10.3340 C.3       1 LEU        -0.0625
     84 N          51.6050   49.8020   12.2700 N.am      1 ASN        -0.2674
     85 CA         51.4810   48.6000   13.1030 C.3       1 ASN         0.1110
     86 C          50.0440   48.1620   13.4310 C.2       1 ASN         0.0624
     87 O          49.8620   46.9960   13.8540 O.co2     1 ASN        -0.5665
     88 CB         52.2900   48.7550   14.4050 C.3       1 ASN         0.0718
     89 CG         52.0500   50.0820   15.0970 C.2       1 ASN         0.1774
     90 OD1        52.4890   51.1330   14.6180 O.2       1 ASN        -0.3971
     91 ND2        51.3520   50.0450   16.2320 N.am      1 ASN        -0.3007
     92 OXT        49.1150   48.9780   13.2710 O.co2     1 ASN        -0.5665
     93 H1         42.1891   46.7230   -2.1395 H         1 GLU         0.2015
     94 H2         43.5431   46.4340   -1.2493 H         1 GLU         0.2015
     95 H3         43.6578   46.6416   -2.8782 H         1 GLU         0.2015
     96 H4         42.9565   48.9154   -2.7306 H         1 GLU         0.1099
     97 H5         43.0334   48.4424    0.2835 H         1 GLU         0.0363
     98 H6         41.5318   48.4889   -0.7013 H         1 GLU         0.0363
     99 H7         41.8464   50.7833   -1.2479 H         1 GLU         0.0434
    100 H8         43.5286   50.7773   -0.6181 H         1 GLU         0.0434
    101 H9         44.4851   50.5491   -2.6012 H         1 GLN         0.1885
    102 H10        47.0924   49.9522   -1.2948 H         1 GLN         0.0801
    103 H11        48.2900   50.8076   -3.2984 H         1 GLN         0.0337
    104 H12        46.7274   50.8682   -4.1823 H         1 GLN         0.0337
    105 H13        46.4759   48.4915   -4.0079 H         1 GLN         0.0504
    106 H14        47.9338   48.3737   -2.9651 H         1 GLN         0.0504
    107 H15        48.2812   48.1089   -6.9485 H         1 GLN         0.1814
    108 H16        46.7876   47.9682   -6.0827 H         1 GLN         0.1814
    109 H17        47.7944   51.6341   -0.1654 H         1 LYS         0.1883
    110 H18        47.4159   54.3510   -1.0485 H         1 LYS         0.0800
    111 H19        45.1604   53.5892   -0.0083 H         1 LYS         0.0312
    112 H20        45.8758   55.1476    0.5265 H         1 LYS         0.0312
    113 H21        46.8084   53.9924    2.5251 H         1 LYS         0.0269
    114 H22        45.9882   52.4821    2.0023 H         1 LYS         0.0269
    115 H23        43.8097   53.4977    2.2638 H         1 LYS         0.0317
    116 H24        44.5432   55.1087    2.5693 H         1 LYS         0.0317
    117 H25        45.3735   54.4711    4.6789 H         1 LYS         0.0813
    118 H26        45.2374   52.7188    4.3079 H         1 LYS         0.0813
    119 H27        43.5457   53.4501    5.8229 H         1 LYS         0.1994
    120 H28        42.8597   52.9588    4.4095 H         1 LYS         0.1994
    121 H29        42.9844   54.5646    4.7495 H         1 LYS         0.1994
    122 H30        48.3728   55.9266    0.2843 H         1 LEU         0.1883
    123 H31        50.6880   54.9034    1.7675 H         1 LEU         0.0800
    124 H32        51.2665   57.3047    1.9526 H         1 LEU         0.0315
    125 H33        49.6979   57.7314    1.1882 H         1 LEU         0.0315
    126 H34        50.4593   56.4597   -0.8675 H         1 LEU         0.0298
    127 H35        51.9324   58.3245   -1.5928 H         1 LEU         0.0232
    128 H36        52.1392   58.8153    0.1227 H         1 LEU         0.0232
    129 H37        50.5209   58.9131   -0.6506 H         1 LEU         0.0232
    130 H38        52.2187   55.0630    0.1841 H         1 LEU         0.0232
    131 H39        53.1673   56.5405    0.5631 H         1 LEU         0.0232
    132 H40        52.8878   56.0667   -1.1469 H         1 LEU         0.0232
    133 H41        51.1007   55.6590    3.9549 H         1 ILE         0.1883
    134 H42        48.7998   56.5555    5.5579 H         1 ILE         0.0803
    135 H43        49.1052   54.5623    7.1189 H         1 ILE         0.0345
    136 H44        51.3891   54.0532    6.0389 H         1 ILE         0.0267
    137 H45        50.4645   53.2971    4.6973 H         1 ILE         0.0267
    138 H46        47.1946   54.7298    5.5660 H         1 ILE         0.0235
    139 H47        47.7405   53.0282    5.7486 H         1 ILE         0.0235
    140 H48        48.1732   53.9569    4.2731 H         1 ILE         0.0235
    141 H49        51.2835   51.6389    6.2699 H         1 ILE         0.0230
    142 H50        49.4884   51.7055    6.2670 H         1 ILE         0.0230
    143 H51        50.4131   52.4616    7.6086 H         1 ILE         0.0230
    144 H52        49.4535   56.6355    7.9214 H         1 SER         0.1884
    145 H53        52.0973   57.8852    8.0749 H         1 SER         0.0823
    146 H54        49.9533   58.6790    9.2644 H         1 SER         0.0606
    147 H55        51.4354   58.5627   10.2727 H         1 SER         0.0606
    148 H56        49.3740   56.6007   10.0939 H         1 SER         0.2097
    149 H57        53.7094   57.1911    9.6580 H         1 GLU         0.1883
    150 H58        54.2935   54.4094    9.5727 H         1 GLU         0.0801
    151 H59        55.1995   56.3134   11.7719 H         1 GLU         0.0330
    152 H60        55.8550   56.4087   10.1022 H         1 GLU         0.0330
    153 H61        56.7490   54.1846   10.2512 H         1 GLU         0.0433
    154 H62        55.9245   53.9022   11.8219 H         1 GLU         0.0433
    155 H63        52.4590   56.4924   11.7907 H         1 GLU         0.1883
    156 H64        52.2606   54.6388   13.9440 H         1 GLU         0.0801
    157 H65        50.1618   55.9968   14.5215 H         1 GLU         0.0330
    158 H66        50.5457   56.9856   13.0719 H         1 GLU         0.0330
    159 H67        51.4392   58.1391   14.9427 H         1 GLU         0.0433
    160 H68        52.8292   57.3905   14.0858 H         1 GLU         0.0433
    161 H69        50.1649   55.1243   11.0765 H         1 ASP         0.1884
    162 H70        48.2333   53.1598   12.0454 H         1 ASP         0.0819
    163 H71        47.2281   53.3256    9.8109 H         1 ASP         0.0478
    164 H72        48.6527   54.2425    9.2137 H         1 ASP         0.0478
    165 H73        51.3704   52.9327   11.0477 H         1 LEU         0.1883
    166 H74        51.1865   50.8127    9.1399 H         1 LEU         0.0800
    167 H75        53.4902   51.5318   10.9936 H         1 LEU         0.0315
    168 H76        53.1568   52.2725    9.3914 H         1 LEU         0.0315
    169 H77        53.2908   49.7738    8.5474 H         1 LEU         0.0298
    170 H78        55.7077   50.1158    8.1477 H         1 LEU         0.0232
    171 H79        55.7211   51.4179    9.3851 H         1 LEU         0.0232
    172 H80        54.7621   51.6194    7.8796 H         1 LEU         0.0232
    173 H81        53.4504   48.7681   10.8075 H         1 LEU         0.0232
    174 H82        54.9719   49.6760   11.1034 H         1 LEU         0.0232
    175 H83        54.9115   48.4172    9.8234 H         1 LEU         0.0232
    176 H84        51.8271   50.6790   12.6960 H         1 ASN         0.1877
    177 H85        51.9340   47.7783   12.5288 H         1 ASN         0.0752
    178 H86        53.3603   48.6737   14.1645 H         1 ASN         0.0544
    179 H87        52.0061   47.9447   15.0927 H         1 ASN         0.0544
    180 H88        51.1637   50.8909   16.7310 H         1 ASN         0.1814
    181 H89        51.0167   49.1713   16.5845 H         1 ASN         0.1814
@<TRIPOS>BOND
     1    1    2 1  
     2    2    3 1  
     3    2    5 1  
     4    3    4 2  
     5    3   10 am 
     6    5    6 1  
     7    6    7 1  
     8    7    8 ar 
     9    7    9 ar 
    10   10   11 1  
    11   11   12 1  
    12   11   14 1  
    13   12   13 2  
    14   12   19 am 
    15   14   15 1  
    16   15   16 1  
    17   16   17 2  
    18   16   18 am 
    19   19   20 1  
    20   20   21 1  
    21   20   23 1  
    22   21   22 2  
    23   21   28 am 
    24   23   24 1  
    25   24   25 1  
    26   25   26 1  
    27   26   27 1  
    28   28   29 1  
    29   29   30 1  
    30   29   32 1  
    31   30   31 2  
    32   30   36 am 
    33   32   33 1  
    34   33   34 1  
    35   33   35 1  
    36   36   37 1  
    37   37   38 1  
    38   37   40 1  
    39   38   39 2  
    40   38   44 am 
    41   40   41 1  
    42   40   42 1  
    43   41   43 1  
    44   44   45 1  
    45   45   46 1  
    46   45   48 1  
    47   46   47 2  
    48   46   50 am 
    49   48   49 1  
    50   50   51 1  
    51   51   52 1  
    52   51   54 1  
    53   52   53 2  
    54   52   59 am 
    55   54   55 1  
    56   55   56 1  
    57   56   57 ar 
    58   56   58 ar 
    59   59   60 1  
    60   60   61 1  
    61   60   63 1  
    62   61   62 2  
    63   61   68 am 
    64   63   64 1  
    65   64   65 1  
    66   65   66 ar 
    67   65   67 ar 
    68   68   69 1  
    69   69   70 1  
    70   69   72 1  
    71   70   71 2  
    72   70   76 am 
    73   72   73 1  
    74   73   74 ar 
    75   73   75 ar 
    76   76   77 1  
    77   77   78 1  
    78   77   80 1  
    79   78   79 2  
    80   78   84 am 
    81   80   81 1  
    82   81   82 1  
    83   81   83 1  
    84   84   85 1  
    85   85   86 1  
    86   85   88 1  
    87   86   87 ar 
    88   86   92 ar 
    89   88   89 1  
    90   89   90 2  
    91   89   91 am 
    92    1   93 1  
    93    1   94 1  
    94    1   95 1  
    95    2   96 1  
    96    5   97 1  
    97    5   98 1  
    98    6   99 1  
    99    6  100 1  
   100   10  101 1  
   101   11  102 1  
   102   14  103 1  
   103   14  104 1  
   104   15  105 1  
   105   15  106 1  
   106   18  107 1  
   107   18  108 1  
   108   19  109 1  
   109   20  110 1  
   110   23  111 1  
   111   23  112 1  
   112   24  113 1  
   113   24  114 1  
   114   25  115 1  
   115   25  116 1  
   116   26  117 1  
   117   26  118 1  
   118   27  119 1  
   119   27  120 1  
   120   27  121 1  
   121   28  122 1  
   122   29  123 1  
   123   32  124 1  
   124   32  125 1  
   125   33  126 1  
   126   34  127 1  
   127   34  128 1  
   128   34  129 1  
   129   35  130 1  
   130   35  131 1  
   131   35  132 1  
   132   36  133 1  
   133   37  134 1  
   134   40  135 1  
   135   41  136 1  
   136   41  137 1  
   137   42  138 1  
   138   42  139 1  
   139   42  140 1  
   140   43  141 1  
   141   43  142 1  
   142   43  143 1  
   143   44  144 1  
   144   45  145 1  
   145   48  146 1  
   146   48  147 1  
   147   49  148 1  
   148   50  149 1  
   149   51  150 1  
   150   54  151 1  
   151   54  152 1  
   152   55  153 1  
   153   55  154 1  
   154   59  155 1  
   155   60  156 1  
   156   63  157 1  
   157   63  158 1  
   158   64  159 1  
   159   64  160 1  
   160   68  161 1  
   161   69  162 1  
   162   72  163 1  
   163   72  164 1  
   164   76  165 1  
   165   77  166 1  
   166   80  167 1  
   167   80  168 1  
   168   81  169 1  
   169   82  170 1  
   170   82  171 1  
   171   82  172 1  
   172   83  173 1  
   173   83  174 1  
   174   83  175 1  
   175   84  176 1  
   176   85  177 1  
   177   88  178 1  
   178   88  179 1  
   179   91  180 1  
   180   91  181 1  
@<TRIPOS>SUBSTRUCTURE
     1 GLU         1

