5oq4_ligand
  -I-interpret- 

 49 52  0  0  0  0  0  0  0  0999 V2000
   45.3060   12.5880   29.5940 C   0  0  0  0  0
   46.1350   12.3170   28.2710 C   0  0  0  0  0
   47.4790   12.4840   28.5640 O   0  0  0  0  0
   47.7320   13.7680   29.0250 C   0  0  0  0  0
   47.0440   14.1030   30.3950 C   0  0  0  0  0
   45.5960   13.8220   30.3790 N   0  0  0  0  0
   44.6380   14.5750   31.1300 C   0  0  0  0  0
   43.3830   13.9990   31.3750 N   0  0  0  0  0
   45.0220   15.8540   31.4860 N   0  0  0  0  0
   44.0890   16.5810   32.1590 C   0  0  0  0  0
   44.4940   17.9180   32.5830 N   0  0  0  0  0
   43.8990   18.7300   33.6750 C   0  0  0  0  0
   44.2600   20.2630   33.5650 C   0  0  0  0  0
   45.5740   20.5280   33.0990 O   0  0  0  0  0
   45.7870   19.8900   31.8700 C   0  0  0  0  0
   45.8520   18.3800   32.1860 C   0  0  0  0  0
   42.8420   16.0780   32.5040 N   0  0  0  0  0
   42.5150   14.7880   32.0980 C   0  0  0  0  0
   41.0640   14.2480   32.4400 C   0  0  0  0  0
   40.2760   13.5460   31.4970 C   0  0  0  0  0
   39.0330   13.0410   31.6280 N   0  0  0  0  0
   38.3380   13.1580   32.8100 C   0  0  0  0  0
   37.0580   12.6180   32.9510 N   0  0  0  0  0
   39.0180   13.8510   33.8310 C   0  0  0  0  0
   40.3080   14.3580   33.6330 C   0  0  0  0  0
   40.9500   15.0680   34.8130 C   0  0  0  0  0
   41.1940   16.3730   34.5920 F   0  0  0  0  0
   40.2890   15.1550   35.9440 F   0  0  0  0  0
   42.1790   14.5250   35.0400 F   0  0  0  0  0
   45.5568   11.7625   30.2601 H   0  0  0  0  0
   44.2730   12.6978   29.2641 H   0  0  0  0  0
   45.8317   13.0123   27.4883 H   0  0  0  0  0
   45.9513   11.3039   27.9132 H   0  0  0  0  0
   47.3323   14.4613   28.2850 H   0  0  0  0  0
   48.8084   13.8507   29.1756 H   0  0  0  0  0
   47.1795   15.1669   30.5898 H   0  0  0  0  0
   47.5006   13.4795   31.1637 H   0  0  0  0  0
   44.2970   18.3606   34.6201 H   0  0  0  0  0
   42.8151   18.6369   33.6072 H   0  0  0  0  0
   44.1884   20.6798   34.5696 H   0  0  0  0  0
   43.5716   20.7011   32.8423 H   0  0  0  0  0
   46.7062   20.2363   31.3974 H   0  0  0  0  0
   44.9877   20.1133   31.1634 H   0  0  0  0  0
   46.1878   17.8312   31.3061 H   0  0  0  0  0
   46.5566   18.2012   32.9982 H   0  0  0  0  0
   40.7417   13.3912   30.5237 H   0  0  0  0  0
   36.6228   12.1268   32.1701 H   0  0  0  0  0
   36.5582   12.7147   33.8349 H   0  0  0  0  0
   38.5298   13.9954   34.7948 H   0  0  0  0  0
  1  2  1  0  0  0
  1  6  1  0  0  0
  2  3  1  0  0  0
  3  4  1  0  0  0
  4  5  1  0  0  0
  5  6  1  0  0  0
  6  7  1  0  0  0
  7  8  4  0  0  0
  7  9  4  0  0  0
  8 18  4  0  0  0
  9 10  4  0  0  0
 10 11  1  0  0  0
 10 17  4  0  0  0
 11 12  1  0  0  0
 11 16  1  0  0  0
 12 13  1  0  0  0
 13 14  1  0  0  0
 14 15  1  0  0  0
 15 16  1  0  0  0
 17 18  4  0  0  0
 18 19  1  0  0  0
 19 20  4  0  0  0
 19 25  4  0  0  0
 20 21  4  0  0  0
 21 22  4  0  0  0
 22 23  1  0  0  0
 22 24  4  0  0  0
 24 25  4  0  0  0
 25 26  1  0  0  0
 26 27  1  0  0  0
 26 28  1  0  0  0
 26 29  1  0  0  0
  1 30  1  0  0  0
  1 31  1  0  0  0
  2 32  1  0  0  0
  2 33  1  0  0  0
  4 34  1  0  0  0
  4 35  1  0  0  0
  5 36  1  0  0  0
  5 37  1  0  0  0
 12 38  1  0  0  0
 12 39  1  0  0  0
 13 40  1  0  0  0
 13 41  1  0  0  0
 15 42  1  0  0  0
 15 43  1  0  0  0
 16 44  1  0  0  0
 16 45  1  0  0  0
 20 46  1  0  0  0
 23 47  1  0  0  0
 23 48  1  0  0  0
 24 49  1  0  0  0
M  END
$$$$
