5ml8_ligand
  -I-interpret- 

 80 84  0  0  0  0  0  0  0  0999 V2000
  -16.0660    2.8690  -12.8820 C   0  0  0  0  0
  -14.8960    2.0070  -12.4450 C   0  0  0  0  0
  -14.0860    1.7270  -13.6580 N   0  3  0  0  0
  -14.8290    0.9830  -14.6980 C   0  0  0  0  0
  -16.0370    1.7970  -15.1660 C   0  0  0  0  0
  -16.9170    2.1530  -13.9490 C   0  0  0  0  0
  -18.0550    3.0830  -14.3020 C   0  0  0  0  0
  -18.6330    2.7820  -15.6470 N   0  0  0  0  0
  -19.7900    1.8650  -15.6000 C   0  0  0  0  0
  -19.5710    0.7050  -16.3630 C   0  0  0  0  0
  -19.4000   -0.5460  -15.7500 C   0  0  0  0  0
  -19.2000   -1.7020  -16.5180 C   0  0  0  0  0
  -19.1820   -1.6190  -17.9010 C   0  0  0  0  0
  -19.3680   -0.3830  -18.5100 C   0  0  0  0  0
  -19.5700    0.7690  -17.7530 C   0  0  0  0  0
  -19.0700    4.3300  -16.3530 S   0  0  0  0  0
  -19.7050    4.1460  -17.7330 O   0  0  0  0  0
  -17.8310    5.1970  -16.4660 O   0  0  0  0  0
  -20.2650    5.1760  -15.3180 C   0  0  0  0  0
  -19.8630    6.2010  -14.4560 C   0  0  0  0  0
  -20.8050    6.8510  -13.6530 C   0  0  0  0  0
  -21.6130    4.8120  -15.3700 C   0  0  0  0  0
  -22.5490    5.4580  -14.5740 C   0  0  0  0  0
  -22.1500    6.4820  -13.7200 C   0  0  0  0  0
  -23.3230    7.2990  -12.7570 S   0  0  0  0  0
  -22.5970    8.0680  -11.6630 O   0  0  0  0  0
  -24.2180    6.2650  -12.0850 O   0  0  0  0  0
  -24.3650    8.5180  -13.6890 N   0  0  0  0  0
  -23.9560    9.1420  -14.9710 C   0  0  0  0  0
  -22.5940    8.8180  -15.4580 C   0  0  0  0  0
  -22.4900    9.9140  -16.5450 C   0  0  0  0  0
  -23.3880   11.0680  -16.1150 C   0  0  0  0  0
  -23.9200   10.6400  -14.7880 C   0  0  0  0  0
  -25.7460    8.0360  -13.9110 C   0  0  0  0  0
  -26.6240    8.6060  -13.0140 C   0  0  0  0  0
  -27.9770    8.5610  -13.3130 C   0  0  0  0  0
  -28.9000    9.1000  -12.4330 C   0  0  0  0  0
  -28.4430    9.6750  -11.2620 C   0  0  0  0  0
  -29.5170   10.3300  -10.2070 Cl  0  0  0  0  0
  -27.0950    9.7180  -10.9520 C   0  0  0  0  0
  -26.1750    9.1850  -11.8300 C   0  0  0  0  0
  -15.6770    3.7932  -13.3095 H   0  0  0  0  0
  -16.6935    3.0704  -12.0138 H   0  0  0  0  0
  -15.2478    1.0793  -11.9936 H   0  0  0  0  0
  -14.2982    2.5210  -11.6923 H   0  0  0  0  0
  -13.2935    1.1512  -13.3736 H   0  0  0  0  0
  -13.8097    2.6236  -14.0582 H   0  0  0  0  0
  -15.1750    0.0367  -14.2822 H   0  0  0  0  0
  -14.1700    0.8010  -15.5469 H   0  0  0  0  0
  -16.6186    1.2099  -15.8767 H   0  0  0  0  0
  -15.6945    2.7126  -15.6481 H   0  0  0  0  0
  -17.3266    1.2114  -13.5834 H   0  0  0  0  0
  -17.6677    4.1017  -14.3194 H   0  0  0  0  0
  -18.8414    2.9545  -13.5583 H   0  0  0  0  0
  -20.6554    2.3855  -16.0102 H   0  0  0  0  0
  -19.9482    1.5674  -14.5634 H   0  0  0  0  0
  -19.4230   -0.6199  -14.6627 H   0  0  0  0  0
  -19.0588   -2.6651  -16.0275 H   0  0  0  0  0
  -19.0238   -2.5126  -18.5047 H   0  0  0  0  0
  -19.3556   -0.3142  -19.5978 H   0  0  0  0  0
  -19.7280    1.7251  -18.2520 H   0  0  0  0  0
  -18.8140    6.4936  -14.4101 H   0  0  0  0  0
  -20.4899    7.6447  -12.9756 H   0  0  0  0  0
  -21.9322    4.0145  -16.0409 H   0  0  0  0  0
  -23.5974    5.1630  -14.6178 H   0  0  0  0  0
  -24.6826    8.7574  -15.6867 H   0  0  0  0  0
  -22.4505    7.7953  -15.8066 H   0  0  0  0  0
  -21.8092    8.8303  -14.7017 H   0  0  0  0  0
  -22.8057    9.5239  -17.5126 H   0  0  0  0  0
  -21.4588   10.2509  -16.6507 H   0  0  0  0  0
  -24.1832   11.2618  -16.8348 H   0  0  0  0  0
  -22.8464   12.0121  -16.0569 H   0  0  0  0  0
  -23.3181   10.9695  -13.9411 H   0  0  0  0  0
  -24.8845   11.0795  -14.5336 H   0  0  0  0  0
  -25.7629    6.9547  -13.7747 H   0  0  0  0  0
  -26.0523    8.3115  -14.9201 H   0  0  0  0  0
  -28.3144    8.1009  -14.2417 H   0  0  0  0  0
  -29.9659    9.0715  -12.6591 H   0  0  0  0  0
  -26.7621   10.1711  -10.0182 H   0  0  0  0  0
  -25.1100    9.2165  -11.6001 H   0  0  0  0  0
  1  2  1  0  0  0
  1  6  1  0  0  0
  2  3  1  0  0  0
  3  4  1  0  0  0
  4  5  1  0  0  0
  5  6  1  0  0  0
  6  7  1  0  0  0
  7  8  1  0  0  0
  8  9  1  0  0  0
  8 16  1  0  0  0
  9 10  1  0  0  0
 10 11  4  0  0  0
 10 15  4  0  0  0
 11 12  4  0  0  0
 12 13  4  0  0  0
 13 14  4  0  0  0
 14 15  4  0  0  0
 16 17  2  0  0  0
 16 18  2  0  0  0
 16 19  1  0  0  0
 19 20  4  0  0  0
 19 22  4  0  0  0
 20 21  4  0  0  0
 21 24  4  0  0  0
 22 23  4  0  0  0
 23 24  4  0  0  0
 24 25  1  0  0  0
 25 26  2  0  0  0
 25 27  2  0  0  0
 25 28  1  0  0  0
 28 29  1  0  0  0
 28 34  1  0  0  0
 29 30  1  0  0  0
 29 33  1  0  0  0
 30 31  1  0  0  0
 31 32  1  0  0  0
 32 33  1  0  0  0
 34 35  1  0  0  0
 35 36  4  0  0  0
 35 41  4  0  0  0
 36 37  4  0  0  0
 37 38  4  0  0  0
 38 39  1  0  0  0
 38 40  4  0  0  0
 40 41  4  0  0  0
  1 42  1  0  0  0
  1 43  1  0  0  0
  2 44  1  0  0  0
  2 45  1  0  0  0
  3 46  1  0  0  0
  3 47  1  0  0  0
  4 48  1  0  0  0
  4 49  1  0  0  0
  5 50  1  0  0  0
  5 51  1  0  0  0
  6 52  1  0  0  0
  7 53  1  0  0  0
  7 54  1  0  0  0
  9 55  1  0  0  0
  9 56  1  0  0  0
 11 57  1  0  0  0
 12 58  1  0  0  0
 13 59  1  0  0  0
 14 60  1  0  0  0
 15 61  1  0  0  0
 20 62  1  0  0  0
 21 63  1  0  0  0
 22 64  1  0  0  0
 23 65  1  0  0  0
 29 66  1  0  0  0
 30 67  1  0  0  0
 30 68  1  0  0  0
 31 69  1  0  0  0
 31 70  1  0  0  0
 32 71  1  0  0  0
 32 72  1  0  0  0
 33 73  1  0  0  0
 33 74  1  0  0  0
 34 75  1  0  0  0
 34 76  1  0  0  0
 36 77  1  0  0  0
 37 78  1  0  0  0
 40 79  1  0  0  0
 41 80  1  0  0  0
M  END
$$$$
