5t52_ligand
  -I-interpret- 

 30 30  0  0  0  0  0  0  0  0999 V2000
  -12.1040   33.5670    1.2090 O   0  0  0  0  0
  -13.2360   32.8870    1.8150 C   0  0  0  0  0
  -14.1090   33.8210    2.4250 O   0  0  0  0  0
  -12.8170   31.8900    2.9100 C   0  0  0  0  0
  -13.9880   31.3540    3.5650 N   0  0  0  0  0
  -11.7770   32.4760    3.9180 C   0  0  0  0  0
  -11.3660   31.3590    4.7550 O   0  0  0  0  0
  -10.6390   33.1220    3.1080 C   0  0  0  0  0
   -9.9440   32.1650    2.3460 O   0  0  0  0  0
  -11.2240   34.1670    2.2110 C   0  0  0  0  0
  -10.1670   34.9990    1.4790 C   0  0  0  0  0
  -10.8300   35.8790    0.5400 O   0  0  0  0  0
  -14.1770   30.0600    3.7720 C   0  0  0  0  0
  -13.3630   29.2110    3.3830 O   0  0  0  0  0
  -15.4080   29.6360    4.5000 C   0  0  0  0  0
  -13.7238   32.3493    1.0020 H   0  0  0  0  0
  -14.3948   34.4640    1.7719 H   0  0  0  0  0
  -12.2916   31.0688    2.4225 H   0  0  0  0  0
  -14.7052   32.0053    3.8840 H   0  0  0  0  0
  -12.1643   33.2620    4.5663 H   0  0  0  0  0
  -12.1293   31.0143    5.2242 H   0  0  0  0  0
   -9.9251   33.5724    3.7976 H   0  0  0  0  0
   -9.5731   31.5000    2.9307 H   0  0  0  0  0
  -11.7851   34.8288    2.8708 H   0  0  0  0  0
   -9.4833   34.3388    0.9454 H   0  0  0  0  0
   -9.5992   35.5888    2.1986 H   0  0  0  0  0
  -10.1733   36.4042    0.0769 H   0  0  0  0  0
  -15.9978   28.9783    3.8615 H   0  0  0  0  0
  -15.1261   29.1049    5.4092 H   0  0  0  0  0
  -15.9964   30.5161    4.7594 H   0  0  0  0  0
  1  2  1  0  0  0
  1 10  1  0  0  0
  2  3  1  0  0  0
  2  4  1  0  0  0
  4  5  1  0  0  0
  4  6  1  0  0  0
  5 13  1  0  0  0
  6  7  1  0  0  0
  6  8  1  0  0  0
  8  9  1  0  0  0
  8 10  1  0  0  0
 10 11  1  0  0  0
 11 12  1  0  0  0
 13 14  2  0  0  0
 13 15  1  0  0  0
  2 16  1  0  0  0
  3 17  1  0  0  0
  4 18  1  0  0  0
  5 19  1  0  0  0
  6 20  1  0  0  0
  7 21  1  0  0  0
  8 22  1  0  0  0
  9 23  1  0  0  0
 10 24  1  0  0  0
 11 25  1  0  0  0
 11 26  1  0  0  0
 12 27  1  0  0  0
 15 28  1  0  0  0
 15 29  1  0  0  0
 15 30  1  0  0  0
M  END
$$$$
