5oax_ligand
  -I-interpret- 

 78 83  0  0  0  0  0  0  0  0999 V2000
  -18.0330    7.0680    0.4660 O   0  0  0  0  0
  -23.2240    9.1690    1.2150 O   0  0  0  0  0
  -13.3470    7.8830   -2.7460 C   0  0  0  0  0
  -26.1100   10.6990    1.7050 N   0  0  0  0  0
  -10.7420   10.3400   -1.9020 C   0  0  0  0  0
  -12.0080    9.7320   -1.9400 C   0  0  0  0  0
  -23.8660    9.8570    0.1610 C   0  0  0  0  0
  -23.0670    9.6700   -1.1350 C   0  0  0  0  0
  -13.0160   11.6390   -0.6410 C   0  0  0  0  0
  -27.0590   10.6770    2.7740 N   0  0  0  0  0
  -20.5960    7.7220   -0.7180 O   0  0  0  0  0
  -21.7900    5.2670   -0.4050 O   0  0  0  0  0
  -18.0230    8.0540   -1.7980 C   0  0  0  0  0
  -18.9350    9.2130   -1.4870 C   0  0  0  0  0
  -25.2360    9.3090   -0.0490 C   0  0  0  0  0
  -19.8210    6.5640   -1.1060 C   0  0  0  0  0
  -20.3530    5.4210   -0.2740 C   0  0  0  0  0
  -18.3370    6.8240   -0.9130 C   0  0  0  0  0
  -23.6050   10.3340   -2.3080 O   0  0  0  0  0
  -20.3960    8.7960   -1.5730 C   0  0  0  0  0
  -25.7910    9.9500   -1.3090 C   0  0  0  0  0
  -13.1870   10.3800   -1.3650 C   0  0  0  0  0
  -24.8690    9.7950   -2.5430 C   0  0  0  0  0
  -30.3720    6.4120    5.6610 F   0  0  0  0  0
  -29.9690    7.6300    5.3340 C   0  0  0  0  0
  -30.4440    8.7070    6.0560 C   0  0  0  0  0
  -29.0490    7.8230    4.2520 C   0  0  0  0  0
  -28.5950    9.0890    3.9440 C   0  0  0  0  0
  -29.0760   10.1390    4.6980 C   0  0  0  0  0
  -29.9980    9.9820    5.7330 C   0  0  0  0  0
  -27.6090    9.4490    2.8590 C   0  0  0  0  0
  -26.9660    8.7020    1.8340 C   0  0  0  0  0
  -26.1090    9.5010    1.1060 N   0  0  0  0  0
  -25.9360   11.3800   -1.1270 O   0  0  0  0  0
  -25.4060   10.4980   -3.8110 C   0  0  0  0  0
  -24.3280   10.5910   -4.7540 O   0  0  0  0  0
  -21.3850   10.1570   -0.9830 S   0  0  0  0  0
  -18.6520   10.2800   -2.3850 O   0  0  0  0  0
  -16.7230    8.4550   -1.5760 O   0  0  0  0  0
  -15.7270    7.6880   -2.1940 C   0  0  0  0  0
  -14.4890    8.4970   -2.0890 C   0  0  0  0  0
  -14.4460    9.7210   -1.4380 C   0  0  0  0  0
  -14.1000   12.2450   -0.0200 F   0  0  0  0  0
  -11.6300   12.2070   -0.5980 C   0  0  0  0  0
  -11.5210   13.4180    0.0130 F   0  0  0  0  0
  -10.5670   11.5590   -1.2420 C   0  0  0  0  0
  -12.1560    8.4970   -2.5700 O   0  0  0  0  0
  -13.4510    6.7230   -3.2330 O   0  0  0  0  0
  -18.2403    6.2852    0.9816 H   0  0  0  0  0
  -23.7254    9.2872    2.0251 H   0  0  0  0  0
   -9.8936    9.8592   -2.3890 H   0  0  0  0  0
  -23.9266   10.9139    0.4206 H   0  0  0  0  0
  -23.1491    8.5942   -1.2896 H   0  0  0  0  0
  -22.0828    4.5320    0.1388 H   0  0  0  0  0
  -18.1725    7.7608   -2.8371 H   0  0  0  0  0
  -18.7566    9.5481   -0.4652 H   0  0  0  0  0
  -25.1843    8.2268   -0.1689 H   0  0  0  0  0
  -19.9206    6.3234   -2.1644 H   0  0  0  0  0
  -19.8812    4.5017   -0.6211 H   0  0  0  0  0
  -20.1293    5.6312    0.7719 H   0  0  0  0  0
  -17.7291    5.9652   -1.1978 H   0  0  0  0  0
  -20.6620    8.5279   -2.5955 H   0  0  0  0  0
  -26.7378    9.4388   -1.4830 H   0  0  0  0  0
  -24.8276    8.7186   -2.7094 H   0  0  0  0  0
  -31.1576    8.5588    6.8665 H   0  0  0  0  0
  -28.7069    6.9668    3.6706 H   0  0  0  0  0
  -28.7171   11.1434    4.4735 H   0  0  0  0  0
  -30.3641   10.8497    6.2817 H   0  0  0  0  0
  -27.1285    7.6403    1.6484 H   0  0  0  0  0
  -26.2873   11.7698   -1.9309 H   0  0  0  0  0
  -25.7772   11.4923   -3.5628 H   0  0  0  0  0
  -26.2321    9.9286   -4.2370 H   0  0  0  0  0
  -24.6387   11.0254   -5.5517 H   0  0  0  0  0
  -19.2303   11.0215   -2.1915 H   0  0  0  0  0
  -15.8384    6.7061   -2.6539 H   0  0  0  0  0
  -15.0919   10.3835   -2.0142 H   0  0  0  0  0
  -14.7308    9.5155   -0.4061 H   0  0  0  0  0
   -9.5784   12.0179   -1.2276 H   0  0  0  0  0
 18  1  1  0  0  0
  7  2  1  0  0  0
 41  3  1  0  0  0
  3 47  1  0  0  0
  3 48  2  0  0  0
  4 10  4  0  0  0
 33  4  4  0  0  0
  6  5  4  0  0  0
  5 46  4  0  0  0
  6 22  4  0  0  0
 47  6  1  0  0  0
  8  7  1  0  0  0
  7 15  1  0  0  0
  8 19  1  0  0  0
 37  8  1  0  0  0
 22  9  4  0  0  0
  9 43  1  0  0  0
  9 44  4  0  0  0
 31 10  4  0  0  0
 16 11  1  0  0  0
 20 11  1  0  0  0
 17 12  1  0  0  0
 13 14  1  0  0  0
 13 18  1  0  0  0
 39 13  1  0  0  0
 14 20  1  0  0  0
 14 38  1  0  0  0
 15 21  1  0  0  0
 15 33  1  0  0  0
 16 17  1  0  0  0
 18 16  1  0  0  0
 19 23  1  0  0  0
 20 37  1  0  0  0
 23 21  1  0  0  0
 21 34  1  0  0  0
 22 42  1  0  0  0
 23 35  1  0  0  0
 25 24  1  0  0  0
 25 26  4  0  0  0
 27 25  4  0  0  0
 30 26  4  0  0  0
 28 27  4  0  0  0
 28 29  4  0  0  0
 31 28  1  0  0  0
 29 30  4  0  0  0
 32 31  4  0  0  0
 33 32  4  0  0  0
 35 36  1  0  0  0
 40 39  1  0  0  0
 40 41  2  0  0  0
 41 42  1  0  0  0
 44 45  1  0  0  0
 44 46  4  0  0  0
  1 49  1  0  0  0
  2 50  1  0  0  0
  5 51  1  0  0  0
  7 52  1  0  0  0
  8 53  1  0  0  0
 12 54  1  0  0  0
 13 55  1  0  0  0
 14 56  1  0  0  0
 15 57  1  0  0  0
 16 58  1  0  0  0
 17 59  1  0  0  0
 17 60  1  0  0  0
 18 61  1  0  0  0
 20 62  1  0  0  0
 21 63  1  0  0  0
 23 64  1  0  0  0
 26 65  1  0  0  0
 27 66  1  0  0  0
 29 67  1  0  0  0
 30 68  1  0  0  0
 32 69  1  0  0  0
 34 70  1  0  0  0
 35 71  1  0  0  0
 35 72  1  0  0  0
 36 73  1  0  0  0
 38 74  1  0  0  0
 40 75  1  0  0  0
 42 76  1  0  0  0
 42 77  1  0  0  0
 46 78  1  0  0  0
M  END
$$$$
