1pg2_ligand
  -I-interpret- 

 21 20  0  0  0  0  0  0  0  0999 V2000
   13.2010   10.1560   19.8510 N   0  3  0  0  0
   12.7720   11.5570   19.9390 C   0  0  0  0  0
   13.6870   12.3250   20.9280 C   0  0  0  0  0
   14.5240   11.4370   21.6040 O   0  0  0  0  0
   11.2970   11.6440   20.3990 C   0  0  0  0  0
   10.3190   10.9700   19.4680 C   0  0  0  0  0
    8.6470   11.1370   20.0780 S   0  0  0  0  0
    7.6920   10.3120   18.7900 C   0  0  0  0  0
   13.7000   13.4160   21.0790 O   0  0  0  0  0
   14.1739   10.1180   19.5469 H   0  0  0  0  0
   13.1124    9.7164   20.7671 H   0  0  0  0  0
   12.6137    9.6635   19.1780 H   0  0  0  0  0
   12.8520   12.0118   18.9516 H   0  0  0  0  0
   14.3381   10.5407   21.3148 H   0  0  0  0  0
   11.0324   12.7008   20.4338 H   0  0  0  0  0
   11.2291   11.1353   21.3606 H   0  0  0  0  0
   10.5664    9.9104   19.4044 H   0  0  0  0  0
   10.3847   11.4410   18.4872 H   0  0  0  0  0
    7.8524   10.8198   17.8389 H   0  0  0  0  0
    8.0151    9.2742   18.7082 H   0  0  0  0  0
    6.6332   10.3450   19.0470 H   0  0  0  0  0
  1  2  1  0  0  0
  2  3  1  0  0  0
  2  5  1  0  0  0
  3  4  1  0  0  0
  3  9  2  0  0  0
  5  6  1  0  0  0
  6  7  1  0  0  0
  7  8  1  0  0  0
  1 10  1  0  0  0
  1 11  1  0  0  0
  1 12  1  0  0  0
  2 13  1  0  0  0
  4 14  1  0  0  0
  5 15  1  0  0  0
  5 16  1  0  0  0
  6 17  1  0  0  0
  6 18  1  0  0  0
  8 19  1  0  0  0
  8 20  1  0  0  0
  8 21  1  0  0  0
M  END
$$$$
