5x4q_ligand
  -I-interpret- 

 41 44  0  0  0  0  0  0  0  0999 V2000
   39.8750   -6.8750  -14.3450 C   0  0  0  0  0
   40.1590   -9.0740  -15.2830 C   0  0  0  0  0
   41.3110   -3.1640  -12.1900 C   0  0  0  0  0
   42.4020   -5.1420  -12.0660 C   0  0  0  0  0
   37.6550   -9.0070   -9.9790 C   0  0  0  0  0
   41.6630   -5.5460  -10.9740 C   0  0  0  0  0
   37.5410   -9.1130  -11.3530 C   0  0  0  0  0
   39.6920   -7.9840  -10.2170 C   0  0  0  0  0
   41.9940   -9.2390  -17.1220 C   0  0  0  0  0
   40.5190   -3.4690  -11.1020 C   0  0  0  0  0
   40.6980   -4.6870  -10.4790 C   0  0  0  0  0
   40.8690   -6.3710  -15.1540 C   0  0  0  0  0
   41.1470   -8.5650  -16.0940 C   0  0  0  0  0
   41.4850   -7.2430  -16.0190 C   0  0  0  0  0
   39.5170   -8.2130  -14.4050 C   0  0  0  0  0
   38.5710   -8.6140  -12.1340 C   0  0  0  0  0
   42.8840   -8.1150  -17.6090 C   0  0  0  0  0
   41.9410   -6.8860  -10.3770 C   0  0  0  0  0
   42.2550   -3.9690  -12.6970 N   0  0  0  0  0
   38.7220   -8.4400   -9.3970 N   0  0  0  0  0
   39.6460   -8.0520  -11.5600 N   0  0  0  0  0
   42.5000   -6.9760  -16.9280 N   0  0  0  0  0
   38.5120   -8.6830  -13.5400 N   0  0  0  0  0
   40.8180   -7.4020   -9.6050 N   0  0  0  0  0
   43.7770   -8.2130  -18.4410 O   0  0  0  0  0
   36.1350   -9.8420  -12.0440 Cl  0  0  0  0  0
   39.3624   -6.2125  -13.6476 H   0  0  0  0  0
   39.8872  -10.1286  -15.3293 H   0  0  0  0  0
   41.1578   -2.1984  -12.6720 H   0  0  0  0  0
   43.1612   -5.8269  -12.4435 H   0  0  0  0  0
   36.8539   -9.3958   -9.3503 H   0  0  0  0  0
   41.4101   -9.6957  -17.9211 H   0  0  0  0  0
   42.5557  -10.0836  -16.7229 H   0  0  0  0  0
   39.7692   -2.7640  -10.7430 H   0  0  0  0  0
   40.0929   -4.9661   -9.6164 H   0  0  0  0  0
   41.1561   -5.3204  -15.1098 H   0  0  0  0  0
   42.7909   -6.7820   -9.7026 H   0  0  0  0  0
   42.1340   -7.5823  -11.1931 H   0  0  0  0  0
   42.9108   -6.0540  -17.0747 H   0  0  0  0  0
   37.6828   -9.1030  -13.9600 H   0  0  0  0  0
   40.8489   -7.3394   -8.5874 H   0  0  0  0  0
  1 12  4  0  0  0
 15  1  4  0  0  0
  2 13  4  0  0  0
 15  2  4  0  0  0
 10  3  4  0  0  0
 19  3  4  0  0  0
  6  4  4  0  0  0
  4 19  4  0  0  0
  5  7  4  0  0  0
 20  5  4  0  0  0
  6 11  4  0  0  0
 18  6  1  0  0  0
 16  7  4  0  0  0
  7 26  1  0  0  0
  8 20  4  0  0  0
  8 21  4  0  0  0
 24  8  1  0  0  0
 13  9  1  0  0  0
  9 17  1  0  0  0
 11 10  4  0  0  0
 12 14  4  0  0  0
 13 14  4  0  0  0
 14 22  1  0  0  0
 23 15  1  0  0  0
 21 16  4  0  0  0
 16 23  1  0  0  0
 22 17  1  0  0  0
 17 25  2  0  0  0
 18 24  1  0  0  0
  1 27  1  0  0  0
  2 28  1  0  0  0
  3 29  1  0  0  0
  4 30  1  0  0  0
  5 31  1  0  0  0
  9 32  1  0  0  0
  9 33  1  0  0  0
 10 34  1  0  0  0
 11 35  1  0  0  0
 12 36  1  0  0  0
 18 37  1  0  0  0
 18 38  1  0  0  0
 22 39  1  0  0  0
 23 40  1  0  0  0
 24 41  1  0  0  0
M  END
$$$$
