4hvd_ligand
  -I-interpret- 

 42 44  0  0  0  0  0  0  0  0999 V2000
   -2.5420  -14.1910   -2.9650 N   0  0  0  0  0
   -2.5830  -15.5120   -3.0440 C   0  0  0  0  0
   -1.4890  -16.2390   -3.5060 C   0  0  0  0  0
   -0.3810  -15.6060   -3.8580 N   0  0  0  0  0
   -1.4340  -13.5390   -3.3250 C   0  0  0  0  0
   -0.3210  -14.2810   -3.7840 C   0  0  0  0  0
    0.7280  -13.3020   -4.0960 C   0  0  0  0  0
    0.1950  -12.0720   -3.8260 C   0  0  0  0  0
   -1.0800  -12.2110   -3.3600 N   0  0  0  0  0
   -1.5740  -17.7450   -3.5760 C   0  0  0  0  0
   -0.9150  -18.4610   -4.7600 C   0  0  0  0  0
   -0.2820  -18.5370   -3.3650 C   0  0  0  0  0
    2.0510  -13.6480   -4.6290 C   0  0  0  0  0
    2.2790  -14.9630   -4.8710 N   0  0  0  0  0
    2.8890  -12.7890   -4.8560 O   0  0  0  0  0
    3.5110  -15.5210   -5.4450 C   0  0  0  0  0
    3.2050  -15.9840   -6.8900 C   0  0  0  0  0
    2.7250  -14.7860   -7.7210 C   0  0  0  0  0
    4.4610  -16.5270   -7.5750 C   0  0  0  0  0
    2.1180  -17.0660   -6.9360 C   0  0  0  0  0
    4.0060  -16.6720   -4.5550 C   0  0  0  0  0
   -3.4881  -16.0391   -2.7424 H   0  0  0  0  0
    0.7116  -11.1220   -3.9627 H   0  0  0  0  0
   -2.5709  -17.7544   -3.1353 H   0  0  0  0  0
   -0.6143  -18.2422   -5.7846 H   0  0  0  0  0
   -1.1969  -19.1351   -5.5689 H   0  0  0  0  0
    0.1111  -19.2937   -2.6860 H   0  0  0  0  0
    0.6951  -18.3985   -2.9023 H   0  0  0  0  0
    1.5339  -15.6184   -4.6351 H   0  0  0  0  0
    4.3063  -14.7768   -5.4854 H   0  0  0  0  0
    1.8216  -14.3729   -7.2724 H   0  0  0  0  0
    3.5038  -14.0236   -7.7405 H   0  0  0  0  0
    2.5100  -15.1138   -8.7381 H   0  0  0  0  0
    5.2194  -15.7450   -7.6131 H   0  0  0  0  0
    4.8424  -17.3776   -7.0102 H   0  0  0  0  0
    4.2127  -16.8438   -8.5880 H   0  0  0  0  0
    2.4469  -17.9342   -6.3649 H   0  0  0  0  0
    1.1975  -16.6730   -6.5044 H   0  0  0  0  0
    1.9401  -17.3567   -7.9713 H   0  0  0  0  0
    4.2069  -16.2939   -3.5526 H   0  0  0  0  0
    3.2407  -17.4466   -4.5059 H   0  0  0  0  0
    4.9202  -17.0889   -4.9775 H   0  0  0  0  0
  1  2  4  0  0  0
  1  5  4  0  0  0
  2  3  4  0  0  0
  3  4  4  0  0  0
  3 10  1  0  0  0
  4  6  4  0  0  0
  5  6  4  0  0  0
  5  9  4  0  0  0
  6  7  4  0  0  0
  7  8  4  0  0  0
  7 13  1  0  0  0
  8  9  4  0  0  0
 10 11  1  0  0  0
 10 12  1  0  0  0
 11 12  1  0  0  0
 13 14  1  0  0  0
 13 15  2  0  0  0
 14 16  1  0  0  0
 16 17  1  0  0  0
 16 21  1  0  0  0
 17 18  1  0  0  0
 17 19  1  0  0  0
 17 20  1  0  0  0
  2 22  1  0  0  0
  8 23  1  0  0  0
 10 24  1  0  0  0
 11 25  1  0  0  0
 11 26  1  0  0  0
 12 27  1  0  0  0
 12 28  1  0  0  0
 14 29  1  0  0  0
 16 30  1  0  0  0
 18 31  1  0  0  0
 18 32  1  0  0  0
 18 33  1  0  0  0
 19 34  1  0  0  0
 19 35  1  0  0  0
 19 36  1  0  0  0
 20 37  1  0  0  0
 20 38  1  0  0  0
 20 39  1  0  0  0
 21 40  1  0  0  0
 21 41  1  0  0  0
 21 42  1  0  0  0
M  END
$$$$
