3vru_ligand
  -I-interpret- 

 73 75  0  0  0  0  0  0  0  0999 V2000
  -11.9620   19.4710   -7.4140 O   0  0  0  0  0
  -11.4210   20.5210   -6.6390 C   0  0  0  0  0
  -10.0270   20.8420   -7.1020 C   0  0  0  0  0
  -11.3550   20.0000   -5.1770 C   0  0  0  0  0
  -12.3050   21.7910   -6.8870 C   0  0  0  0  0
  -13.5710   21.9660   -6.0600 C   0  0  0  0  0
  -14.5560   22.8230   -6.8340 C   0  0  0  0  0
  -15.2130   22.0500   -7.9950 C   0  0  0  0  0
  -15.6920   23.4790   -6.0040 C   0  0  0  0  0
  -16.2600   22.6260   -4.8310 C   0  0  0  0  0
  -17.0250   23.6570   -3.9660 C   0  0  0  0  0
  -16.7790   24.9840   -4.6930 C   0  0  0  0  0
  -15.3950   24.8520   -5.3460 C   0  0  0  0  0
  -14.1950   24.8090   -4.3840 C   0  0  0  0  0
  -15.2570   26.0270   -6.3760 C   0  0  0  0  0
  -15.5410   27.4340   -5.7610 C   0  0  0  0  0
  -16.8420   27.4790   -4.8990 C   0  0  0  0  0
  -16.8910   26.2970   -3.9120 C   0  0  0  0  0
  -16.9600   26.4270   -2.5000 C   0  0  0  0  0
  -16.5560   27.6190   -1.8820 C   0  0  0  0  0
  -16.5950   27.8120   -0.5050 C   0  0  0  0  0
  -16.3630   29.2230    0.0510 C   0  0  0  0  0
  -16.1530   26.6870    0.4400 C   0  0  0  0  0
  -16.9160   26.7950    1.7760 C   0  0  0  0  0
  -16.5560   25.7980    2.6850 O   0  0  0  0  0
  -16.5550   28.1410    2.3550 C   0  0  0  0  0
  -16.0200   28.2940    3.6070 C   0  0  0  0  0
  -16.9460   29.3370    1.5010 C   0  0  0  0  0
  -18.3770   29.2630    1.4850 O   0  0  0  0  0
  -11.4399   18.6761   -7.2828 H   0  0  0  0  0
  -10.0463   21.0917   -8.1628 H   0  0  0  0  0
   -9.6434   21.6901   -6.5348 H   0  0  0  0  0
   -9.3843   19.9762   -6.9428 H   0  0  0  0  0
  -10.9471   20.7791   -4.5331 H   0  0  0  0  0
  -12.3579   19.7370   -4.8407 H   0  0  0  0  0
  -10.7138   19.1195   -5.1350 H   0  0  0  0  0
  -12.6475   21.7034   -7.9181 H   0  0  0  0  0
  -11.6709   22.6366   -6.6206 H   0  0  0  0  0
  -13.3271   22.4509   -5.1148 H   0  0  0  0  0
  -14.0140   20.9909   -5.8572 H   0  0  0  0  0
  -13.9188   23.6285   -7.1991 H   0  0  0  0  0
  -15.8784   21.2869   -7.5912 H   0  0  0  0  0
  -15.7847   22.7422   -8.6132 H   0  0  0  0  0
  -14.4388   21.5763   -8.5986 H   0  0  0  0  0
  -16.4036   23.5874   -6.8225 H   0  0  0  0  0
  -15.4772   22.1131   -4.2722 H   0  0  0  0  0
  -16.9016   21.8161   -5.1780 H   0  0  0  0  0
  -16.6785   23.6755   -2.9327 H   0  0  0  0  0
  -18.0851   23.4209   -3.8733 H   0  0  0  0  0
  -17.6098   25.1015   -5.3888 H   0  0  0  0  0
  -14.3963   24.0946   -3.5857 H   0  0  0  0  0
  -13.3033   24.5028   -4.9310 H   0  0  0  0  0
  -14.0383   25.7992   -3.9562 H   0  0  0  0  0
  -15.9924   25.8598   -7.1630 H   0  0  0  0  0
  -14.2275   26.0286   -6.7340 H   0  0  0  0  0
  -15.6676   28.1350   -6.5860 H   0  0  0  0  0
  -14.7043   27.6837   -5.1085 H   0  0  0  0  0
  -17.7040   27.4162   -5.5631 H   0  0  0  0  0
  -16.8536   28.4095   -4.3314 H   0  0  0  0  0
  -17.3279   25.5983   -1.8949 H   0  0  0  0  0
  -17.2766   28.3472   -2.2543 H   0  0  0  0  0
  -15.4908   27.6662   -2.1083 H   0  0  0  0  0
  -17.6790   27.7014   -0.4781 H   0  0  0  0  0
  -16.8638   29.9464   -0.5924 H   0  0  0  0  0
  -15.2919   29.4227    0.0808 H   0  0  0  0  0
  -15.0830   26.7749    0.6285 H   0  0  0  0  0
  -16.3697   25.7235   -0.0213 H   0  0  0  0  0
  -17.9845   26.6787    1.5946 H   0  0  0  0  0
  -17.0572   25.9099    3.4961 H   0  0  0  0  0
  -15.8375   27.4200    4.2322 H   0  0  0  0  0
  -15.7769   29.2897    3.9778 H   0  0  0  0  0
  -16.5632   30.2807    1.8895 H   0  0  0  0  0
  -18.7101   29.3350    2.3825 H   0  0  0  0  0
  1  2  1  0  0  0
  2  3  1  0  0  0
  2  4  1  0  0  0
  2  5  1  0  0  0
  5  6  1  0  0  0
  6  7  1  0  0  0
  7  8  1  0  0  0
  7  9  1  0  0  0
  9 10  1  0  0  0
  9 13  1  0  0  0
 10 11  1  0  0  0
 11 12  1  0  0  0
 12 13  1  0  0  0
 12 18  1  0  0  0
 13 14  1  0  0  0
 13 15  1  0  0  0
 15 16  1  0  0  0
 16 17  1  0  0  0
 17 18  1  0  0  0
 18 19  2  0  0  0
 19 20  1  0  0  0
 20 21  1  0  0  0
 21 22  1  0  0  0
 21 23  1  0  0  0
 22 28  1  0  0  0
 23 24  1  0  0  0
 24 25  1  0  0  0
 24 26  1  0  0  0
 26 27  2  0  0  0
 26 28  1  0  0  0
 28 29  1  0  0  0
  1 30  1  0  0  0
  3 31  1  0  0  0
  3 32  1  0  0  0
  3 33  1  0  0  0
  4 34  1  0  0  0
  4 35  1  0  0  0
  4 36  1  0  0  0
  5 37  1  0  0  0
  5 38  1  0  0  0
  6 39  1  0  0  0
  6 40  1  0  0  0
  7 41  1  0  0  0
  8 42  1  0  0  0
  8 43  1  0  0  0
  8 44  1  0  0  0
  9 45  1  0  0  0
 10 46  1  0  0  0
 10 47  1  0  0  0
 11 48  1  0  0  0
 11 49  1  0  0  0
 12 50  1  0  0  0
 14 51  1  0  0  0
 14 52  1  0  0  0
 14 53  1  0  0  0
 15 54  1  0  0  0
 15 55  1  0  0  0
 16 56  1  0  0  0
 16 57  1  0  0  0
 17 58  1  0  0  0
 17 59  1  0  0  0
 19 60  1  0  0  0
 20 61  1  0  0  0
 20 62  1  0  0  0
 21 63  1  0  0  0
 22 64  1  0  0  0
 22 65  1  0  0  0
 23 66  1  0  0  0
 23 67  1  0  0  0
 24 68  1  0  0  0
 25 69  1  0  0  0
 27 70  1  0  0  0
 27 71  1  0  0  0
 28 72  1  0  0  0
 29 73  1  0  0  0
M  END
$$$$
