5mih_ligand
  -I-interpret- 

 35 37  0  0  0  0  0  0  0  0999 V2000
   18.1940  -33.2480   13.4390 O   0  0  0  0  0
   17.1250  -32.5280   14.0080 C   0  0  0  0  0
   16.8740  -32.9390   15.4740 C   0  0  0  0  0
   17.9620  -32.5960   16.2610 O   0  0  0  0  0
   15.9160  -32.8210   13.1960 C   0  0  0  0  0
   14.8140  -32.1280   13.6890 O   0  0  0  0  0
   14.4600  -32.6080   14.9480 C   0  0  0  0  0
   13.1210  -31.9510   15.4090 C   0  0  0  0  0
   12.1620  -31.5590   14.4790 O   0  0  0  0  0
   12.8940  -30.5570   15.1460 C   0  0  0  0  0
   15.5250  -32.3250   15.9490 C   0  0  0  0  0
   15.8360  -30.9450   16.1770 O   0  0  0  0  0
   16.1370  -32.4710   11.8280 O   0  0  0  0  0
   15.5450  -32.9960   10.7960 C   0  0  0  0  0
   14.5800  -34.0430   10.8850 C   0  0  0  0  0
   13.9370  -34.4930    9.7150 C   0  0  0  0  0
   14.2350  -33.9360    8.4660 C   0  0  0  0  0
   15.1810  -32.9080    8.3810 C   0  0  0  0  0
   15.8060  -32.4640    9.5640 C   0  0  0  0  0
   18.9946  -33.0806   13.9417 H   0  0  0  0  0
   17.3627  -31.4642   14.0085 H   0  0  0  0  0
   16.7776  -34.0208   15.5657 H   0  0  0  0  0
   18.7535  -33.0092   15.9084 H   0  0  0  0  0
   15.7149  -33.8904   13.2601 H   0  0  0  0  0
   14.3336  -33.6882   14.8757 H   0  0  0  0  0
   13.1126  -32.5907   16.2915 H   0  0  0  0  0
   13.4595  -29.6532   14.9190 H   0  0  0  0  0
   12.7226  -29.6279   15.6895 H   0  0  0  0  0
   15.1128  -32.7486   16.8648 H   0  0  0  0  0
   16.5309  -30.8794   16.8361 H   0  0  0  0  0
   14.3423  -34.4909   11.8499 H   0  0  0  0  0
   13.1949  -35.2884    9.7836 H   0  0  0  0  0
   13.7351  -34.2993    7.5681 H   0  0  0  0  0
   15.4296  -32.4596    7.4191 H   0  0  0  0  0
   16.5340  -31.6559    9.4929 H   0  0  0  0  0
  1  2  1  0  0  0
  2  3  1  0  0  0
  2  5  1  0  0  0
  3  4  1  0  0  0
  3 11  1  0  0  0
  5  6  1  0  0  0
  5 13  1  0  0  0
  6  7  1  0  0  0
  7  8  1  0  0  0
  7 11  1  0  0  0
  8  9  1  0  0  0
  8 10  1  0  0  0
  9 10  1  0  0  0
 11 12  1  0  0  0
 13 14  1  0  0  0
 14 15  4  0  0  0
 14 19  4  0  0  0
 15 16  4  0  0  0
 16 17  4  0  0  0
 17 18  4  0  0  0
 18 19  4  0  0  0
  1 20  1  0  0  0
  2 21  1  0  0  0
  3 22  1  0  0  0
  4 23  1  0  0  0
  5 24  1  0  0  0
  7 25  1  0  0  0
  8 26  1  0  0  0
 10 27  1  0  0  0
 10 28  1  0  0  0
 11 29  1  0  0  0
 12 30  1  0  0  0
 15 31  1  0  0  0
 16 32  1  0  0  0
 17 33  1  0  0  0
 18 34  1  0  0  0
 19 35  1  0  0  0
M  END
$$$$
