3p8o_ligand
  -I-interpret- 

106111  0  0  0  0  0  0  0  0999 V2000
   39.3910   43.6490    9.1590 C   0  0  0  0  0
   38.4250   44.1980    8.6310 O   0  0  0  0  0
   39.6410   42.3070    9.1430 O   0  0  0  0  0
   40.2030   41.8230    7.9240 C   0  0  0  0  0
   39.1860   41.4170    6.8790 C   0  0  0  0  0
   40.0130   40.5700    5.9240 C   0  0  0  0  0
   41.1510   40.0210    6.7640 C   0  0  0  0  0
   40.8660   40.4880    8.1760 C   0  0  0  0  0
   40.3560   44.2980    9.8410 N   0  0  0  0  0
   40.3310   45.7440   10.0270 C   0  0  0  0  0
   40.6980   46.2380   11.4890 C   0  0  0  0  0
   40.3290   47.7380   11.6410 C   0  0  0  0  0
   42.1910   46.0460   11.8710 C   0  0  0  0  0
   39.8470   45.4590   12.5290 C   0  0  0  0  0
   41.1520   46.4010    8.8750 C   0  0  0  0  0
   42.3650   46.1780    8.7410 O   0  0  0  0  0
   42.4120   48.8250    7.3930 C   0  0  0  0  0
   42.2690   49.5590    8.3660 O   0  0  0  0  0
   41.2690   47.9120    6.8780 C   0  0  0  0  0
   40.2100   48.7750    6.1530 C   0  0  0  0  0
   38.8900   48.0510    6.4260 C   0  0  0  0  0
   39.0920   47.6520    7.8880 C   0  0  0  0  0
   40.5120   47.2680    7.9690 N   0  0  0  0  0
   38.8640   46.8100    5.6310 O   0  0  0  0  0
   38.3130   46.8000    4.3220 C   0  0  0  0  0
   37.6450   48.0290    3.8090 C   0  0  0  0  0
   37.1000   48.0380    2.5440 C   0  0  0  0  0
   37.1790   46.8680    1.7750 N   0  0  0  0  0
   37.7810   45.6650    2.1580 C   0  0  0  0  0
   38.3740   45.6560    3.5450 C   0  0  0  0  0
   39.0400   44.3840    4.0340 C   0  0  0  0  0
   39.0180   43.2210    3.0600 C   0  0  0  0  0
   38.4560   43.2870    1.8140 C   0  0  0  0  0
   37.8230   44.5500    1.3750 C   0  0  0  0  0
   38.3880   42.2520    0.8380 O   0  0  0  0  0
   38.9550   40.9570    1.1230 C   0  0  0  0  0
   36.4460   49.1950    2.0070 C   0  0  0  0  0
   35.9450   49.3030    0.7210 C   0  0  0  0  0
   35.2320   50.8320    0.5200 S   0  0  0  0  0
   35.6510   51.2470    2.1330 C   0  0  0  0  0
   36.2720   50.3090    2.8060 N   0  0  0  0  0
   35.3470   52.4570    2.7260 N   0  0  0  0  0
   34.4130   53.3720    2.2690 C   0  0  0  0  0
   33.7420   53.1860    1.2430 O   0  0  0  0  0
   34.2980   54.6330    3.1710 C   0  0  0  0  0
   32.8670   54.8310    3.7030 C   0  0  0  0  0
   34.7800   55.8890    2.4270 C   0  0  0  0  0
   43.5900   48.6820    6.6840 N   0  0  0  0  0
   44.9010   49.0280    7.2350 C   0  0  0  0  0
   45.4820   48.0500    8.2870 C   0  0  0  0  0
   46.0750   48.0900    6.9110 C   0  0  0  0  0
   46.2690   48.4510    9.4510 C   0  0  0  0  0
   45.8400   48.3800   10.7210 C   0  0  0  0  0
   45.2370   50.5360    7.1940 C   0  0  0  0  0
   44.3610   51.3290    6.7000 O   0  0  0  0  0
   46.3480   50.9470    7.6170 O   0  0  0  0  0
   40.8371   42.6441    7.5897 H   0  0  0  0  0
   38.7117   42.2690    6.3919 H   0  0  0  0  0
   38.3352   40.8797    7.2980 H   0  0  0  0  0
   40.3809   41.1562    5.0819 H   0  0  0  0  0
   39.4202   39.7712    5.4783 H   0  0  0  0  0
   42.1187   40.3774    6.4110 H   0  0  0  0  0
   41.2060   38.9340    6.7041 H   0  0  0  0  0
   40.2488   39.7955    8.7484 H   0  0  0  0  0
   41.7561   40.5541    8.8017 H   0  0  0  0  0
   41.1268   43.7614   10.2389 H   0  0  0  0  0
   39.2996   46.0888    9.9531 H   0  0  0  0  0
   40.8862   48.3238   10.9100 H   0  0  0  0  0
   39.2598   47.8667   11.4727 H   0  0  0  0  0
   40.5828   48.0732   12.6467 H   0  0  0  0  0
   42.4451   44.9874   11.8177 H   0  0  0  0  0
   42.8173   46.6067   11.1771 H   0  0  0  0  0
   42.3548   46.4096   12.8854 H   0  0  0  0  0
   38.7889   45.6395   12.3392 H   0  0  0  0  0
   40.0562   44.3928   12.4423 H   0  0  0  0  0
   40.1007   45.7999   13.5327 H   0  0  0  0  0
   41.7522   47.1669    6.2460 H   0  0  0  0  0
   40.4153   48.8705    5.0868 H   0  0  0  0  0
   40.1987   49.8035    6.5138 H   0  0  0  0  0
   37.9925   48.6294    6.2069 H   0  0  0  0  0
   38.4299   46.8391    8.1862 H   0  0  0  0  0
   38.8475   48.4645    8.5722 H   0  0  0  0  0
   37.5876   48.9201    4.4341 H   0  0  0  0  0
   39.5029   44.3105    5.0181 H   0  0  0  0  0
   39.4750   42.2811    3.3697 H   0  0  0  0  0
   37.3712   44.5907    0.3839 H   0  0  0  0  0
   40.0213   41.0644    1.3218 H   0  0  0  0  0
   38.4624   40.5304    1.9967 H   0  0  0  0  0
   38.8084   40.3008    0.2651 H   0  0  0  0  0
   35.9995   48.5279   -0.0434 H   0  0  0  0  0
   35.8558   52.6982    3.5765 H   0  0  0  0  0
   34.9472   54.4719    4.0316 H   0  0  0  0  0
   32.1816   54.9478    2.8636 H   0  0  0  0  0
   32.5764   53.9616    4.2927 H   0  0  0  0  0
   32.8334   55.7233    4.3281 H   0  0  0  0  0
   35.8227   55.7601    2.1369 H   0  0  0  0  0
   34.1696   56.0389    1.5365 H   0  0  0  0  0
   34.6882   56.7554    3.0820 H   0  0  0  0  0
   43.5434   48.3183    5.7322 H   0  0  0  0  0
   45.0305   47.2973    8.9332 H   0  0  0  0  0
   47.0654   48.1634    6.4617 H   0  0  0  0  0
   46.3483   47.3806    6.1299 H   0  0  0  0  0
   47.2742   48.8344    9.2759 H   0  0  0  0  0
   44.8409   48.0023   10.9385 H   0  0  0  0  0
   46.4907   48.7000   11.5348 H   0  0  0  0  0
   43.5873   50.8253    6.4367 H   0  0  0  0  0
  1  2  2  0  0  0
  1  3  1  0  0  0
  9  1  1  0  0  0
  3  4  1  0  0  0
  4  5  1  0  0  0
  4  8  1  0  0  0
  5  6  1  0  0  0
  7  6  1  0  0  0
  8  7  1  0  0  0
 10  9  1  0  0  0
 10 11  1  0  0  0
 15 10  1  0  0  0
 11 12  1  0  0  0
 11 13  1  0  0  0
 11 14  1  0  0  0
 15 16  2  0  0  0
 23 15  1  0  0  0
 17 18  2  0  0  0
 19 17  1  0  0  0
 17 48  1  0  0  0
 19 20  1  0  0  0
 19 23  1  0  0  0
 20 21  1  0  0  0
 21 22  1  0  0  0
 21 24  1  0  0  0
 22 23  1  0  0  0
 24 25  1  0  0  0
 25 26  4  0  0  0
 25 30  4  0  0  0
 26 27  4  0  0  0
 27 28  4  0  0  0
 27 37  1  0  0  0
 28 29  4  0  0  0
 29 30  4  0  0  0
 29 34  4  0  0  0
 30 31  4  0  0  0
 31 32  4  0  0  0
 32 33  4  0  0  0
 33 34  4  0  0  0
 33 35  1  0  0  0
 35 36  1  0  0  0
 37 38  4  0  0  0
 37 41  4  0  0  0
 38 39  4  0  0  0
 39 40  4  0  0  0
 40 41  4  0  0  0
 40 42  1  0  0  0
 42 43  1  0  0  0
 43 44  2  0  0  0
 43 45  1  0  0  0
 45 46  1  0  0  0
 45 47  1  0  0  0
 48 49  1  0  0  0
 49 50  1  0  0  0
 49 51  1  0  0  0
 49 54  1  0  0  0
 50 51  1  0  0  0
 50 52  1  0  0  0
 52 53  2  0  0  0
 54 55  1  0  0  0
 54 56  2  0  0  0
  4 57  1  0  0  0
  5 58  1  0  0  0
  5 59  1  0  0  0
  6 60  1  0  0  0
  6 61  1  0  0  0
  7 62  1  0  0  0
  7 63  1  0  0  0
  8 64  1  0  0  0
  8 65  1  0  0  0
  9 66  1  0  0  0
 10 67  1  0  0  0
 12 68  1  0  0  0
 12 69  1  0  0  0
 12 70  1  0  0  0
 13 71  1  0  0  0
 13 72  1  0  0  0
 13 73  1  0  0  0
 14 74  1  0  0  0
 14 75  1  0  0  0
 14 76  1  0  0  0
 19 77  1  0  0  0
 20 78  1  0  0  0
 20 79  1  0  0  0
 21 80  1  0  0  0
 22 81  1  0  0  0
 22 82  1  0  0  0
 26 83  1  0  0  0
 31 84  1  0  0  0
 32 85  1  0  0  0
 34 86  1  0  0  0
 36 87  1  0  0  0
 36 88  1  0  0  0
 36 89  1  0  0  0
 38 90  1  0  0  0
 42 91  1  0  0  0
 45 92  1  0  0  0
 46 93  1  0  0  0
 46 94  1  0  0  0
 46 95  1  0  0  0
 47 96  1  0  0  0
 47 97  1  0  0  0
 47 98  1  0  0  0
 48 99  1  0  0  0
 50100  1  0  0  0
 51101  1  0  0  0
 51102  1  0  0  0
 52103  1  0  0  0
 53104  1  0  0  0
 53105  1  0  0  0
 55106  1  0  0  0
M  END
$$$$
