4hxz_ligand
  -I-interpret- 

 35 37  0  0  0  0  0  0  0  0999 V2000
   15.1290  -36.5950    0.7120 O   0  0  0  0  0
   15.5690  -35.4540    0.8460 C   0  0  0  0  0
   14.6590  -34.2730    0.9490 C   0  0  0  0  0
   13.1870  -34.2060    0.9360 C   0  0  0  0  0
   12.2290  -35.3620    0.8170 C   0  0  0  0  0
   10.9600  -34.9380    0.1260 C   0  0  0  0  0
   15.1700  -32.8970    1.1020 C   0  0  0  0  0
   16.4690  -32.2010    1.1940 C   0  0  0  0  0
   17.6620  -32.8740    1.1460 O   0  0  0  0  0
   18.7380  -32.3440    1.9390 C   0  0  0  0  0
   16.4440  -30.8460    1.3400 N   0  0  0  0  0
   15.2970  -30.1030    1.3920 C   0  0  0  0  0
   14.0730  -30.7200    1.3130 N   0  0  0  0  0
   13.9470  -32.0680    1.1690 C   0  0  0  0  0
   12.8740  -32.8870    1.0730 N   0  0  0  0  0
   15.4430  -28.3950    1.5820 S   0  0  0  0  0
   17.0570  -28.0330    2.0300 C   0  0  0  0  0
   17.7570  -28.8550    2.9150 C   0  0  0  0  0
   19.0740  -28.5170    3.2370 C   0  0  0  0  0
   19.6830  -27.3870    2.6840 C   0  0  0  0  0
   19.0030  -26.6060    1.8300 N   0  0  0  0  0
   17.7290  -26.9110    1.5000 C   0  0  0  0  0
   16.6473  -35.3009    0.8906 H   0  0  0  0  0
   11.9819  -35.7174    1.8174 H   0  0  0  0  0
   12.7013  -36.1502    0.2307 H   0  0  0  0  0
   10.4829  -34.1439    0.7004 H   0  0  0  0  0
   11.1965  -34.5733   -0.8736 H   0  0  0  0  0
   10.2853  -35.7909    0.0528 H   0  0  0  0  0
   18.9593  -31.3269    1.6155 H   0  0  0  0  0
   18.4447  -32.3370    2.9888 H   0  0  0  0  0
   19.6228  -32.9677    1.8118 H   0  0  0  0  0
   17.2872  -29.7397    3.3447 H   0  0  0  0  0
   19.6350  -29.1441    3.9300 H   0  0  0  0  0
   20.7116  -27.1396    2.9466 H   0  0  0  0  0
   17.2003  -26.2662    0.7980 H   0  0  0  0  0
  1  2  2  0  0  0
  2  3  1  0  0  0
  3  4  4  0  0  0
  3  7  4  0  0  0
  4  5  1  0  0  0
  4 15  4  0  0  0
  5  6  1  0  0  0
  7  8  4  0  0  0
  7 14  4  0  0  0
  8  9  1  0  0  0
  8 11  4  0  0  0
  9 10  1  0  0  0
 11 12  4  0  0  0
 12 13  4  0  0  0
 12 16  1  0  0  0
 13 14  4  0  0  0
 14 15  4  0  0  0
 16 17  1  0  0  0
 17 18  4  0  0  0
 17 22  4  0  0  0
 18 19  4  0  0  0
 19 20  4  0  0  0
 20 21  4  0  0  0
 21 22  4  0  0  0
  2 23  1  0  0  0
  5 24  1  0  0  0
  5 25  1  0  0  0
  6 26  1  0  0  0
  6 27  1  0  0  0
  6 28  1  0  0  0
 10 29  1  0  0  0
 10 30  1  0  0  0
 10 31  1  0  0  0
 18 32  1  0  0  0
 19 33  1  0  0  0
 20 34  1  0  0  0
 22 35  1  0  0  0
M  END
$$$$
