5ka7_ligand
  -I-interpret- 

 29 30  0  0  0  0  0  0  0  0999 V2000
  -42.5890   10.4530    0.0390 N   0  3  0  0  0
  -42.3690   10.7370    1.4510 C   0  0  0  0  0
  -42.7580   12.1250    1.9570 C   0  0  0  0  0
  -43.5590   12.8950    1.0600 C   0  0  0  0  0
  -44.0300   12.3910   -0.2600 C   0  0  0  0  0
  -43.8550   10.9500   -0.4920 C   0  0  0  0  0
  -42.4200   12.9490    3.2750 S   0  0  0  0  0
  -43.2020   14.2950    2.9980 C   0  0  0  0  0
  -43.8370   14.2760    1.7430 C   0  0  0  0  0
  -44.6680   15.4390    1.1120 C   0  0  0  0  0
  -45.1170   16.3800    1.8830 O   0  0  0  0  0
  -44.8830   15.4590   -0.1330 O   0  0  0  0  0
  -43.3560   15.4780    3.7600 N   0  0  0  0  0
  -42.8180   15.6630    5.0330 C   0  0  0  0  0
  -43.1320   17.0180    5.6200 C   0  0  0  0  0
  -42.2000   17.6530    6.2240 O   0  0  0  0  0
  -44.2680   17.4900    5.4010 O   0  0  0  0  0
  -42.1210   14.8110    5.6160 O   0  0  0  0  0
  -42.6024    9.4381   -0.0616 H   0  0  0  0  0
  -41.8452   10.9219   -0.4780 H   0  0  0  0  0
  -41.2924   10.6592    1.6028 H   0  0  0  0  0
  -43.0034   10.0369    1.9945 H   0  0  0  0  0
  -43.4319   12.9000   -1.0158 H   0  0  0  0  0
  -45.1025   12.5816   -0.2982 H   0  0  0  0  0
  -44.6641   10.4250    0.0158 H   0  0  0  0  0
  -43.8613   10.7775   -1.5683 H   0  0  0  0  0
  -44.8590   16.1995    2.7899 H   0  0  0  0  0
  -43.8940   16.2427    3.3524 H   0  0  0  0  0
  -41.4191   17.0973    6.2786 H   0  0  0  0  0
  1  2  1  0  0  0
  1  6  1  0  0  0
  2  3  1  0  0  0
  3  4  4  0  0  0
  3  7  4  0  0  0
  4  5  1  0  0  0
  4  9  4  0  0  0
  5  6  1  0  0  0
  7  8  4  0  0  0
  8  9  4  0  0  0
  8 13  1  0  0  0
  9 10  1  0  0  0
 10 11  1  0  0  0
 10 12  2  0  0  0
 13 14  1  0  0  0
 14 15  1  0  0  0
 14 18  2  0  0  0
 15 16  1  0  0  0
 15 17  2  0  0  0
  1 19  1  0  0  0
  1 20  1  0  0  0
  2 21  1  0  0  0
  2 22  1  0  0  0
  5 23  1  0  0  0
  5 24  1  0  0  0
  6 25  1  0  0  0
  6 26  1  0  0  0
 11 27  1  0  0  0
 13 28  1  0  0  0
 16 29  1  0  0  0
M  END
$$$$
