6n3z_ligand
  -I-interpret- 

 56 58  0  0  0  0  0  0  0  0999 V2000
   56.1440   12.4950   14.8650 C   0  0  0  0  0
   57.0370   11.5290   17.4720 C   0  0  0  0  0
   58.0910    9.5430   18.7230 C   0  0  0  0  0
   61.1770    7.0050   21.5950 C   0  0  0  0  0
   60.8060    5.7730   21.0830 C   0  0  0  0  0
   59.5300    6.8110   19.3590 C   0  0  0  0  0
   56.3090   11.5850    6.5240 C   0  0  0  0  0
   56.2900   12.0280    7.9020 N   0  0  0  0  0
   55.3320   11.4530    8.8240 C   0  0  0  0  0
   54.5470   10.6350    8.4820 O   0  0  0  0  0
   55.3190   11.9320   10.2610 C   0  0  0  0  0
   56.4880   12.3650   10.8590 C   0  0  0  0  0
   56.4460   12.8040   12.1670 C   0  0  0  0  0
   55.2380   12.8080   12.8440 C   0  0  0  0  0
   55.1980   13.2450   14.1660 O   0  0  0  0  0
   55.4180   11.3640   15.5840 C   0  0  0  0  0
   56.3810   10.5900   16.4730 C   0  0  0  0  0
   58.1160   10.8390   18.0990 N   0  0  0  0  0
   57.1220    8.8590   18.8340 O   0  0  0  0  0
   59.4150    9.2280   19.2110 N   0  0  0  0  0
   59.8760    8.0410   19.8780 C   0  0  0  0  0
   60.7140    8.1470   20.9730 C   0  0  0  0  0
   61.2730    4.6060   21.6640 O   0  0  0  0  0
   62.4400    4.2140   21.0060 C   0  0  0  0  0
   62.8760    5.2140   20.1850 F   0  0  0  0  0
   63.3950    3.9670   21.9440 F   0  0  0  0  0
   62.2030    3.1150   20.2350 F   0  0  0  0  0
   59.9950    5.6670   19.9680 C   0  0  0  0  0
   57.7850   12.6420   16.7650 C   0  0  0  0  0
   56.9000   13.4220   15.8090 C   0  0  0  0  0
   54.0720   12.3720   12.2410 C   0  0  0  0  0
   54.1120   11.9350   10.9340 C   0  0  0  0  0
   56.8822   12.0420   14.2032 H   0  0  0  0  0
   56.2462   11.8841   18.1328 H   0  0  0  0  0
   61.8216    7.0716   22.4714 H   0  0  0  0  0
   58.8948    6.7452   18.4756 H   0  0  0  0  0
   56.5129   10.5148    6.4905 H   0  0  0  0  0
   55.3408   11.7862    6.0656 H   0  0  0  0  0
   57.0876   12.1216    5.9819 H   0  0  0  0  0
   56.9466   12.7401    8.2216 H   0  0  0  0  0
   57.4276   12.3598   10.3065 H   0  0  0  0  0
   57.3553   13.1444   12.6624 H   0  0  0  0  0
   54.9988   10.6848   14.8416 H   0  0  0  0  0
   54.6284   11.7886   16.2039 H   0  0  0  0  0
   55.8297    9.8205   17.0134 H   0  0  0  0  0
   57.1514   10.1319   15.8528 H   0  0  0  0  0
   59.0140   11.3228   18.1059 H   0  0  0  0  0
   60.1208    9.9490   19.0610 H   0  0  0  0  0
   61.0079    9.1290   21.3436 H   0  0  0  0  0
   59.7262    4.6866   19.5747 H   0  0  0  0  0
   58.5901   12.1905   16.1853 H   0  0  0  0  0
   58.1530   13.3338   17.5227 H   0  0  0  0  0
   56.1736   13.9863   16.3937 H   0  0  0  0  0
   57.5319   14.0807   15.2132 H   0  0  0  0  0
   53.1321   12.3739   12.7929 H   0  0  0  0  0
   53.2027   11.5960   10.4376 H   0  0  0  0  0
  1 15  1  0  0  0
 16  1  1  0  0  0
  1 30  1  0  0  0
  2 17  1  0  0  0
 18  2  1  0  0  0
  2 29  1  0  0  0
  3 18  1  0  0  0
  3 19  2  0  0  0
 20  3  1  0  0  0
  5  4  4  0  0  0
  4 22  4  0  0  0
  5 23  1  0  0  0
 28  5  4  0  0  0
 21  6  4  0  0  0
  6 28  4  0  0  0
  8  7  1  0  0  0
  9  8  1  0  0  0
  9 10  2  0  0  0
 11  9  1  0  0  0
 12 11  4  0  0  0
 11 32  4  0  0  0
 13 12  4  0  0  0
 14 13  4  0  0  0
 15 14  1  0  0  0
 14 31  4  0  0  0
 17 16  1  0  0  0
 20 21  1  0  0  0
 21 22  4  0  0  0
 23 24  1  0  0  0
 24 25  1  0  0  0
 24 26  1  0  0  0
 24 27  1  0  0  0
 29 30  1  0  0  0
 31 32  4  0  0  0
  1 33  1  0  0  0
  2 34  1  0  0  0
  4 35  1  0  0  0
  6 36  1  0  0  0
  7 37  1  0  0  0
  7 38  1  0  0  0
  7 39  1  0  0  0
  8 40  1  0  0  0
 12 41  1  0  0  0
 13 42  1  0  0  0
 16 43  1  0  0  0
 16 44  1  0  0  0
 17 45  1  0  0  0
 17 46  1  0  0  0
 18 47  1  0  0  0
 20 48  1  0  0  0
 22 49  1  0  0  0
 28 50  1  0  0  0
 29 51  1  0  0  0
 29 52  1  0  0  0
 30 53  1  0  0  0
 30 54  1  0  0  0
 31 55  1  0  0  0
 32 56  1  0  0  0
M  END
$$$$
