5fng_ligand
  -I-interpret- 

 19 20  0  0  0  0  0  0  0  0999 V2000
   -6.8500    6.4070   12.4530 Cl  0  0  0  0  0
   -6.1380    5.0150   13.1600 C   0  0  0  0  0
   -6.0310    4.8880   14.5260 C   0  0  0  0  0
   -5.4660    3.7660   15.0580 C   0  0  0  0  0
   -4.9710    2.7650   14.2210 C   0  0  0  0  0
   -5.0720    2.9150   12.8550 C   0  0  0  0  0
   -5.6620    4.0380   12.3180 C   0  0  0  0  0
   -4.2920    1.5040   14.7400 C   0  0  0  0  0
   -4.8160    1.1850   16.0770 C   0  0  0  0  0
   -5.7770    0.2820   16.1730 N   0  0  0  0  0
   -6.0630    0.2270   17.5000 N   0  0  0  0  0
   -5.2810    1.1230   18.1370 N   0  0  0  0  0
   -4.4800    1.7450   17.2400 N   0  0  0  0  0
   -6.3959    5.6801   15.1799 H   0  0  0  0  0
   -5.4010    3.6510   16.1400 H   0  0  0  0  0
   -4.6825    2.1399   12.1950 H   0  0  0  0  0
   -5.7505    4.1507   11.2375 H   0  0  0  0  0
   -3.2159    1.6669   14.7991 H   0  0  0  0  0
   -4.4940    0.6751   14.0616 H   0  0  0  0  0
  1  2  1  0  0  0
  2  3  4  0  0  0
  2  7  4  0  0  0
  3  4  4  0  0  0
  4  5  4  0  0  0
  5  6  4  0  0  0
  5  8  1  0  0  0
  6  7  4  0  0  0
  8  9  1  0  0  0
  9 10  4  0  0  0
  9 13  4  0  0  0
 10 11  4  0  0  0
 11 12  4  0  0  0
 12 13  4  0  0  0
  3 14  1  0  0  0
  4 15  1  0  0  0
  6 16  1  0  0  0
  7 17  1  0  0  0
  8 18  1  0  0  0
  8 19  1  0  0  0
M  END
$$$$
