4j79_ligand
  -I-interpret- 

107107  0  0  0  0  0  0  0  0999 V2000
    8.5620  -26.4050   18.6210 N   0  3  0  0  0
    7.9050  -26.4360   17.3200 C   0  0  0  0  0
    6.4620  -25.9310   17.3730 C   0  0  0  0  0
    5.9930  -25.3170   16.4100 O   0  0  0  0  0
    7.9430  -27.8390   16.7180 C   0  0  0  0  0
    7.8730  -27.8590   15.1990 C   0  0  0  0  0
    7.9860  -29.2620   14.6220 C   0  0  0  0  0
    8.3840  -30.1830   15.3710 O   0  0  0  0  0
    7.6820  -29.4420   13.4210 O   0  0  0  0  0
    5.7470  -26.1980   18.4700 N   0  0  0  0  0
    4.4030  -25.6260   18.6030 C   0  0  0  0  0
    4.5200  -24.1280   18.8540 C   0  0  0  0  0
    5.2060  -23.6870   19.7840 O   0  0  0  0  0
    3.5620  -26.2950   19.7080 C   0  0  0  0  0
    2.0780  -25.8770   19.6600 C   0  0  0  0  0
    1.2290  -26.5250   20.7460 C   0  0  0  0  0
    0.7600  -27.9220   20.3910 C   0  0  0  0  0
    0.0660  -27.9240   19.0600 N   0  3  0  0  0
    3.8620  -23.3440   18.0060 N   0  0  0  0  0
    3.8420  -21.8980   18.1750 C   0  0  0  0  0
    2.6020  -21.4940   18.9920 C   0  0  0  0  0
    1.7130  -22.3200   19.2350 O   0  0  0  0  0
    3.8470  -21.1820   16.8170 C   0  0  0  0  0
    5.1790  -21.4300   16.0930 C   0  0  0  0  0
    2.6980  -21.6680   15.9690 C   0  0  0  0  0
    2.5410  -20.0850   19.4180 N   0  0  0  0  0
    1.4400  -19.6990   20.3000 C   0  0  0  0  0
    1.2110  -20.6980   21.4220 C   0  0  0  0  0
    0.0700  -21.0480   21.7410 O   0  0  0  0  0
    0.1400  -19.4750   19.5050 C   0  0  0  0  0
    0.2110  -18.3050   18.5720 C   0  0  0  0  0
    0.7710  -18.3870   17.3140 N   0  0  0  0  0
   -0.2330  -17.0310   18.7060 C   0  0  0  0  0
    0.6910  -17.2060   16.7210 C   0  0  0  0  0
    0.0820  -16.3700   17.5420 N   0  0  0  0  0
    2.2000  -21.0350   22.1110 N   0  0  0  0  0
    2.0320  -21.8570   23.3160 C   0  0  0  0  0
    1.5730  -21.0160   24.4980 C   0  0  0  0  0
    0.8700  -21.5060   25.3940 O   0  0  0  0  0
    3.3300  -22.6290   23.6540 C   0  0  0  0  0
    3.2790  -23.2230   25.0420 C   0  0  0  0  0
    3.5760  -23.7260   22.6290 C   0  0  0  0  0
    1.9500  -19.7430   24.5040 N   0  0  0  0  0
    1.5310  -18.8720   25.6060 C   0  0  0  0  0
    0.0670  -18.4690   25.4720 C   0  0  0  0  0
   -0.4980  -17.8920   26.4180 O   0  0  0  0  0
    2.3770  -17.6020   25.6470 C   0  0  0  0  0
    3.8150  -17.8140   26.0490 C   0  0  0  0  0
    4.4930  -16.5020   26.3760 C   0  0  0  0  0
    4.5940  -16.1130   27.5460 O   0  0  0  0  0
    4.9390  -15.7970   25.3440 N   0  0  0  0  0
   -0.5810  -18.6750   24.4260 O   0  0  0  0  0
    8.5217  -25.4583   18.9985 H   0  0  0  0  0
    8.0865  -27.0461   19.2561 H   0  0  0  0  0
    9.5360  -26.6891   18.5156 H   0  0  0  0  0
    8.4665  -25.7550   16.6803 H   0  0  0  0  0
    7.0702  -28.3755   17.0901 H   0  0  0  0  0
    8.8931  -28.2896   17.0050 H   0  0  0  0  0
    8.7098  -27.2733   14.8186 H   0  0  0  0  0
    6.9050  -27.4538   14.9041 H   0  0  0  0  0
    8.5604  -29.8289   16.2457 H   0  0  0  0  0
    6.1309  -26.7918   19.2051 H   0  0  0  0  0
    3.8743  -25.8142   17.6686 H   0  0  0  0  0
    3.9666  -25.9847   20.6714 H   0  0  0  0  0
    3.6113  -27.3738   19.5600 H   0  0  0  0  0
    1.6785  -26.1965   18.6975 H   0  0  0  0  0
    2.0363  -24.7984   19.8115 H   0  0  0  0  0
    0.3424  -25.9059   20.8828 H   0  0  0  0  0
    1.8453  -26.6033   21.6416 H   0  0  0  0  0
    0.0612  -28.2646   21.1542 H   0  0  0  0  0
    1.6255  -28.5826   20.3390 H   0  0  0  0  0
   -0.2414  -28.8713   18.8396 H   0  0  0  0  0
   -0.7424  -27.3032   19.0985 H   0  0  0  0  0
    0.7119  -27.5989   18.3406 H   0  0  0  0  0
    3.3617  -23.7632   17.2222 H   0  0  0  0  0
    4.7420  -21.5965   18.7110 H   0  0  0  0  0
    3.7319  -20.1112   16.9848 H   0  0  0  0  0
    5.9986  -21.0483   16.7019 H   0  0  0  0  0
    5.3108  -22.5002   15.9338 H   0  0  0  0  0
    5.1694  -20.9168   15.1314 H   0  0  0  0  0
    2.7957  -22.7416   15.8079 H   0  0  0  0  0
    1.7578  -21.4600   16.4797 H   0  0  0  0  0
    2.7132  -21.1523   15.0088 H   0  0  0  0  0
    3.2379  -19.4066   19.1105 H   0  0  0  0  0
    1.7338  -18.7568   20.7626 H   0  0  0  0  0
   -0.6555  -19.2762   20.2231 H   0  0  0  0  0
   -0.0361  -20.3665   18.9031 H   0  0  0  0  0
   -0.7432  -16.6103   19.5725 H   0  0  0  0  0
    1.0640  -16.9650   15.7256 H   0  0  0  0  0
    3.1341  -20.7350   21.8320 H   0  0  0  0  0
    1.2533  -22.5906   23.1073 H   0  0  0  0  0
    4.1537  -21.9158   23.6231 H   0  0  0  0  0
    3.1528  -22.4245   25.7731 H   0  0  0  0  0
    2.4394  -23.9148   25.1091 H   0  0  0  0  0
    4.2081  -23.7568   25.2417 H   0  0  0  0  0
    2.7367  -24.4214   22.6345 H   0  0  0  0  0
    3.6743  -23.2809   21.6389 H   0  0  0  0  0
    4.4927  -24.2588   22.8819 H   0  0  0  0  0
    2.5266  -19.3740   23.7478 H   0  0  0  0  0
    1.6672  -19.4403   26.5261 H   0  0  0  0  0
    1.9314  -16.9485   26.3970 H   0  0  0  0  0
    2.3874  -17.1954   24.6357 H   0  0  0  0  0
    4.3430  -18.2796   25.2169 H   0  0  0  0  0
    3.8377  -18.4470   26.9361 H   0  0  0  0  0
    5.3871  -14.8939   25.4988 H   0  0  0  0  0
    4.8337  -16.1582   24.3959 H   0  0  0  0  0
   -0.0221  -19.1245   23.7879 H   0  0  0  0  0
  1  2  1  0  0  0
  2  3  1  0  0  0
  2  5  1  0  0  0
  3  4  2  0  0  0
  3 10  1  0  0  0
  5  6  1  0  0  0
  6  7  1  0  0  0
  7  8  1  0  0  0
  7  9  2  0  0  0
 10 11  1  0  0  0
 11 12  1  0  0  0
 11 14  1  0  0  0
 12 13  2  0  0  0
 12 19  1  0  0  0
 14 15  1  0  0  0
 15 16  1  0  0  0
 16 17  1  0  0  0
 17 18  1  0  0  0
 19 20  1  0  0  0
 20 21  1  0  0  0
 20 23  1  0  0  0
 21 22  2  0  0  0
 21 26  1  0  0  0
 23 24  1  0  0  0
 23 25  1  0  0  0
 26 27  1  0  0  0
 27 28  1  0  0  0
 27 30  1  0  0  0
 28 29  2  0  0  0
 28 36  1  0  0  0
 30 31  1  0  0  0
 31 32  4  0  0  0
 31 33  4  0  0  0
 32 34  4  0  0  0
 33 35  4  0  0  0
 34 35  4  0  0  0
 36 37  1  0  0  0
 37 38  1  0  0  0
 37 40  1  0  0  0
 38 39  2  0  0  0
 38 43  1  0  0  0
 40 41  1  0  0  0
 40 42  1  0  0  0
 43 44  1  0  0  0
 44 45  1  0  0  0
 44 47  1  0  0  0
 45 46  2  0  0  0
 45 52  1  0  0  0
 47 48  1  0  0  0
 48 49  1  0  0  0
 49 50  2  0  0  0
 49 51  1  0  0  0
  1 53  1  0  0  0
  1 54  1  0  0  0
  1 55  1  0  0  0
  2 56  1  0  0  0
  5 57  1  0  0  0
  5 58  1  0  0  0
  6 59  1  0  0  0
  6 60  1  0  0  0
  8 61  1  0  0  0
 10 62  1  0  0  0
 11 63  1  0  0  0
 14 64  1  0  0  0
 14 65  1  0  0  0
 15 66  1  0  0  0
 15 67  1  0  0  0
 16 68  1  0  0  0
 16 69  1  0  0  0
 17 70  1  0  0  0
 17 71  1  0  0  0
 18 72  1  0  0  0
 18 73  1  0  0  0
 18 74  1  0  0  0
 19 75  1  0  0  0
 20 76  1  0  0  0
 23 77  1  0  0  0
 24 78  1  0  0  0
 24 79  1  0  0  0
 24 80  1  0  0  0
 25 81  1  0  0  0
 25 82  1  0  0  0
 25 83  1  0  0  0
 26 84  1  0  0  0
 27 85  1  0  0  0
 30 86  1  0  0  0
 30 87  1  0  0  0
 33 88  1  0  0  0
 34 89  1  0  0  0
 36 90  1  0  0  0
 37 91  1  0  0  0
 40 92  1  0  0  0
 41 93  1  0  0  0
 41 94  1  0  0  0
 41 95  1  0  0  0
 42 96  1  0  0  0
 42 97  1  0  0  0
 42 98  1  0  0  0
 43 99  1  0  0  0
 44100  1  0  0  0
 47101  1  0  0  0
 47102  1  0  0  0
 48103  1  0  0  0
 48104  1  0  0  0
 51105  1  0  0  0
 51106  1  0  0  0
 52107  1  0  0  0
M  END
$$$$
