### 
### Created by X-TOOL on Mon Sep 10 21:13:12 2018
### 

@<TRIPOS>MOLECULE
4j79_ligand
  106   106     1     0     0
SMALL
GAST_HUCK


@<TRIPOS>ATOM
      1 N           8.5620  -26.4050   18.6210 N.4       1 GLU         0.2380
      2 CA          7.9050  -26.4360   17.3200 C.3       1 GLU         0.0665
      3 C           6.4620  -25.9310   17.3730 C.2       1 GLU         0.2268
      4 O           5.9930  -25.3170   16.4100 O.2       1 GLU        -0.3907
      5 CB          7.9430  -27.8390   16.7180 C.3       1 GLU         0.0194
      6 CG          7.8730  -27.8590   15.1990 C.3       1 GLU         0.0075
      7 CD          7.9860  -29.2620   14.6220 C.2       1 GLU         0.0351
      8 OE1         8.3840  -30.1830   15.3710 O.co2     1 GLU        -0.5690
      9 OE2         7.6820  -29.4420   13.4210 O.co2     1 GLU        -0.5690
     10 N           5.7470  -26.1980   18.4700 N.am      1 LYS        -0.2610
     11 CA          4.4030  -25.6260   18.6030 C.3       1 LYS         0.1311
     12 C           4.5200  -24.1280   18.8540 C.2       1 LYS         0.2039
     13 O           5.2060  -23.6870   19.7840 O.2       1 LYS        -0.3944
     14 CB          3.5620  -26.2950   19.7080 C.3       1 LYS        -0.0122
     15 CG          2.0780  -25.8770   19.6600 C.3       1 LYS        -0.0440
     16 CD          1.2290  -26.5250   20.7460 C.3       1 LYS        -0.0124
     17 CE          0.7600  -27.9220   20.3910 C.3       1 LYS        -0.0354
     18 NZ          0.0660  -27.9240   19.0600 N.4       1 LYS         0.2185
     19 N           3.8620  -23.3440   18.0060 N.am      1 VAL        -0.2635
     20 CA          3.8420  -21.8980   18.1750 C.3       1 VAL         0.1333
     21 C           2.6020  -21.4940   18.9920 C.2       1 VAL         0.2042
     22 O           1.7130  -22.3200   19.2350 O.2       1 VAL        -0.3944
     23 CB          3.8470  -21.1820   16.8170 C.3       1 VAL        -0.0063
     24 CG1         5.1790  -21.4300   16.0930 C.3       1 VAL        -0.0584
     25 CG2         2.6980  -21.6680   15.9690 C.3       1 VAL        -0.0584
     26 N           2.5410  -20.0850   19.4180 N.am      1 HIS        -0.2625
     27 CA          1.4400  -19.6990   20.3000 C.3       1 HIS         0.1369
     28 C           1.2110  -20.6980   21.4220 C.2       1 HIS         0.2054
     29 O           0.0700  -21.0480   21.7410 O.2       1 HIS        -0.3942
     30 CB          0.1400  -19.4750   19.5050 C.3       1 HIS         0.0145
     31 CG          0.2110  -18.3050   18.5720 C.2       1 HIS        -0.0027
     32 ND1         0.7710  -18.3870   17.3140 N.2       1 HIS        -0.3252
     33 CD2        -0.2330  -17.0310   18.7060 C.2       1 HIS         0.0291
     34 CE1         0.6910  -17.2060   16.7210 C.2       1 HIS         0.0907
     35 NE2         0.0820  -16.3700   17.5420 N.pl3     1 HIS        -0.2752
     36 N           2.2000  -21.0350   22.1110 N.am      1 VAL        -0.2634
     37 CA          2.0320  -21.8570   23.3160 C.3       1 VAL         0.1332
     38 C           1.5730  -21.0160   24.4980 C.2       1 VAL         0.2036
     39 O           0.8700  -21.5060   25.3940 O.2       1 VAL        -0.3944
     40 CB          3.3300  -22.6290   23.6540 C.3       1 VAL        -0.0063
     41 CG1         3.2790  -23.2230   25.0420 C.3       1 VAL        -0.0584
     42 CG2         3.5760  -23.7260   22.6290 C.3       1 VAL        -0.0584
     43 N           1.9500  -19.7430   24.5040 N.am      1 GLN        -0.2693
     44 CA          1.5310  -18.8720   25.6060 C.3       1 GLN         0.0964
     45 C           0.0670  -18.4690   25.4720 C.2       1 GLN         0.0602
     46 O          -0.4980  -17.8920   26.4180 O.co2     1 GLN        -0.5666
     47 CB          2.3770  -17.6020   25.6470 C.3       1 GLN        -0.0010
     48 CG          3.8150  -17.8140   26.0490 C.3       1 GLN         0.0407
     49 CD          4.4930  -16.5020   26.3760 C.2       1 GLN         0.1737
     50 OE1         4.5940  -16.1130   27.5460 O.2       1 GLN        -0.3973
     51 NE2         4.9390  -15.7970   25.3440 N.am      1 GLN        -0.3009
     52 OXT        -0.5810  -18.6750   24.4260 O.co2     1 GLN        -0.5666
     53 H1          9.5059  -26.7466   18.5290 H         1 GLU         0.2015
     54 H2          8.0549  -26.9889   19.2675 H         1 GLU         0.2015
     55 H3          8.5796  -25.4581   18.9661 H         1 GLU         0.2015
     56 H4          8.4671  -25.7662   16.6527 H         1 GLU         0.1099
     57 H5          7.0881  -28.4083   17.1117 H         1 GLU         0.0363
     58 H6          8.8805  -28.3238   17.0280 H         1 GLU         0.0363
     59 H7          8.6967  -27.2480   14.8011 H         1 GLU         0.0434
     60 H8          6.9113  -27.4266   14.8858 H         1 GLU         0.0434
     61 H9          6.1234  -26.7801   19.1907 H         1 LYS         0.1884
     62 H10         3.8771  -25.7774   17.6488 H         1 LYS         0.0800
     63 H11         3.9763  -26.0110   20.6866 H         1 LYS         0.0312
     64 H12         3.6245  -27.3864   19.5861 H         1 LYS         0.0312
     65 H13         1.6673  -26.1625   18.6803 H         1 LYS         0.0269
     66 H14         2.0198  -24.7849   19.7779 H         1 LYS         0.0269
     67 H15         0.3448  -25.8942   20.9200 H         1 LYS         0.0317
     68 H16         1.8262  -26.5817   21.6680 H         1 LYS         0.0317
     69 H17         0.0614  -28.2760   21.1634 H         1 LYS         0.0813
     70 H18         1.6291  -28.5947   20.3465 H         1 LYS         0.0813
     71 H19        -0.2383  -28.8597   18.8412 H         1 LYS         0.1994
     72 H20         0.7034  -27.6029   18.3482 H         1 LYS         0.1994
     73 H21        -0.7332  -27.3108   19.0968 H         1 LYS         0.1994
     74 H22         3.3715  -23.7550   17.2376 H         1 VAL         0.1883
     75 H23         4.7433  -21.5972   18.7292 H         1 VAL         0.0802
     76 H24         3.7309  -20.1012   16.9857 H         1 VAL         0.0343
     77 H25         5.1706  -20.9125   15.1223 H         1 VAL         0.0234
     78 H26         5.3132  -22.5098   15.9317 H         1 VAL         0.0234
     79 H27         6.0070  -21.0452   16.7064 H         1 VAL         0.0234
     80 H28         1.7502  -21.4856   16.4966 H         1 VAL         0.0234
     81 H29         2.8114  -22.7458   15.7808 H         1 VAL         0.0234
     82 H30         2.6945  -21.1269   15.0113 H         1 VAL         0.0234
     83 H31         3.2242  -19.4199   19.1165 H         1 HIS         0.1885
     84 H32         1.7158  -18.7409   20.7647 H         1 HIS         0.0817
     85 H33        -0.6802  -19.3041   20.2177 H         1 HIS         0.0420
     86 H34        -0.0691  -20.3797   18.9153 H         1 HIS         0.0420
     87 H35        -0.7427  -16.6106   19.5717 H         1 HIS         0.0729
     88 H36         1.0636  -16.9652   15.7265 H         1 HIS         0.1199
     89 H37        -0.1242  -15.3808   17.3424 H         1 HIS         0.2361
     90 H38         3.1158  -20.7408   21.8375 H         1 VAL         0.1883
     91 H39         1.2465  -22.5983   23.1076 H         1 VAL         0.0802
     92 H40         4.1702  -21.9201   23.6140 H         1 VAL         0.0343
     93 H41         4.2162  -23.7620   25.2448 H         1 VAL         0.0234
     94 H42         2.4320  -23.9215   25.1111 H         1 VAL         0.0234
     95 H43         3.1517  -22.4181   25.7809 H         1 VAL         0.0234
     96 H44         3.6117  -23.2853   21.6218 H         1 VAL         0.0234
     97 H45         2.7610  -24.4631   22.6780 H         1 VAL         0.0234
     98 H46         4.5332  -24.2227   22.8460 H         1 VAL         0.0234
     99 H47         2.5153  -19.3813   23.7626 H         1 GLN         0.1875
    100 H48         1.6636  -19.4203   26.5503 H         1 GLN         0.0727
    101 H49         1.9188  -16.9084   26.3674 H         1 GLN         0.0330
    102 H50         2.3649  -17.1500   24.6442 H         1 GLN         0.0330
    103 H51         4.3515  -18.2976   25.2194 H         1 GLN         0.0504
    104 H52         3.8472  -18.4647   26.9353 H         1 GLN         0.0504
    105 H53         5.3962  -14.9209   25.4971 H         1 GLN         0.1814
    106 H54         4.8179  -16.1418   24.4132 H         1 GLN         0.1814
@<TRIPOS>BOND
     1    1    2 1  
     2    2    3 1  
     3    2    5 1  
     4    3    4 2  
     5    3   10 am 
     6    5    6 1  
     7    6    7 1  
     8    7    8 ar 
     9    7    9 ar 
    10   10   11 1  
    11   11   12 1  
    12   11   14 1  
    13   12   13 2  
    14   12   19 am 
    15   14   15 1  
    16   15   16 1  
    17   16   17 1  
    18   17   18 1  
    19   19   20 1  
    20   20   21 1  
    21   20   23 1  
    22   21   22 2  
    23   21   26 am 
    24   23   24 1  
    25   23   25 1  
    26   26   27 1  
    27   27   28 1  
    28   27   30 1  
    29   28   29 2  
    30   28   36 am 
    31   30   31 1  
    32   31   32 1  
    33   31   33 2  
    34   32   34 2  
    35   33   35 1  
    36   34   35 1  
    37   36   37 1  
    38   37   38 1  
    39   37   40 1  
    40   38   39 2  
    41   38   43 am 
    42   40   41 1  
    43   40   42 1  
    44   43   44 1  
    45   44   45 1  
    46   44   47 1  
    47   45   46 ar 
    48   45   52 ar 
    49   47   48 1  
    50   48   49 1  
    51   49   50 2  
    52   49   51 am 
    53    1   53 1  
    54    1   54 1  
    55    1   55 1  
    56    2   56 1  
    57    5   57 1  
    58    5   58 1  
    59    6   59 1  
    60    6   60 1  
    61   10   61 1  
    62   11   62 1  
    63   14   63 1  
    64   14   64 1  
    65   15   65 1  
    66   15   66 1  
    67   16   67 1  
    68   16   68 1  
    69   17   69 1  
    70   17   70 1  
    71   18   71 1  
    72   18   72 1  
    73   18   73 1  
    74   19   74 1  
    75   20   75 1  
    76   23   76 1  
    77   24   77 1  
    78   24   78 1  
    79   24   79 1  
    80   25   80 1  
    81   25   81 1  
    82   25   82 1  
    83   26   83 1  
    84   27   84 1  
    85   30   85 1  
    86   30   86 1  
    87   33   87 1  
    88   34   88 1  
    89   35   89 1  
    90   36   90 1  
    91   37   91 1  
    92   40   92 1  
    93   41   93 1  
    94   41   94 1  
    95   41   95 1  
    96   42   96 1  
    97   42   97 1  
    98   42   98 1  
    99   43   99 1  
   100   44  100 1  
   101   47  101 1  
   102   47  102 1  
   103   48  103 1  
   104   48  104 1  
   105   51  105 1  
   106   51  106 1  
@<TRIPOS>SUBSTRUCTURE
     1 GLU         1

