### 
### Created by X-TOOL on Mon Sep 10 21:13:11 2018
### 

@<TRIPOS>MOLECULE
3rwj_ligand
  139   142     1     0     0
SMALL
GAST_HUCK


@<TRIPOS>ATOM
      1 N          -9.0960    9.6240  -19.2480 N.4       1 HIS         0.2390
      2 CA         -8.3700    8.4130  -19.6120 C.3       1 HIS         0.0708
      3 C          -7.0990    8.2260  -18.7900 C.2       1 HIS         0.2282
      4 O          -6.2420    9.1090  -18.7400 O.2       1 HIS        -0.3906
      5 CB         -8.0240    8.4170  -21.1030 C.3       1 HIS         0.0347
      6 CG         -9.1280    7.9160  -21.9820 C.2       1 HIS         0.0005
      7 ND1        -9.4570    6.5820  -22.0730 N.2       1 HIS        -0.3251
      8 CD2        -9.9740    8.5700  -22.8140 C.2       1 HIS         0.0293
      9 CE1       -10.4600    6.4340  -22.9200 C.2       1 HIS         0.0907
     10 NE2       -10.7920    7.6250  -23.3830 N.pl3     1 HIS        -0.2752
     11 N          -6.9860    7.0670  -18.1490 N.am      1 LEU        -0.2609
     12 CA         -5.7850    6.7100  -17.4070 C.3       1 LEU         0.1313
     13 C          -4.5780    6.7020  -18.3370 C.2       1 LEU         0.2039
     14 O          -4.6430    6.1680  -19.4440 O.2       1 LEU        -0.3944
     15 CB         -5.9510    5.3370  -16.7550 C.3       1 LEU        -0.0101
     16 CG         -4.7250    4.7710  -16.0350 C.3       1 LEU        -0.0425
     17 CD1        -4.2520    5.7280  -14.9530 C.3       1 LEU        -0.0625
     18 CD2        -5.0310    3.4000  -15.4500 C.3       1 LEU        -0.0625
     19 N          -3.4790    7.2940  -17.8830 N.am      1 GLU        -0.2636
     20 CA         -2.2730    7.3880  -18.6950 C.3       1 GLU         0.1325
     21 C          -1.2780    6.2880  -18.3360 C.2       1 GLU         0.2040
     22 O          -0.4430    5.9020  -19.1540 O.2       1 GLU        -0.3944
     23 CB         -1.6290    8.7670  -18.5340 C.3       1 GLU        -0.0008
     24 CG         -0.5620    9.0850  -19.5670 C.3       1 GLU         0.0044
     25 CD         -0.1120   10.5320  -19.5080 C.2       1 GLU         0.0350
     26 OE1        -0.4680   11.2260  -18.5330 O.co2     1 GLU        -0.5690
     27 OE2         0.5930   10.9760  -20.4380 O.co2     1 GLU        -0.5690
     28 N          -1.3730    5.7860  -17.1090 N.am      1 VAL        -0.2635
     29 CA         -0.5080    4.7010  -16.6600 C.3       1 VAL         0.1332
     30 C          -1.0040    3.3690  -17.2120 C.2       1 VAL         0.2042
     31 O          -2.1980    3.0770  -17.1680 O.2       1 VAL        -0.3944
     32 CB         -0.4490    4.6260  -15.1240 C.3       1 VAL        -0.0063
     33 CG1         0.5630    3.5800  -14.6850 C.3       1 VAL        -0.0584
     34 CG2        -0.0980    5.9860  -14.5410 C.3       1 VAL        -0.0584
     35 N          -0.0820    2.5640  -17.7310 N.am      1 GLN        -0.2636
     36 CA         -0.4430    1.2990  -18.3610 C.3       1 GLN         0.1330
     37 C          -0.1680    0.1030  -17.4560 C.2       1 GLN         0.2038
     38 O           0.9760   -0.1540  -17.0800 O.2       1 GLN        -0.3944
     39 CB          0.3000    1.1360  -19.6890 C.3       1 GLN         0.0045
     40 CG          0.1210    2.3050  -20.6420 C.3       1 GLN         0.0412
     41 CD         -1.3340    2.5650  -20.9800 C.2       1 GLN         0.1737
     42 OE1        -2.1620    1.6540  -20.9580 O.2       1 GLN        -0.3973
     43 NE2        -1.6540    3.8160  -21.2910 N.am      1 GLN        -0.3009
     44 N          -1.2240   -0.6260  -17.1120 N.am      1 GLY        -0.2664
     45 CA         -1.1000   -1.8080  -16.2790 C.3       1 GLY         0.1201
     46 C          -1.0450   -3.0800  -17.1010 C.2       1 GLY         0.2009
     47 O          -2.0680   -3.5580  -17.5910 O.2       1 GLY        -0.3947
     48 N           0.1560   -3.6280  -17.2530 N.am      1 TYR        -0.2624
     49 CA          0.3540   -4.8400  -18.0410 C.3       1 TYR         0.1390
     50 C           0.1690   -6.0960  -17.1970 C.2       1 TYR         0.2053
     51 O           0.7450   -6.2180  -16.1160 O.2       1 TYR        -0.3942
     52 CB          1.7470   -4.8440  -18.6740 C.3       1 TYR         0.0163
     53 CG          2.0000   -3.6860  -19.6120 C.ar      1 TYR        -0.0493
     54 CD1         1.7090   -3.7880  -20.9650 C.ar      1 TYR        -0.0685
     55 CD2         2.5320   -2.4920  -19.1440 C.ar      1 TYR        -0.0685
     56 CE1         1.9380   -2.7330  -21.8270 C.ar      1 TYR        -0.0398
     57 CE2         2.7650   -1.4310  -19.9980 C.ar      1 TYR        -0.0398
     58 CZ          2.4660   -1.5570  -21.3380 C.ar      1 TYR         0.0805
     59 OH          2.6970   -0.5030  -22.1920 O.3       1 TYR        -0.3376
     60 N          -0.6370   -7.0280  -17.6960 N.am      1 TRP        -0.2683
     61 CA         -0.8490   -8.2970  -17.0120 C.3       1 TRP         0.0986
     62 C           0.4560   -9.0790  -16.9090 C.2       1 TRP         0.0613
     63 O           1.3380   -8.9470  -17.7570 O.co2     1 TRP        -0.5665
     64 CB         -1.9060   -9.1360  -17.7350 C.3       1 TRP        -0.0013
     65 CG         -3.3030   -8.6090  -17.5960 C.2       1 TRP        -0.0424
     66 CD1        -3.6840   -7.4350  -17.0150 C.2       1 TRP         0.0166
     67 CD2        -4.5080   -9.2450  -18.0410 C.ar      1 TRP        -0.0214
     68 NE1        -5.0500   -7.2980  -17.0740 N.pl3     1 TRP        -0.2891
     69 CE2        -5.5790   -8.3960  -17.6990 C.ar      1 TRP         0.0603
     70 CE3        -4.7840  -10.4480  -18.6980 C.ar      1 TRP        -0.0747
     71 CZ2        -6.9050   -8.7120  -17.9910 C.ar      1 TRP        -0.0443
     72 CZ3        -6.1010  -10.7600  -18.9870 C.ar      1 TRP        -0.0792
     73 CH2        -7.1450   -9.8960  -18.6330 C.ar      1 TRP        -0.0768
     74 OXT         0.6580   -9.8590  -15.9790 O.co2     1 TRP        -0.5665
     75 H          -9.3161    9.6007  -18.2523 H         1 HIS         0.2016
     76 H          -8.5178   10.4395  -19.4506 H         1 HIS         0.2016
     77 H          -9.9602    9.6760  -19.7874 H         1 HIS         0.2016
     78 H          -9.0321    7.5752  -19.3933 H         1 HIS         0.1116
     79 H          -7.1720    7.7511  -21.2404 H         1 HIS         0.0453
     80 H          -7.8260    9.4504  -21.3876 H         1 HIS         0.0453
     81 H         -10.0004    9.6442  -22.9973 H         1 HIS         0.0729
     82 H         -10.9327    5.4898  -23.1904 H         1 HIS         0.1199
     83 H         -11.5360    7.8129  -24.0549 H         1 HIS         0.2361
     84 H          -7.7639    6.4079  -18.1777 H         1 LEU         0.1885
     85 H          -5.6257    7.4522  -16.6248 H         1 LEU         0.0800
     86 H          -6.1727    4.6426  -17.5654 H         1 LEU         0.0315
     87 H          -6.7209    5.4558  -15.9926 H         1 LEU         0.0315
     88 H          -3.9215    4.6565  -16.7626 H         1 LEU         0.0298
     89 H          -3.9871    6.6836  -15.4054 H         1 LEU         0.0232
     90 H          -5.0513    5.8774  -14.2271 H         1 LEU         0.0232
     91 H          -3.3796    5.3069  -14.4533 H         1 LEU         0.0232
     92 H          -5.8511    3.4854  -14.7371 H         1 LEU         0.0232
     93 H          -5.3149    2.7191  -16.2524 H         1 LEU         0.0232
     94 H          -4.1455    3.0169  -14.9429 H         1 LEU         0.0232
     95 H          -3.4794    7.6921  -16.9439 H         1 GLU         0.1883
     96 H          -2.5578    7.2535  -19.7385 H         1 GLU         0.0801
     97 H          -1.1440    8.7818  -17.5579 H         1 GLU         0.0330
     98 H          -2.4211    9.5061  -18.6540 H         1 GLU         0.0330
     99 H          -0.9850    8.9037  -20.5551 H         1 GLU         0.0433
    100 H           0.3033    8.4545  -19.3627 H         1 GLU         0.0433
    101 H          -2.0669    6.1684  -16.4666 H         1 VAL         0.1883
    102 H           0.4954    4.9044  -17.0342 H         1 VAL         0.0802
    103 H          -1.4308    4.3343  -14.7511 H         1 VAL         0.0343
    104 H           0.2711    2.6063  -15.0783 H         1 VAL         0.0234
    105 H           1.5484    3.8469  -15.0668 H         1 VAL         0.0234
    106 H           0.5926    3.5394  -13.5962 H         1 VAL         0.0234
    107 H           0.8740    6.3023  -14.9196 H         1 VAL         0.0234
    108 H          -0.8568    6.7119  -14.8331 H         1 VAL         0.0234
    109 H          -0.0604    5.9152  -13.4540 H         1 VAL         0.0234
    110 H           0.8998    2.8371  -17.6877 H         1 GLN         0.1883
    111 H          -1.5168    1.3267  -18.5464 H         1 GLN         0.0801
    112 H          -0.1055    0.2518  -20.1809 H         1 GLN         0.0337
    113 H           1.3631    1.0651  -19.4590 H         1 GLN         0.0337
    114 H           0.6427    2.0651  -21.5685 H         1 GLN         0.0504
    115 H           0.5169    3.1970  -20.1564 H         1 GLN         0.0504
    116 H          -2.6184    4.0529  -21.5241 H         1 GLN         0.1814
    117 H          -0.9354    4.5399  -21.2968 H         1 GLN         0.1814
    118 H          -2.1478   -0.3472  -17.4426 H         1 GLY         0.1881
    119 H          -1.9738   -1.8599  -15.6295 H         1 GLY         0.0763
    120 H          -0.1726   -1.7289  -15.7117 H         1 GLY         0.0763
    121 H           0.9615   -3.1894  -16.8066 H         1 TYR         0.1885
    122 H          -0.4012   -4.8448  -18.8270 H         1 TYR         0.0821
    123 H           1.8331   -5.7591  -19.2598 H         1 TYR         0.0453
    124 H           2.4708   -4.7668  -17.8627 H         1 TYR         0.0453
    125 H           1.2924   -4.7169  -21.3545 H         1 TYR         0.0530
    126 H           2.7698   -2.3899  -18.0852 H         1 TYR         0.0530
    127 H           1.7028   -2.8297  -22.8869 H         1 TYR         0.0525
    128 H           3.1827   -0.5001  -19.6146 H         1 TYR         0.0525
    129 H           2.4373   -0.7511  -23.0822 H         1 TYR         0.2458
    130 H          -1.1180   -6.8507  -18.5778 H         1 TRP         0.1877
    131 H          -1.2069   -8.0784  -16.0059 H         1 TRP         0.0741
    132 H          -1.8898  -10.1305  -17.2892 H         1 TRP         0.0390
    133 H          -1.6593   -9.1219  -18.7966 H         1 TRP         0.0390
    134 H          -3.0032   -6.7103  -16.5685 H         1 TRP         0.0795
    135 H          -5.5831   -6.5076  -16.7115 H         1 TRP         0.2216
    136 H          -3.9779  -11.1266  -18.9770 H         1 TRP         0.0540
    137 H          -7.7197   -8.0412  -17.7182 H         1 TRP         0.0541
    138 H          -6.3298  -11.6946  -19.4991 H         1 TRP         0.0510
    139 H          -8.1712  -10.1730  -18.8743 H         1 TRP         0.0530
@<TRIPOS>BOND
     1    1    2 1  
     2    2    3 1  
     3    2    5 1  
     4    3    4 2  
     5    3   11 am 
     6    5    6 1  
     7    6    7 1  
     8    6    8 2  
     9    7    9 2  
    10    8   10 1  
    11    9   10 1  
    12   11   12 1  
    13   12   13 1  
    14   12   15 1  
    15   13   14 2  
    16   13   19 am 
    17   15   16 1  
    18   16   17 1  
    19   16   18 1  
    20   19   20 1  
    21   20   21 1  
    22   20   23 1  
    23   21   22 2  
    24   21   28 am 
    25   23   24 1  
    26   24   25 1  
    27   25   26 ar 
    28   25   27 ar 
    29   28   29 1  
    30   29   30 1  
    31   29   32 1  
    32   30   31 2  
    33   30   35 am 
    34   32   33 1  
    35   32   34 1  
    36   35   36 1  
    37   36   37 1  
    38   36   39 1  
    39   37   38 2  
    40   37   44 am 
    41   39   40 1  
    42   40   41 1  
    43   41   42 2  
    44   41   43 am 
    45   44   45 1  
    46   45   46 1  
    47   46   47 2  
    48   46   48 am 
    49   48   49 1  
    50   49   50 1  
    51   49   52 1  
    52   50   51 2  
    53   50   60 am 
    54   52   53 1  
    55   53   54 ar 
    56   53   55 ar 
    57   54   56 ar 
    58   55   57 ar 
    59   56   58 ar 
    60   57   58 ar 
    61   58   59 1  
    62   60   61 1  
    63   61   62 1  
    64   61   64 1  
    65   62   63 ar 
    66   62   74 ar 
    67   64   65 1  
    68   65   66 2  
    69   65   67 1  
    70   66   68 1  
    71   67   69 ar 
    72   67   70 ar 
    73   68   69 1  
    74   69   71 ar 
    75   70   72 ar 
    76   71   73 ar 
    77   72   73 ar 
    78    1   75 1  
    79    1   76 1  
    80    1   77 1  
    81    2   78 1  
    82    5   79 1  
    83    5   80 1  
    84    8   81 1  
    85    9   82 1  
    86   10   83 1  
    87   11   84 1  
    88   12   85 1  
    89   15   86 1  
    90   15   87 1  
    91   16   88 1  
    92   17   89 1  
    93   17   90 1  
    94   17   91 1  
    95   18   92 1  
    96   18   93 1  
    97   18   94 1  
    98   19   95 1  
    99   20   96 1  
   100   23   97 1  
   101   23   98 1  
   102   24   99 1  
   103   24  100 1  
   104   28  101 1  
   105   29  102 1  
   106   32  103 1  
   107   33  104 1  
   108   33  105 1  
   109   33  106 1  
   110   34  107 1  
   111   34  108 1  
   112   34  109 1  
   113   35  110 1  
   114   36  111 1  
   115   39  112 1  
   116   39  113 1  
   117   40  114 1  
   118   40  115 1  
   119   43  116 1  
   120   43  117 1  
   121   44  118 1  
   122   45  119 1  
   123   45  120 1  
   124   48  121 1  
   125   49  122 1  
   126   52  123 1  
   127   52  124 1  
   128   54  125 1  
   129   55  126 1  
   130   56  127 1  
   131   57  128 1  
   132   59  129 1  
   133   60  130 1  
   134   61  131 1  
   135   64  132 1  
   136   64  133 1  
   137   66  134 1  
   138   68  135 1  
   139   70  136 1  
   140   71  137 1  
   141   72  138 1  
   142   73  139 1  
@<TRIPOS>SUBSTRUCTURE
     1 HIS         1

