3rwj_ligand
  -I-interpret- 

139142  0  0  0  0  0  0  0  0999 V2000
   -9.0960    9.6240  -19.2480 N   0  3  0  0  0
   -8.3700    8.4130  -19.6120 C   0  0  0  0  0
   -7.0990    8.2260  -18.7900 C   0  0  0  0  0
   -6.2420    9.1090  -18.7400 O   0  0  0  0  0
   -8.0240    8.4170  -21.1030 C   0  0  0  0  0
   -9.1280    7.9160  -21.9820 C   0  0  0  0  0
   -9.4570    6.5820  -22.0730 N   0  0  0  0  0
   -9.9740    8.5700  -22.8140 C   0  0  0  0  0
  -10.4600    6.4340  -22.9200 C   0  0  0  0  0
  -10.7920    7.6250  -23.3830 N   0  0  0  0  0
   -6.9860    7.0670  -18.1490 N   0  0  0  0  0
   -5.7850    6.7100  -17.4070 C   0  0  0  0  0
   -4.5780    6.7020  -18.3370 C   0  0  0  0  0
   -4.6430    6.1680  -19.4440 O   0  0  0  0  0
   -5.9510    5.3370  -16.7550 C   0  0  0  0  0
   -4.7250    4.7710  -16.0350 C   0  0  0  0  0
   -4.2520    5.7280  -14.9530 C   0  0  0  0  0
   -5.0310    3.4000  -15.4500 C   0  0  0  0  0
   -3.4790    7.2940  -17.8830 N   0  0  0  0  0
   -2.2730    7.3880  -18.6950 C   0  0  0  0  0
   -1.2780    6.2880  -18.3360 C   0  0  0  0  0
   -0.4430    5.9020  -19.1540 O   0  0  0  0  0
   -1.6290    8.7670  -18.5340 C   0  0  0  0  0
   -0.5620    9.0850  -19.5670 C   0  0  0  0  0
   -0.1120   10.5320  -19.5080 C   0  0  0  0  0
   -0.4680   11.2260  -18.5330 O   0  0  0  0  0
    0.5930   10.9760  -20.4380 O   0  0  0  0  0
   -1.3730    5.7860  -17.1090 N   0  0  0  0  0
   -0.5080    4.7010  -16.6600 C   0  0  0  0  0
   -1.0040    3.3690  -17.2120 C   0  0  0  0  0
   -2.1980    3.0770  -17.1680 O   0  0  0  0  0
   -0.4490    4.6260  -15.1240 C   0  0  0  0  0
    0.5630    3.5800  -14.6850 C   0  0  0  0  0
   -0.0980    5.9860  -14.5410 C   0  0  0  0  0
   -0.0820    2.5640  -17.7310 N   0  0  0  0  0
   -0.4430    1.2990  -18.3610 C   0  0  0  0  0
   -0.1680    0.1030  -17.4560 C   0  0  0  0  0
    0.9760   -0.1540  -17.0800 O   0  0  0  0  0
    0.3000    1.1360  -19.6890 C   0  0  0  0  0
    0.1210    2.3050  -20.6420 C   0  0  0  0  0
   -1.3340    2.5650  -20.9800 C   0  0  0  0  0
   -2.1620    1.6540  -20.9580 O   0  0  0  0  0
   -1.6540    3.8160  -21.2910 N   0  0  0  0  0
   -1.2240   -0.6260  -17.1120 N   0  0  0  0  0
   -1.1000   -1.8080  -16.2790 C   0  0  0  0  0
   -1.0450   -3.0800  -17.1010 C   0  0  0  0  0
   -2.0680   -3.5580  -17.5910 O   0  0  0  0  0
    0.1560   -3.6280  -17.2530 N   0  0  0  0  0
    0.3540   -4.8400  -18.0410 C   0  0  0  0  0
    0.1690   -6.0960  -17.1970 C   0  0  0  0  0
    0.7450   -6.2180  -16.1160 O   0  0  0  0  0
    1.7470   -4.8440  -18.6740 C   0  0  0  0  0
    2.0000   -3.6860  -19.6120 C   0  0  0  0  0
    1.7090   -3.7880  -20.9650 C   0  0  0  0  0
    2.5320   -2.4920  -19.1440 C   0  0  0  0  0
    1.9380   -2.7330  -21.8270 C   0  0  0  0  0
    2.7650   -1.4310  -19.9980 C   0  0  0  0  0
    2.4660   -1.5570  -21.3380 C   0  0  0  0  0
    2.6970   -0.5030  -22.1920 O   0  0  0  0  0
   -0.6370   -7.0280  -17.6960 N   0  0  0  0  0
   -0.8490   -8.2970  -17.0120 C   0  0  0  0  0
    0.4560   -9.0790  -16.9090 C   0  0  0  0  0
    1.3380   -8.9470  -17.7570 O   0  0  0  0  0
   -1.9060   -9.1360  -17.7350 C   0  0  0  0  0
   -3.3030   -8.6090  -17.5960 C   0  0  0  0  0
   -3.6840   -7.4350  -17.0150 C   0  0  0  0  0
   -4.5080   -9.2450  -18.0410 C   0  0  0  0  0
   -5.0500   -7.2980  -17.0740 N   0  0  0  0  0
   -5.5790   -8.3960  -17.6990 C   0  0  0  0  0
   -4.7840  -10.4480  -18.6980 C   0  0  0  0  0
   -6.9050   -8.7120  -17.9910 C   0  0  0  0  0
   -6.1010  -10.7600  -18.9870 C   0  0  0  0  0
   -7.1450   -9.8960  -18.6330 C   0  0  0  0  0
    0.6580   -9.8590  -15.9790 O   0  0  0  0  0
   -9.3161    9.6007  -18.2523 H   0  0  0  0  0
   -8.5178   10.4395  -19.4506 H   0  0  0  0  0
   -9.9602    9.6760  -19.7874 H   0  0  0  0  0
   -9.0321    7.5752  -19.3933 H   0  0  0  0  0
   -7.1720    7.7511  -21.2404 H   0  0  0  0  0
   -7.8260    9.4504  -21.3876 H   0  0  0  0  0
  -10.0004    9.6442  -22.9973 H   0  0  0  0  0
  -10.9327    5.4898  -23.1904 H   0  0  0  0  0
   -7.7639    6.4079  -18.1777 H   0  0  0  0  0
   -5.6257    7.4522  -16.6248 H   0  0  0  0  0
   -6.1727    4.6426  -17.5654 H   0  0  0  0  0
   -6.7209    5.4558  -15.9926 H   0  0  0  0  0
   -3.9215    4.6565  -16.7626 H   0  0  0  0  0
   -3.9871    6.6836  -15.4054 H   0  0  0  0  0
   -5.0513    5.8774  -14.2271 H   0  0  0  0  0
   -3.3796    5.3069  -14.4533 H   0  0  0  0  0
   -5.8511    3.4854  -14.7371 H   0  0  0  0  0
   -5.3149    2.7191  -16.2524 H   0  0  0  0  0
   -4.1455    3.0169  -14.9429 H   0  0  0  0  0
   -3.4794    7.6921  -16.9439 H   0  0  0  0  0
   -2.5578    7.2535  -19.7385 H   0  0  0  0  0
   -1.1440    8.7818  -17.5579 H   0  0  0  0  0
   -2.4211    9.5061  -18.6540 H   0  0  0  0  0
   -0.9850    8.9037  -20.5551 H   0  0  0  0  0
    0.3033    8.4545  -19.3627 H   0  0  0  0  0
    0.7487   10.2799  -21.0805 H   0  0  0  0  0
   -2.0669    6.1684  -16.4666 H   0  0  0  0  0
    0.4954    4.9044  -17.0342 H   0  0  0  0  0
   -1.4308    4.3343  -14.7511 H   0  0  0  0  0
    0.2711    2.6063  -15.0783 H   0  0  0  0  0
    1.5484    3.8469  -15.0668 H   0  0  0  0  0
    0.5926    3.5394  -13.5962 H   0  0  0  0  0
    0.8740    6.3023  -14.9196 H   0  0  0  0  0
   -0.8568    6.7119  -14.8331 H   0  0  0  0  0
   -0.0604    5.9152  -13.4540 H   0  0  0  0  0
    0.8998    2.8371  -17.6877 H   0  0  0  0  0
   -1.5168    1.3267  -18.5464 H   0  0  0  0  0
   -0.1055    0.2518  -20.1809 H   0  0  0  0  0
    1.3631    1.0651  -19.4590 H   0  0  0  0  0
    0.6427    2.0651  -21.5685 H   0  0  0  0  0
    0.5169    3.1970  -20.1564 H   0  0  0  0  0
   -2.6184    4.0529  -21.5241 H   0  0  0  0  0
   -0.9354    4.5399  -21.2968 H   0  0  0  0  0
   -2.1478   -0.3472  -17.4426 H   0  0  0  0  0
   -1.9738   -1.8599  -15.6295 H   0  0  0  0  0
   -0.1726   -1.7289  -15.7117 H   0  0  0  0  0
    0.9615   -3.1894  -16.8066 H   0  0  0  0  0
   -0.4012   -4.8448  -18.8270 H   0  0  0  0  0
    1.8331   -5.7591  -19.2598 H   0  0  0  0  0
    2.4708   -4.7668  -17.8627 H   0  0  0  0  0
    1.2924   -4.7169  -21.3545 H   0  0  0  0  0
    2.7698   -2.3899  -18.0852 H   0  0  0  0  0
    1.7028   -2.8297  -22.8869 H   0  0  0  0  0
    3.1827   -0.5001  -19.6146 H   0  0  0  0  0
    3.0631    0.2338  -21.6974 H   0  0  0  0  0
   -1.1180   -6.8507  -18.5778 H   0  0  0  0  0
   -1.2069   -8.0784  -16.0059 H   0  0  0  0  0
    1.0514   -8.3139  -18.4193 H   0  0  0  0  0
   -1.8898  -10.1305  -17.2892 H   0  0  0  0  0
   -1.6593   -9.1219  -18.7966 H   0  0  0  0  0
   -3.0032   -6.7103  -16.5685 H   0  0  0  0  0
   -3.9779  -11.1266  -18.9770 H   0  0  0  0  0
   -7.7197   -8.0412  -17.7182 H   0  0  0  0  0
   -6.3298  -11.6946  -19.4991 H   0  0  0  0  0
   -8.1712  -10.1730  -18.8743 H   0  0  0  0  0
  1  2  1  0  0  0
  2  3  1  0  0  0
  2  5  1  0  0  0
  3  4  2  0  0  0
  3 11  1  0  0  0
  5  6  1  0  0  0
  6  7  4  0  0  0
  6  8  4  0  0  0
  7  9  4  0  0  0
  8 10  4  0  0  0
  9 10  4  0  0  0
 11 12  1  0  0  0
 12 13  1  0  0  0
 12 15  1  0  0  0
 13 14  2  0  0  0
 13 19  1  0  0  0
 15 16  1  0  0  0
 16 17  1  0  0  0
 16 18  1  0  0  0
 19 20  1  0  0  0
 20 21  1  0  0  0
 20 23  1  0  0  0
 21 22  2  0  0  0
 21 28  1  0  0  0
 23 24  1  0  0  0
 24 25  1  0  0  0
 25 26  2  0  0  0
 25 27  1  0  0  0
 28 29  1  0  0  0
 29 30  1  0  0  0
 29 32  1  0  0  0
 30 31  2  0  0  0
 30 35  1  0  0  0
 32 33  1  0  0  0
 32 34  1  0  0  0
 35 36  1  0  0  0
 36 37  1  0  0  0
 36 39  1  0  0  0
 37 38  2  0  0  0
 37 44  1  0  0  0
 39 40  1  0  0  0
 40 41  1  0  0  0
 41 42  2  0  0  0
 41 43  1  0  0  0
 44 45  1  0  0  0
 45 46  1  0  0  0
 46 47  2  0  0  0
 46 48  1  0  0  0
 48 49  1  0  0  0
 49 50  1  0  0  0
 49 52  1  0  0  0
 50 51  2  0  0  0
 50 60  1  0  0  0
 52 53  1  0  0  0
 53 54  4  0  0  0
 53 55  4  0  0  0
 54 56  4  0  0  0
 55 57  4  0  0  0
 56 58  4  0  0  0
 57 58  4  0  0  0
 58 59  1  0  0  0
 60 61  1  0  0  0
 61 62  1  0  0  0
 61 64  1  0  0  0
 62 63  1  0  0  0
 62 74  2  0  0  0
 64 65  1  0  0  0
 65 66  4  0  0  0
 65 67  4  0  0  0
 66 68  4  0  0  0
 67 69  4  0  0  0
 67 70  4  0  0  0
 68 69  4  0  0  0
 69 71  4  0  0  0
 70 72  4  0  0  0
 71 73  4  0  0  0
 72 73  4  0  0  0
  1 75  1  0  0  0
  1 76  1  0  0  0
  1 77  1  0  0  0
  2 78  1  0  0  0
  5 79  1  0  0  0
  5 80  1  0  0  0
  8 81  1  0  0  0
  9 82  1  0  0  0
 11 83  1  0  0  0
 12 84  1  0  0  0
 15 85  1  0  0  0
 15 86  1  0  0  0
 16 87  1  0  0  0
 17 88  1  0  0  0
 17 89  1  0  0  0
 17 90  1  0  0  0
 18 91  1  0  0  0
 18 92  1  0  0  0
 18 93  1  0  0  0
 19 94  1  0  0  0
 20 95  1  0  0  0
 23 96  1  0  0  0
 23 97  1  0  0  0
 24 98  1  0  0  0
 24 99  1  0  0  0
 27100  1  0  0  0
 28101  1  0  0  0
 29102  1  0  0  0
 32103  1  0  0  0
 33104  1  0  0  0
 33105  1  0  0  0
 33106  1  0  0  0
 34107  1  0  0  0
 34108  1  0  0  0
 34109  1  0  0  0
 35110  1  0  0  0
 36111  1  0  0  0
 39112  1  0  0  0
 39113  1  0  0  0
 40114  1  0  0  0
 40115  1  0  0  0
 43116  1  0  0  0
 43117  1  0  0  0
 44118  1  0  0  0
 45119  1  0  0  0
 45120  1  0  0  0
 48121  1  0  0  0
 49122  1  0  0  0
 52123  1  0  0  0
 52124  1  0  0  0
 54125  1  0  0  0
 55126  1  0  0  0
 56127  1  0  0  0
 57128  1  0  0  0
 59129  1  0  0  0
 60130  1  0  0  0
 61131  1  0  0  0
 63132  1  0  0  0
 64133  1  0  0  0
 64134  1  0  0  0
 66135  1  0  0  0
 70136  1  0  0  0
 71137  1  0  0  0
 72138  1  0  0  0
 73139  1  0  0  0
M  END
$$$$
