#	Name:			5ll7_ligand
#	Creating user name:	wangrx
#	Creation time:		Thu Aug  5 17:06:16 2021

#	Modifying user name:	wangrx
#	Modification time:	Thu Aug  5 17:07:24 2021

@<TRIPOS>MOLECULE
5ll7_ligand
   24    24     1     0     0
SMALL
GAST_HUCK


@<TRIPOS>ATOM
      1 C10         6.9670   68.9990    1.4010 C.ar      1 6YV        -0.1016 
      2 O01        10.7910   66.9460    6.9360 O.co2     1 6YV        -0.5946 
      3 C02         9.6920   66.6840    6.4320 C.2       1 6YV        -0.0225 
      4 O03         8.7040   66.1550    7.0580 O.co2     1 6YV        -0.5946 
      5 C04         9.4560   67.0620    4.9570 C.2       1 6YV        -0.1458 
      6 C05         8.3150   67.1920    4.4410 C.2       1 6YV        -0.1649 
      7 C06         8.0610   67.5980    3.0490 C.ar      1 6YV        -0.1110 
      8 C07         8.6890   66.9110    1.9890 C.ar      1 6YV        -0.1076 
      9 C08         8.4570   67.2680    0.6620 C.ar      1 6YV        -0.1056 
     10 C09         7.5980   68.3130    0.3690 C.ar      1 6YV        -0.1057 
     11 C11         7.1860   68.6680    2.7470 C.ar      1 6YV        -0.0831 
     12 B12         6.4720   69.4980    3.8650 B         1 6YV         3.0000 
     13 O13         5.4360   70.3440    3.6200 O.3       1 6YV        -0.4105 
     14 O14         7.3790   70.0090    4.8050 O.3       1 6YV        -0.4105 
     15 H1          6.2890   69.8097    1.1597 H         1 6YV         0.0488 
     16 H2         10.3268   67.2263    4.3240 H         1 6YV        -0.0242 
     17 H3          7.4509   66.9888    5.0719 H         1 6YV         0.0040 
     18 H4          9.3633   66.0917    2.2103 H         1 6YV         0.0341 
     19 H5          8.9485   66.7282   -0.1393 H         1 6YV         0.0485 
     20 H6          7.4177   68.5958   -0.6618 H         1 6YV         0.0257 
     21 H8          4.8536   69.9525    2.9797 H         1 6YV         0.2052 
     22 H9          4.8536   69.9525    2.9797 H         1 6YV         0.2052 
     23 H10         7.7405   70.8263    4.4828 H         1 6YV         0.2052 
     24 H11         7.7405   70.8263    4.4828 H         1 6YV         0.2052 
@<TRIPOS>BOND
     1    1   10 ar   
     2   11    1 ar   
     3    3    2 ar   
     4    3    4 ar   
     5    5    3 1    
     6    6    5 2    
     7    7    6 1    
     8    7    8 ar   
     9    7   11 ar   
    10    8    9 ar   
    11    9   10 ar   
    12   11   12 1    
    13   12   13 1    
    14   12   14 1    
    15    1   15 1    
    16    5   16 1    
    17    6   17 1    
    18    8   18 1    
    19    9   19 1    
    20   10   20 1    
    21   13   21 1    
    22   13   22 1    
    23   14   23 1    
    24   14   24 1    
@<TRIPOS>SUBSTRUCTURE
     1 6YV         1 PERM              0 ****  ****    0 ROOT 
