5ll7_ligand

Created by X-TOOL on Mon Aug  2 16:10:24 2021
 25 25  0  0  0  0  0  0  0  0999 V2000
    6.9670   68.9990    1.4010  C 0  0  0  2  0  3
   10.7910   66.9460    6.9360  O 0  0  0  1  0  1
    9.6920   66.6840    6.4320  C 0  5  0  1  0  3
    8.7040   66.1550    7.0580  O 0  0  0  1  0  1
    9.4560   67.0620    4.9570  C 0  0  0  2  0  3
    8.3150   67.1920    4.4410  C 0  0  0  2  0  3
    8.0610   67.5980    3.0490  C 0  0  0  1  0  3
    8.6890   66.9110    1.9890  C 0  0  0  2  0  3
    8.4570   67.2680    0.6620  C 0  0  0  2  0  3
    7.5980   68.3130    0.3690  C 0  0  0  2  0  3
    7.1860   68.6680    2.7470  C 0  0  0  2  0  4
    6.4720   69.4980    3.8650  B 0  0  0  1  0  3
    5.4360   70.3440    3.6200  O 0  0  0  3  0  3
    7.3790   70.0090    4.8050  O 0  0  0  3  0  3
    6.2890   69.8097    1.1597  H 0  0  0  1  0  1
   10.3268   67.2263    4.3240  H 0  0  0  1  0  1
    7.4509   66.9888    5.0719  H 0  0  0  1  0  1
    9.3633   66.0917    2.2103  H 0  0  0  1  0  1
    8.9485   66.7282   -0.1393  H 0  0  0  1  0  1
    7.4177   68.5958   -0.6618  H 0  0  0  1  0  1
    6.6947   69.2210    3.5394  H 0  0  0  1  0  1
    4.8536   69.9525    2.9797  H 0  0  0  1  0  1
    4.8536   69.9525    2.9797  H 0  0  0  1  0  1
    7.7405   70.8263    4.4828  H 0  0  0  1  0  1
    7.7405   70.8263    4.4828  H 0  0  0  1  0  1
  1 10  4  0  0  1
 11  1  4  0  0  1
  3  2  2  0  0  2
  3  4  2  0  0  2
  5  3  1  0  0  2
  6  5  2  0  0  2
  7  6  1  0  0  2
  7  8  4  0  0  1
  7 11  4  0  0  1
  8  9  4  0  0  1
  9 10  4  0  0  1
 11 12  1  0  0  2
 12 13  1  0  0  2
 12 14  1  0  0  2
  1 15  1  0  0  2
  5 16  1  0  0  2
  6 17  1  0  0  2
  8 18  1  0  0  2
  9 19  1  0  0  2
 10 20  1  0  0  2
 11 21  1  0  0  2
 13 22  1  0  0  2
 13 23  1  0  0  2
 14 24  1  0  0  2
 14 25  1  0  0  2
M  END
> <MOLECULAR_FORMULA>
C9H11O4B

> <MOLECULAR_WEIGHT>
193.9

> <NUM_HB_ATOMS>
4  

> <NUM_ROTOR>
1  

> <XLOGP2>
0.41 

$$$$
