3wym_ligand
  -I-interpret- 

 49 53  0  0  0  0  0  0  0  0999 V2000
   10.2330    1.8580  -20.0550 C   0  0  0  0  0
    8.9370    1.7140  -19.6020 C   0  0  0  0  0
   11.2110    0.9590  -19.6800 C   0  0  0  0  0
    8.6240    0.6610  -18.7600 C   0  0  0  0  0
   10.8940   -0.0970  -18.8470 C   0  0  0  0  0
   10.4520   -0.6220  -23.1760 C   0  0  0  0  0
    9.5530   -1.0610  -22.2310 C   0  0  0  0  0
   13.1110    0.2210  -26.3290 C   0  0  0  0  0
    8.2860   -3.0270  -16.6050 C   0  0  0  0  0
   10.0030   -2.5780  -24.4900 C   0  0  0  0  0
   13.0310   -1.1020  -26.8330 C   0  0  0  0  0
    9.0840   -2.3210  -15.6750 C   0  0  0  0  0
   12.1990    0.2720  -25.3000 C   0  0  0  0  0
    9.6020   -0.2400  -18.3920 C   0  0  0  0  0
   10.6820   -1.3920  -24.2960 C   0  0  0  0  0
    8.8730   -2.2540  -22.3900 C   0  0  0  0  0
    9.1100   -2.9920  -23.5270 C   0  0  0  0  0
    8.4240   -2.3460  -17.7950 C   0  0  0  0  0
    6.8240   -3.3560  -21.5010 C   0  0  0  0  0
    7.8620   -2.6520  -19.0850 C   0  0  0  0  0
    6.0460   -3.7420  -20.4800 C   0  0  0  0  0
    6.5460   -3.3750  -19.1500 C   0  0  0  0  0
    4.4920   -4.7270  -21.8710 C   0  0  0  0  0
   12.1280   -1.8230  -26.1580 N   0  0  0  0  0
    9.6980   -1.2810  -16.2520 N   0  0  0  0  0
    8.5280   -2.3430  -20.1450 N   0  0  0  0  0
   11.6290   -0.9690  -25.2380 N   0  0  0  0  0
    9.2840   -1.3070  -17.5320 N   0  0  0  0  0
    8.0110   -2.6760  -21.3540 N   0  0  0  0  0
    5.9400   -3.6410  -18.1200 O   0  0  0  0  0
    4.8460   -4.4280  -20.5170 O   0  0  0  0  0
    8.4710   -4.1500  -23.6980 F   0  0  0  0  0
   10.4861    2.6884  -20.7142 H   0  0  0  0  0
    8.1668    2.4234  -19.9048 H   0  0  0  0  0
   12.2323    1.0819  -20.0406 H   0  0  0  0  0
    7.6061    0.5437  -18.3881 H   0  0  0  0  0
   11.6617   -0.8123  -18.5519 H   0  0  0  0  0
   10.9763    0.3240  -23.0404 H   0  0  0  0  0
    9.3740   -0.4573  -21.3413 H   0  0  0  0  0
   13.7567    1.0254  -26.6813 H   0  0  0  0  0
    7.6888   -3.9199  -16.4199 H   0  0  0  0  0
   10.1702   -3.1745  -25.3869 H   0  0  0  0  0
   13.6274   -1.4822  -27.6623 H   0  0  0  0  0
    9.1859   -2.5893  -14.6235 H   0  0  0  0  0
   11.9762    1.1283  -24.6634 H   0  0  0  0  0
    6.4953   -3.5961  -22.5121 H   0  0  0  0  0
    4.3912   -3.7982  -22.4324 H   0  0  0  0  0
    5.2707   -5.3426  -22.3213 H   0  0  0  0  0
    3.5454   -5.2672  -21.8869 H   0  0  0  0  0
  2  1  4  0  0  0
  3  1  4  0  0  0
  4  2  4  0  0  0
  5  3  4  0  0  0
 14  4  4  0  0  0
 14  5  4  0  0  0
  7  6  4  0  0  0
  6 15  4  0  0  0
 16  7  4  0  0  0
  8 11  4  0  0  0
 13  8  4  0  0  0
  9 12  4  0  0  0
 18  9  4  0  0  0
 10 15  4  0  0  0
 17 10  4  0  0  0
 11 24  4  0  0  0
 12 25  4  0  0  0
 27 13  4  0  0  0
 28 14  1  0  0  0
 15 27  1  0  0  0
 16 17  4  0  0  0
 29 16  1  0  0  0
 17 32  1  0  0  0
 20 18  1  0  0  0
 18 28  4  0  0  0
 21 19  2  0  0  0
 19 29  1  0  0  0
 22 20  1  0  0  0
 20 26  2  0  0  0
 21 22  1  0  0  0
 21 31  1  0  0  0
 22 30  2  0  0  0
 31 23  1  0  0  0
 24 27  4  0  0  0
 25 28  4  0  0  0
 26 29  1  0  0  0
  1 33  1  0  0  0
  2 34  1  0  0  0
  3 35  1  0  0  0
  4 36  1  0  0  0
  5 37  1  0  0  0
  6 38  1  0  0  0
  7 39  1  0  0  0
  8 40  1  0  0  0
  9 41  1  0  0  0
 10 42  1  0  0  0
 11 43  1  0  0  0
 12 44  1  0  0  0
 13 45  1  0  0  0
 19 46  1  0  0  0
 23 47  1  0  0  0
 23 48  1  0  0  0
 23 49  1  0  0  0
M  END
$$$$
