5y94_ligand
  -I-interpret- 

 41 43  0  0  0  0  0  0  0  0999 V2000
   -4.6960   13.4020   -2.0960 C   0  0  0  0  0
   -4.5080   12.5680   -0.9240 O   0  0  0  0  0
   -4.2660   11.2410   -1.1230 C   0  0  0  0  0
   -4.1700   10.6780   -2.4110 C   0  0  0  0  0
   -3.9000    9.3470   -2.5730 C   0  0  0  0  0
   -3.7320    8.5400   -1.4710 C   0  0  0  0  0
   -3.3360    6.7450   -1.7490 Br  0  0  0  0  0
   -3.8260    9.0520   -0.2020 C   0  0  0  0  0
   -4.1080   10.3900   -0.0230 C   0  0  0  0  0
   -4.2170   10.9160    1.5980 S   0  0  0  0  0
   -3.8540    9.7920    2.5120 O   0  0  0  0  0
   -3.3110   12.0330    1.8140 O   0  0  0  0  0
   -5.7920   11.4680    1.8970 N   0  0  0  0  0
   -6.9000   10.6080    1.8160 C   0  0  0  0  0
   -7.1610    9.5580    2.7300 C   0  0  0  0  0
   -8.2590    8.8020    2.5930 C   0  0  0  0  0
   -8.7830    7.7410    3.2910 C   0  0  0  0  0
   -8.2330    7.0630    4.4970 C   0  0  0  0  0
   -9.9160    7.2810    2.7780 N   0  0  0  0  0
  -10.1770    8.1900    1.6120 O   0  0  0  0  0
   -9.1270    9.0650    1.5610 C   0  0  0  0  0
   -8.9470   10.0450    0.6880 C   0  0  0  0  0
   -7.8250   10.8270    0.7520 C   0  0  0  0  0
   -7.5980   11.8160   -0.1420 N   0  0  0  0  0
   -8.1230   11.7480   -1.5430 C   0  0  0  0  0
   -3.7999   13.3634   -2.7153 H   0  0  0  0  0
   -5.5498   13.0370   -2.6669 H   0  0  0  0  0
   -4.8791   14.4300   -1.7833 H   0  0  0  0  0
   -4.3124   11.3099   -3.2877 H   0  0  0  0  0
   -3.8179    8.9255   -3.5748 H   0  0  0  0  0
   -3.6784    8.4037    0.6618 H   0  0  0  0  0
   -5.9385   12.4474    2.1414 H   0  0  0  0  0
   -6.4665    9.3642    3.5475 H   0  0  0  0  0
   -7.2494    6.6543    4.2656 H   0  0  0  0  0
   -8.1462    7.7841    5.3098 H   0  0  0  0  0
   -8.9022    6.2560    4.7955 H   0  0  0  0  0
   -9.6945   10.2293   -0.0836 H   0  0  0  0  0
   -7.0547   12.6300    0.1455 H   0  0  0  0  0
   -7.7151   10.8679   -2.0402 H   0  0  0  0  0
   -9.2107   11.6821   -1.5192 H   0  0  0  0  0
   -7.8239   12.6447   -2.0857 H   0  0  0  0  0
  1  2  1  0  0  0
  2  3  1  0  0  0
  3  4  4  0  0  0
  3  9  4  0  0  0
  4  5  4  0  0  0
  5  6  4  0  0  0
  6  7  1  0  0  0
  6  8  4  0  0  0
  8  9  4  0  0  0
  9 10  1  0  0  0
 10 11  2  0  0  0
 10 12  2  0  0  0
 10 13  1  0  0  0
 13 14  1  0  0  0
 14 15  4  0  0  0
 14 23  4  0  0  0
 15 16  4  0  0  0
 16 17  4  0  0  0
 16 21  4  0  0  0
 17 18  1  0  0  0
 17 19  4  0  0  0
 19 20  4  0  0  0
 20 21  4  0  0  0
 21 22  4  0  0  0
 22 23  4  0  0  0
 23 24  1  0  0  0
 24 25  1  0  0  0
  1 26  1  0  0  0
  1 27  1  0  0  0
  1 28  1  0  0  0
  4 29  1  0  0  0
  5 30  1  0  0  0
  8 31  1  0  0  0
 13 32  1  0  0  0
 15 33  1  0  0  0
 18 34  1  0  0  0
 18 35  1  0  0  0
 18 36  1  0  0  0
 22 37  1  0  0  0
 24 38  1  0  0  0
 25 39  1  0  0  0
 25 40  1  0  0  0
 25 41  1  0  0  0
M  END
$$$$
