3prf_ligand
  -I-interpret- 

 35 38  0  0  0  0  0  0  0  0999 V2000
   78.8250    4.9950   -7.2210 C   0  0  0  0  0
   79.1310    5.9280   -8.2260 C   0  0  0  0  0
   80.3980    6.5330   -8.2170 C   0  0  0  0  0
   81.3510    6.2280   -7.2210 C   0  0  0  0  0
   81.0400    5.2980   -6.2140 C   0  0  0  0  0
   79.7720    4.6810   -6.2230 C   0  0  0  0  0
   82.5490    6.8380   -7.2290 N   0  0  0  0  0
   80.3340   10.6880   -8.4660 C   0  0  0  0  0
   81.1470   11.5950   -9.0550 N   0  0  0  0  0
   82.4590   11.3100   -9.2150 C   0  0  0  0  0
   82.9700   10.0750   -8.7700 C   0  0  0  0  0
   82.1430    9.1350   -8.1630 C   0  0  0  0  0
   80.7780    9.4310   -7.9960 C   0  0  0  0  0
   84.2630    9.6190   -8.8480 O   0  0  0  0  0
   84.2040    8.3340   -8.2550 C   0  0  0  0  0
   82.9340    7.9860   -7.8220 C   0  0  0  0  0
   85.3820    7.5210   -8.1500 C   0  0  0  0  0
   86.5780    8.1370   -8.3140 N   0  0  0  0  0
   87.7090    7.3990   -8.2290 C   0  0  0  0  0
   87.6300    6.0150   -7.9750 C   0  0  0  0  0
   86.3430    5.4510   -7.8180 C   0  0  0  0  0
   85.2200    6.2010   -7.9090 N   0  0  0  0  0
   79.4590    3.7640   -5.2480 O   0  0  0  0  0
   77.2740    4.2340   -7.2140 Cl  0  0  0  0  0
   78.4006    6.1767   -8.9959 H   0  0  0  0  0
   80.6511    7.2531   -8.9951 H   0  0  0  0  0
   81.7673    5.0576   -5.4385 H   0  0  0  0  0
   83.2804    6.3576   -6.7049 H   0  0  0  0  0
   79.2802   10.9401   -8.3476 H   0  0  0  0  0
   83.1209   12.0354   -9.6880 H   0  0  0  0  0
   80.0944    8.7239   -7.5260 H   0  0  0  0  0
   88.6812    7.8750   -8.3570 H   0  0  0  0  0
   88.5282    5.4018   -7.9022 H   0  0  0  0  0
   86.2528    4.3833   -7.6183 H   0  0  0  0  0
   80.2049    3.6653   -4.6518 H   0  0  0  0  0
  2  1  4  0  0  0
  6  1  4  0  0  0
  1 24  1  0  0  0
  3  2  4  0  0  0
  4  3  4  0  0  0
  4  5  4  0  0  0
  7  4  1  0  0  0
  5  6  4  0  0  0
  6 23  1  0  0  0
 16  7  1  0  0  0
  8  9  4  0  0  0
 13  8  4  0  0  0
 10  9  4  0  0  0
 11 10  4  0  0  0
 12 11  4  0  0  0
 11 14  4  0  0  0
 12 13  4  0  0  0
 12 16  4  0  0  0
 14 15  4  0  0  0
 15 16  4  0  0  0
 15 17  1  0  0  0
 17 18  4  0  0  0
 17 22  4  0  0  0
 18 19  4  0  0  0
 19 20  4  0  0  0
 20 21  4  0  0  0
 21 22  4  0  0  0
  2 25  1  0  0  0
  3 26  1  0  0  0
  5 27  1  0  0  0
  7 28  1  0  0  0
  8 29  1  0  0  0
 10 30  1  0  0  0
 13 31  1  0  0  0
 19 32  1  0  0  0
 20 33  1  0  0  0
 21 34  1  0  0  0
 23 35  1  0  0  0
M  END
$$$$
