3vrv_ligand
  -I-interpret- 

 79 81  0  0  0  0  0  0  0  0999 V2000
   -9.6420   22.5300   -6.9780 C   0  0  0  0  0
  -10.1650   21.1290   -7.5020 C   0  0  0  0  0
  -11.5060   20.8100   -6.8370 C   0  0  0  0  0
  -11.3490   20.5300   -5.3350 C   0  0  0  0  0
  -10.2790   19.4850   -5.0740 C   0  0  0  0  0
  -12.0880   19.6180   -7.4050 O   0  0  0  0  0
  -12.3910   22.0500   -7.0570 C   0  0  0  0  0
  -13.6460   22.0690   -6.1880 C   0  0  0  0  0
  -14.7290   22.8540   -6.9630 C   0  0  0  0  0
  -15.4410   21.9700   -7.9930 C   0  0  0  0  0
  -15.7930   23.6150   -6.1420 C   0  0  0  0  0
  -16.3420   22.8420   -4.9190 C   0  0  0  0  0
  -16.9510   23.9150   -4.0030 C   0  0  0  0  0
  -16.7910   25.2040   -4.7700 C   0  0  0  0  0
  -15.4590   25.0220   -5.5280 C   0  0  0  0  0
  -14.2360   25.0060   -4.5880 C   0  0  0  0  0
  -15.3540   26.1890   -6.5660 C   0  0  0  0  0
  -15.5280   27.5990   -5.9110 C   0  0  0  0  0
  -16.7200   27.7260   -4.9170 C   0  0  0  0  0
  -16.7520   26.4860   -3.9780 C   0  0  0  0  0
  -16.8710   26.6120   -2.5580 C   0  0  0  0  0
  -16.7380   27.9140   -1.9530 C   0  0  0  0  0
  -16.5510   28.0340   -0.5500 C   0  0  0  0  0
  -16.3210   26.7800    0.3200 C   0  0  0  0  0
  -16.4270   29.4320    0.0440 C   0  0  0  0  0
  -17.0520   29.5850    1.4200 C   0  0  0  0  0
  -18.4780   29.5400    1.3270 O   0  0  0  0  0
  -16.5940   28.4090    2.2870 C   0  0  0  0  0
  -15.8950   28.6150    3.4610 C   0  0  0  0  0
  -16.9600   27.0200    1.7350 C   0  0  0  0  0
  -16.5060   26.1090    2.6320 O   0  0  0  0  0
  -10.3677   23.3039   -7.2281 H   0  0  0  0  0
   -9.5130   22.4869   -5.8965 H   0  0  0  0  0
   -8.6868   22.7596   -7.4502 H   0  0  0  0  0
   -9.4408   20.3529   -7.2544 H   0  0  0  0  0
  -10.2939   21.1686   -8.5836 H   0  0  0  0  0
  -12.2984   20.1558   -4.9520 H   0  0  0  0  0
  -11.0564   21.4557   -4.8395 H   0  0  0  0  0
  -10.5519   18.5550   -5.5727 H   0  0  0  0  0
   -9.3241   19.8400   -5.4615 H   0  0  0  0  0
  -10.1956   19.3124   -4.0010 H   0  0  0  0  0
  -11.5056   18.8717   -7.2455 H   0  0  0  0  0
  -12.7149   22.0392   -8.0977 H   0  0  0  0  0
  -11.7977   22.9253   -6.7925 H   0  0  0  0  0
  -13.4408   22.5444   -5.2288 H   0  0  0  0  0
  -13.9837   21.0537   -5.9802 H   0  0  0  0  0
  -14.1328   23.6331   -7.4381 H   0  0  0  0  0
  -14.7126   21.5903   -8.7095 H   0  0  0  0  0
  -15.9206   21.1344   -7.4831 H   0  0  0  0  0
  -16.1944   22.5588   -8.5163 H   0  0  0  0  0
  -16.4904   23.7383   -6.9706 H   0  0  0  0  0
  -15.5566   22.2805   -4.4130 H   0  0  0  0  0
  -17.0821   22.0979   -5.2133 H   0  0  0  0  0
  -16.4547   23.9530   -3.0333 H   0  0  0  0  0
  -17.9949   23.7066   -3.7687 H   0  0  0  0  0
  -17.6795   25.3425   -5.3860 H   0  0  0  0  0
  -14.4250   24.3233   -3.7596 H   0  0  0  0  0
  -13.3581   24.6732   -5.1417 H   0  0  0  0  0
  -14.0638   26.0103   -4.2008 H   0  0  0  0  0
  -16.1523   26.0591   -7.2967 H   0  0  0  0  0
  -14.3613   26.1491   -7.0145 H   0  0  0  0  0
  -15.7219   28.2995   -6.7232 H   0  0  0  0  0
  -14.6210   27.7920   -5.3381 H   0  0  0  0  0
  -17.6537   27.7803   -5.4767 H   0  0  0  0  0
  -16.5982   28.6294   -4.3194 H   0  0  0  0  0
  -16.1716   26.2587   -3.0838 H   0  0  0  0  0
  -16.0406   26.0316   -2.1560 H   0  0  0  0  0
  -17.8926   26.3041   -2.3354 H   0  0  0  0  0
  -16.7811   28.8088   -2.5740 H   0  0  0  0  0
  -15.2520   26.5944    0.4245 H   0  0  0  0  0
  -16.7842   25.9135   -0.1519 H   0  0  0  0  0
  -16.9542   30.1123   -0.6249 H   0  0  0  0  0
  -15.3627   29.6418    0.1503 H   0  0  0  0  0
  -16.7478   30.5397    1.8491 H   0  0  0  0  0
  -18.8579   29.6378    2.2032 H   0  0  0  0  0
  -15.6603   29.6290    3.7848 H   0  0  0  0  0
  -15.5783   27.7635    4.0633 H   0  0  0  0  0
  -18.0386   26.9337    1.6037 H   0  0  0  0  0
  -16.9093   26.2752    3.4872 H   0  0  0  0  0
  1  2  1  0  0  0
  2  3  1  0  0  0
  3  4  1  0  0  0
  3  6  1  0  0  0
  3  7  1  0  0  0
  4  5  1  0  0  0
  7  8  1  0  0  0
  8  9  1  0  0  0
  9 10  1  0  0  0
  9 11  1  0  0  0
 11 12  1  0  0  0
 11 15  1  0  0  0
 12 13  1  0  0  0
 13 14  1  0  0  0
 14 15  1  0  0  0
 14 20  1  0  0  0
 15 16  1  0  0  0
 15 17  1  0  0  0
 17 18  1  0  0  0
 18 19  1  0  0  0
 19 20  1  0  0  0
 20 21  1  0  0  0
 21 22  1  0  0  0
 22 23  2  0  0  0
 23 24  1  0  0  0
 23 25  1  0  0  0
 24 30  1  0  0  0
 25 26  1  0  0  0
 26 27  1  0  0  0
 26 28  1  0  0  0
 28 29  2  0  0  0
 28 30  1  0  0  0
 30 31  1  0  0  0
  1 32  1  0  0  0
  1 33  1  0  0  0
  1 34  1  0  0  0
  2 35  1  0  0  0
  2 36  1  0  0  0
  4 37  1  0  0  0
  4 38  1  0  0  0
  5 39  1  0  0  0
  5 40  1  0  0  0
  5 41  1  0  0  0
  6 42  1  0  0  0
  7 43  1  0  0  0
  7 44  1  0  0  0
  8 45  1  0  0  0
  8 46  1  0  0  0
  9 47  1  0  0  0
 10 48  1  0  0  0
 10 49  1  0  0  0
 10 50  1  0  0  0
 11 51  1  0  0  0
 12 52  1  0  0  0
 12 53  1  0  0  0
 13 54  1  0  0  0
 13 55  1  0  0  0
 14 56  1  0  0  0
 16 57  1  0  0  0
 16 58  1  0  0  0
 16 59  1  0  0  0
 17 60  1  0  0  0
 17 61  1  0  0  0
 18 62  1  0  0  0
 18 63  1  0  0  0
 19 64  1  0  0  0
 19 65  1  0  0  0
 20 66  1  0  0  0
 21 67  1  0  0  0
 21 68  1  0  0  0
 22 69  1  0  0  0
 24 70  1  0  0  0
 24 71  1  0  0  0
 25 72  1  0  0  0
 25 73  1  0  0  0
 26 74  1  0  0  0
 27 75  1  0  0  0
 29 76  1  0  0  0
 29 77  1  0  0  0
 30 78  1  0  0  0
 31 79  1  0  0  0
M  END
$$$$
