5mri_ligand
  -I-interpret- 

 31 31  0  0  0  0  0  0  0  0999 V2000
  -13.5750  -75.5650   33.6390 C   0  0  0  0  0
   -9.0950  -78.8010   29.9540 C   0  0  0  0  0
  -10.0210  -79.9310   30.4820 C   0  0  0  0  0
   -9.2000  -81.0480   31.1570 C   0  0  0  0  0
  -11.1350  -79.3260   31.4450 C   0  0  0  0  0
  -11.6150  -80.2450   32.5390 C   0  0  0  0  0
  -10.4990  -78.6180   35.5020 C   0  0  0  0  0
  -11.3730  -78.7150   34.4340 C   0  0  0  0  0
  -12.5810  -77.7860   34.1050 C   0  0  0  0  0
  -11.0130  -79.7940   33.7230 N   0  0  0  0  0
   -9.9430  -80.3410   34.3120 N   0  0  0  0  0
   -9.6350  -79.6270   35.4050 N   0  0  0  0  0
  -12.4150  -76.3510   33.9410 N   0  0  0  0  0
  -10.4900  -77.6560   36.5100 O   0  0  0  0  0
  -13.7130  -78.2720   33.9840 O   0  0  0  0  0
  -14.0101  -75.9076   32.7002 H   0  0  0  0  0
  -14.3053  -75.6745   34.4407 H   0  0  0  0  0
  -13.2886  -74.5173   33.5473 H   0  0  0  0  0
   -9.6897  -78.0749   29.3998 H   0  0  0  0  0
   -8.6093  -78.3079   30.7960 H   0  0  0  0  0
   -8.3385  -79.2302   29.2970 H   0  0  0  0  0
  -10.5358  -80.3908   29.6383 H   0  0  0  0  0
   -8.7003  -80.6475   32.0391 H   0  0  0  0  0
   -9.8659  -81.8590   31.4519 H   0  0  0  0  0
   -8.4554  -81.4244   30.4556 H   0  0  0  0  0
  -12.0010  -79.1085   30.8199 H   0  0  0  0  0
  -10.6846  -78.4647   31.9383 H   0  0  0  0  0
  -11.3430  -81.2796   32.3299 H   0  0  0  0  0
  -12.7019  -80.2254   32.6192 H   0  0  0  0  0
  -11.4979  -75.9153   34.0382 H   0  0  0  0  0
   -9.7699  -77.8381   37.1182 H   0  0  0  0  0
 13  1  1  0  0  0
  3  2  1  0  0  0
  3  4  1  0  0  0
  5  3  1  0  0  0
  6  5  1  0  0  0
 10  6  1  0  0  0
  8  7  4  0  0  0
  7 12  4  0  0  0
  7 14  1  0  0  0
  9  8  1  0  0  0
  8 10  4  0  0  0
  9 13  1  0  0  0
  9 15  2  0  0  0
 10 11  4  0  0  0
 11 12  4  0  0  0
  1 16  1  0  0  0
  1 17  1  0  0  0
  1 18  1  0  0  0
  2 19  1  0  0  0
  2 20  1  0  0  0
  2 21  1  0  0  0
  3 22  1  0  0  0
  4 23  1  0  0  0
  4 24  1  0  0  0
  4 25  1  0  0  0
  5 26  1  0  0  0
  5 27  1  0  0  0
  6 28  1  0  0  0
  6 29  1  0  0  0
 13 30  1  0  0  0
 14 31  1  0  0  0
M  END
$$$$
