5nau_ligand
  -I-interpret- 

 52 55  0  0  0  0  0  0  0  0999 V2000
  111.7250  123.6330  183.7230 O   0  0  0  0  0
  111.7780  124.8350  183.7770 C   0  0  0  0  0
  110.8730  125.6170  184.3210 C   0  0  0  0  0
  109.7530  125.2740  184.9040 C   0  0  0  0  0
  108.9240  126.2370  185.4080 C   0  0  0  0  0
  109.3190  127.5430  185.2950 C   0  0  0  0  0
  108.5490  128.5530  185.7850 O   0  0  0  0  0
  107.2640  128.3250  186.3820 C   0  0  0  0  0
  110.5120  127.8140  184.6750 C   0  0  0  0  0
  111.2730  126.8530  184.1970 C   0  0  0  0  0
  112.4520  126.8380  183.5750 C   0  0  0  0  0
  112.7500  125.5760  183.3200 C   0  0  0  0  0
  113.8370  125.1360  182.7160 C   0  0  0  0  0
  115.0140  125.9020  182.1440 C   0  0  0  0  0
  115.2080  125.2410  180.8140 C   0  0  0  0  0
  116.3950  125.8150  180.1350 C   0  0  0  0  0
  114.8490  127.3610  181.9720 C   0  0  0  0  0
  116.0340  127.9390  181.1700 C   0  0  0  0  0
  116.2440  127.2370  179.8960 N   0  3  0  0  0
  117.4500  127.7060  179.2000 C   0  0  0  0  0
  117.4240  127.4570  177.8400 C   0  0  0  0  0
  116.6360  128.2250  177.0060 C   0  0  0  0  0
  116.5770  128.0090  175.6500 C   0  0  0  0  0
  117.3280  126.9940  175.1150 C   0  0  0  0  0
  118.1240  126.2380  175.9470 C   0  0  0  0  0
  118.1880  126.4530  177.3030 C   0  0  0  0  0
  109.4813  124.2217  184.9877 H   0  0  0  0  0
  107.9795  125.9738  185.8842 H   0  0  0  0  0
  106.6043  127.8546  185.6528 H   0  0  0  0  0
  107.3773  127.6708  187.2465 H   0  0  0  0  0
  106.8378  129.2770  186.6985 H   0  0  0  0  0
  110.8372  128.8496  184.5760 H   0  0  0  0  0
  113.0591  127.7075  183.3229 H   0  0  0  0  0
  113.4018  124.7365  181.8000 H   0  0  0  0  0
  114.3243  124.6213  183.5441 H   0  0  0  0  0
  115.8533  125.8572  182.8380 H   0  0  0  0  0
  114.3249  125.4073  180.1971 H   0  0  0  0  0
  115.3599  124.1718  180.9621 H   0  0  0  0  0
  116.5134  125.3167  179.1728 H   0  0  0  0  0
  117.2626  125.6661  180.7778 H   0  0  0  0  0
  114.8164  127.8350  182.9530 H   0  0  0  0  0
  113.9229  127.5545  181.4306 H   0  0  0  0  0
  116.9360  127.8240  181.7710 H   0  0  0  0  0
  115.8132  128.9829  180.9474 H   0  0  0  0  0
  115.4285  127.4288  179.3141 H   0  0  0  0  0
  118.3025  127.1707  179.6181 H   0  0  0  0  0
  117.5127  128.7855  179.3376 H   0  0  0  0  0
  116.0407  129.0297  177.4375 H   0  0  0  0  0
  115.9471  128.6308  175.0138 H   0  0  0  0  0
  117.2955  126.7881  174.0451 H   0  0  0  0  0
  118.7258  125.4392  175.5137 H   0  0  0  0  0
  118.8302  125.8405  177.9359 H   0  0  0  0  0
  1  2  2  0  0  0
  2  3  1  0  0  0
  2 12  1  0  0  0
  3  4  4  0  0  0
  3 10  4  0  0  0
  4  5  4  0  0  0
  5  6  4  0  0  0
  6  7  1  0  0  0
  6  9  4  0  0  0
  7  8  1  0  0  0
  9 10  4  0  0  0
 10 11  1  0  0  0
 11 12  2  0  0  0
 12 13  1  0  0  0
 13 14  1  0  0  0
 14 15  1  0  0  0
 14 17  1  0  0  0
 15 16  1  0  0  0
 16 19  1  0  0  0
 17 18  1  0  0  0
 18 19  1  0  0  0
 19 20  1  0  0  0
 20 21  1  0  0  0
 21 22  4  0  0  0
 21 26  4  0  0  0
 22 23  4  0  0  0
 23 24  4  0  0  0
 24 25  4  0  0  0
 25 26  4  0  0  0
  4 27  1  0  0  0
  5 28  1  0  0  0
  8 29  1  0  0  0
  8 30  1  0  0  0
  8 31  1  0  0  0
  9 32  1  0  0  0
 11 33  1  0  0  0
 13 34  1  0  0  0
 13 35  1  0  0  0
 14 36  1  0  0  0
 15 37  1  0  0  0
 15 38  1  0  0  0
 16 39  1  0  0  0
 16 40  1  0  0  0
 17 41  1  0  0  0
 17 42  1  0  0  0
 18 43  1  0  0  0
 18 44  1  0  0  0
 19 45  1  0  0  0
 20 46  1  0  0  0
 20 47  1  0  0  0
 22 48  1  0  0  0
 23 49  1  0  0  0
 24 50  1  0  0  0
 25 51  1  0  0  0
 26 52  1  0  0  0
M  END
$$$$
