6f8r_ligand
  -I-interpret- 

 61 64  0  0  0  0  0  0  0  0999 V2000
   30.1740  228.8170  146.9410 C   0  0  0  0  0
   28.9670  228.0770  147.2210 C   0  0  0  0  0
   25.6810  227.9460  149.9790 C   0  0  0  0  0
   25.7940  227.6120  153.7210 C   0  0  0  0  0
   25.2780  229.7680  152.6990 C   0  0  0  0  0
   27.0120  227.0370  147.0060 C   0  0  0  0  0
   28.0180  227.5920  146.2870 C   0  0  0  0  0
   33.6870  231.6690  144.7300 C   0  0  0  0  0
   33.5260  231.0790  145.9690 O   0  0  0  0  0
   32.4290  230.3390  146.2270 C   0  0  0  0  0
   32.0780  230.2110  147.5690 C   0  0  0  0  0
   32.6530  230.7070  148.6930 O   0  0  0  0  0
   32.0440  231.0550  149.9150 C   0  0  0  0  0
   32.6080  232.3650  150.4280 C   0  0  0  0  0
   33.5180  231.9730  151.5070 C   0  0  0  0  0
   33.7260  230.5000  151.3390 C   0  0  0  0  0
   32.3890  230.0240  150.8570 C   0  0  0  0  0
   30.9360  229.4420  147.9350 C   0  0  0  0  0
   30.5460  228.9920  145.6160 C   0  0  0  0  0
   31.6660  229.7350  145.2770 C   0  0  0  0  0
   28.5060  227.8510  148.4270 N   0  0  0  0  0
   27.3470  227.2050  148.2830 N   0  0  0  0  0
   26.5480  226.7980  149.4210 C   0  0  0  0  0
   24.6390  228.2570  149.0070 O   0  0  0  0  0
   25.0650  227.6540  151.3750 C   0  0  0  0  0
   25.7820  228.3850  152.4640 N   0  3  0  0  0
   26.4790  228.3600  154.8890 C   0  0  0  0  0
   26.7360  229.7600  154.6780 O   0  0  0  0  0
   25.6250  230.4000  154.0630 C   0  0  0  0  0
   26.3360  228.8034  150.1335 H   0  0  0  0  0
   26.3561  226.6958  153.5403 H   0  0  0  0  0
   24.7581  227.4302  154.0072 H   0  0  0  0  0
   24.1905  229.7050  152.6618 H   0  0  0  0  0
   25.7518  230.3958  151.9444 H   0  0  0  0  0
   26.1151  226.5536  146.6188 H   0  0  0  0  0
   28.0843  227.6534  145.2007 H   0  0  0  0  0
   33.7028  230.8970  143.9607 H   0  0  0  0  0
   32.8584  232.3522  144.5439 H   0  0  0  0  0
   34.6264  232.2216  144.7114 H   0  0  0  0  0
   30.9667  231.1576  149.7850 H   0  0  0  0  0
   31.8254  233.0386  150.7772 H   0  0  0  0  0
   33.1190  232.9251  149.6449 H   0  0  0  0  0
   33.1014  232.2085  152.4863 H   0  0  0  0  0
   34.4603  232.5183  151.4528 H   0  0  0  0  0
   34.0421  230.0101  152.2600 H   0  0  0  0  0
   34.5336  230.2636  150.6462 H   0  0  0  0  0
   32.4106  229.0243  150.4233 H   0  0  0  0  0
   31.6565  229.8964  151.6540 H   0  0  0  0  0
   30.6570  229.3408  148.9838 H   0  0  0  0  0
   29.9468  228.5370  144.8273 H   0  0  0  0  0
   31.9409  229.8373  144.2272 H   0  0  0  0  0
   25.8795  226.0017  149.0937 H   0  0  0  0  0
   27.2278  226.4772  150.2103 H   0  0  0  0  0
   24.0921  228.9708  149.3432 H   0  0  0  0  0
   25.1483  226.5846  151.5686 H   0  0  0  0  0
   24.0267  227.9855  151.3667 H   0  0  0  0  0
   26.7409  228.4857  152.1313 H   0  0  0  0  0
   27.4518  227.8877  155.0260 H   0  0  0  0  0
   25.7942  228.2988  155.7348 H   0  0  0  0  0
   24.7617  230.2906  154.7194 H   0  0  0  0  0
   25.8818  231.4465  153.8988 H   0  0  0  0  0
  2  1  1  0  0  0
  1 18  4  0  0  0
  1 19  4  0  0  0
  2  7  4  0  0  0
 21  2  4  0  0  0
  3 23  1  0  0  0
  3 24  1  0  0  0
 25  3  1  0  0  0
 26  4  1  0  0  0
  4 27  1  0  0  0
 26  5  1  0  0  0
  5 29  1  0  0  0
  6  7  4  0  0  0
 22  6  4  0  0  0
  9  8  1  0  0  0
 10  9  1  0  0  0
 11 10  4  0  0  0
 20 10  4  0  0  0
 11 12  1  0  0  0
 18 11  4  0  0  0
 12 13  1  0  0  0
 13 14  1  0  0  0
 13 17  1  0  0  0
 14 15  1  0  0  0
 16 15  1  0  0  0
 17 16  1  0  0  0
 19 20  4  0  0  0
 22 21  4  0  0  0
 23 22  1  0  0  0
 25 26  1  0  0  0
 27 28  1  0  0  0
 28 29  1  0  0  0
  3 30  1  0  0  0
  4 31  1  0  0  0
  4 32  1  0  0  0
  5 33  1  0  0  0
  5 34  1  0  0  0
  6 35  1  0  0  0
  7 36  1  0  0  0
  8 37  1  0  0  0
  8 38  1  0  0  0
  8 39  1  0  0  0
 13 40  1  0  0  0
 14 41  1  0  0  0
 14 42  1  0  0  0
 15 43  1  0  0  0
 15 44  1  0  0  0
 16 45  1  0  0  0
 16 46  1  0  0  0
 17 47  1  0  0  0
 17 48  1  0  0  0
 18 49  1  0  0  0
 19 50  1  0  0  0
 20 51  1  0  0  0
 23 52  1  0  0  0
 23 53  1  0  0  0
 24 54  1  0  0  0
 25 55  1  0  0  0
 25 56  1  0  0  0
 26 57  1  0  0  0
 27 58  1  0  0  0
 27 59  1  0  0  0
 29 60  1  0  0  0
 29 61  1  0  0  0
M  END
$$$$
