6eqm_ligand
  -I-interpret- 

 49 51  0  0  0  0  0  0  0  0999 V2000
   28.8830   77.1730   20.9270 C   0  0  0  0  0
   29.8100   77.7750   21.8070 C   0  0  0  0  0
   30.6000   76.9380   22.5900 C   0  0  0  0  0
   29.4360   73.1800   18.6510 C   0  0  0  0  0
   30.4050   72.8180   20.9020 C   0  0  0  0  0
   28.8250   72.9290   22.9250 C   0  0  0  0  0
   29.5050   74.3790   17.6500 C   0  0  0  0  0
   25.0140   79.5200   17.9010 C   0  0  0  0  0
   25.2790   80.5310   16.9960 C   0  0  0  0  0
   26.5190   81.1760   16.9920 C   0  0  0  0  0
   27.4510   80.7760   17.9330 C   0  0  0  0  0
   27.1340   79.7380   18.8240 C   0  0  0  0  0
   28.0640   79.2290   19.8600 C   0  0  0  0  0
   24.2160   80.9280   16.0200 C   0  0  0  0  0
   30.4420   75.5650   22.4860 C   0  0  0  0  0
   29.4400   75.0040   21.6470 C   0  0  0  0  0
   28.7090   75.8580   20.9150 N   0  0  0  0  0
   31.1810   74.7670   23.2380 F   0  0  0  0  0
   29.1630   73.5010   21.5150 C   0  0  0  0  0
   27.9800   73.2950   20.6740 N   0  0  0  0  0
   28.0930   73.1330   19.4070 C   0  0  0  0  0
   30.5210   73.3590   19.5690 O   0  0  0  0  0
   26.9760   72.9330   18.7270 N   0  0  0  0  0
   25.9260   79.1430   18.7990 N   0  0  0  0  0
   28.0650   77.9090   20.0620 N   0  0  0  0  0
   28.7230   80.0450   20.4990 O   0  0  0  0  0
   29.0310   81.5500   17.9400 Cl  0  0  0  0  0
   23.0240   80.9500   16.6180 F   0  0  0  0  0
   24.4770   82.1160   15.4500 F   0  0  0  0  0
   24.1390   79.9640   15.0880 F   0  0  0  0  0
   29.7330   71.8330   17.9700 C   0  0  0  0  0
   28.9190   71.7280   16.8990 F   0  0  0  0  0
   31.0190   71.8630   17.5200 F   0  0  0  0  0
   29.5110   70.8060   18.8260 F   0  0  0  0  0
   29.9035   78.8591   21.8707 H   0  0  0  0  0
   31.3346   77.3577   23.2772 H   0  0  0  0  0
   30.2984   71.7333   20.8859 H   0  0  0  0  0
   31.3007   73.0120   21.4921 H   0  0  0  0  0
   29.6696   73.0929   23.5942 H   0  0  0  0  0
   27.9438   73.4351   23.3193 H   0  0  0  0  0
   28.6260   71.8604   22.8440 H   0  0  0  0  0
   28.7045   74.2846   16.9162 H   0  0  0  0  0
   29.3895   75.3146   18.1972 H   0  0  0  0  0
   30.4689   74.3708   17.1411 H   0  0  0  0  0
   24.0442   79.0228   17.8806 H   0  0  0  0  0
   26.7434   81.9649   16.2741 H   0  0  0  0  0
   27.0545   73.2803   21.1025 H   0  0  0  0  0
   26.0795   72.9133   19.2132 H   0  0  0  0  0
   27.3877   77.3721   19.5204 H   0  0  0  0  0
  1  2  4  0  0  0
 17  1  4  0  0  0
  1 25  1  0  0  0
  3  2  4  0  0  0
 15  3  4  0  0  0
  4  7  1  0  0  0
  4 21  1  0  0  0
 22  4  1  0  0  0
  4 31  1  0  0  0
 19  5  1  0  0  0
  5 22  1  0  0  0
 19  6  1  0  0  0
  8  9  4  0  0  0
 24  8  4  0  0  0
 10  9  4  0  0  0
  9 14  1  0  0  0
 11 10  4  0  0  0
 12 11  4  0  0  0
 11 27  1  0  0  0
 13 12  1  0  0  0
 12 24  4  0  0  0
 25 13  1  0  0  0
 13 26  2  0  0  0
 14 28  1  0  0  0
 14 29  1  0  0  0
 14 30  1  0  0  0
 16 15  4  0  0  0
 15 18  1  0  0  0
 16 17  4  0  0  0
 16 19  1  0  0  0
 19 20  1  0  0  0
 20 21  1  0  0  0
 21 23  2  0  0  0
 31 32  1  0  0  0
 31 33  1  0  0  0
 31 34  1  0  0  0
  2 35  1  0  0  0
  3 36  1  0  0  0
  5 37  1  0  0  0
  5 38  1  0  0  0
  6 39  1  0  0  0
  6 40  1  0  0  0
  6 41  1  0  0  0
  7 42  1  0  0  0
  7 43  1  0  0  0
  7 44  1  0  0  0
  8 45  1  0  0  0
 10 46  1  0  0  0
 20 47  1  0  0  0
 23 48  1  0  0  0
 25 49  1  0  0  0
M  END
$$$$
