5sz5_ligand
  -I-interpret- 

 30 31  0  0  0  0  0  0  0  0999 V2000
   16.3020    7.7770   15.3830 C   0  0  0  0  0
   17.5200    7.4000   14.5340 C   0  0  0  0  0
   18.2180    8.4860   14.0170 C   0  0  0  0  0
   19.3430    8.2960   13.2350 C   0  0  0  0  0
   19.7850    7.0130   12.9740 C   0  0  0  0  0
   19.0930    5.9220   13.4830 C   0  0  0  0  0
   17.9530    6.1000   14.2490 C   0  0  0  0  0
   17.2630    4.8680   14.8420 C   0  0  0  0  0
   15.8870    4.7480   14.9410 C   0  0  0  0  0
   15.3150    3.6390   15.5380 C   0  0  0  0  0
   16.1460    2.6340   16.0290 C   0  0  0  0  0
   15.4690    1.1950   16.8450 S   0  0  0  0  0
   16.0030    1.3020   18.2740 O   0  0  0  0  0
   13.9180    1.2890   16.6460 O   0  0  0  0  0
   16.0960   -0.1370   16.1120 N   0  0  0  0  0
   17.5290    2.7450   15.9140 C   0  0  0  0  0
   18.0820    3.8690   15.3300 C   0  0  0  0  0
   16.6247    8.3813   16.2308 H   0  0  0  0  0
   15.5995    8.3472   14.7752 H   0  0  0  0  0
   15.8182    6.8698   15.7450 H   0  0  0  0  0
   17.8747    9.4983   14.2304 H   0  0  0  0  0
   19.8779    9.1536   12.8269 H   0  0  0  0  0
   20.6776    6.8573   12.3681 H   0  0  0  0  0
   19.4513    4.9134   13.2772 H   0  0  0  0  0
   15.2474    5.5363   14.5440 H   0  0  0  0  0
   14.2318    3.5527   15.6230 H   0  0  0  0  0
   16.7402   -0.7430   16.6201 H   0  0  0  0  0
   15.8407   -0.3571   15.1493 H   0  0  0  0  0
   18.1739    1.9477   16.2835 H   0  0  0  0  0
   19.1650    3.9669   15.2546 H   0  0  0  0  0
  1  2  1  0  0  0
  2  3  4  0  0  0
  2  7  4  0  0  0
  3  4  4  0  0  0
  4  5  4  0  0  0
  5  6  4  0  0  0
  6  7  4  0  0  0
  7  8  1  0  0  0
  8  9  4  0  0  0
  8 17  4  0  0  0
  9 10  4  0  0  0
 10 11  4  0  0  0
 11 12  1  0  0  0
 11 16  4  0  0  0
 12 13  2  0  0  0
 12 14  2  0  0  0
 12 15  1  0  0  0
 16 17  4  0  0  0
  1 18  1  0  0  0
  1 19  1  0  0  0
  1 20  1  0  0  0
  3 21  1  0  0  0
  4 22  1  0  0  0
  5 23  1  0  0  0
  6 24  1  0  0  0
  9 25  1  0  0  0
 10 26  1  0  0  0
 15 27  1  0  0  0
 15 28  1  0  0  0
 16 29  1  0  0  0
 17 30  1  0  0  0
M  END
$$$$
