1d6v_ligand
  -I-interpret- 

 55 57  0  0  0  0  0  0  0  0999 V2000
   11.2940    8.1470    0.6440 C   0  0  0  0  0
   10.2580    7.5140   -0.1120 C   0  0  0  0  0
   11.8120    9.4030    0.2350 C   0  0  0  0  0
   11.3050   10.0420   -0.9300 C   0  0  0  0  0
   10.2600    9.4190   -1.7040 C   0  0  0  0  0
    9.7490    8.1450   -1.2790 C   0  0  0  0  0
    9.7100   10.0840   -2.9860 C   0  0  0  0  0
   10.7980   10.8910   -3.7860 C   0  0  0  0  0
   10.2490   11.5620   -5.0690 C   0  0  0  0  0
    9.0570   12.5180   -4.7100 C   0  0  0  0  0
    7.9250   11.6920   -3.9550 C   0  0  0  0  0
    8.4760   11.0080   -2.6630 C   0  0  0  0  0
    8.4910   13.2160   -6.0100 C   0  0  0  0  0
    9.1060   14.4380   -6.4700 C   0  0  0  0  0
    8.6300   15.0920   -7.6120 C   0  0  0  0  0
    7.5150   14.5600   -8.3470 C   0  0  0  0  0
    6.9200   13.3420   -7.8940 C   0  0  0  0  0
    7.3900   12.6670   -6.7420 C   0  0  0  0  0
   11.3230   12.2680   -5.7340 O   0  0  0  0  0
    7.0300   15.2630   -9.5770 C   0  0  0  0  0
    5.9330   14.9560  -10.0620 O   0  0  0  0  0
    7.8270   16.2400  -10.1200 N   0  0  0  0  0
    7.5630   17.1070  -11.3090 C   0  0  0  0  0
    8.6300   18.2450  -11.3710 C   0  0  0  0  0
    9.4940   18.3250  -10.0860 C   0  0  0  0  0
   10.4590   19.4890  -10.0280 C   0  0  0  0  0
   11.4120   19.6240  -10.8120 O   0  0  0  0  0
   10.1590   20.3660   -8.9880 O   0  0  0  0  0
   11.6871    7.6627    1.5378 H   0  0  0  0  0
    9.8601    6.5504    0.2061 H   0  0  0  0  0
   12.6015    9.8799    0.8159 H   0  0  0  0  0
   11.7079   11.0065   -1.2390 H   0  0  0  0  0
    8.9637    7.6581   -1.8572 H   0  0  0  0  0
    9.3871    9.2655   -3.6294 H   0  0  0  0  0
   11.5715   10.1858   -4.0901 H   0  0  0  0  0
   11.1648   11.6830   -3.1330 H   0  0  0  0  0
    9.8639   10.8043   -5.7515 H   0  0  0  0  0
    9.4130   13.3066   -4.0470 H   0  0  0  0  0
    7.5600   10.9151   -4.6268 H   0  0  0  0  0
    7.1304   12.3805   -3.6677 H   0  0  0  0  0
    8.7967   11.7850   -1.9690 H   0  0  0  0  0
    7.6858   10.3933   -2.2320 H   0  0  0  0  0
    9.9504   14.8560   -5.9220 H   0  0  0  0  0
    9.1086   16.0123   -7.9469 H   0  0  0  0  0
    6.0821   12.9218   -8.4503 H   0  0  0  0  0
    6.9190   11.7397   -6.4159 H   0  0  0  0  0
   10.9855   12.6852   -6.5300 H   0  0  0  0  0
    8.7185   16.3951   -9.6493 H   0  0  0  0  0
    6.5687   17.5456  -11.2251 H   0  0  0  0  0
    7.6199   16.5060  -12.2165 H   0  0  0  0  0
    8.1028   19.1928  -11.4796 H   0  0  0  0  0
    9.2948   18.0355  -12.2090 H   0  0  0  0  0
   10.0972   17.4175  -10.0581 H   0  0  0  0  0
    8.8031   18.4502   -9.2523 H   0  0  0  0  0
    9.3802   20.0533   -8.5219 H   0  0  0  0  0
  1  3  4  0  0  0
  1  2  4  0  0  0
  2  6  4  0  0  0
  6  5  4  0  0  0
  5  7  1  0  0  0
  5  4  4  0  0  0
  4  3  4  0  0  0
  7 12  1  0  0  0
  7  8  1  0  0  0
  8  9  1  0  0  0
  9 19  1  0  0  0
  9 10  1  0  0  0
 10 13  1  0  0  0
 10 11  1  0  0  0
 11 12  1  0  0  0
 13 18  4  0  0  0
 13 14  4  0  0  0
 14 15  4  0  0  0
 15 16  4  0  0  0
 16 20  1  0  0  0
 16 17  4  0  0  0
 17 18  4  0  0  0
 20 22  1  0  0  0
 20 21  2  0  0  0
 22 23  1  0  0  0
 23 24  1  0  0  0
 24 25  1  0  0  0
 25 26  1  0  0  0
 26 28  1  0  0  0
 26 27  2  0  0  0
  1 29  1  0  0  0
  2 30  1  0  0  0
  3 31  1  0  0  0
  4 32  1  0  0  0
  6 33  1  0  0  0
  7 34  1  0  0  0
  8 35  1  0  0  0
  8 36  1  0  0  0
  9 37  1  0  0  0
 10 38  1  0  0  0
 11 39  1  0  0  0
 11 40  1  0  0  0
 12 41  1  0  0  0
 12 42  1  0  0  0
 14 43  1  0  0  0
 15 44  1  0  0  0
 17 45  1  0  0  0
 18 46  1  0  0  0
 19 47  1  0  0  0
 22 48  1  0  0  0
 23 49  1  0  0  0
 23 50  1  0  0  0
 24 51  1  0  0  0
 24 52  1  0  0  0
 25 53  1  0  0  0
 25 54  1  0  0  0
 28 55  1  0  0  0
M  END
$$$$
