5y0z_ligand
  -I-interpret- 

 80 83  0  0  0  0  0  0  0  0999 V2000
    9.7350   47.9990  -21.3980 C   0  0  0  0  0
    8.2790   47.5160  -21.4760 C   0  0  0  0  0
   10.6050   47.0880  -20.5320 C   0  0  0  0  0
   10.2150   45.6310  -20.6140 C   0  0  0  0  0
   10.2830   48.0740  -22.8050 C   0  0  0  0  0
   10.7150   46.9190  -23.4820 C   0  0  0  0  0
   11.2090   46.9640  -24.7870 C   0  0  0  0  0
   11.6770   45.6750  -25.4610 C   0  0  0  0  0
   11.2080   44.4590  -24.6680 C   0  0  0  0  0
    8.6640   49.9190  -35.4300 O   0  0  0  0  0
    9.8140   49.6180  -35.0440 C   0  0  0  0  0
    9.9620   48.6030  -34.0740 N   0  0  0  0  0
    8.7250   47.9670  -33.5780 C   0  0  0  0  0
   10.9310   50.2620  -35.5740 C   0  0  0  0  0
   12.2020   49.8950  -35.1390 C   0  0  0  0  0
   12.3730   48.8970  -34.1830 C   0  0  0  0  0
   11.2680   48.2440  -33.6390 C   0  0  0  0  0
   11.4640   47.1610  -32.6410 C   0  0  0  0  0
   10.2980   46.1840  -32.7860 C   0  0  0  0  0
    8.9870   46.9230  -32.4960 C   0  0  0  0  0
    9.0170   47.6070  -31.1180 C   0  0  0  0  0
   11.4600   47.6650  -31.1990 C   0  0  0  0  0
   10.2300   48.4280  -30.9060 N   0  3  0  0  0
   10.2260   48.9000  -29.5080 C   0  0  0  0  0
   11.5720   49.3790  -28.9430 C   0  0  0  0  0
   12.0000   50.5950  -29.5620 O   0  0  0  0  0
   11.4030   49.6750  -27.4600 C   0  0  0  0  0
   11.6930   48.4870  -26.7210 O   0  0  0  0  0
   11.2430   48.3120  -25.4410 C   0  0  0  0  0
   11.0980   45.5200  -26.8630 C   0  0  0  0  0
   13.2080   45.5860  -25.4340 C   0  0  0  0  0
   13.9360   46.5500  -26.3510 C   0  0  0  0  0
   10.7930   49.4350  -24.7430 C   0  0  0  0  0
   10.3130   49.3130  -23.4440 C   0  0  0  0  0
    9.7470   49.3850  -20.7570 C   0  0  0  0  0
    7.8594   47.4673  -20.4712 H   0  0  0  0  0
    7.6982   48.2129  -22.0803 H   0  0  0  0  0
    8.2498   46.5262  -21.9317 H   0  0  0  0  0
   10.4813   47.4034  -19.4960 H   0  0  0  0  0
   11.6304   47.1744  -20.8913 H   0  0  0  0  0
    9.1838   45.5129  -20.2812 H   0  0  0  0  0
   10.3068   45.2891  -21.6449 H   0  0  0  0  0
   10.8739   45.0433  -19.9749 H   0  0  0  0  0
   10.6623   45.9576  -22.9710 H   0  0  0  0  0
   11.6205   44.5030  -23.6600 H   0  0  0  0  0
   10.1192   44.4582  -24.6167 H   0  0  0  0  0
   11.5504   43.5501  -25.1627 H   0  0  0  0  0
    8.2494   47.4627  -34.4192 H   0  0  0  0  0
    8.1004   48.7475  -33.1435 H   0  0  0  0  0
   10.8107   51.0456  -36.3220 H   0  0  0  0  0
   13.0765   50.3967  -35.5532 H   0  0  0  0  0
   13.3772   48.6247  -33.8580 H   0  0  0  0  0
   12.4360   46.7067  -32.8331 H   0  0  0  0  0
   10.4190   45.3609  -32.0817 H   0  0  0  0  0
   10.2777   45.7846  -33.8000 H   0  0  0  0  0
    8.1845   46.1854  -32.4930 H   0  0  0  0  0
    9.0087   46.8248  -30.3589 H   0  0  0  0  0
    8.1532   48.2690  -31.0571 H   0  0  0  0  0
   12.3193   48.3202  -31.0561 H   0  0  0  0  0
   11.5057   46.8063  -30.5292 H   0  0  0  0  0
   10.2188   49.2221  -31.5461 H   0  0  0  0  0
    9.9311   48.0440  -28.9010 H   0  0  0  0  0
    9.5630   49.7648  -29.4831 H   0  0  0  0  0
   12.3069   48.5958  -29.1289 H   0  0  0  0  0
   12.8414   50.8649  -29.1867 H   0  0  0  0  0
   10.3806   49.9956  -27.2601 H   0  0  0  0  0
   12.0831   50.4727  -27.1613 H   0  0  0  0  0
   10.0098   45.4985  -26.8050 H   0  0  0  0  0
   11.4136   46.3612  -27.4801 H   0  0  0  0  0
   11.4581   44.5899  -27.3027 H   0  0  0  0  0
   13.4660   44.5823  -25.7720 H   0  0  0  0  0
   13.5148   45.8336  -24.4178 H   0  0  0  0  0
   13.6354   46.3655  -27.3824 H   0  0  0  0  0
   13.6826   47.5736  -26.0749 H   0  0  0  0  0
   15.0113   46.4013  -26.2524 H   0  0  0  0  0
   10.8184   50.4146  -25.2204 H   0  0  0  0  0
    9.9552   50.1980  -22.9178 H   0  0  0  0  0
   10.7700   49.7599  -20.7241 H   0  0  0  0  0
    9.1294   50.0621  -21.3470 H   0  0  0  0  0
    9.3502   49.3188  -19.7440 H   0  0  0  0  0
  1  2  1  0  0  0
  1  3  1  0  0  0
  5  1  1  0  0  0
  1 35  1  0  0  0
  3  4  1  0  0  0
  6  5  4  0  0  0
  5 34  4  0  0  0
  7  6  4  0  0  0
  7  8  1  0  0  0
 29  7  4  0  0  0
  8  9  1  0  0  0
  8 30  1  0  0  0
  8 31  1  0  0  0
 11 10  2  0  0  0
 12 11  1  0  0  0
 11 14  1  0  0  0
 13 12  1  0  0  0
 17 12  1  0  0  0
 20 13  1  0  0  0
 15 14  2  0  0  0
 16 15  1  0  0  0
 17 16  2  0  0  0
 18 17  1  0  0  0
 18 19  1  0  0  0
 22 18  1  0  0  0
 20 19  1  0  0  0
 21 20  1  0  0  0
 23 21  1  0  0  0
 23 22  1  0  0  0
 24 23  1  0  0  0
 25 24  1  0  0  0
 25 26  1  0  0  0
 27 25  1  0  0  0
 28 27  1  0  0  0
 28 29  1  0  0  0
 29 33  4  0  0  0
 31 32  1  0  0  0
 33 34  4  0  0  0
  2 36  1  0  0  0
  2 37  1  0  0  0
  2 38  1  0  0  0
  3 39  1  0  0  0
  3 40  1  0  0  0
  4 41  1  0  0  0
  4 42  1  0  0  0
  4 43  1  0  0  0
  6 44  1  0  0  0
  9 45  1  0  0  0
  9 46  1  0  0  0
  9 47  1  0  0  0
 13 48  1  0  0  0
 13 49  1  0  0  0
 14 50  1  0  0  0
 15 51  1  0  0  0
 16 52  1  0  0  0
 18 53  1  0  0  0
 19 54  1  0  0  0
 19 55  1  0  0  0
 20 56  1  0  0  0
 21 57  1  0  0  0
 21 58  1  0  0  0
 22 59  1  0  0  0
 22 60  1  0  0  0
 23 61  1  0  0  0
 24 62  1  0  0  0
 24 63  1  0  0  0
 25 64  1  0  0  0
 26 65  1  0  0  0
 27 66  1  0  0  0
 27 67  1  0  0  0
 30 68  1  0  0  0
 30 69  1  0  0  0
 30 70  1  0  0  0
 31 71  1  0  0  0
 31 72  1  0  0  0
 32 73  1  0  0  0
 32 74  1  0  0  0
 32 75  1  0  0  0
 33 76  1  0  0  0
 34 77  1  0  0  0
 35 78  1  0  0  0
 35 79  1  0  0  0
 35 80  1  0  0  0
M  END
$$$$
