1o2k_ligand
  -I-interpret- 

 43 45  0  0  0  0  0  0  0  0999 V2000
   44.5180   -3.0730   26.1580 C   0  0  0  0  0
   44.8650   -1.7100   26.2080 C   0  0  0  0  0
   44.8360   -0.9990   27.4010 C   0  0  0  0  0
   44.4600   -1.6630   28.5280 C   0  0  0  0  0
   44.1210   -2.9600   28.5480 C   0  0  0  0  0
   44.1370   -3.7100   27.3730 C   0  0  0  0  0
   44.5550   -3.7540   24.9100 C   0  0  0  0  0
   44.3240   -5.0440   24.8420 N   0  0  0  0  0
   44.8120   -3.0870   23.8100 N   0  0  0  0  0
   44.3480   -1.2540   29.7330 N   0  0  0  0  0
   43.7970   -3.3830   29.7540 N   0  0  0  0  0
   43.9590   -2.2640   30.4520 C   0  0  0  0  0
   43.7580   -2.1470   31.8270 C   0  0  0  0  0
   43.3570   -3.2480   32.5640 C   0  0  0  0  0
   43.1810   -3.1470   33.9330 C   0  0  0  0  0
   43.4040   -1.9520   34.5810 C   0  0  0  0  0
   43.8050   -0.8440   33.8640 C   0  0  0  0  0
   43.9770   -0.9380   32.4870 C   0  0  0  0  0
   44.3500    0.1970   31.7890 O   0  0  0  0  0
   44.0840    0.3560   34.5000 O   0  0  0  0  0
   43.7120    0.7010   35.8270 C   0  0  0  0  0
   44.1390    2.1850   36.1070 C   0  0  0  0  0
   42.8870    2.9810   36.5420 C   0  0  0  0  0
   45.0470    2.2250   37.3350 C   0  0  0  0  0
   45.1628   -1.2014   25.2911 H   0  0  0  0  0
   45.1057    0.0566   27.4335 H   0  0  0  0  0
   43.8628   -4.7649   27.3842 H   0  0  0  0  0
   44.3452   -5.5190   23.9396 H   0  0  0  0  0
   44.1232   -5.5716   25.6915 H   0  0  0  0  0
   44.8309   -3.5713   22.9125 H   0  0  0  0  0
   43.1789   -4.1997   32.0634 H   0  0  0  0  0
   42.8634   -4.0200   34.5031 H   0  0  0  0  0
   43.2637   -1.8821   35.6597 H   0  0  0  0  0
   44.4553    0.9282   32.4021 H   0  0  0  0  0
   44.2090    0.0358   36.5331 H   0  0  0  0  0
   42.6331    0.6002   35.9446 H   0  0  0  0  0
   44.6194    2.5837   35.2135 H   0  0  0  0  0
   42.1438    2.9508   35.7452 H   0  0  0  0  0
   42.4709    2.5358   37.4457 H   0  0  0  0  0
   43.1667    4.0156   36.7407 H   0  0  0  0  0
   44.5083    1.8305   38.1966 H   0  0  0  0  0
   45.9332    1.6180   37.1499 H   0  0  0  0  0
   45.3450    3.2549   37.5316 H   0  0  0  0  0
  1  2  4  0  0  0
  1  6  4  0  0  0
  1  7  1  0  0  0
  2  3  4  0  0  0
  3  4  4  0  0  0
  4  5  4  0  0  0
  4 10  4  0  0  0
  5  6  4  0  0  0
  5 11  4  0  0  0
  7  8  1  0  0  0
  7  9  2  0  0  0
 10 12  4  0  0  0
 11 12  4  0  0  0
 12 13  1  0  0  0
 13 14  4  0  0  0
 13 18  4  0  0  0
 14 15  4  0  0  0
 15 16  4  0  0  0
 16 17  4  0  0  0
 17 18  4  0  0  0
 17 20  1  0  0  0
 18 19  1  0  0  0
 20 21  1  0  0  0
 21 22  1  0  0  0
 22 23  1  0  0  0
 22 24  1  0  0  0
  2 25  1  0  0  0
  3 26  1  0  0  0
  6 27  1  0  0  0
  8 28  1  0  0  0
  8 29  1  0  0  0
  9 30  1  0  0  0
 14 31  1  0  0  0
 15 32  1  0  0  0
 16 33  1  0  0  0
 19 34  1  0  0  0
 21 35  1  0  0  0
 21 36  1  0  0  0
 22 37  1  0  0  0
 23 38  1  0  0  0
 23 39  1  0  0  0
 23 40  1  0  0  0
 24 41  1  0  0  0
 24 42  1  0  0  0
 24 43  1  0  0  0
M  END
$$$$
