2wxv_ligand
  -I-interpret- 

 54 57  0  0  0  0  0  0  0  0999 V2000
  -34.8740  176.8460   87.2740 C   0  0  0  0  0
  -33.8890  176.7910   86.0680 C   0  0  0  0  0
  -33.9760  174.2220   86.1400 C   0  0  0  0  0
  -33.3770  175.4130   85.6700 C   0  0  0  0  0
  -32.2930  174.9140   84.8170 C   0  0  0  0  0
  -32.2560  173.6190   84.7850 N   0  0  0  0  0
  -33.2560  173.1910   85.5690 N   0  0  0  0  0
  -33.4890  171.7570   85.7440 C   0  0  0  0  0
  -31.3100  175.7330   84.0440 C   0  0  0  0  0
  -31.3200  176.9640   84.0550 O   0  0  0  0  0
  -35.6020  175.5360   87.6290 C   0  0  0  0  0
  -35.1410  174.1950   87.0540 C   0  0  0  0  0
  -35.6980  173.0590   87.3140 N   0  0  0  0  0
  -36.8210  173.0910   88.2030 C   0  0  0  0  0
  -37.3130  174.1810   88.7570 N   0  0  0  0  0
  -36.7000  175.3980   88.4660 C   0  0  0  0  0
  -37.4030  171.9080   88.4800 N   0  0  0  0  0
  -30.4490  174.9560   83.3560 N   0  0  0  0  0
  -37.0000  170.6100   87.9670 C   0  0  0  0  0
  -37.1990  170.4150   86.4180 C   0  0  0  0  0
  -38.2320  169.3560   86.0680 C   0  0  0  0  0
  -37.9700  168.0610   86.7580 N   0  0  0  0  0
  -37.5530  168.0890   88.1970 C   0  0  0  0  0
  -37.7220  169.5000   88.8200 C   0  0  0  0  0
  -38.1570  166.6640   85.9450 S   0  0  0  0  0
  -36.5000  166.2200   85.5180 C   0  0  0  0  0
  -38.6390  165.6370   86.8380 O   0  0  0  0  0
  -38.8850  166.9340   84.7270 O   0  0  0  0  0
  -29.3900  175.4380   82.5120 C   0  0  0  0  0
  -35.6518  177.5570   86.9955 H   0  0  0  0  0
  -34.2700  177.1006   88.1449 H   0  0  0  0  0
  -33.0115  177.3633   86.3690 H   0  0  0  0  0
  -34.4438  177.1664   85.2082 H   0  0  0  0  0
  -33.3928  171.5007   86.7991 H   0  0  0  0  0
  -34.4924  171.5084   85.3984 H   0  0  0  0  0
  -32.7547  171.1975   85.1644 H   0  0  0  0  0
  -37.1088  176.2983   88.9248 H   0  0  0  0  0
  -38.2042  171.9254   89.1110 H   0  0  0  0  0
  -30.5579  173.9454   83.4413 H   0  0  0  0  0
  -35.9189  170.5286   88.0793 H   0  0  0  0  0
  -36.2444  170.0913   86.0032 H   0  0  0  0  0
  -37.5508  171.3630   86.0109 H   0  0  0  0  0
  -38.1870  169.1817   84.9930 H   0  0  0  0  0
  -39.2092  169.7180   86.3875 H   0  0  0  0  0
  -36.4998  167.8140   88.2534 H   0  0  0  0  0
  -38.1842  167.3931   88.7497 H   0  0  0  0  0
  -38.7862  169.7333   88.8533 H   0  0  0  0  0
  -37.2761  169.4898   89.8146 H   0  0  0  0  0
  -35.8933  166.1730   86.4223 H   0  0  0  0  0
  -36.5008  165.2461   85.0285 H   0  0  0  0  0
  -36.0878  166.9681   84.8409 H   0  0  0  0  0
  -29.8129  176.0448   81.7113 H   0  0  0  0  0
  -28.7024  176.0426   83.1034 H   0  0  0  0  0
  -28.8545  174.5908   82.0835 H   0  0  0  0  0
  1  2  1  0  0  0
  1 11  1  0  0  0
  2  4  1  0  0  0
  4  3  4  0  0  0
  3  7  4  0  0  0
  3 12  1  0  0  0
  4  5  4  0  0  0
  5  6  4  0  0  0
  5  9  1  0  0  0
  6  7  4  0  0  0
  7  8  1  0  0  0
  9 10  2  0  0  0
  9 18  1  0  0  0
 11 12  4  0  0  0
 11 16  4  0  0  0
 12 13  4  0  0  0
 13 14  4  0  0  0
 14 15  4  0  0  0
 14 17  1  0  0  0
 15 16  4  0  0  0
 17 19  1  0  0  0
 18 29  1  0  0  0
 19 20  1  0  0  0
 19 24  1  0  0  0
 20 21  1  0  0  0
 21 22  1  0  0  0
 22 23  1  0  0  0
 22 25  1  0  0  0
 23 24  1  0  0  0
 25 26  1  0  0  0
 25 27  2  0  0  0
 25 28  2  0  0  0
  1 30  1  0  0  0
  1 31  1  0  0  0
  2 32  1  0  0  0
  2 33  1  0  0  0
  8 34  1  0  0  0
  8 35  1  0  0  0
  8 36  1  0  0  0
 16 37  1  0  0  0
 17 38  1  0  0  0
 18 39  1  0  0  0
 19 40  1  0  0  0
 20 41  1  0  0  0
 20 42  1  0  0  0
 21 43  1  0  0  0
 21 44  1  0  0  0
 23 45  1  0  0  0
 23 46  1  0  0  0
 24 47  1  0  0  0
 24 48  1  0  0  0
 26 49  1  0  0  0
 26 50  1  0  0  0
 26 51  1  0  0  0
 29 52  1  0  0  0
 29 53  1  0  0  0
 29 54  1  0  0  0
M  END
$$$$
