5ie1_ligand
  -I-interpret- 

 60 62  0  0  0  0  0  0  0  0999 V2000
   65.1100   50.8090   10.3690 C   0  0  0  0  0
   64.3070   50.9420   11.6470 C   0  0  0  0  0
   64.3080   52.4030   12.0900 C   0  0  0  0  0
   64.9350   50.0820   12.7420 C   0  0  0  0  0
   62.8580   50.4750   11.4540 C   0  0  0  0  0
   62.6530   48.9960   11.0490 C   0  0  0  0  0
   63.1760   48.5200    9.7450 N   0  0  0  0  0
   63.6110   47.2620    9.6140 C   0  0  0  0  0
   63.5850   46.4550   10.5400 O   0  0  0  0  0
   64.1440   46.8310    8.2260 C   0  0  0  0  0
   65.6610   46.5560    8.0920 C   0  0  0  0  0
   66.4900   47.8020    8.3910 C   0  0  0  0  0
   66.4220   48.9660    7.6300 C   0  0  0  0  0
   67.1650   50.0360    7.9380 N   0  0  0  0  0
   65.6090   49.0260    6.5780 N   0  0  0  0  0
   67.3570   47.7720    9.4750 C   0  0  0  0  0
   68.1140   48.8980    9.7680 C   0  0  0  0  0
   69.0180   48.8800   10.8170 C   0  0  0  0  0
   68.0050   50.0280    8.9770 C   0  0  0  0  0
   68.7610   51.1530    9.2760 C   0  0  0  0  0
   69.6270   51.1320   10.3640 C   0  0  0  0  0
   69.7000   50.0260   11.2090 C   0  0  0  0  0
   70.6750   50.0910   12.2090 C   0  0  0  0  0
   70.6320   51.2940   12.9060 C   0  0  0  0  0
   71.4400   51.5340   14.0080 C   0  0  0  0  0
   72.2610   50.5380   14.4970 C   0  0  0  0  0
   72.2520   49.3070   13.8710 C   0  0  0  0  0
   71.3990   49.0480   12.8060 C   0  0  0  0  0
   71.5610   47.6540   12.1920 C   0  0  0  0  0
   65.1228   49.7648   10.0565 H   0  0  0  0  0
   64.6525   51.4175    9.5889 H   0  0  0  0  0
   66.1304   51.1493   10.5455 H   0  0  0  0  0
   63.8247   53.0131   11.3269 H   0  0  0  0  0
   63.7643   52.4967   13.0300 H   0  0  0  0  0
   65.3358   52.7387   12.2282 H   0  0  0  0  0
   64.3717   50.2053   13.6670 H   0  0  0  0  0
   64.9124   49.0355   12.4381 H   0  0  0  0  0
   65.9675   50.3937   12.8996 H   0  0  0  0  0
   62.4577   51.0695   10.6328 H   0  0  0  0  0
   62.3735   50.5908   12.4235 H   0  0  0  0  0
   61.5722   48.8752   10.9757 H   0  0  0  0  0
   63.2051   48.4245   11.7951 H   0  0  0  0  0
   63.2040   49.1537    8.9462 H   0  0  0  0  0
   63.9398   47.6706    7.5615 H   0  0  0  0  0
   63.6550   45.8817    8.0076 H   0  0  0  0  0
   65.8644   46.2464    7.0669 H   0  0  0  0  0
   65.9341   45.7820    8.8092 H   0  0  0  0  0
   65.0361   48.2195    6.3296 H   0  0  0  0  0
   65.5588   49.8785    6.0202 H   0  0  0  0  0
   67.4422   46.8751   10.0885 H   0  0  0  0  0
   69.1989   47.9453   11.3477 H   0  0  0  0  0
   68.6763   52.0488    8.6609 H   0  0  0  0  0
   70.2607   51.9970   10.5596 H   0  0  0  0  0
   69.9428   52.0715   12.5765 H   0  0  0  0  0
   71.4264   52.5120   14.4891 H   0  0  0  0  0
   72.9029   50.7192   15.3591 H   0  0  0  0  0
   72.9265   48.5246   14.2190 H   0  0  0  0  0
   70.5791   47.1986   12.0636 H   0  0  0  0  0
   72.0525   47.7401   11.2229 H   0  0  0  0  0
   72.1663   47.0349   12.8541 H   0  0  0  0  0
  1  2  1  0  0  0
  2  3  1  0  0  0
  2  4  1  0  0  0
  2  5  1  0  0  0
  5  6  1  0  0  0
  6  7  1  0  0  0
  7  8  1  0  0  0
  8  9  2  0  0  0
  8 10  1  0  0  0
 10 11  1  0  0  0
 11 12  1  0  0  0
 12 13  4  0  0  0
 12 16  4  0  0  0
 13 14  4  0  0  0
 13 15  1  0  0  0
 14 19  4  0  0  0
 16 17  4  0  0  0
 17 18  4  0  0  0
 17 19  4  0  0  0
 18 22  4  0  0  0
 19 20  4  0  0  0
 20 21  4  0  0  0
 21 22  4  0  0  0
 22 23  1  0  0  0
 23 24  4  0  0  0
 23 28  4  0  0  0
 24 25  4  0  0  0
 25 26  4  0  0  0
 26 27  4  0  0  0
 27 28  4  0  0  0
 28 29  1  0  0  0
  1 30  1  0  0  0
  1 31  1  0  0  0
  1 32  1  0  0  0
  3 33  1  0  0  0
  3 34  1  0  0  0
  3 35  1  0  0  0
  4 36  1  0  0  0
  4 37  1  0  0  0
  4 38  1  0  0  0
  5 39  1  0  0  0
  5 40  1  0  0  0
  6 41  1  0  0  0
  6 42  1  0  0  0
  7 43  1  0  0  0
 10 44  1  0  0  0
 10 45  1  0  0  0
 11 46  1  0  0  0
 11 47  1  0  0  0
 15 48  1  0  0  0
 15 49  1  0  0  0
 16 50  1  0  0  0
 18 51  1  0  0  0
 20 52  1  0  0  0
 21 53  1  0  0  0
 24 54  1  0  0  0
 25 55  1  0  0  0
 26 56  1  0  0  0
 27 57  1  0  0  0
 29 58  1  0  0  0
 29 59  1  0  0  0
 29 60  1  0  0  0
M  END
$$$$
