6hsk_ligand
  -I-interpret- 

 56 59  0  0  0  0  0  0  0  0999 V2000
  -16.1830    6.7880   -9.4170 N   0  0  0  0  0
  -17.8790    7.9760  -10.2800 O   0  0  0  0  0
  -15.7350    5.7530  -14.1600 C   0  0  0  0  0
  -16.4660    6.8050  -11.7910 C   0  0  0  0  0
  -17.3820    6.5260  -12.7980 C   0  0  0  0  0
  -13.9630    4.9910  -15.7110 C   0  0  0  0  0
  -15.3620    5.2630  -15.3720 N   0  0  0  0  0
  -16.2960    4.6010  -16.2890 C   0  0  0  0  0
  -13.7980   -2.7080  -14.6000 C   0  0  0  0  0
  -16.8930    7.2630  -10.4330 C   0  0  0  0  0
  -16.5680    7.0580   -8.1080 O   0  0  0  0  0
  -14.7540    5.9930  -13.2740 N   0  0  0  0  0
  -15.1430    6.5190  -12.1050 C   0  0  0  0  0
  -17.0460    5.9870  -13.9770 N   0  0  0  0  0
  -13.6790    3.4960  -15.7480 C   0  0  0  0  0
  -16.0530    3.0900  -16.3540 C   0  0  0  0  0
  -14.6050    2.7510  -16.7020 C   0  0  0  0  0
  -14.3720    1.2660  -16.4860 C   0  0  0  0  0
  -14.1390    0.4290  -17.6680 N   0  3  0  0  0
  -13.0530   -0.5460  -17.5650 C   0  0  0  0  0
  -13.0790   -1.3830  -16.3130 C   0  0  0  0  0
  -12.4520   -2.4530  -14.4420 N   0  0  0  0  0
  -12.0350   -1.6660  -15.4880 C   0  0  0  0  0
  -14.2270   -2.0480  -15.7560 C   0  0  0  0  0
  -15.5650   -2.1540  -16.1340 C   0  0  0  0  0
  -16.4370   -2.9080  -15.3610 C   0  0  0  0  0
  -15.9860   -3.5590  -14.2170 C   0  0  0  0  0
  -14.6620   -3.4660  -13.8240 C   0  0  0  0  0
  -11.6290   -2.8840  -13.3200 C   0  0  0  0  0
  -15.3527    6.2234   -9.5967 H   0  0  0  0  0
  -18.4316    6.7586  -12.6184 H   0  0  0  0  0
  -13.3286    5.4444  -14.9494 H   0  0  0  0  0
  -13.7599    5.4058  -16.6983 H   0  0  0  0  0
  -16.1489    5.0152  -17.2864 H   0  0  0  0  0
  -17.3101    4.7700  -15.9268 H   0  0  0  0  0
  -15.9502    6.6428   -7.5018 H   0  0  0  0  0
  -14.3788    6.7347  -11.3583 H   0  0  0  0  0
  -13.8373    3.0982  -14.7456 H   0  0  0  0  0
  -12.6551    3.3561  -16.0946 H   0  0  0  0  0
  -16.6939    2.6774  -17.1332 H   0  0  0  0  0
  -16.2726    2.6694  -15.3727 H   0  0  0  0  0
  -14.4105    3.0288  -17.7379 H   0  0  0  0  0
  -15.2930    0.8896  -16.0409 H   0  0  0  0  0
  -13.4568    1.1985  -15.8978 H   0  0  0  0  0
  -13.8796    1.0658  -18.4214 H   0  0  0  0  0
  -14.9935   -0.1101  -17.8083 H   0  0  0  0  0
  -12.1198    0.0172  -17.5520 H   0  0  0  0  0
  -13.1583   -1.2298  -18.4073 H   0  0  0  0  0
  -11.0128   -1.3178  -15.6359 H   0  0  0  0  0
  -15.9237   -1.6482  -17.0304 H   0  0  0  0  0
  -17.4840   -2.9908  -15.6526 H   0  0  0  0  0
  -16.6837   -4.1494  -13.6231 H   0  0  0  0  0
  -14.3077   -3.9753  -12.9278 H   0  0  0  0  0
  -12.0272   -2.4638  -12.3964 H   0  0  0  0  0
  -11.6400   -3.9723  -13.2599 H   0  0  0  0  0
  -10.6061   -2.5373  -13.4671 H   0  0  0  0  0
 10  1  1  0  0  0
  1 11  1  0  0  0
 10  2  2  0  0  0
  7  3  1  0  0  0
  3 12  4  0  0  0
  3 14  4  0  0  0
  5  4  4  0  0  0
  4 10  1  0  0  0
 13  4  4  0  0  0
 14  5  4  0  0  0
  6  7  1  0  0  0
 15  6  1  0  0  0
  8  7  1  0  0  0
 16  8  1  0  0  0
  9 22  4  0  0  0
 24  9  4  0  0  0
  9 28  4  0  0  0
 12 13  4  0  0  0
 17 15  1  0  0  0
 17 16  1  0  0  0
 18 17  1  0  0  0
 19 18  1  0  0  0
 20 19  1  0  0  0
 21 20  1  0  0  0
 21 23  4  0  0  0
 21 24  4  0  0  0
 22 23  4  0  0  0
 22 29  1  0  0  0
 24 25  4  0  0  0
 25 26  4  0  0  0
 26 27  4  0  0  0
 27 28  4  0  0  0
  1 30  1  0  0  0
  5 31  1  0  0  0
  6 32  1  0  0  0
  6 33  1  0  0  0
  8 34  1  0  0  0
  8 35  1  0  0  0
 11 36  1  0  0  0
 13 37  1  0  0  0
 15 38  1  0  0  0
 15 39  1  0  0  0
 16 40  1  0  0  0
 16 41  1  0  0  0
 17 42  1  0  0  0
 18 43  1  0  0  0
 18 44  1  0  0  0
 19 45  1  0  0  0
 19 46  1  0  0  0
 20 47  1  0  0  0
 20 48  1  0  0  0
 23 49  1  0  0  0
 25 50  1  0  0  0
 26 51  1  0  0  0
 27 52  1  0  0  0
 28 53  1  0  0  0
 29 54  1  0  0  0
 29 55  1  0  0  0
 29 56  1  0  0  0
M  END
$$$$
