6oco_ligand
  -I-interpret- 

 45 49  0  0  0  0  0  0  0  0999 V2000
   41.0800   13.0780   35.6110 C   0  0  0  0  0
   42.0980   14.2510   35.8170 C   0  0  0  0  0
   41.1920   15.2870   36.5760 C   0  0  0  0  0
   39.9990   15.1910   35.5610 C   0  0  0  0  0
   40.7810   15.4200   34.2210 C   0  0  0  0  0
   42.9590   14.5330   33.4670 C   0  0  0  0  0
   44.5060   13.6980   31.2860 C   0  0  0  0  0
   44.3560   12.8740   32.3910 C   0  0  0  0  0
   38.6780   13.2000   34.9400 C   0  0  0  0  0
   36.6950   13.6680   33.7540 C   0  0  0  0  0
   37.3400   11.4520   33.8900 C   0  0  0  0  0
   39.3300   10.7430   35.0570 C   0  0  0  0  0
   40.0450    9.9260   35.3980 N   0  0  0  0  0
   35.7220   14.6840   33.2770 C   0  0  0  0  0
   36.0860   16.0340   33.1360 C   0  0  0  0  0
   33.5200   15.2790   32.5130 C   0  0  0  0  0
   39.7400   13.7150   35.6940 N   0  0  0  0  0
   42.1740   15.0160   34.5340 N   0  0  0  0  0
   43.1270   15.3600   32.3490 C   0  0  0  0  0
   43.8900   14.9400   31.2690 C   0  0  0  0  0
   45.1180   11.3210   32.4360 Cl  0  0  0  0  0
   43.5980   13.2810   33.4750 C   0  0  0  0  0
   37.7530   14.0530   34.4720 N   0  0  0  0  0
   36.4920   12.3800   33.4690 N   0  0  0  0  0
   38.4710   11.8120   34.6480 C   0  0  0  0  0
   35.2070   16.9280   32.7070 N   0  0  0  0  0
   33.9620   16.5890   32.4040 C   0  0  0  0  0
   34.4010   14.3050   32.9550 C   0  0  0  0  0
   41.2043   12.2978   36.3620 H   0  0  0  0  0
   41.2303   12.5749   34.6558 H   0  0  0  0  0
   43.0487   13.9097   36.2266 H   0  0  0  0  0
   41.6120   16.2760   36.7594 H   0  0  0  0  0
   40.9723   15.0832   37.6240 H   0  0  0  0  0
   39.1147   15.8208   35.6580 H   0  0  0  0  0
   40.7205   16.4545   33.8829 H   0  0  0  0  0
   40.3617   14.8415   33.3978 H   0  0  0  0  0
   45.1047   13.3713   30.4357 H   0  0  0  0  0
   37.1608   10.4044   33.6481 H   0  0  0  0  0
   37.1003   16.3485   33.3817 H   0  0  0  0  0
   32.4935   15.0191   32.2545 H   0  0  0  0  0
   42.6543   16.3419   32.3273 H   0  0  0  0  0
   44.0058   15.5903   30.4020 H   0  0  0  0  0
   43.4958   12.6265   34.3406 H   0  0  0  0  0
   33.2694   17.3577   32.0612 H   0  0  0  0  0
   34.0805   13.2677   33.0520 H   0  0  0  0  0
  1  2  1  0  0  0
 17  1  1  0  0  0
  3  2  1  0  0  0
  2 18  1  0  0  0
  4  3  1  0  0  0
  4  5  1  0  0  0
 17  4  1  0  0  0
  5 18  1  0  0  0
 18  6  1  0  0  0
  6 19  4  0  0  0
  6 22  4  0  0  0
  8  7  4  0  0  0
  7 20  4  0  0  0
  8 21  1  0  0  0
 22  8  4  0  0  0
  9 17  1  0  0  0
 23  9  4  0  0  0
  9 25  4  0  0  0
 14 10  1  0  0  0
 10 23  4  0  0  0
 10 24  4  0  0  0
 24 11  4  0  0  0
 11 25  4  0  0  0
 12 13  3  0  0  0
 25 12  1  0  0  0
 14 15  4  0  0  0
 28 14  4  0  0  0
 15 26  4  0  0  0
 16 27  4  0  0  0
 16 28  4  0  0  0
 19 20  4  0  0  0
 26 27  4  0  0  0
  1 29  1  0  0  0
  1 30  1  0  0  0
  2 31  1  0  0  0
  3 32  1  0  0  0
  3 33  1  0  0  0
  4 34  1  0  0  0
  5 35  1  0  0  0
  5 36  1  0  0  0
  7 37  1  0  0  0
 11 38  1  0  0  0
 15 39  1  0  0  0
 16 40  1  0  0  0
 19 41  1  0  0  0
 20 42  1  0  0  0
 22 43  1  0  0  0
 27 44  1  0  0  0
 28 45  1  0  0  0
M  END
$$$$
