5uxf_ligand
  -I-interpret- 

 68 74  0  0  0  0  0  0  0  0999 V2000
  114.7510   76.9830    0.7800 P   0  0  0  0  0
  114.0800   77.0170   -0.5530 O   0  0  0  0  0
  115.8730   77.9490    1.0850 O   0  0  0  0  0
  113.5890   77.1320    1.8900 O   0  0  0  0  0
  113.8590   77.7580    3.1380 C   0  0  0  0  0
  114.0180   76.6950    4.2310 C   0  0  0  0  0
  114.4260   77.3550    5.4440 O   0  0  0  0  0
  112.7460   75.9380    4.5660 C   0  0  0  0  0
  113.0960   74.6130    4.9980 O   0  0  0  0  0
  112.2590   76.7070    5.7790 C   0  0  0  0  0
  111.2920   75.9430    6.5200 O   0  0  0  0  0
  113.5720   76.9480    6.5070 C   0  0  0  0  0
  113.6360   78.0160    7.5420 N   0  0  0  0  0
  114.7870   78.5590    8.0010 C   0  0  0  0  0
  114.5470   79.4910    8.9630 N   0  0  0  0  0
  113.2090   79.5310    9.1220 C   0  0  0  0  0
  112.2810   80.2910    9.9830 C   0  0  0  0  0
  112.7620   81.2090   10.8550 N   0  0  0  0  0
  110.9570   80.0440    9.8630 N   0  0  0  0  0
  110.4900   79.1360    8.9870 C   0  0  0  0  0
  111.2770   78.4080    8.1710 N   0  0  0  0  0
  112.6200   78.5520    8.2050 C   0  0  0  0  0
  112.4720   73.2720    4.3430 P   0  0  0  0  0
  112.9660   72.1410    5.1940 O   0  0  0  0  0
  111.0000   73.4930    4.1120 O   0  0  0  0  0
  113.1350   73.1780    2.8790 O   0  0  0  0  0
  114.5530   73.0760    2.8360 C   0  0  0  0  0
  115.0290   73.1560    1.3960 C   0  0  0  0  0
  114.5190   72.0720    0.6250 O   0  0  0  0  0
  114.5370   74.3720    0.6430 C   0  0  0  0  0
  115.3210   75.5050    1.0170 O   0  0  0  0  0
  114.7180   73.9430   -0.8050 C   0  0  0  0  0
  115.9940   74.3870   -1.2750 O   0  0  0  0  0
  114.7410   72.4260   -0.7430 C   0  0  0  0  0
  113.6750   71.7670   -1.5170 N   0  0  0  0  0
  112.3650   72.0770   -1.5240 C   0  0  0  0  0
  111.6770   71.2370   -2.3270 N   0  0  0  0  0
  112.5730   70.3780   -2.8500 C   0  0  0  0  0
  112.5110   69.2460   -3.7830 C   0  0  0  0  0
  111.3350   68.8580   -4.3190 N   0  0  0  0  0
  113.6710   68.6140   -4.0680 N   0  0  0  0  0
  114.8420   68.9980   -3.5200 C   0  0  0  0  0
  114.9800   70.0300   -2.6650 N   0  0  0  0  0
  113.8850   70.7300   -2.3100 C   0  0  0  0  0
  116.1922   77.7955    1.9773 H   0  0  0  0  0
  113.0307   78.4179    3.3959 H   0  0  0  0  0
  114.7812   78.3338    3.0595 H   0  0  0  0  0
  114.7421   75.9770    3.8460 H   0  0  0  0  0
  112.0350   75.8597    3.7436 H   0  0  0  0  0
  111.7204   77.6323    5.5747 H   0  0  0  0  0
  111.0000   76.4503    7.2809 H   0  0  0  0  0
  113.8071   76.0466    7.0729 H   0  0  0  0  0
  115.7802   78.2848    7.6455 H   0  0  0  0  0
  113.7663   81.3759   10.9174 H   0  0  0  0  0
  112.1199   81.7334   11.4493 H   0  0  0  0  0
  109.4125   78.9803    8.9344 H   0  0  0  0  0
  110.8775   74.2586    3.5459 H   0  0  0  0  0
  114.8596   72.1222    3.2653 H   0  0  0  0  0
  114.9914   73.8943    3.4073 H   0  0  0  0  0
  116.1144   73.1665    1.4950 H   0  0  0  0  0
  113.5089   74.6746    0.8419 H   0  0  0  0  0
  113.9427   74.3430   -1.4584 H   0  0  0  0  0
  116.1089   74.1166   -2.1889 H   0  0  0  0  0
  115.6947   72.1015   -1.1591 H   0  0  0  0  0
  111.9198   72.8953   -0.9581 H   0  0  0  0  0
  110.4764   69.3526   -4.0771 H   0  0  0  0  0
  111.3047   68.0701   -4.9660 H   0  0  0  0  0
  115.7368   68.4356   -3.7868 H   0  0  0  0  0
  1  2  2  0  0  0
  1  3  1  0  0  0
  1  4  1  0  0  0
  1 31  1  0  0  0
  4  5  1  0  0  0
  5  6  1  0  0  0
  6  7  1  0  0  0
  6  8  1  0  0  0
  7 12  1  0  0  0
  8  9  1  0  0  0
  8 10  1  0  0  0
  9 23  1  0  0  0
 10 11  1  0  0  0
 10 12  1  0  0  0
 12 13  1  0  0  0
 13 14  4  0  0  0
 13 22  4  0  0  0
 14 15  4  0  0  0
 15 16  4  0  0  0
 16 17  4  0  0  0
 16 22  4  0  0  0
 17 18  1  0  0  0
 17 19  4  0  0  0
 19 20  4  0  0  0
 20 21  4  0  0  0
 21 22  4  0  0  0
 23 24  2  0  0  0
 23 25  1  0  0  0
 23 26  1  0  0  0
 26 27  1  0  0  0
 27 28  1  0  0  0
 28 29  1  0  0  0
 28 30  1  0  0  0
 29 34  1  0  0  0
 30 31  1  0  0  0
 30 32  1  0  0  0
 32 33  1  0  0  0
 32 34  1  0  0  0
 34 35  1  0  0  0
 35 36  4  0  0  0
 35 44  4  0  0  0
 36 37  4  0  0  0
 37 38  4  0  0  0
 38 39  4  0  0  0
 38 44  4  0  0  0
 39 40  1  0  0  0
 39 41  4  0  0  0
 41 42  4  0  0  0
 42 43  4  0  0  0
 43 44  4  0  0  0
  3 45  1  0  0  0
  5 46  1  0  0  0
  5 47  1  0  0  0
  6 48  1  0  0  0
  8 49  1  0  0  0
 10 50  1  0  0  0
 11 51  1  0  0  0
 12 52  1  0  0  0
 14 53  1  0  0  0
 18 54  1  0  0  0
 18 55  1  0  0  0
 20 56  1  0  0  0
 25 57  1  0  0  0
 27 58  1  0  0  0
 27 59  1  0  0  0
 28 60  1  0  0  0
 30 61  1  0  0  0
 32 62  1  0  0  0
 33 63  1  0  0  0
 34 64  1  0  0  0
 36 65  1  0  0  0
 40 66  1  0  0  0
 40 67  1  0  0  0
 42 68  1  0  0  0
M  END
$$$$
