### 
### Created by X-TOOL on Mon Sep 10 21:13:31 2018
### 

@<TRIPOS>MOLECULE
5uxf_ligand
   66    72     1     0     0
SMALL
GAST_HUCK


@<TRIPOS>ATOM
      1 P         114.7510   76.9830    0.7800 P.3       1 2BA         0.2557
      2 O1P       114.0800   77.0170   -0.5530 O.co2     1 2BA        -0.6177
      3 O2P       115.8730   77.9490    1.0850 O.co2     1 2BA        -0.6177
      4 O5'       113.5890   77.1320    1.8900 O.3       1 2BA        -0.2514
      5 C5'       113.8590   77.7580    3.1380 C.3       1 2BA         0.1128
      6 C4'       114.0180   76.6950    4.2310 C.3       1 2BA         0.1242
      7 O4'       114.4260   77.3550    5.4440 O.3       1 2BA        -0.3360
      8 C3'       112.7460   75.9380    4.5660 C.3       1 2BA         0.1540
      9 O3'       113.0960   74.6130    4.9980 O.3       1 2BA        -0.2453
     10 C2'       112.2590   76.7070    5.7790 C.3       1 2BA         0.1439
     11 O2'       111.2920   75.9430    6.5200 O.3       1 2BA        -0.3832
     12 C1'       113.5720   76.9480    6.5070 C.3       1 2BA         0.2014
     13 N9        113.6360   78.0160    7.5420 N.pl3     1 2BA        -0.1919
     14 C8        114.7870   78.5590    8.0010 C.2       1 2BA         0.1123
     15 N7        114.5470   79.4910    8.9630 N.2       1 2BA        -0.2958
     16 C5        113.2090   79.5310    9.1220 C.ar      1 2BA         0.1045
     17 C6        112.2810   80.2910    9.9830 C.ar      1 2BA         0.1298
     18 N6        112.7620   81.2090   10.8550 N.pl3     1 2BA        -0.3152
     19 N1        110.9570   80.0440    9.8630 N.ar      1 2BA        -0.2698
     20 C2        110.4900   79.1360    8.9870 C.ar      1 2BA         0.0533
     21 N3        111.2770   78.4080    8.1710 N.ar      1 2BA        -0.2714
     22 C4        112.6200   78.5520    8.2050 C.ar      1 2BA         0.1613
     23 P1        112.4720   73.2720    4.3430 P.3       1 2BA         0.2557
     24 O1P1      112.9660   72.1410    5.1940 O.co2     1 2BA        -0.6177
     25 O2P1      111.0000   73.4930    4.1120 O.co2     1 2BA        -0.6177
     26 O5'1      113.1350   73.1780    2.8790 O.3       1 2BA        -0.2514
     27 C5'1      114.5530   73.0760    2.8360 C.3       1 2BA         0.1128
     28 C4'1      115.0290   73.1560    1.3960 C.3       1 2BA         0.1242
     29 O4'1      114.5190   72.0720    0.6250 O.3       1 2BA        -0.3360
     30 C3'1      114.5370   74.3720    0.6430 C.3       1 2BA         0.1540
     31 O3'1      115.3210   75.5050    1.0170 O.3       1 2BA        -0.2453
     32 C2'1      114.7180   73.9430   -0.8050 C.3       1 2BA         0.1439
     33 O2'1      115.9940   74.3870   -1.2750 O.3       1 2BA        -0.3832
     34 C1'1      114.7410   72.4260   -0.7430 C.3       1 2BA         0.2014
     35 N91       113.6750   71.7670   -1.5170 N.pl3     1 2BA        -0.1919
     36 C81       112.3650   72.0770   -1.5240 C.2       1 2BA         0.1123
     37 N71       111.6770   71.2370   -2.3270 N.2       1 2BA        -0.2958
     38 C51       112.5730   70.3780   -2.8500 C.ar      1 2BA         0.1045
     39 C61       112.5110   69.2460   -3.7830 C.ar      1 2BA         0.1298
     40 N61       111.3350   68.8580   -4.3190 N.pl3     1 2BA        -0.3152
     41 N11       113.6710   68.6140   -4.0680 N.ar      1 2BA        -0.2698
     42 C21       114.8420   68.9980   -3.5200 C.ar      1 2BA         0.0533
     43 N31       114.9800   70.0300   -2.6650 N.ar      1 2BA        -0.2714
     44 C41       113.8850   70.7300   -2.3100 C.ar      1 2BA         0.1613
     45 H1        113.0256   78.4271    3.3984 H         1 2BA         0.0647
     46 H2        114.7876   78.3423    3.0597 H         1 2BA         0.0647
     47 H3        114.7871   75.9765    3.9114 H         1 2BA         0.0655
     48 H4        112.0210   75.9212    3.7389 H         1 2BA         0.0712
     49 H5        111.7995   77.6629    5.4875 H         1 2BA         0.0680
     50 H6        111.0031   76.4451    7.2730 H         1 2BA         0.2101
     51 H7        113.9101   76.0058    6.9630 H         1 2BA         0.0996
     52 H8        115.7793   78.2851    7.6458 H         1 2BA         0.1349
     53 H9        112.1136   81.7385   11.4551 H         1 2BA         0.1820
     54 H10       113.7762   81.3776   10.9180 H         1 2BA         0.1820
     55 H11       109.4184   78.9811    8.9347 H         1 2BA         0.0996
     56 H12       114.8637   72.1146    3.2708 H         1 2BA         0.0647
     57 H13       114.9965   73.9002    3.4139 H         1 2BA         0.0647
     58 H14       116.1289   73.1408    1.3975 H         1 2BA         0.0655
     59 H15       113.4778   74.5790    0.8554 H         1 2BA         0.0712
     60 H16       113.9078   74.3186   -1.4472 H         1 2BA         0.0680
     61 H17       116.1077   74.1194   -2.1794 H         1 2BA         0.2101
     62 H18       115.7199   72.0632   -1.0896 H         1 2BA         0.0996
     63 H19       111.9202   72.8946   -0.9586 H         1 2BA         0.1349
     64 H20       111.3044   68.0623   -4.9724 H         1 2BA         0.1820
     65 H21       110.4680   69.3575   -4.0748 H         1 2BA         0.1820
     66 H22       115.7319   68.4387   -3.7853 H         1 2BA         0.0996
@<TRIPOS>BOND
     1    1    2 ar 
     2    1    3 ar 
     3    1    4 1  
     4    1   31 1  
     5    4    5 1  
     6    5    6 1  
     7    6    7 1  
     8    6    8 1  
     9    7   12 1  
    10    8    9 1  
    11    8   10 1  
    12    9   23 1  
    13   10   11 1  
    14   10   12 1  
    15   12   13 1  
    16   13   14 1  
    17   13   22 1  
    18   14   15 2  
    19   15   16 1  
    20   16   17 ar 
    21   16   22 ar 
    22   17   18 1  
    23   17   19 ar 
    24   19   20 ar 
    25   20   21 ar 
    26   21   22 ar 
    27   23   24 ar 
    28   23   25 ar 
    29   23   26 1  
    30   26   27 1  
    31   27   28 1  
    32   28   29 1  
    33   28   30 1  
    34   29   34 1  
    35   30   31 1  
    36   30   32 1  
    37   32   33 1  
    38   32   34 1  
    39   34   35 1  
    40   35   36 1  
    41   35   44 1  
    42   36   37 2  
    43   37   38 1  
    44   38   39 ar 
    45   38   44 ar 
    46   39   40 1  
    47   39   41 ar 
    48   41   42 ar 
    49   42   43 ar 
    50   43   44 ar 
    51    5   45 1  
    52    5   46 1  
    53    6   47 1  
    54    8   48 1  
    55   10   49 1  
    56   11   50 1  
    57   12   51 1  
    58   14   52 1  
    59   18   53 1  
    60   18   54 1  
    61   20   55 1  
    62   27   56 1  
    63   27   57 1  
    64   28   58 1  
    65   30   59 1  
    66   32   60 1  
    67   33   61 1  
    68   34   62 1  
    69   36   63 1  
    70   40   64 1  
    71   40   65 1  
    72   42   66 1  
@<TRIPOS>SUBSTRUCTURE
     1 2BA         1

