6i74_ligand
  -I-interpret- 

 52 55  0  0  0  0  0  0  0  0999 V2000
  -12.8980    8.5940   -0.0400 C   0  0  0  0  0
  -11.6840    9.0060   -0.6420 C   0  0  0  0  0
  -25.3740    8.9440   -5.7170 C   0  0  0  0  0
  -24.2220    9.2600   -4.7420 C   0  0  0  0  0
  -23.8200   10.5640   -4.4040 C   0  0  0  0  0
  -22.7870   10.8570   -3.5120 C   0  0  0  0  0
  -23.4780    8.2750   -4.0810 C   0  0  0  0  0
  -22.4430    8.5640   -3.1820 C   0  0  0  0  0
  -22.0770    9.8660   -2.8780 C   0  0  0  0  0
  -19.7520    8.7090   -1.7100 C   0  0  0  0  0
  -19.6160    6.5510   -0.8840 C   0  0  0  0  0
  -20.2960    5.5800    0.0860 C   0  0  0  0  0
  -18.1030    6.6820   -0.5860 C   0  0  0  0  0
  -17.5670    7.7010   -1.6120 C   0  0  0  0  0
  -15.4330    8.3140   -0.3740 C   0  0  0  0  0
  -14.1080    8.2620   -0.7740 C   0  0  0  0  0
  -10.5340    9.2870    0.0510 C   0  0  0  0  0
  -10.5180    9.1410    1.4260 C   0  0  0  0  0
  -11.6600    8.7190    2.0720 C   0  0  0  0  0
  -12.8080    8.4530    1.3580 C   0  0  0  0  0
  -18.2670    9.0670   -1.4840 C   0  0  0  0  0
  -11.6560    9.1740   -1.9590 F   0  0  0  0  0
   -9.4550    9.6940   -0.6020 F   0  0  0  0  0
   -9.4710    9.3960    2.0980 F   0  0  0  0  0
  -11.6490    8.5930    3.3840 F   0  0  0  0  0
  -13.8770    8.0210    2.0100 F   0  0  0  0  0
  -16.1470    7.8610   -1.4580 N   0  0  0  0  0
  -14.1220    7.7740   -2.0900 N   0  0  0  0  0
  -15.2960    7.5450   -2.4710 N   0  0  0  0  0
  -20.2140    7.8240   -0.7420 O   0  0  0  0  0
  -21.6460    5.4170   -0.2390 O   0  0  0  0  0
  -17.8940    7.1240    0.7150 O   0  0  0  0  0
  -17.8000    9.8660   -2.5310 O   0  0  0  0  0
  -20.7640   10.2070   -1.7060 S   0  0  0  0  0
  -26.2998    9.3742   -5.3351 H   0  0  0  0  0
  -25.1490    9.3717   -6.6940 H   0  0  0  0  0
  -25.4846    7.8635   -5.8087 H   0  0  0  0  0
  -24.3476   11.3979   -4.8671 H   0  0  0  0  0
  -22.5371   11.8992   -3.3132 H   0  0  0  0  0
  -23.7164    7.2294   -4.2759 H   0  0  0  0  0
  -21.9096    7.7404   -2.7074 H   0  0  0  0  0
  -19.8321    8.2213   -2.6815 H   0  0  0  0  0
  -19.7370    6.1669   -1.8969 H   0  0  0  0  0
  -20.2240    5.9841    1.0958 H   0  0  0  0  0
  -19.7994    4.6120    0.0199 H   0  0  0  0  0
  -17.5892    5.7243   -0.6698 H   0  0  0  0  0
  -17.7830    7.3090   -2.6059 H   0  0  0  0  0
  -15.8240    8.6421    0.5891 H   0  0  0  0  0
  -18.1008    9.5925   -0.5436 H   0  0  0  0  0
  -22.0516    4.8059    0.3804 H   0  0  0  0  0
  -16.9510    7.1983    0.8789 H   0  0  0  0  0
  -16.8769   10.0821   -2.3800 H   0  0  0  0  0
  1  2  4  0  0  0
 16  1  1  0  0  0
  1 20  4  0  0  0
  2 17  4  0  0  0
  2 22  1  0  0  0
  4  3  1  0  0  0
  5  4  4  0  0  0
  7  4  4  0  0  0
  6  5  4  0  0  0
  9  6  4  0  0  0
  8  7  4  0  0  0
  9  8  4  0  0  0
 34  9  1  0  0  0
 21 10  1  0  0  0
 10 30  1  0  0  0
 10 34  1  0  0  0
 11 12  1  0  0  0
 13 11  1  0  0  0
 11 30  1  0  0  0
 12 31  1  0  0  0
 14 13  1  0  0  0
 13 32  1  0  0  0
 14 21  1  0  0  0
 27 14  1  0  0  0
 15 16  4  0  0  0
 15 27  4  0  0  0
 16 28  4  0  0  0
 17 18  4  0  0  0
 17 23  1  0  0  0
 18 19  4  0  0  0
 18 24  1  0  0  0
 19 20  4  0  0  0
 19 25  1  0  0  0
 20 26  1  0  0  0
 21 33  1  0  0  0
 27 29  4  0  0  0
 28 29  4  0  0  0
  3 35  1  0  0  0
  3 36  1  0  0  0
  3 37  1  0  0  0
  5 38  1  0  0  0
  6 39  1  0  0  0
  7 40  1  0  0  0
  8 41  1  0  0  0
 10 42  1  0  0  0
 11 43  1  0  0  0
 12 44  1  0  0  0
 12 45  1  0  0  0
 13 46  1  0  0  0
 14 47  1  0  0  0
 15 48  1  0  0  0
 21 49  1  0  0  0
 31 50  1  0  0  0
 32 51  1  0  0  0
 33 52  1  0  0  0
M  END
$$$$
