1ppi_ligand
  -I-interpret- 

109113  0  0  0  0  0  0  0  0999 V2000
   -6.4470   42.0170   20.3790 C   0  0  0  0  0
   -7.2950   40.8830   19.8840 C   0  0  0  0  0
   -8.3870   41.3930   19.0000 C   0  0  0  0  0
   -9.1730   42.4470   19.7670 C   0  0  0  0  0
   -8.2210   43.5230   20.3360 C   0  0  0  0  0
   -8.9970   44.4170   21.2840 C   0  0  0  0  0
   -6.5080   39.9780   19.1370 O   0  0  0  0  0
   -9.2470   40.3370   18.5590 O   0  0  0  0  0
  -10.0910   43.0080   18.8680 O   0  0  0  0  0
   -7.1860   42.9170   21.1020 O   0  0  0  0  0
   -8.6980   45.7520   20.9370 O   0  0  0  0  0
   -1.6780   43.2060   19.0060 C   0  0  0  0  0
   -2.3270   41.9370   18.4130 C   0  0  0  0  0
   -3.8250   42.0960   18.1490 C   0  0  0  0  0
   -4.4510   42.5740   19.4330 C   0  0  0  0  0
   -3.8220   43.9250   19.7940 C   0  0  0  0  0
   -4.4500   44.6300   20.9810 C   0  0  0  0  0
   -1.6970   41.6770   17.1770 O   0  0  0  0  0
   -4.3490   40.8450   17.7320 O   0  0  0  0  0
   -5.8350   42.6370   19.2750 O   0  0  0  0  0
   -2.4280   43.7140   20.0910 O   0  0  0  0  0
   -4.4360   43.8180   22.1390 O   0  0  0  0  0
   -1.8510   45.3880   11.6290 C   0  0  0  0  0
   -1.2850   46.7440   12.0960 C   0  0  0  0  0
    0.0420   46.6070   12.8510 C   0  0  0  0  0
   -0.1160   45.5480   13.9590 C   0  0  0  0  0
   -0.5370   44.2380   13.3000 C   0  0  0  0  0
   -0.6720   43.1510   14.3080 C   0  0  0  0  0
   -1.0150   47.6070   10.9840 O   0  0  0  0  0
    0.3800   47.8830   13.3550 O   0  0  0  0  0
   -1.8110   44.4050   12.6750 O   0  0  0  0  0
    1.1260   45.3300   14.7210 N   0  3  0  0  0
    1.2800   46.1780   15.9140 C   0  0  0  0  0
    1.8920   45.3700   17.0860 C   0  0  0  0  0
    0.9000   44.2990   17.5130 C   0  0  0  0  0
   -0.3440   44.9730   18.1520 C   0  0  0  0  0
   -0.6410   46.3460   17.5390 C   0  0  0  0  0
   -0.0080   46.8420   16.4430 C   0  0  0  0  0
   -1.6590   47.2330   18.2330 C   0  0  0  0  0
    3.1140   44.7660   16.7790 O   0  0  0  0  0
    1.5420   43.4180   18.4160 O   0  0  0  0  0
   -1.5160   44.1700   17.9860 O   0  0  0  0  0
   -0.9520   47.9890   19.2210 O   0  0  0  0  0
   -1.8550   43.4380    6.9130 C   0  0  0  0  0
   -1.7700   44.9480    6.9870 C   0  0  0  0  0
   -1.0550   45.2740    8.2450 C   0  0  0  0  0
   -1.8850   44.7240    9.3540 C   0  0  0  0  0
   -2.1290   43.2010    9.2180 C   0  0  0  0  0
   -3.1180   42.6780   10.2650 C   0  0  0  0  0
   -2.3840   43.0410    5.6870 O   0  0  0  0  0
   -1.0960   45.4900    5.8630 O   0  0  0  0  0
   -0.8810   46.6760    8.3050 O   0  0  0  0  0
   -1.1020   44.9690   10.4940 O   0  0  0  0  0
   -2.6850   42.9630    7.9420 O   0  0  0  0  0
   -4.4240   43.2090   10.0430 O   0  0  0  0  0
   -5.6822   41.6268   21.0504 H   0  0  0  0  0
   -7.7249   40.3818   20.7512 H   0  0  0  0  0
   -7.9474   41.8325   18.1046 H   0  0  0  0  0
   -9.6950   42.0055   20.6159 H   0  0  0  0  0
   -7.8003   44.0827   19.5006 H   0  0  0  0  0
   -8.7153   44.2167   22.3177 H   0  0  0  0  0
  -10.0673   44.2288   21.1996 H   0  0  0  0  0
   -5.8000   39.6395   19.6899 H   0  0  0  0  0
   -8.7311   39.6852   18.0788 H   0  0  0  0  0
  -10.6685   42.3193   18.5307 H   0  0  0  0  0
   -9.1747   46.3474   21.5199 H   0  0  0  0  0
   -0.6963   42.9481   19.4033 H   0  0  0  0  0
   -2.2044   41.1301   19.1355 H   0  0  0  0  0
   -4.0351   42.8176   17.3595 H   0  0  0  0  0
   -4.2627   41.8864   20.2576 H   0  0  0  0  0
   -3.9861   44.5699   18.9307 H   0  0  0  0  0
   -5.4868   44.8596   20.7350 H   0  0  0  0  0
   -3.8753   45.5329   21.1876 H   0  0  0  0  0
   -2.0809   40.8904   16.7826 H   0  0  0  0  0
   -5.2899   40.9336   17.5634 H   0  0  0  0  0
   -4.8399   44.2948   22.8677 H   0  0  0  0  0
   -2.9018   45.5015   11.3625 H   0  0  0  0  0
   -2.0532   47.1541   12.7515 H   0  0  0  0  0
    0.8510   46.2684   12.2037 H   0  0  0  0  0
   -0.8640   45.9047   14.6671 H   0  0  0  0  0
    0.2290   43.9720   12.5716 H   0  0  0  0  0
    0.2850   42.9993   14.8073 H   0  0  0  0  0
   -1.4265   43.4307   15.0432 H   0  0  0  0  0
   -0.9729   42.2298   13.8090 H   0  0  0  0  0
   -0.6647   48.4410   11.3053 H   0  0  0  0  0
    1.2099   47.8270   13.8342 H   0  0  0  0  0
    1.8991   45.5577   14.0958 H   0  0  0  0  0
    1.1060   44.3637   15.0469 H   0  0  0  0  0
    1.9335   46.9786   15.5676 H   0  0  0  0  0
    2.0913   46.0799   17.8887 H   0  0  0  0  0
    0.5595   43.7220   16.6532 H   0  0  0  0  0
   -0.1026   45.0866   19.2089 H   0  0  0  0  0
   -0.4139   47.7161   15.9338 H   0  0  0  0  0
   -2.4421   46.6320   18.6952 H   0  0  0  0  0
   -2.1453   47.8949   17.5165 H   0  0  0  0  0
    3.4335   44.2850   17.5459 H   0  0  0  0  0
    0.9235   42.7376   18.6917 H   0  0  0  0  0
   -1.5666   48.5642   19.6825 H   0  0  0  0  0
   -0.8512   43.0273    7.0214 H   0  0  0  0  0
   -2.7682   45.3858    6.9795 H   0  0  0  0  0
   -0.0591   44.8361    8.3120 H   0  0  0  0  0
   -2.8751   45.1794    9.3750 H   0  0  0  0  0
   -1.1771   42.6895    9.3611 H   0  0  0  0  0
   -2.7777   42.9869   11.2534 H   0  0  0  0  0
   -3.1644   41.5915   10.1910 H   0  0  0  0  0
   -1.8219   43.3621    4.9781 H   0  0  0  0  0
   -1.0606   46.4460    5.9429 H   0  0  0  0  0
   -0.4189   46.9056    9.1145 H   0  0  0  0  0
   -5.0245   42.8678   10.7098 H   0  0  0  0  0
  1 10  1  0  0  0
  1  2  1  0  0  0
  2  7  1  0  0  0
  2  3  1  0  0  0
  3  8  1  0  0  0
  3  4  1  0  0  0
  4  9  1  0  0  0
  5  4  1  0  0  0
 10  5  1  0  0  0
  5  6  1  0  0  0
  6 11  1  0  0  0
 12 21  1  0  0  0
 12 13  1  0  0  0
 13 18  1  0  0  0
 13 14  1  0  0  0
 14 19  1  0  0  0
 14 15  1  0  0  0
 15 20  1  0  0  0
 16 15  1  0  0  0
 21 16  1  0  0  0
 16 17  1  0  0  0
 17 22  1  0  0  0
 23 31  1  0  0  0
 23 24  1  0  0  0
 24 29  1  0  0  0
 24 25  1  0  0  0
 25 30  1  0  0  0
 25 26  1  0  0  0
 26 32  1  0  0  0
 27 26  1  0  0  0
 31 27  1  0  0  0
 27 28  1  0  0  0
 32 33  1  0  0  0
 33 38  1  0  0  0
 33 34  1  0  0  0
 34 40  1  0  0  0
 34 35  1  0  0  0
 35 41  1  0  0  0
 35 36  1  0  0  0
 36 42  1  0  0  0
 37 36  1  0  0  0
 37 39  1  0  0  0
 38 37  2  0  0  0
 39 43  1  0  0  0
 54 44  1  0  0  0
 44 50  1  0  0  0
 45 44  1  0  0  0
 45 51  1  0  0  0
 46 45  1  0  0  0
 46 52  1  0  0  0
 47 46  1  0  0  0
 53 47  1  0  0  0
 47 48  1  0  0  0
 48 54  1  0  0  0
 48 49  1  0  0  0
 49 55  1  0  0  0
 20  1  1  0  0  0
 42 12  1  0  0  0
 53 23  1  0  0  0
  1 56  1  0  0  0
  2 57  1  0  0  0
  3 58  1  0  0  0
  4 59  1  0  0  0
  5 60  1  0  0  0
  6 61  1  0  0  0
  6 62  1  0  0  0
  7 63  1  0  0  0
  8 64  1  0  0  0
  9 65  1  0  0  0
 11 66  1  0  0  0
 12 67  1  0  0  0
 13 68  1  0  0  0
 14 69  1  0  0  0
 15 70  1  0  0  0
 16 71  1  0  0  0
 17 72  1  0  0  0
 17 73  1  0  0  0
 18 74  1  0  0  0
 19 75  1  0  0  0
 22 76  1  0  0  0
 23 77  1  0  0  0
 24 78  1  0  0  0
 25 79  1  0  0  0
 26 80  1  0  0  0
 27 81  1  0  0  0
 28 82  1  0  0  0
 28 83  1  0  0  0
 28 84  1  0  0  0
 29 85  1  0  0  0
 30 86  1  0  0  0
 32 87  1  0  0  0
 32 88  1  0  0  0
 33 89  1  0  0  0
 34 90  1  0  0  0
 35 91  1  0  0  0
 36 92  1  0  0  0
 38 93  1  0  0  0
 39 94  1  0  0  0
 39 95  1  0  0  0
 40 96  1  0  0  0
 41 97  1  0  0  0
 43 98  1  0  0  0
 44 99  1  0  0  0
 45100  1  0  0  0
 46101  1  0  0  0
 47102  1  0  0  0
 48103  1  0  0  0
 49104  1  0  0  0
 49105  1  0  0  0
 50106  1  0  0  0
 51107  1  0  0  0
 52108  1  0  0  0
 55109  1  0  0  0
M  END
$$$$
