### 
### Created by X-TOOL on Mon Sep 10 21:13:00 2018
### 

@<TRIPOS>MOLECULE
2vwf_ligand
  240   243     1     0     0
SMALL
GAST_HUCK


@<TRIPOS>ATOM
      1 N         -19.8790    6.3070    2.2950 N.4       1 ILE         0.2381
      2 CA        -18.6160    7.0980    2.3440 C.3       1 ILE         0.0676
      3 C         -17.4270    6.1790    2.3830 C.2       1 ILE         0.2270
      4 O         -17.3880    5.2760    3.1910 O.2       1 ILE        -0.3907
      5 CB        -18.5670    8.0220    3.5580 C.3       1 ILE         0.0164
      6 CG1       -19.7050    9.0460    3.4540 C.3       1 ILE        -0.0460
      7 CG2       -17.2010    8.6990    3.6610 C.3       1 ILE        -0.0551
      8 CD1       -19.5680   10.2050    4.3400 C.3       1 ILE        -0.0647
      9 N         -16.4680    6.3980    1.4970 N.am      1 GLN        -0.2609
     10 CA        -15.2990    5.5300    1.4380 C.3       1 GLN         0.1333
     11 C         -14.1330    6.2210    0.7760 C.2       1 GLN         0.2065
     12 O         -14.3210    6.8940   -0.2390 O.2       1 GLN        -0.3942
     13 CB        -15.6000    4.2980    0.6190 C.3       1 GLN         0.0045
     14 CG        -14.5440    3.2640    0.7700 C.3       1 GLN         0.0412
     15 CD        -14.6990    2.1200   -0.2110 C.2       1 GLN         0.1737
     16 OE1       -15.6870    2.0310   -0.9600 O.2       1 GLN        -0.3973
     17 NE2       -13.6980    1.2470   -0.2330 N.am      1 GLN        -0.3009
     18 N         -12.9230    6.0440    1.3230 N.am      1 PRO        -0.2498
     19 CA        -11.7770    6.7010    0.7030 C.3       1 PRO         0.1340
     20 C         -11.5910    6.2720   -0.7320 C.2       1 PRO         0.2066
     21 O         -11.8150    5.1190   -1.0530 O.2       1 PRO        -0.3942
     22 CB        -10.5830    6.2470    1.5580 C.3       1 PRO        -0.0104
     23 CG        -11.1370    5.8410    2.8610 C.3       1 PRO        -0.0281
     24 CD        -12.5500    5.3260    2.5610 C.3       1 PRO         0.0369
     25 N         -11.2050    7.1860   -1.6140 N.am      1 PRO        -0.2498
     26 CA        -10.9250    6.8130   -3.0110 C.3       1 PRO         0.1340
     27 C          -9.7760    5.8370   -3.1960 C.2       1 PRO         0.2066
     28 O          -8.9140    5.7570   -2.3660 O.2       1 PRO        -0.3942
     29 CB        -10.5230    8.1410   -3.6520 C.3       1 PRO        -0.0104
     30 CG        -10.9970    9.1910   -2.7800 C.3       1 PRO        -0.0281
     31 CD        -11.0850    8.6390   -1.3990 C.3       1 PRO         0.0369
     32 N          -9.7540    5.1010   -4.3090 N.am      1 PRO        -0.2498
     33 CA         -8.6010    4.2320   -4.5330 C.3       1 PRO         0.1338
     34 C          -7.3970    5.1130   -4.7420 C.2       1 PRO         0.2041
     35 O          -7.5320    6.1920   -5.3040 O.2       1 PRO        -0.3944
     36 CB         -8.9650    3.4830   -5.8310 C.3       1 PRO        -0.0104
     37 CG        -10.0380    4.2640   -6.4410 C.3       1 PRO        -0.0281
     38 CD        -10.7680    4.9890   -5.3760 C.3       1 PRO         0.0369
     39 N          -6.2390    4.6480   -4.2710 N.am      1 VAL        -0.2635
     40 CA         -4.9690    5.3530   -4.3820 C.3       1 VAL         0.1333
     41 C          -4.2440    4.8410   -5.6390 C.2       1 VAL         0.2043
     42 O          -4.0370    3.6180   -5.7980 O.2       1 VAL        -0.3944
     43 CB         -4.1050    5.1520   -3.1240 C.3       1 VAL        -0.0063
     44 CG1        -2.7790    5.8940   -3.2330 C.3       1 VAL        -0.0584
     45 CG2        -4.9050    5.5710   -1.8420 C.3       1 VAL        -0.0584
     46 N          -3.8770    5.7780   -6.5040 N.am      1 ASN        -0.2616
     47 CA         -3.3850    5.4710   -7.8380 C.3       1 ASN         0.1476
     48 C          -1.9070    5.7490   -7.8920 C.2       1 ASN         0.2063
     49 O          -1.4540    6.8030   -8.3470 O.2       1 ASN        -0.3942
     50 CB         -4.1590    6.3270   -8.8500 C.3       1 ASN         0.0773
     51 CG         -5.6470    6.1320   -8.7290 C.2       1 ASN         0.1780
     52 OD1        -6.1040    4.9880   -8.5990 O.2       1 ASN        -0.3970
     53 ND2        -6.4030    7.2660   -8.6740 N.am      1 ASN        -0.3007
     54 N          -1.1170    4.7820   -7.4140 N.am      1 ARG        -0.2636
     55 CA          0.3030    5.0380   -7.2270 C.3       1 ARG         0.1311
     56 C           1.1100    5.0810   -8.5330 C.2       1 ARG         0.2040
     57 O           2.1850    5.6790   -8.5630 O.2       1 ARG        -0.3944
     58 CB          0.9230    4.0540   -6.2270 C.3       1 ARG        -0.0092
     59 CG          0.4520    4.3160   -4.8200 C.3       1 ARG        -0.0156
     60 CD          1.2100    3.4870   -3.7540 C.3       1 ARG         0.0627
     61 NE          0.9590    4.0660   -2.4260 N.pl3     1 ARG        -0.2723
     62 CZ         -0.1190    3.8180   -1.6900 C.cat     1 ARG         0.2882
     63 NH1        -0.2750    4.4600   -0.5880 N.pl3     1 ARG        -0.2849
     64 NH2        -1.0690    2.9610   -2.0600 N.pl3     1 ARG        -0.2849
     65 N           0.5710    4.5560   -9.6410 N.am      1 ASN        -0.2616
     66 CA          1.3010    4.6260  -10.8940 C.3       1 ASN         0.1476
     67 C           1.2980    6.0500  -11.4340 C.2       1 ASN         0.2063
     68 O           2.0780    6.3790  -12.3170 O.2       1 ASN        -0.3942
     69 CB          0.7300    3.6740  -11.9170 C.3       1 ASN         0.0773
     70 CG          0.9840    2.2510  -11.6010 C.2       1 ASN         0.1780
     71 OD1         2.0700    1.8540  -11.1340 O.2       1 ASN        -0.3970
     72 ND2         0.0250    1.4330  -11.9490 N.am      1 ASN        -0.3007
     73 N           0.4570    6.9070  -10.8660 N.am      1 LEU        -0.2636
     74 CA          0.3880    8.3060  -11.2930 C.3       1 LEU         0.1312
     75 C           1.2600    9.2470  -10.4440 C.2       1 LEU         0.2039
     76 O           1.2460   10.4910  -10.6240 O.2       1 LEU        -0.3944
     77 CB         -1.0490    8.8090  -11.2700 C.3       1 LEU        -0.0101
     78 CG         -2.0330    8.0600  -12.1880 C.3       1 LEU        -0.0425
     79 CD1        -3.4000    8.7210  -12.1070 C.3       1 LEU        -0.0625
     80 CD2        -1.4990    7.9730  -13.6170 C.3       1 LEU        -0.0625
     81 N           2.0530    8.6680   -9.5390 N.am      1 LYS        -0.2637
     82 CA          2.8290    9.5090   -8.6190 C.3       1 LYS         0.1312
     83 C           3.8970   10.2470   -9.3610 C.2       1 LYS         0.2064
     84 O           4.5370    9.6950  -10.2520 O.2       1 LYS        -0.3942
     85 CB          3.4530    8.6850   -7.4830 C.3       1 LYS        -0.0122
     86 CG          2.4450    8.2600   -6.4330 C.3       1 LYS        -0.0440
     87 CD          2.9850    7.3280   -5.3690 C.3       1 LYS        -0.0124
     88 CE          3.8860    8.0300   -4.4420 C.3       1 LYS        -0.0354
     89 NZ          4.4180    7.1200   -3.4710 N.4       1 LYS         0.2185
     90 N           4.1110   11.5170   -8.9960 N.am      1 PRO        -0.2498
     91 CA          5.0550   12.3750   -9.7290 C.3       1 PRO         0.1338
     92 C           6.5100   12.0710   -9.4560 C.2       1 PRO         0.2042
     93 O           7.3840   12.6140  -10.1440 O.2       1 PRO        -0.3944
     94 CB          4.6660   13.7790   -9.2710 C.3       1 PRO        -0.0104
     95 CG          4.0490   13.5580   -7.9150 C.3       1 PRO        -0.0281
     96 CD          3.3590   12.2490   -7.9690 C.3       1 PRO         0.0369
     97 N           6.8040   11.2340   -8.4610 N.am      1 ASP        -0.2622
     98 CA          8.1750   10.7760   -8.2680 C.3       1 ASP         0.1423
     99 C           8.4750    9.5450   -9.1260 C.2       1 ASP         0.2057
    100 O           9.6130    9.0630   -9.0980 O.2       1 ASP        -0.3942
    101 CB          8.4710   10.5520   -6.7840 C.3       1 ASP         0.0406
    102 CG          7.5680    9.5470   -6.1450 C.2       1 ASP         0.0393
    103 OD1         7.8400    9.2370   -4.9780 O.co2     1 ASP        -0.5688
    104 OD2         6.5890    9.0530   -6.7780 O.co2     1 ASP        -0.5688
    105 N           7.4730    9.0540   -9.8880 N.am      1 ARG        -0.2649
    106 CA          7.6540    8.0090  -10.9390 C.3       1 ARG         0.1129
    107 C           7.8240    8.6430  -12.3220 C.2       1 ARG         0.1245
    108 O           8.4480    9.7100  -12.4440 O.2       1 ARG        -0.3725
    109 CB          6.4610    7.0470  -11.0130 C.3       1 ARG        -0.0105
    110 CG          6.5260    5.7800  -10.1980 C.3       1 ARG        -0.0155
    111 CD          5.8390    5.9050   -8.8800 C.3       1 ARG         0.0627
    112 NE          5.2820    4.6410   -8.3750 N.pl3     1 ARG        -0.2723
    113 CZ          5.0340    4.3660   -7.0980 C.cat     1 ARG         0.2882
    114 NH1         5.3310    5.2750   -6.1680 N.pl3     1 ARG        -0.2849
    115 NH2         4.5310    3.1580   -6.7200 N.pl3     1 ARG        -0.2849
    116 H1        -19.8714    5.7119    1.4814 H         1 ILE         0.2015
    117 H2        -20.6666    6.9342    2.2452 H         1 ILE         0.2015
    118 H3        -19.9529    5.7401    3.1252 H         1 ILE         0.2015
    119 H4        -18.5598    7.7136    1.4342 H         1 ILE         0.1101
    120 H5        -18.7212    7.4207    4.4661 H         1 ILE         0.0378
    121 H6        -20.6483    8.5363    3.6999 H         1 ILE         0.0269
    122 H7        -19.7446    9.4103    2.4168 H         1 ILE         0.0269
    123 H8        -16.4161    7.9318    3.7334 H         1 ILE         0.0236
    124 H9        -17.1743    9.3365    4.5570 H         1 ILE         0.0236
    125 H10       -17.0292    9.3160    2.7667 H         1 ILE         0.0236
    126 H11       -20.4248   10.8797    4.1962 H         1 ILE         0.0230
    127 H12       -18.6364   10.7397    4.1029 H         1 ILE         0.0230
    128 H13       -19.5401    9.8657    5.3860 H         1 ILE         0.0230
    129 H14       -16.5466    7.1666    0.8621 H         1 GLN         0.1885
    130 H15       -15.0211    5.2376    2.4614 H         1 GLN         0.0801
    131 H16       -15.6700    4.5833   -0.4410 H         1 GLN         0.0337
    132 H17       -16.5608    3.8766    0.9495 H         1 GLN         0.0337
    133 H18       -14.5914    2.8597    1.7919 H         1 GLN         0.0504
    134 H19       -13.5638    3.7361    0.6075 H         1 GLN         0.0504
    135 H20       -13.7301    0.4651   -0.8556 H         1 GLN         0.1814
    136 H21       -12.9124    1.3717    0.3730 H         1 GLN         0.1814
    137 H22       -11.8921    7.7943    0.7421 H         1 PRO         0.0802
    138 H23        -9.8713    7.0755    1.6885 H         1 PRO         0.0313
    139 H24       -10.0733    5.3976    1.0797 H         1 PRO         0.0313
    140 H25       -11.1783    6.7005    3.5462 H         1 PRO         0.0287
    141 H26       -10.5242    5.0445    3.3083 H         1 PRO         0.0287
    142 H27       -12.5458    4.2381    2.3986 H         1 PRO         0.0524
    143 H28       -13.2405    5.5716    3.3813 H         1 PRO         0.0524
    144 H29       -11.8297    6.3972   -3.4786 H         1 PRO         0.0802
    145 H30       -10.9862    8.2368   -4.6451 H         1 PRO         0.0313
    146 H31        -9.4289    8.1970   -3.7507 H         1 PRO         0.0313
    147 H32       -11.9899    9.5304   -3.1101 H         1 PRO         0.0287
    148 H33       -10.2949   10.0375   -2.7994 H         1 PRO         0.0287
    149 H34       -10.1791    8.8773   -0.8223 H         1 PRO         0.0524
    150 H35       -11.9679    9.0327   -0.8742 H         1 PRO         0.0524
    151 H36        -8.4347    3.5365   -3.6972 H         1 PRO         0.0802
    152 H37        -9.3120    2.4643   -5.6033 H         1 PRO         0.0313
    153 H38        -8.0957    3.4326   -6.5031 H         1 PRO         0.0313
    154 H39       -10.7291    3.5917   -6.9705 H         1 PRO         0.0287
    155 H40        -9.6108    4.9856   -7.1529 H         1 PRO         0.0287
    156 H41       -11.0918    5.9817   -5.7218 H         1 PRO         0.0524
    157 H42       -11.6428    4.4165   -5.0339 H         1 PRO         0.0524
    158 H43        -6.2428    3.7592   -3.8127 H         1 VAL         0.1883
    159 H44        -5.1674    6.4288   -4.4971 H         1 VAL         0.0802
    160 H45        -3.8773    4.0791   -3.0406 H         1 VAL         0.0343
    161 H46        -2.1898    5.7281   -2.3190 H         1 VAL         0.0234
    162 H47        -2.9701    6.9703   -3.3557 H         1 VAL         0.0234
    163 H48        -2.2196    5.5194   -4.1029 H         1 VAL         0.0234
    164 H49        -5.8524    5.0135   -1.8025 H         1 VAL         0.0234
    165 H50        -5.1158    6.6500   -1.8776 H         1 VAL         0.0234
    166 H51        -4.3081    5.3434   -0.9466 H         1 VAL         0.0234
    167 H52        -3.9415    6.7366   -6.2268 H         1 ASN         0.1885
    168 H53        -3.5575    4.4075   -8.0598 H         1 ASN         0.0826
    169 H54        -3.8452    6.0467   -9.8663 H         1 ASN         0.0551
    170 H55        -3.9238    7.3868   -8.6728 H         1 ASN         0.0551
    171 H56        -7.3976    7.2004   -8.5935 H         1 ASN         0.1814
    172 H57        -5.9627    8.1629   -8.7142 H         1 ASN         0.1814
    173 H58        -1.5003    3.8870   -7.1861 H         1 ARG         0.1883
    174 H59         0.3807    6.0403   -6.7805 H         1 ARG         0.0800
    175 H60         2.0179    4.1545   -6.2606 H         1 ARG         0.0313
    176 H61         0.6398    3.0302   -6.5125 H         1 ARG         0.0313
    177 H62        -0.6180    4.0682   -4.7585 H         1 ARG         0.0301
    178 H63         0.5945    5.3838   -4.5976 H         1 ARG         0.0301
    179 H64         2.2887    3.5102   -3.9679 H         1 ARG         0.0689
    180 H65         0.8542    2.4463   -3.7752 H         1 ARG         0.0689
    181 H66         1.6667    4.7072   -2.0402 H         1 ARG         0.2642
    182 H67        -1.1034    4.2834   -0.0019 H         1 ARG         0.2615
    183 H68         0.4283    5.1513   -0.2907 H         1 ARG         0.2615
    184 H69        -0.9717    2.4320   -2.9384 H         1 ARG         0.2615
    185 H70        -1.9010    2.8273   -1.4678 H         1 ARG         0.2615
    186 H71        -0.3277    4.1190   -9.6055 H         1 ASN         0.1885
    187 H72         2.3432    4.3332  -10.6989 H         1 ASN         0.0826
    188 H73         1.1815    3.9002  -12.8942 H         1 ASN         0.0551
    189 H74        -0.3575    3.8306  -11.9705 H         1 ASN         0.0551
    190 H75         0.1150    0.4529  -11.7721 H         1 ASN         0.1814
    191 H76        -0.7984    1.7875  -12.3921 H         1 ASN         0.1814
    192 H77        -0.1421    6.5899  -10.1308 H         1 LEU         0.1883
    193 H78         0.7537    8.3525  -12.3294 H         1 LEU         0.0800
    194 H79        -1.0420    9.8664  -11.5732 H         1 LEU         0.0315
    195 H80        -1.4198    8.7259  -10.2377 H         1 LEU         0.0315
    196 H81        -2.1351    7.0313  -11.8121 H         1 LEU         0.0298
    197 H82        -4.1046    8.1876  -12.7620 H         1 LEU         0.0232
    198 H83        -3.3202    9.7692  -12.4308 H         1 LEU         0.0232
    199 H84        -3.7642    8.6843  -11.0697 H         1 LEU         0.0232
    200 H85        -0.5119    7.4877  -13.6106 H         1 LEU         0.0232
    201 H86        -1.4070    8.9857  -14.0364 H         1 LEU         0.0232
    202 H87        -2.1937    7.3829  -14.2328 H         1 LEU         0.0232
    203 H88         2.1177    7.6714   -9.4883 H         1 LYS         0.1883
    204 H89         2.1451   10.2453   -8.1718 H         1 LYS         0.0800
    205 H90         4.2304    9.2922   -6.9963 H         1 LYS         0.0312
    206 H91         3.9097    7.7825   -7.9153 H         1 LYS         0.0312
    207 H92         1.6145    7.7505   -6.9435 H         1 LYS         0.0269
    208 H93         2.0688    9.1656   -5.9346 H         1 LYS         0.0269
    209 H94         3.5391    6.5123   -5.8565 H         1 LYS         0.0317
    210 H95         2.1421    6.9096   -4.7995 H         1 LYS         0.0317
    211 H96         3.3266    8.8238   -3.9254 H         1 LYS         0.0813
    212 H97         4.7146    8.4764   -5.0114 H         1 LYS         0.0813
    213 H98         5.0321    7.6175   -2.8453 H         1 LYS         0.1994
    214 H99         4.9341    6.3921   -3.9399 H         1 LYS         0.1994
    215 H100        3.6621    6.7104   -2.9447 H         1 LYS         0.1994
    216 H101        4.8859   12.2704  -10.8109 H         1 PRO         0.0802
    217 H102        3.9394   14.2295   -9.9631 H         1 PRO         0.0313
    218 H103        5.5522   14.4265   -9.1972 H         1 PRO         0.0313
    219 H104        3.3275   14.3578   -7.6920 H         1 PRO         0.0287
    220 H105        4.8304   13.5428   -7.1410 H         1 PRO         0.0287
    221 H106        3.4128   11.7342   -6.9984 H         1 PRO         0.0524
    222 H107        2.3057   12.3699   -8.2621 H         1 PRO         0.0524
    223 H108        6.0820   10.9191   -7.8449 H         1 ASP         0.1884
    224 H109        8.8422   11.5795   -8.6132 H         1 ASP         0.0819
    225 H110        8.3551   11.5103   -6.2565 H         1 ASP         0.0478
    226 H111        9.5089   10.2017   -6.6842 H         1 ASP         0.0478
    227 H112        6.5518    9.4133   -9.7386 H         1 ARG         0.1884
    228 H113        8.5587    7.4327  -10.6954 H         1 ARG         0.0790
    229 H114        7.3977    8.1584  -13.1991 H         1 ARG         0.1373
    230 H115        6.3415    6.7534  -12.0663 H         1 ARG         0.0314
    231 H116        5.5707    7.6030  -10.6840 H         1 ARG         0.0314
    232 H117        7.5824    5.5295  -10.0213 H         1 ARG         0.0301
    233 H118        6.0475    4.9702  -10.7683 H         1 ARG         0.0301
    234 H119        5.0167    6.6279   -8.9854 H         1 ARG         0.0689
    235 H120        6.5659    6.2810   -8.1450 H         1 ARG         0.0689
    236 H121        5.0665    3.9091   -9.0670 H         1 ARG         0.2642
    237 H122        5.1444    5.0756   -5.1749 H         1 ARG         0.2615
    238 H123        5.7470    6.1762   -6.4430 H         1 ARG         0.2615
    239 H124        4.2992    2.4510   -7.4322 H         1 ARG         0.2615
    240 H125        4.3824    2.9515   -5.7219 H         1 ARG         0.2615
@<TRIPOS>BOND
     1    1    2 1  
     2    2    3 1  
     3    2    5 1  
     4    3    4 2  
     5    3    9 am 
     6    5    6 1  
     7    5    7 1  
     8    6    8 1  
     9    9   10 1  
    10   10   11 1  
    11   10   13 1  
    12   11   12 2  
    13   11   18 am 
    14   13   14 1  
    15   14   15 1  
    16   15   16 2  
    17   15   17 am 
    18   18   19 1  
    19   18   24 1  
    20   19   20 1  
    21   19   22 1  
    22   20   21 2  
    23   20   25 am 
    24   22   23 1  
    25   23   24 1  
    26   25   26 1  
    27   25   31 1  
    28   26   27 1  
    29   26   29 1  
    30   27   28 2  
    31   27   32 am 
    32   29   30 1  
    33   30   31 1  
    34   32   33 1  
    35   32   38 1  
    36   33   34 1  
    37   33   36 1  
    38   34   35 2  
    39   34   39 am 
    40   36   37 1  
    41   37   38 1  
    42   39   40 1  
    43   40   41 1  
    44   40   43 1  
    45   41   42 2  
    46   41   46 am 
    47   43   44 1  
    48   43   45 1  
    49   46   47 1  
    50   47   48 1  
    51   47   50 1  
    52   48   49 2  
    53   48   54 am 
    54   50   51 1  
    55   51   52 2  
    56   51   53 am 
    57   54   55 1  
    58   55   56 1  
    59   55   58 1  
    60   56   57 2  
    61   56   65 am 
    62   58   59 1  
    63   59   60 1  
    64   60   61 1  
    65   61   62 ar 
    66   62   63 ar 
    67   62   64 ar 
    68   65   66 1  
    69   66   67 1  
    70   66   69 1  
    71   67   68 2  
    72   67   73 am 
    73   69   70 1  
    74   70   71 2  
    75   70   72 am 
    76   73   74 1  
    77   74   75 1  
    78   74   77 1  
    79   75   76 2  
    80   75   81 am 
    81   77   78 1  
    82   78   79 1  
    83   78   80 1  
    84   81   82 1  
    85   82   83 1  
    86   82   85 1  
    87   83   84 2  
    88   83   90 am 
    89   85   86 1  
    90   86   87 1  
    91   87   88 1  
    92   88   89 1  
    93   90   91 1  
    94   90   96 1  
    95   91   92 1  
    96   91   94 1  
    97   92   93 2  
    98   92   97 am 
    99   94   95 1  
   100   95   96 1  
   101   97   98 1  
   102   98   99 1  
   103   98  101 1  
   104   99  100 2  
   105   99  105 am 
   106  101  102 1  
   107  102  103 ar 
   108  102  104 ar 
   109  105  106 1  
   110  106  107 1  
   111  106  109 1  
   112  107  108 2  
   113  109  110 1  
   114  110  111 1  
   115  111  112 1  
   116  112  113 ar 
   117  113  114 ar 
   118  113  115 ar 
   119    1  116 1  
   120    1  117 1  
   121    1  118 1  
   122    2  119 1  
   123    5  120 1  
   124    6  121 1  
   125    6  122 1  
   126    7  123 1  
   127    7  124 1  
   128    7  125 1  
   129    8  126 1  
   130    8  127 1  
   131    8  128 1  
   132    9  129 1  
   133   10  130 1  
   134   13  131 1  
   135   13  132 1  
   136   14  133 1  
   137   14  134 1  
   138   17  135 1  
   139   17  136 1  
   140   19  137 1  
   141   22  138 1  
   142   22  139 1  
   143   23  140 1  
   144   23  141 1  
   145   24  142 1  
   146   24  143 1  
   147   26  144 1  
   148   29  145 1  
   149   29  146 1  
   150   30  147 1  
   151   30  148 1  
   152   31  149 1  
   153   31  150 1  
   154   33  151 1  
   155   36  152 1  
   156   36  153 1  
   157   37  154 1  
   158   37  155 1  
   159   38  156 1  
   160   38  157 1  
   161   39  158 1  
   162   40  159 1  
   163   43  160 1  
   164   44  161 1  
   165   44  162 1  
   166   44  163 1  
   167   45  164 1  
   168   45  165 1  
   169   45  166 1  
   170   46  167 1  
   171   47  168 1  
   172   50  169 1  
   173   50  170 1  
   174   53  171 1  
   175   53  172 1  
   176   54  173 1  
   177   55  174 1  
   178   58  175 1  
   179   58  176 1  
   180   59  177 1  
   181   59  178 1  
   182   60  179 1  
   183   60  180 1  
   184   61  181 1  
   185   63  182 1  
   186   63  183 1  
   187   64  184 1  
   188   64  185 1  
   189   65  186 1  
   190   66  187 1  
   191   69  188 1  
   192   69  189 1  
   193   72  190 1  
   194   72  191 1  
   195   73  192 1  
   196   74  193 1  
   197   77  194 1  
   198   77  195 1  
   199   78  196 1  
   200   79  197 1  
   201   79  198 1  
   202   79  199 1  
   203   80  200 1  
   204   80  201 1  
   205   80  202 1  
   206   81  203 1  
   207   82  204 1  
   208   85  205 1  
   209   85  206 1  
   210   86  207 1  
   211   86  208 1  
   212   87  209 1  
   213   87  210 1  
   214   88  211 1  
   215   88  212 1  
   216   89  213 1  
   217   89  214 1  
   218   89  215 1  
   219   91  216 1  
   220   94  217 1  
   221   94  218 1  
   222   95  219 1  
   223   95  220 1  
   224   96  221 1  
   225   96  222 1  
   226   97  223 1  
   227   98  224 1  
   228  101  225 1  
   229  101  226 1  
   230  105  227 1  
   231  106  228 1  
   232  107  229 1  
   233  109  230 1  
   234  109  231 1  
   235  110  232 1  
   236  110  233 1  
   237  111  234 1  
   238  111  235 1  
   239  112  236 1  
   240  114  237 1  
   241  114  238 1  
   242  115  239 1  
   243  115  240 1  
@<TRIPOS>SUBSTRUCTURE
     1 ILE         1

