2vwf_ligand
  -I-interpret- 

239242  0  0  0  0  0  0  0  0999 V2000
  -19.8790    6.3070    2.2950 N   0  3  0  0  0
  -18.6160    7.0980    2.3440 C   0  0  0  0  0
  -17.4270    6.1790    2.3830 C   0  0  0  0  0
  -17.3880    5.2760    3.1910 O   0  0  0  0  0
  -18.5670    8.0220    3.5580 C   0  0  0  0  0
  -19.7050    9.0460    3.4540 C   0  0  0  0  0
  -17.2010    8.6990    3.6610 C   0  0  0  0  0
  -19.5680   10.2050    4.3400 C   0  0  0  0  0
  -16.4680    6.3980    1.4970 N   0  0  0  0  0
  -15.2990    5.5300    1.4380 C   0  0  0  0  0
  -14.1330    6.2210    0.7760 C   0  0  0  0  0
  -14.3210    6.8940   -0.2390 O   0  0  0  0  0
  -15.6000    4.2980    0.6190 C   0  0  0  0  0
  -14.5440    3.2640    0.7700 C   0  0  0  0  0
  -14.6990    2.1200   -0.2110 C   0  0  0  0  0
  -15.6870    2.0310   -0.9600 O   0  0  0  0  0
  -13.6980    1.2470   -0.2330 N   0  0  0  0  0
  -12.9230    6.0440    1.3230 N   0  0  0  0  0
  -11.7770    6.7010    0.7030 C   0  0  0  0  0
  -11.5910    6.2720   -0.7320 C   0  0  0  0  0
  -11.8150    5.1190   -1.0530 O   0  0  0  0  0
  -10.5830    6.2470    1.5580 C   0  0  0  0  0
  -11.1370    5.8410    2.8610 C   0  0  0  0  0
  -12.5500    5.3260    2.5610 C   0  0  0  0  0
  -11.2050    7.1860   -1.6140 N   0  0  0  0  0
  -10.9250    6.8130   -3.0110 C   0  0  0  0  0
   -9.7760    5.8370   -3.1960 C   0  0  0  0  0
   -8.9140    5.7570   -2.3660 O   0  0  0  0  0
  -10.5230    8.1410   -3.6520 C   0  0  0  0  0
  -10.9970    9.1910   -2.7800 C   0  0  0  0  0
  -11.0850    8.6390   -1.3990 C   0  0  0  0  0
   -9.7540    5.1010   -4.3090 N   0  0  0  0  0
   -8.6010    4.2320   -4.5330 C   0  0  0  0  0
   -7.3970    5.1130   -4.7420 C   0  0  0  0  0
   -7.5320    6.1920   -5.3040 O   0  0  0  0  0
   -8.9650    3.4830   -5.8310 C   0  0  0  0  0
  -10.0380    4.2640   -6.4410 C   0  0  0  0  0
  -10.7680    4.9890   -5.3760 C   0  0  0  0  0
   -6.2390    4.6480   -4.2710 N   0  0  0  0  0
   -4.9690    5.3530   -4.3820 C   0  0  0  0  0
   -4.2440    4.8410   -5.6390 C   0  0  0  0  0
   -4.0370    3.6180   -5.7980 O   0  0  0  0  0
   -4.1050    5.1520   -3.1240 C   0  0  0  0  0
   -2.7790    5.8940   -3.2330 C   0  0  0  0  0
   -4.9050    5.5710   -1.8420 C   0  0  0  0  0
   -3.8770    5.7780   -6.5040 N   0  0  0  0  0
   -3.3850    5.4710   -7.8380 C   0  0  0  0  0
   -1.9070    5.7490   -7.8920 C   0  0  0  0  0
   -1.4540    6.8030   -8.3470 O   0  0  0  0  0
   -4.1590    6.3270   -8.8500 C   0  0  0  0  0
   -5.6470    6.1320   -8.7290 C   0  0  0  0  0
   -6.1040    4.9880   -8.5990 O   0  0  0  0  0
   -6.4030    7.2660   -8.6740 N   0  0  0  0  0
   -1.1170    4.7820   -7.4140 N   0  0  0  0  0
    0.3030    5.0380   -7.2270 C   0  0  0  0  0
    1.1100    5.0810   -8.5330 C   0  0  0  0  0
    2.1850    5.6790   -8.5630 O   0  0  0  0  0
    0.9230    4.0540   -6.2270 C   0  0  0  0  0
    0.4520    4.3160   -4.8200 C   0  0  0  0  0
    1.2100    3.4870   -3.7540 C   0  0  0  0  0
    0.9590    4.0660   -2.4260 N   0  0  0  0  0
   -0.1190    3.8180   -1.6900 C   0  0  0  0  0
   -0.2750    4.4600   -0.5880 N   0  0  0  0  0
   -1.0690    2.9610   -2.0600 N   0  0  0  0  0
    0.5710    4.5560   -9.6410 N   0  0  0  0  0
    1.3010    4.6260  -10.8940 C   0  0  0  0  0
    1.2980    6.0500  -11.4340 C   0  0  0  0  0
    2.0780    6.3790  -12.3170 O   0  0  0  0  0
    0.7300    3.6740  -11.9170 C   0  0  0  0  0
    0.9840    2.2510  -11.6010 C   0  0  0  0  0
    2.0700    1.8540  -11.1340 O   0  0  0  0  0
    0.0250    1.4330  -11.9490 N   0  0  0  0  0
    0.4570    6.9070  -10.8660 N   0  0  0  0  0
    0.3880    8.3060  -11.2930 C   0  0  0  0  0
    1.2600    9.2470  -10.4440 C   0  0  0  0  0
    1.2460   10.4910  -10.6240 O   0  0  0  0  0
   -1.0490    8.8090  -11.2700 C   0  0  0  0  0
   -2.0330    8.0600  -12.1880 C   0  0  0  0  0
   -3.4000    8.7210  -12.1070 C   0  0  0  0  0
   -1.4990    7.9730  -13.6170 C   0  0  0  0  0
    2.0530    8.6680   -9.5390 N   0  0  0  0  0
    2.8290    9.5090   -8.6190 C   0  0  0  0  0
    3.8970   10.2470   -9.3610 C   0  0  0  0  0
    4.5370    9.6950  -10.2520 O   0  0  0  0  0
    3.4530    8.6850   -7.4830 C   0  0  0  0  0
    2.4450    8.2600   -6.4330 C   0  0  0  0  0
    2.9850    7.3280   -5.3690 C   0  0  0  0  0
    3.8860    8.0300   -4.4420 C   0  0  0  0  0
    4.4180    7.1200   -3.4710 N   0  3  0  0  0
    4.1110   11.5170   -8.9960 N   0  0  0  0  0
    5.0550   12.3750   -9.7290 C   0  0  0  0  0
    6.5100   12.0710   -9.4560 C   0  0  0  0  0
    7.3840   12.6140  -10.1440 O   0  0  0  0  0
    4.6660   13.7790   -9.2710 C   0  0  0  0  0
    4.0490   13.5580   -7.9150 C   0  0  0  0  0
    3.3590   12.2490   -7.9690 C   0  0  0  0  0
    6.8040   11.2340   -8.4610 N   0  0  0  0  0
    8.1750   10.7760   -8.2680 C   0  0  0  0  0
    8.4750    9.5450   -9.1260 C   0  0  0  0  0
    9.6130    9.0630   -9.0980 O   0  0  0  0  0
    8.4710   10.5520   -6.7840 C   0  0  0  0  0
    7.5680    9.5470   -6.1450 C   0  0  0  0  0
    7.8400    9.2370   -4.9780 O   0  0  0  0  0
    6.5890    9.0530   -6.7780 O   0  0  0  0  0
    7.4730    9.0540   -9.8880 N   0  0  0  0  0
    7.6540    8.0090  -10.9390 C   0  0  0  0  0
    7.8240    8.6430  -12.3220 C   0  0  0  0  0
    8.4480    9.7100  -12.4440 O   0  0  0  0  0
    6.4610    7.0470  -11.0130 C   0  0  0  0  0
    6.5260    5.7800  -10.1980 C   0  0  0  0  0
    5.8390    5.9050   -8.8800 C   0  0  0  0  0
    5.2820    4.6410   -8.3750 N   0  0  0  0  0
    5.0340    4.3660   -7.0980 C   0  0  0  0  0
    5.3310    5.2750   -6.1680 N   0  0  0  0  0
    4.5310    3.1580   -6.7200 N   0  0  0  0  0
  -19.8702    5.7053    1.4714 H   0  0  0  0  0
  -19.9526    5.7339    3.1355 H   0  0  0  0  0
  -20.6751    6.9426    2.2446 H   0  0  0  0  0
  -18.5886    7.7110    1.4431 H   0  0  0  0  0
  -18.7049    7.4426    4.4709 H   0  0  0  0  0
  -20.6218    8.5321    3.7430 H   0  0  0  0  0
  -19.6985    9.4251    2.4321 H   0  0  0  0  0
  -17.0320    9.3101    2.7744 H   0  0  0  0  0
  -17.1759    9.3304    4.5492 H   0  0  0  0  0
  -16.4241    7.9378    3.7327 H   0  0  0  0  0
  -19.5404    9.8675    5.3761 H   0  0  0  0  0
  -18.6446   10.7339    4.1041 H   0  0  0  0  0
  -20.4175   10.8728    4.1966 H   0  0  0  0  0
  -16.5482    7.1819    0.8494 H   0  0  0  0  0
  -15.0491    5.2701    2.4666 H   0  0  0  0  0
  -15.6485    4.5877   -0.4307 H   0  0  0  0  0
  -16.5436    3.8775    0.9666 H   0  0  0  0  0
  -14.6201    2.8533    1.7768 H   0  0  0  0  0
  -13.5816    3.7391    0.5798 H   0  0  0  0  0
  -13.7199    0.4622   -0.8842 H   0  0  0  0  0
  -12.9075    1.3614    0.4013 H   0  0  0  0  0
  -11.8976    7.7838    0.6711 H   0  0  0  0  0
   -9.8565    7.0512    1.6747 H   0  0  0  0  0
  -10.0528    5.4213    1.0834 H   0  0  0  0  0
  -11.1556    6.6733    3.5646 H   0  0  0  0  0
  -10.5240    5.0743    3.3349 H   0  0  0  0  0
  -12.5837    4.2430    2.4424 H   0  0  0  0  0
  -13.2457    5.5138    3.3788 H   0  0  0  0  0
  -11.7934    6.3109   -3.4375 H   0  0  0  0  0
  -10.9604    8.2378   -4.6457 H   0  0  0  0  0
   -9.4413    8.1991   -3.7733 H   0  0  0  0  0
  -11.9759    9.5400   -3.1088 H   0  0  0  0  0
  -10.3113   10.0380   -2.8037 H   0  0  0  0  0
  -10.2199    8.9003   -0.7896 H   0  0  0  0  0
  -11.9257    9.0485   -0.8390 H   0  0  0  0  0
   -8.3777    3.5463   -3.7157 H   0  0  0  0  0
   -9.2803    2.4596   -5.6278 H   0  0  0  0  0
   -8.1062    3.3942   -6.4964 H   0  0  0  0  0
  -10.7217    3.6005   -6.9705 H   0  0  0  0  0
   -9.6177    4.9767   -7.1506 H   0  0  0  0  0
  -11.1501    5.9558   -5.7037 H   0  0  0  0  0
  -11.6720    4.4732   -5.0522 H   0  0  0  0  0
   -6.2429    3.7414   -3.8035 H   0  0  0  0  0
   -5.1507    6.4243   -4.4686 H   0  0  0  0  0
   -3.8643    4.0923   -3.0386 H   0  0  0  0  0
   -2.2257    5.5219   -4.0953 H   0  0  0  0  0
   -2.9697    6.9603   -3.3545 H   0  0  0  0  0
   -2.1961    5.7288   -2.3269 H   0  0  0  0  0
   -5.1857    6.6215   -1.9176 H   0  0  0  0  0
   -5.8030    4.9587   -1.7594 H   0  0  0  0  0
   -4.2804    5.4230   -0.9610 H   0  0  0  0  0
   -3.9427    6.7558   -6.2212 H   0  0  0  0  0
   -3.5389    4.4200   -8.0826 H   0  0  0  0  0
   -3.8557    6.0277   -9.8533 H   0  0  0  0  0
   -3.9347    7.3753   -8.6530 H   0  0  0  0  0
   -7.4089    7.2013   -8.5176 H   0  0  0  0  0
   -5.9625    8.1787   -8.7893 H   0  0  0  0  0
   -1.5080    3.8691   -7.1815 H   0  0  0  0  0
    0.3620    6.0436   -6.8106 H   0  0  0  0  0
    2.0060    4.1744   -6.2540 H   0  0  0  0  0
    0.6213    3.0447   -6.5072 H   0  0  0  0  0
   -0.6000    4.0354   -4.7678 H   0  0  0  0  0
    0.6297    5.3696   -4.6046 H   0  0  0  0  0
    2.2789    3.5065   -3.9664 H   0  0  0  0  0
    0.8607    2.4547   -3.7758 H   0  0  0  0  0
    1.6599    4.7010   -2.0439 H   0  0  0  0  0
    0.4215    5.1445   -0.2936 H   0  0  0  0  0
   -1.8929    2.8286   -1.4735 H   0  0  0  0  0
   -0.9726    2.4371   -2.9299 H   0  0  0  0  0
   -0.3457    4.1102   -9.6048 H   0  0  0  0  0
    2.3306    4.3273  -10.6967 H   0  0  0  0  0
    1.2107    3.8897  -12.8712 H   0  0  0  0  0
   -0.3502    3.8192  -11.9343 H   0  0  0  0  0
    0.1496    0.4263  -11.8424 H   0  0  0  0  0
   -0.8477    1.8017  -12.3270 H   0  0  0  0  0
   -0.1541    6.5836  -10.1161 H   0  0  0  0  0
    0.7788    8.3218  -12.3104 H   0  0  0  0  0
   -1.0211    9.8399  -11.6229 H   0  0  0  0  0
   -1.4092    8.6683  -10.2509 H   0  0  0  0  0
   -2.1395    7.0301  -11.8473 H   0  0  0  0  0
   -3.7597    8.6840  -11.0787 H   0  0  0  0  0
   -3.3196    9.7595  -12.4280 H   0  0  0  0  0
   -4.0972    8.1916  -12.7564 H   0  0  0  0  0
   -1.3524    8.9788  -14.0106 H   0  0  0  0  0
   -0.5485    7.4396  -13.6165 H   0  0  0  0  0
   -2.2165    7.4388  -14.2398 H   0  0  0  0  0
    2.1190    7.6515   -9.4873 H   0  0  0  0  0
    2.1397   10.2259   -8.1729 H   0  0  0  0  0
    4.1991    9.3098   -6.9920 H   0  0  0  0  0
    3.8744    7.7809   -7.9226 H   0  0  0  0  0
    1.6558    7.7187   -6.9548 H   0  0  0  0  0
    2.1208    9.1668   -5.9224 H   0  0  0  0  0
    3.5465    6.5331   -5.8598 H   0  0  0  0  0
    2.1446    6.9318   -4.7991 H   0  0  0  0  0
    3.3252    8.8094   -3.9261 H   0  0  0  0  0
    4.7098    8.4629   -5.0095 H   0  0  0  0  0
    5.0392    7.6245   -2.8385 H   0  0  0  0  0
    3.6523    6.7062   -2.9392 H   0  0  0  0  0
    4.9399    6.3840   -3.9467 H   0  0  0  0  0
    4.9819   12.2264  -10.8063 H   0  0  0  0  0
    3.9800   14.2659   -9.9641 H   0  0  0  0  0
    5.5209   14.4541   -9.2324 H   0  0  0  0  0
    3.3479   14.3567   -7.6727 H   0  0  0  0  0
    4.8115   13.5630   -7.1361 H   0  0  0  0  0
    3.3522   11.7367   -7.0069 H   0  0  0  0  0
    2.2996   12.3411   -8.2085 H   0  0  0  0  0
    6.0676   10.9128   -7.8326 H   0  0  0  0  0
    8.8522   11.5592   -8.6087 H   0  0  0  0  0
    8.3207   11.5022   -6.2715 H   0  0  0  0  0
    9.4907   10.1752   -6.7051 H   0  0  0  0  0
    6.5588    9.4276   -7.6614 H   0  0  0  0  0
    6.5334    9.4205   -9.7356 H   0  0  0  0  0
    8.5496    7.4552  -10.6573 H   0  0  0  0  0
    7.3973    8.1579  -13.1999 H   0  0  0  0  0
    6.4144    6.7217  -12.0523 H   0  0  0  0  0
    5.6131    7.6048  -10.6154 H   0  0  0  0  0
    7.5762    5.5590  -10.0075 H   0  0  0  0  0
    6.0248    4.9938  -10.7625 H   0  0  0  0  0
    5.0062    6.5956   -9.0131 H   0  0  0  0  0
    6.5825    6.2426   -8.1580 H   0  0  0  0  0
    5.0685    3.9162   -9.0603 H   0  0  0  0  0
    5.7429    6.1675   -6.4404 H   0  0  0  0  0
    4.3838    2.9535   -5.7316 H   0  0  0  0  0
    4.3015    2.4578   -7.4253 H   0  0  0  0  0
  1  2  1  0  0  0
  2  3  1  0  0  0
  2  5  1  0  0  0
  3  4  2  0  0  0
  3  9  1  0  0  0
  5  6  1  0  0  0
  5  7  1  0  0  0
  6  8  1  0  0  0
  9 10  1  0  0  0
 10 11  1  0  0  0
 10 13  1  0  0  0
 11 12  2  0  0  0
 11 18  1  0  0  0
 13 14  1  0  0  0
 14 15  1  0  0  0
 15 16  2  0  0  0
 15 17  1  0  0  0
 18 19  1  0  0  0
 18 24  1  0  0  0
 19 20  1  0  0  0
 19 22  1  0  0  0
 20 21  2  0  0  0
 20 25  1  0  0  0
 22 23  1  0  0  0
 23 24  1  0  0  0
 25 26  1  0  0  0
 25 31  1  0  0  0
 26 27  1  0  0  0
 26 29  1  0  0  0
 27 28  2  0  0  0
 27 32  1  0  0  0
 29 30  1  0  0  0
 30 31  1  0  0  0
 32 33  1  0  0  0
 32 38  1  0  0  0
 33 34  1  0  0  0
 33 36  1  0  0  0
 34 35  2  0  0  0
 34 39  1  0  0  0
 36 37  1  0  0  0
 37 38  1  0  0  0
 39 40  1  0  0  0
 40 41  1  0  0  0
 40 43  1  0  0  0
 41 42  2  0  0  0
 41 46  1  0  0  0
 43 44  1  0  0  0
 43 45  1  0  0  0
 46 47  1  0  0  0
 47 48  1  0  0  0
 47 50  1  0  0  0
 48 49  2  0  0  0
 48 54  1  0  0  0
 50 51  1  0  0  0
 51 52  2  0  0  0
 51 53  1  0  0  0
 54 55  1  0  0  0
 55 56  1  0  0  0
 55 58  1  0  0  0
 56 57  2  0  0  0
 56 65  1  0  0  0
 58 59  1  0  0  0
 59 60  1  0  0  0
 60 61  1  0  0  0
 61 62  1  0  0  0
 62 63  2  0  0  0
 62 64  1  0  0  0
 65 66  1  0  0  0
 66 67  1  0  0  0
 66 69  1  0  0  0
 67 68  2  0  0  0
 67 73  1  0  0  0
 69 70  1  0  0  0
 70 71  2  0  0  0
 70 72  1  0  0  0
 73 74  1  0  0  0
 74 75  1  0  0  0
 74 77  1  0  0  0
 75 76  2  0  0  0
 75 81  1  0  0  0
 77 78  1  0  0  0
 78 79  1  0  0  0
 78 80  1  0  0  0
 81 82  1  0  0  0
 82 83  1  0  0  0
 82 85  1  0  0  0
 83 84  2  0  0  0
 83 90  1  0  0  0
 85 86  1  0  0  0
 86 87  1  0  0  0
 87 88  1  0  0  0
 88 89  1  0  0  0
 90 91  1  0  0  0
 90 96  1  0  0  0
 91 92  1  0  0  0
 91 94  1  0  0  0
 92 93  2  0  0  0
 92 97  1  0  0  0
 94 95  1  0  0  0
 95 96  1  0  0  0
 97 98  1  0  0  0
 98 99  1  0  0  0
 98101  1  0  0  0
 99100  2  0  0  0
 99105  1  0  0  0
101102  1  0  0  0
102103  2  0  0  0
102104  1  0  0  0
105106  1  0  0  0
106107  1  0  0  0
106109  1  0  0  0
107108  2  0  0  0
109110  1  0  0  0
110111  1  0  0  0
111112  1  0  0  0
112113  1  0  0  0
113114  2  0  0  0
113115  1  0  0  0
  1116  1  0  0  0
  1117  1  0  0  0
  1118  1  0  0  0
  2119  1  0  0  0
  5120  1  0  0  0
  6121  1  0  0  0
  6122  1  0  0  0
  7123  1  0  0  0
  7124  1  0  0  0
  7125  1  0  0  0
  8126  1  0  0  0
  8127  1  0  0  0
  8128  1  0  0  0
  9129  1  0  0  0
 10130  1  0  0  0
 13131  1  0  0  0
 13132  1  0  0  0
 14133  1  0  0  0
 14134  1  0  0  0
 17135  1  0  0  0
 17136  1  0  0  0
 19137  1  0  0  0
 22138  1  0  0  0
 22139  1  0  0  0
 23140  1  0  0  0
 23141  1  0  0  0
 24142  1  0  0  0
 24143  1  0  0  0
 26144  1  0  0  0
 29145  1  0  0  0
 29146  1  0  0  0
 30147  1  0  0  0
 30148  1  0  0  0
 31149  1  0  0  0
 31150  1  0  0  0
 33151  1  0  0  0
 36152  1  0  0  0
 36153  1  0  0  0
 37154  1  0  0  0
 37155  1  0  0  0
 38156  1  0  0  0
 38157  1  0  0  0
 39158  1  0  0  0
 40159  1  0  0  0
 43160  1  0  0  0
 44161  1  0  0  0
 44162  1  0  0  0
 44163  1  0  0  0
 45164  1  0  0  0
 45165  1  0  0  0
 45166  1  0  0  0
 46167  1  0  0  0
 47168  1  0  0  0
 50169  1  0  0  0
 50170  1  0  0  0
 53171  1  0  0  0
 53172  1  0  0  0
 54173  1  0  0  0
 55174  1  0  0  0
 58175  1  0  0  0
 58176  1  0  0  0
 59177  1  0  0  0
 59178  1  0  0  0
 60179  1  0  0  0
 60180  1  0  0  0
 61181  1  0  0  0
 63182  1  0  0  0
 64183  1  0  0  0
 64184  1  0  0  0
 65185  1  0  0  0
 66186  1  0  0  0
 69187  1  0  0  0
 69188  1  0  0  0
 72189  1  0  0  0
 72190  1  0  0  0
 73191  1  0  0  0
 74192  1  0  0  0
 77193  1  0  0  0
 77194  1  0  0  0
 78195  1  0  0  0
 79196  1  0  0  0
 79197  1  0  0  0
 79198  1  0  0  0
 80199  1  0  0  0
 80200  1  0  0  0
 80201  1  0  0  0
 81202  1  0  0  0
 82203  1  0  0  0
 85204  1  0  0  0
 85205  1  0  0  0
 86206  1  0  0  0
 86207  1  0  0  0
 87208  1  0  0  0
 87209  1  0  0  0
 88210  1  0  0  0
 88211  1  0  0  0
 89212  1  0  0  0
 89213  1  0  0  0
 89214  1  0  0  0
 91215  1  0  0  0
 94216  1  0  0  0
 94217  1  0  0  0
 95218  1  0  0  0
 95219  1  0  0  0
 96220  1  0  0  0
 96221  1  0  0  0
 97222  1  0  0  0
 98223  1  0  0  0
101224  1  0  0  0
101225  1  0  0  0
104226  1  0  0  0
105227  1  0  0  0
106228  1  0  0  0
107229  1  0  0  0
109230  1  0  0  0
109231  1  0  0  0
110232  1  0  0  0
110233  1  0  0  0
111234  1  0  0  0
111235  1  0  0  0
112236  1  0  0  0
114237  1  0  0  0
115238  1  0  0  0
115239  1  0  0  0
M  END
$$$$
