### 
### Created by X-TOOL on Mon Sep 10 21:13:34 2018
### 

@<TRIPOS>MOLECULE
5nyz_ligand
   40    41     1     0     0
SMALL
GAST_HUCK


@<TRIPOS>ATOM
      1 O4          5.2790    7.6700   36.9700 O.2       1 DUP        -0.4124
      2 C4          5.6030    8.7660   37.4720 C.2       1 DUP         0.1822
      3 C5          6.1510    8.7970   38.7490 C.2       1 DUP         0.0062
      4 C6          6.5150   10.0200   39.3120 C.2       1 DUP         0.0590
      5 N3          5.4230    9.9100   36.7890 N.am      1 DUP        -0.1865
      6 C2          5.7660   11.1000   37.3140 C.2       1 DUP         0.3327
      7 O2          5.5750   12.1260   36.6230 O.2       1 DUP        -0.3815
      8 N1          6.3400   11.1650   38.6180 N.am      1 DUP        -0.1618
      9 C1'         6.7150   12.4530   39.2330 C.3       1 DUP         0.1800
     10 C2'         5.6790   12.8020   40.2960 C.3       1 DUP         0.0316
     11 C3'         6.4310   12.9710   41.5960 C.3       1 DUP         0.0890
     12 O3'         6.0500   14.1610   42.2830 O.3       1 DUP        -0.3889
     13 O4'         7.9900   12.4010   39.8870 O.3       1 DUP        -0.3386
     14 C4'         7.9020   12.9810   41.1950 C.3       1 DUP         0.1166
     15 C5'         8.7870   12.2310   42.1820 C.3       1 DUP         0.1132
     16 O5'         8.1790   11.0010   42.5730 O.3       1 DUP        -0.2529
     17 PA          8.9570   10.0290   43.5780 P.3       1 DUP         0.2362
     18 O1A         8.1610    8.8070   43.8200 O.co2     1 DUP        -0.6036
     19 O2A         9.2500   10.7920   44.9650 O.co2     1 DUP        -0.6036
     20 N3A        10.4520    9.6560   42.7650 N.am      1 DUP        -0.1581
     21 PB         11.9680   10.0980   43.4680 P.3       1 DUP         0.2871
     22 O1B        13.0240    9.1820   42.9840 O.co2     1 DUP        -0.5685
     23 O2B        11.8340   10.0480   45.0730 O.co2     1 DUP        -0.5685
     24 O3B        12.2820   11.5810   42.9210 O.3       1 DUP        -0.1659
     25 PG         12.4910   12.8580   43.8790 P.3       1 DUP         0.2047
     26 O2G        12.2160   14.0200   42.9530 O.co2     1 DUP        -0.5893
     27 O1G        11.4720   12.6980   44.9860 O.co2     1 DUP        -0.5893
     28 O3G        13.9300   12.7200   44.3190 O.co2     1 DUP        -0.5893
     29 H1          6.2952    7.8725   39.3062 H         1 DUP         0.0258
     30 H2          6.9413   10.0516   40.3136 H         1 DUP         0.1178
     31 H3          5.0260    9.8755   35.8718 H         1 DUP         0.2259
     32 H4          6.7364   13.2301   38.4547 H         1 DUP         0.0970
     33 H5          4.9415   11.9910   40.3873 H         1 DUP         0.0345
     34 H6          5.1645   13.7375   40.0313 H         1 DUP         0.0345
     35 H7          6.2320   12.1131   42.2551 H         1 DUP         0.0622
     36 H8          6.5434   14.2301   43.0919 H         1 DUP         0.2099
     37 H9          8.2492   14.0238   41.1508 H         1 DUP         0.0650
     38 H10         8.9430   12.8558   43.0738 H         1 DUP         0.0651
     39 H11         9.7570   12.0194   41.7083 H         1 DUP         0.0651
     40 H12        10.4329    9.1823   41.8845 H         1 DUP         0.2175
@<TRIPOS>BOND
     1    1    2 2  
     2    2    3 1  
     3    2    5 am 
     4    3    4 2  
     5    4    8 1  
     6    5    6 am 
     7    6    7 2  
     8    6    8 am 
     9    8    9 1  
    10    9   10 1  
    11    9   13 1  
    12   10   11 1  
    13   11   12 1  
    14   11   14 1  
    15   13   14 1  
    16   14   15 1  
    17   15   16 1  
    18   16   17 1  
    19   17   18 ar 
    20   17   19 ar 
    21   17   20 am 
    22   20   21 1  
    23   21   22 ar 
    24   21   23 ar 
    25   21   24 1  
    26   24   25 1  
    27   25   26 ar 
    28   25   27 ar 
    29   25   28 ar 
    30    3   29 1  
    31    4   30 1  
    32    5   31 1  
    33    9   32 1  
    34   10   33 1  
    35   10   34 1  
    36   11   35 1  
    37   12   36 1  
    38   14   37 1  
    39   15   38 1  
    40   15   39 1  
    41   20   40 1  
@<TRIPOS>SUBSTRUCTURE
     1 DUP         1

