5nyz_ligand
  -I-interpret- 

 44 45  0  0  0  0  0  0  0  0999 V2000
    5.2790    7.6700   36.9700 O   0  0  0  0  0
    5.6030    8.7660   37.4720 C   0  0  0  0  0
    6.1510    8.7970   38.7490 C   0  0  0  0  0
    6.5150   10.0200   39.3120 C   0  0  0  0  0
    5.4230    9.9100   36.7890 N   0  0  0  0  0
    5.7660   11.1000   37.3140 C   0  0  0  0  0
    5.5750   12.1260   36.6230 O   0  0  0  0  0
    6.3400   11.1650   38.6180 N   0  0  0  0  0
    6.7150   12.4530   39.2330 C   0  0  0  0  0
    5.6790   12.8020   40.2960 C   0  0  0  0  0
    6.4310   12.9710   41.5960 C   0  0  0  0  0
    6.0500   14.1610   42.2830 O   0  0  0  0  0
    7.9900   12.4010   39.8870 O   0  0  0  0  0
    7.9020   12.9810   41.1950 C   0  0  0  0  0
    8.7870   12.2310   42.1820 C   0  0  0  0  0
    8.1790   11.0010   42.5730 O   0  0  0  0  0
    8.9570   10.0290   43.5780 P   0  0  0  0  0
    8.1610    8.8070   43.8200 O   0  0  0  0  0
    9.2500   10.7920   44.9650 O   0  0  0  0  0
   10.4520    9.6560   42.7650 N   0  0  0  0  0
   11.9680   10.0980   43.4680 P   0  0  0  0  0
   13.0240    9.1820   42.9840 O   0  0  0  0  0
   11.8340   10.0480   45.0730 O   0  0  0  0  0
   12.2820   11.5810   42.9210 O   0  0  0  0  0
   12.4910   12.8580   43.8790 P   0  0  0  0  0
   12.2160   14.0200   42.9530 O   0  0  0  0  0
   11.4720   12.6980   44.9860 O   0  0  0  0  0
   13.9300   12.7200   44.3190 O   0  0  0  0  0
    6.2953    7.8717   39.3067 H   0  0  0  0  0
    6.9417   10.0516   40.3145 H   0  0  0  0  0
    5.0180    9.8748   35.8535 H   0  0  0  0  0
    6.7632   13.1918   38.4330 H   0  0  0  0  0
    4.9290   12.0156   40.3805 H   0  0  0  0  0
    5.1461   13.7160   40.0338 H   0  0  0  0  0
    6.2112   12.1693   42.3010 H   0  0  0  0  0
    6.5486   14.2308   43.1004 H   0  0  0  0  0
    8.2682   14.0076   41.1966 H   0  0  0  0  0
    8.9294   12.8502   43.0677 H   0  0  0  0  0
    9.7424   12.0148   41.7039 H   0  0  0  0  0
    9.7669   11.5821   44.7913 H   0  0  0  0  0
   10.4326    9.1729   41.8669 H   0  0  0  0  0
   11.1425   10.6516   45.3542 H   0  0  0  0  0
   11.7095   11.9446   45.5315 H   0  0  0  0  0
   14.0141   11.9613   44.9012 H   0  0  0  0  0
  1  2  2  0  0  0
  2  3  1  0  0  0
  2  5  1  0  0  0
  3  4  2  0  0  0
  4  8  1  0  0  0
  5  6  1  0  0  0
  6  7  2  0  0  0
  6  8  1  0  0  0
  8  9  1  0  0  0
  9 10  1  0  0  0
  9 13  1  0  0  0
 10 11  1  0  0  0
 11 12  1  0  0  0
 11 14  1  0  0  0
 13 14  1  0  0  0
 14 15  1  0  0  0
 15 16  1  0  0  0
 16 17  1  0  0  0
 17 18  2  0  0  0
 17 19  1  0  0  0
 17 20  1  0  0  0
 20 21  1  0  0  0
 21 22  2  0  0  0
 21 23  1  0  0  0
 21 24  1  0  0  0
 24 25  1  0  0  0
 25 26  2  0  0  0
 25 27  1  0  0  0
 25 28  1  0  0  0
  3 29  1  0  0  0
  4 30  1  0  0  0
  5 31  1  0  0  0
  9 32  1  0  0  0
 10 33  1  0  0  0
 10 34  1  0  0  0
 11 35  1  0  0  0
 12 36  1  0  0  0
 14 37  1  0  0  0
 15 38  1  0  0  0
 15 39  1  0  0  0
 19 40  1  0  0  0
 20 41  1  0  0  0
 23 42  1  0  0  0
 27 43  1  0  0  0
 28 44  1  0  0  0
M  END
$$$$
