3uvo_ligand
  -I-interpret- 

110109  0  0  0  0  0  0  0  0999 V2000
   -9.4860  -26.0490   18.3990 N   0  3  0  0  0
  -10.0070  -24.6670   18.3370 C   0  0  0  0  0
  -11.3630  -24.4960   19.0350 C   0  0  0  0  0
  -12.3890  -24.9750   18.5370 O   0  0  0  0  0
  -10.0450  -24.1850   16.8920 C   0  0  0  0  0
  -10.5530  -22.4580   16.6800 S   0  0  0  0  0
  -11.3710  -23.7890   20.1760 N   0  0  0  0  0
  -12.5910  -23.5780   20.9670 C   0  0  0  0  0
  -13.6760  -22.7730   20.2510 C   0  0  0  0  0
  -14.8620  -23.1070   20.3570 O   0  0  0  0  0
  -12.2500  -22.9410   22.3010 C   0  0  0  0  0
  -13.2830  -21.6960   19.5610 N   0  0  0  0  0
  -14.2470  -20.8530   18.8550 C   0  0  0  0  0
  -15.0000  -21.5600   17.7240 C   0  0  0  0  0
  -16.2140  -21.3820   17.6040 O   0  0  0  0  0
  -13.6140  -19.5390   18.3730 C   0  0  0  0  0
  -14.6970  -18.4880   18.1300 C   0  0  0  0  0
  -14.1720  -17.1930   17.6100 C   0  0  0  0  0
  -13.2920  -16.5050   18.5530 N   0  0  0  0  0
  -13.7080  -15.6210   19.4490 C   0  0  0  0  0
  -15.0010  -15.3330   19.5580 N   0  0  0  0  0
  -12.8350  -15.0010   20.2290 N   0  0  0  0  0
  -14.2960  -22.3560   16.9010 N   0  0  0  0  0
  -14.9420  -23.0750   15.7920 C   0  0  0  0  0
  -15.7600  -24.2840   16.2380 C   0  0  0  0  0
  -16.6030  -24.7620   15.4850 O   0  0  0  0  0
  -13.9490  -23.4250   14.6900 C   0  0  0  0  0
  -12.8270  -24.1500   15.1510 O   0  0  0  0  0
  -15.5820  -24.7270   17.4820 N   0  0  0  0  0
  -16.3360  -25.8600   17.9970 C   0  0  0  0  0
  -17.7100  -25.4700   18.5500 C   0  0  0  0  0
  -18.7050  -26.1290   18.2390 O   0  0  0  0  0
  -15.5140  -26.6110   19.0510 C   0  0  0  0  0
  -17.7500  -24.3960   19.3380 N   0  0  0  0  0
  -18.9450  -23.9620   20.0510 C   0  0  0  0  0
  -18.9710  -24.7040   21.3760 C   0  0  0  0  0
  -17.9090  -25.1570   21.8310 O   0  0  0  0  0
  -20.1720  -24.8260   22.0200 N   0  0  0  0  0
  -20.4090  -25.5740   23.2810 C   0  0  0  0  0
  -21.8760  -25.6340   23.7880 C   0  0  0  0  0
  -22.8090  -25.3000   23.0540 O   0  0  0  0  0
  -19.4120  -25.2220   24.4060 C   0  0  0  0  0
  -22.0300  -26.1180   25.0490 N   0  0  0  0  0
  -23.1800  -26.3930   25.9360 C   0  0  0  0  0
  -24.6350  -26.1270   25.5600 C   0  0  0  0  0
  -25.1390  -25.0330   25.8270 O   0  0  0  0  0
  -22.9090  -25.8630   27.3550 C   0  0  0  0  0
  -25.3410  -27.1940   25.1150 N   0  0  0  0  0
  -26.7780  -27.3120   24.8060 C   0  0  0  0  0
  -27.5790  -26.0260   25.1010 C   0  0  0  0  0
  -27.4470  -25.0290   24.3920 O   0  0  0  0  0
  -27.3680  -28.5700   25.5500 C   0  0  0  0  0
  -26.7360  -29.7790   25.1080 O   0  0  0  0  0
  -28.8920  -28.7160   25.4130 C   0  0  0  0  0
  -28.3755  -25.9969   26.0769 O   0  0  0  0  0
   -9.4654  -26.3601   19.3702 H   0  0  0  0  0
  -10.0922  -26.6643   17.8565 H   0  0  0  0  0
   -8.5422  -26.0729   18.0130 H   0  0  0  0  0
   -9.3164  -24.0372   18.8978 H   0  0  0  0  0
  -10.7823  -24.7977   16.3733 H   0  0  0  0  0
   -9.0294  -24.2660   16.5045 H   0  0  0  0  0
  -10.5489  -22.1520   15.3857 H   0  0  0  0  0
  -10.4960  -23.3824   20.5068 H   0  0  0  0  0
  -13.0175  -24.5687   21.1242 H   0  0  0  0  0
  -11.5760  -23.5959   22.8532 H   0  0  0  0  0
  -11.7654  -21.9797   22.1299 H   0  0  0  0  0
  -13.1644  -22.7913   22.8750 H   0  0  0  0  0
  -12.2917  -21.4584   19.5268 H   0  0  0  0  0
  -15.0057  -20.6139   19.6002 H   0  0  0  0  0
  -13.0793  -19.7219   17.4409 H   0  0  0  0  0
  -12.9273  -19.1732   19.1363 H   0  0  0  0  0
  -15.1736  -18.2843   19.0889 H   0  0  0  0  0
  -15.3765  -18.8890   17.3780 H   0  0  0  0  0
  -15.0265  -16.5428   17.4225 H   0  0  0  0  0
  -13.5899  -17.4095   16.7143 H   0  0  0  0  0
  -12.2952  -16.7186   18.5194 H   0  0  0  0  0
  -15.3136  -14.6398   20.2379 H   0  0  0  0  0
  -15.6807  -15.8052   18.9618 H   0  0  0  0  0
  -11.8391  -15.2032   20.1413 H   0  0  0  0  0
  -13.2925  -22.4638   17.0485 H   0  0  0  0  0
  -15.6667  -22.3787   15.3700 H   0  0  0  0  0
  -13.5833  -22.4884   14.2692 H   0  0  0  0  0
  -14.4700  -24.0527   13.9671 H   0  0  0  0  0
  -12.2434  -24.3381   14.4123 H   0  0  0  0  0
  -14.9035  -24.2625   18.0855 H   0  0  0  0  0
  -16.5273  -26.5212   17.1518 H   0  0  0  0  0
  -14.5904  -26.9730   18.5994 H   0  0  0  0  0
  -15.2775  -25.9364   19.8739 H   0  0  0  0  0
  -16.0918  -27.4556   19.4264 H   0  0  0  0  0
  -16.8972  -23.8473   19.4483 H   0  0  0  0  0
  -19.8403  -24.1824   19.4697 H   0  0  0  0  0
  -18.9246  -22.8845   20.2145 H   0  0  0  0  0
  -20.9757  -24.3622   21.5966 H   0  0  0  0  0
  -20.2031  -26.6000   22.9760 H   0  0  0  0  0
  -18.3986  -25.4515   24.0766 H   0  0  0  0  0
  -19.4882  -24.1597   24.6380 H   0  0  0  0  0
  -19.6477  -25.8072   25.2949 H   0  0  0  0  0
  -21.1382  -26.3461   25.4884 H   0  0  0  0  0
  -23.1811  -27.4768   25.8196 H   0  0  0  0  0
  -22.0240  -26.3525   27.7614 H   0  0  0  0  0
  -22.7437  -24.7864   27.3139 H   0  0  0  0  0
  -23.7681  -26.0760   27.9912 H   0  0  0  0  0
  -24.7962  -28.0444   24.9720 H   0  0  0  0  0
  -26.8782  -27.4538   23.7299 H   0  0  0  0  0
  -27.1539  -28.4002   26.6052 H   0  0  0  0  0
  -27.1143  -30.5264   25.5769 H   0  0  0  0  0
  -29.3791  -27.8351   25.8310 H   0  0  0  0  0
  -29.1533  -28.8115   24.3591 H   0  0  0  0  0
  -29.2205  -29.6046   25.9521 H   0  0  0  0  0
  -28.3625  -26.8460   26.5246 H   0  0  0  0  0
  1  2  1  0  0  0
  2  3  1  0  0  0
  2  5  1  0  0  0
  3  4  2  0  0  0
  3  7  1  0  0  0
  5  6  1  0  0  0
  7  8  1  0  0  0
  8  9  1  0  0  0
  8 11  1  0  0  0
  9 10  2  0  0  0
  9 12  1  0  0  0
 12 13  1  0  0  0
 13 14  1  0  0  0
 13 16  1  0  0  0
 14 15  2  0  0  0
 14 23  1  0  0  0
 16 17  1  0  0  0
 17 18  1  0  0  0
 18 19  1  0  0  0
 19 20  1  0  0  0
 20 21  1  0  0  0
 20 22  2  0  0  0
 23 24  1  0  0  0
 24 25  1  0  0  0
 24 27  1  0  0  0
 25 26  2  0  0  0
 25 29  1  0  0  0
 27 28  1  0  0  0
 29 30  1  0  0  0
 30 31  1  0  0  0
 30 33  1  0  0  0
 31 32  2  0  0  0
 31 34  1  0  0  0
 34 35  1  0  0  0
 35 36  1  0  0  0
 36 37  2  0  0  0
 36 38  1  0  0  0
 38 39  1  0  0  0
 39 40  1  0  0  0
 39 42  1  0  0  0
 40 41  2  0  0  0
 40 43  1  0  0  0
 43 44  1  0  0  0
 44 45  1  0  0  0
 44 47  1  0  0  0
 45 46  2  0  0  0
 45 48  1  0  0  0
 48 49  1  0  0  0
 49 50  1  0  0  0
 49 52  1  0  0  0
 50 51  2  0  0  0
 52 53  1  0  0  0
 52 54  1  0  0  0
 50 55  1  0  0  0
  1 56  1  0  0  0
  1 57  1  0  0  0
  1 58  1  0  0  0
  2 59  1  0  0  0
  5 60  1  0  0  0
  5 61  1  0  0  0
  6 62  1  0  0  0
  7 63  1  0  0  0
  8 64  1  0  0  0
 11 65  1  0  0  0
 11 66  1  0  0  0
 11 67  1  0  0  0
 12 68  1  0  0  0
 13 69  1  0  0  0
 16 70  1  0  0  0
 16 71  1  0  0  0
 17 72  1  0  0  0
 17 73  1  0  0  0
 18 74  1  0  0  0
 18 75  1  0  0  0
 19 76  1  0  0  0
 21 77  1  0  0  0
 21 78  1  0  0  0
 22 79  1  0  0  0
 23 80  1  0  0  0
 24 81  1  0  0  0
 27 82  1  0  0  0
 27 83  1  0  0  0
 28 84  1  0  0  0
 29 85  1  0  0  0
 30 86  1  0  0  0
 33 87  1  0  0  0
 33 88  1  0  0  0
 33 89  1  0  0  0
 34 90  1  0  0  0
 35 91  1  0  0  0
 35 92  1  0  0  0
 38 93  1  0  0  0
 39 94  1  0  0  0
 42 95  1  0  0  0
 42 96  1  0  0  0
 42 97  1  0  0  0
 43 98  1  0  0  0
 44 99  1  0  0  0
 47100  1  0  0  0
 47101  1  0  0  0
 47102  1  0  0  0
 48103  1  0  0  0
 49104  1  0  0  0
 52105  1  0  0  0
 53106  1  0  0  0
 54107  1  0  0  0
 54108  1  0  0  0
 54109  1  0  0  0
 55110  1  0  0  0
M  END
$$$$
