### 
### Created by X-TOOL on Mon Sep 10 21:13:06 2018
### 

@<TRIPOS>MOLECULE
3uvo_ligand
  110   109     1     0     0
SMALL
GAST_HUCK


@<TRIPOS>ATOM
      1 N          -9.4860  -26.0490   18.3990 N.4       1 CYS         0.2385
      2 CA        -10.0070  -24.6670   18.3370 C.3       1 CYS         0.0739
      3 C         -11.3630  -24.4960   19.0350 C.2       1 CYS         0.2275
      4 O         -12.3890  -24.9750   18.5370 O.2       1 CYS        -0.3907
      5 CB        -10.0450  -24.1850   16.8920 C.3       1 CYS         0.0511
      6 SG        -10.5530  -22.4580   16.6800 S.3       1 CYS        -0.1701
      7 N         -11.3710  -23.7890   20.1760 N.am      1 ALA        -0.2613
      8 CA        -12.5910  -23.5780   20.9670 C.3       1 ALA         0.1283
      9 C         -13.6760  -22.7730   20.2510 C.2       1 ALA         0.2036
     10 O         -14.8620  -23.1070   20.3570 O.2       1 ALA        -0.3944
     11 CB        -12.2500  -22.9410   22.3010 C.3       1 ALA        -0.0244
     12 N         -13.2830  -21.6960   19.5610 N.am      1 ARG        -0.2637
     13 CA        -14.2470  -20.8530   18.8550 C.3       1 ARG         0.1311
     14 C         -15.0000  -21.5600   17.7240 C.2       1 ARG         0.2040
     15 O         -16.2140  -21.3820   17.6040 O.2       1 ARG        -0.3944
     16 CB        -13.6140  -19.5390   18.3730 C.3       1 ARG        -0.0092
     17 CG        -14.6970  -18.4880   18.1300 C.3       1 ARG        -0.0156
     18 CD        -14.1720  -17.1930   17.6100 C.3       1 ARG         0.0627
     19 NE        -13.2920  -16.5050   18.5530 N.pl3     1 ARG        -0.2723
     20 CZ        -13.7080  -15.6210   19.4490 C.cat     1 ARG         0.2882
     21 NH1       -15.0010  -15.3330   19.5580 N.pl3     1 ARG        -0.2849
     22 NH2       -12.8350  -15.0010   20.2290 N.pl3     1 ARG        -0.2849
     23 N         -14.2960  -22.3560   16.9010 N.am      1 SER        -0.2616
     24 CA        -14.9420  -23.0750   15.7920 C.3       1 SER         0.1539
     25 C         -15.7600  -24.2840   16.2380 C.2       1 SER         0.2062
     26 O         -16.6030  -24.7620   15.4850 O.2       1 SER        -0.3943
     27 CB        -13.9490  -23.4250   14.6900 C.3       1 SER         0.0843
     28 OG        -12.8270  -24.1500   15.1510 O.3       1 SER        -0.3903
     29 N         -15.5820  -24.7270   17.4820 N.am      1 GLU        -0.2639
     30 CA        -16.3360  -25.8600   17.9970 C.3       1 GLU         0.1282
     31 C         -17.7100  -25.4700   18.5500 C.2       1 GLU         0.2034
     32 O         -18.7050  -26.1290   18.2390 O.2       1 GLU        -0.3944
     33 CB        -15.5140  -26.6110   19.0510 C.3       1 GLU        -0.0244
     34 N         -17.7500  -24.3960   19.3380 N.am      1 GLY        -0.2664
     35 CA        -18.9450  -23.9620   20.0510 C.3       1 GLY         0.1201
     36 C         -18.9710  -24.7040   21.3760 C.2       1 GLY         0.2007
     37 O         -17.9090  -25.1570   21.8310 O.2       1 GLY        -0.3947
     38 N         -20.1720  -24.8260   22.0200 N.am      1 PHE        -0.2642
     39 CA        -20.4090  -25.5740   23.2810 C.3       1 PHE         0.1282
     40 C         -21.8760  -25.6340   23.7880 C.2       1 PHE         0.2036
     41 O         -22.8090  -25.3000   23.0540 O.2       1 PHE        -0.3944
     42 CB        -19.4120  -25.2220   24.4060 C.3       1 PHE        -0.0244
     43 N         -22.0300  -26.1180   25.0490 N.am      1 TYR        -0.2640
     44 CA        -23.1800  -26.3930   25.9360 C.3       1 TYR         0.1282
     45 C         -24.6350  -26.1270   25.5600 C.2       1 TYR         0.2031
     46 O         -25.1390  -25.0330   25.8270 O.2       1 TYR        -0.3944
     47 CB        -22.9090  -25.8630   27.3550 C.3       1 TYR        -0.0244
     48 N         -25.3410  -27.1940   25.1150 N.am      1 THR        -0.2670
     49 CA        -26.7780  -27.3120   24.8060 C.3       1 THR         0.1198
     50 C         -27.5790  -26.0260   25.1010 C.2       1 THR         0.0626
     51 O         -27.4470  -25.0290   24.3920 O.co2     1 THR        -0.5665
     52 CB        -27.3680  -28.5700   25.5500 C.3       1 THR         0.0869
     53 OG1       -26.7360  -29.7790   25.1080 O.3       1 THR        -0.3880
     54 CG2       -28.8920  -28.7160   25.4130 C.3       1 THR        -0.0352
     55 H          -9.4654  -26.3601   19.3702 H         1 CYS         0.2015
     56 H         -10.0922  -26.6643   17.8565 H         1 CYS         0.2015
     57 H          -8.5422  -26.0729   18.0130 H         1 CYS         0.2015
     58 H          -9.3164  -24.0372   18.8978 H         1 CYS         0.1106
     59 H         -10.7823  -24.7977   16.3733 H         1 CYS         0.0455
     60 H          -9.0294  -24.2660   16.5045 H         1 CYS         0.0455
     61 H          -9.7038  -21.6651   17.3273 H         1 CYS         0.1020
     62 H         -10.4960  -23.3824   20.5068 H         1 ALA         0.1884
     63 H         -13.0175  -24.5687   21.1242 H         1 ALA         0.0797
     64 H         -11.5760  -23.5959   22.8532 H         1 ALA         0.0277
     65 H         -11.7654  -21.9797   22.1299 H         1 ALA         0.0277
     66 H         -13.1644  -22.7913   22.8750 H         1 ALA         0.0277
     67 H         -12.2917  -21.4584   19.5268 H         1 ARG         0.1883
     68 H         -15.0057  -20.6139   19.6002 H         1 ARG         0.0800
     69 H         -13.0793  -19.7219   17.4409 H         1 ARG         0.0313
     70 H         -12.9273  -19.1732   19.1363 H         1 ARG         0.0313
     71 H         -15.1736  -18.2843   19.0889 H         1 ARG         0.0301
     72 H         -15.3765  -18.8890   17.3780 H         1 ARG         0.0301
     73 H         -15.0265  -16.5428   17.4225 H         1 ARG         0.0689
     74 H         -13.5899  -17.4095   16.7143 H         1 ARG         0.0689
     75 H         -12.2952  -16.7186   18.5194 H         1 ARG         0.2642
     76 H         -15.6789  -15.7930   18.9504 H         1 ARG         0.2615
     77 H         -15.3153  -14.6520   20.2492 H         1 ARG         0.2615
     78 H         -11.8391  -15.2032   20.1413 H         1 ARG         0.2615
     79 H         -13.1587  -14.3214   20.9173 H         1 ARG         0.2615
     80 H         -13.2925  -22.4638   17.0485 H         1 SER         0.1884
     81 H         -15.6667  -22.3787   15.3700 H         1 SER         0.0823
     82 H         -13.5833  -22.4884   14.2692 H         1 SER         0.0606
     83 H         -14.4700  -24.0527   13.9671 H         1 SER         0.0606
     84 H         -12.3577  -23.6286   15.8063 H         1 SER         0.2097
     85 H         -14.9035  -24.2625   18.0855 H         1 GLU         0.1883
     86 H         -16.5273  -26.5212   17.1518 H         1 GLU         0.0797
     87 H         -14.5904  -26.9730   18.5994 H         1 GLU         0.0277
     88 H         -15.2775  -25.9364   19.8739 H         1 GLU         0.0277
     89 H         -16.0918  -27.4556   19.4264 H         1 GLU         0.0277
     90 H         -16.8972  -23.8473   19.4483 H         1 GLY         0.1881
     91 H         -19.8403  -24.1824   19.4697 H         1 GLY         0.0763
     92 H         -18.9246  -22.8845   20.2145 H         1 GLY         0.0763
     93 H         -20.9757  -24.3622   21.5966 H         1 PHE         0.1883
     94 H         -20.2031  -26.6000   22.9760 H         1 PHE         0.0797
     95 H         -18.3986  -25.4515   24.0766 H         1 PHE         0.0277
     96 H         -19.4882  -24.1597   24.6380 H         1 PHE         0.0277
     97 H         -19.6477  -25.8072   25.2949 H         1 PHE         0.0277
     98 H         -21.1382  -26.3461   25.4884 H         1 TYR         0.1883
     99 H         -23.1811  -27.4768   25.8196 H         1 TYR         0.0797
    100 H         -22.0240  -26.3525   27.7614 H         1 TYR         0.0277
    101 H         -22.7437  -24.7864   27.3139 H         1 TYR         0.0277
    102 H         -23.7681  -26.0760   27.9912 H         1 TYR         0.0277
    103 H         -24.7962  -28.0444   24.9720 H         1 THR         0.1876
    104 H         -26.8782  -27.4538   23.7299 H         1 THR         0.0752
    105 O         -28.3755  -25.9969   26.0769 O.co2     1 THR        -0.5665
    106 H         -27.1539  -28.4002   26.6052 H         1 THR         0.0632
    107 H         -27.1143  -30.5264   25.5769 H         1 THR         0.2100
    108 H         -29.3791  -27.8351   25.8310 H         1 THR         0.0256
    109 H         -29.1533  -28.8115   24.3591 H         1 THR         0.0256
    110 H         -29.2205  -29.6046   25.9521 H         1 THR         0.0256
@<TRIPOS>BOND
     1    1    2 1  
     2    2    3 1  
     3    2    5 1  
     4    3    4 2  
     5    3    7 am 
     6    5    6 1  
     7    7    8 1  
     8    8    9 1  
     9    8   11 1  
    10    9   10 2  
    11    9   12 am 
    12   12   13 1  
    13   13   14 1  
    14   13   16 1  
    15   14   15 2  
    16   14   23 am 
    17   16   17 1  
    18   17   18 1  
    19   18   19 1  
    20   19   20 ar 
    21   20   21 ar 
    22   20   22 ar 
    23   23   24 1  
    24   24   25 1  
    25   24   27 1  
    26   25   26 2  
    27   25   29 am 
    28   27   28 1  
    29   29   30 1  
    30   30   31 1  
    31   30   33 1  
    32   31   32 2  
    33   31   34 am 
    34   34   35 1  
    35   35   36 1  
    36   36   37 2  
    37   36   38 am 
    38   38   39 1  
    39   39   40 1  
    40   39   42 1  
    41   40   41 2  
    42   40   43 am 
    43   43   44 1  
    44   44   45 1  
    45   44   47 1  
    46   45   46 2  
    47   45   48 am 
    48   48   49 1  
    49   49   50 1  
    50   49   52 1  
    51   50   51 ar 
    52   52   53 1  
    53   52   54 1  
    54    1   55 1  
    55    1   56 1  
    56    1   57 1  
    57    2   58 1  
    58    5   59 1  
    59    5   60 1  
    60    6   61 1  
    61    7   62 1  
    62    8   63 1  
    63   11   64 1  
    64   11   65 1  
    65   11   66 1  
    66   12   67 1  
    67   13   68 1  
    68   16   69 1  
    69   16   70 1  
    70   17   71 1  
    71   17   72 1  
    72   18   73 1  
    73   18   74 1  
    74   19   75 1  
    75   21   76 1  
    76   21   77 1  
    77   22   78 1  
    78   22   79 1  
    79   23   80 1  
    80   24   81 1  
    81   27   82 1  
    82   27   83 1  
    83   28   84 1  
    84   29   85 1  
    85   30   86 1  
    86   33   87 1  
    87   33   88 1  
    88   33   89 1  
    89   34   90 1  
    90   35   91 1  
    91   35   92 1  
    92   38   93 1  
    93   39   94 1  
    94   42   95 1  
    95   42   96 1  
    96   42   97 1  
    97   43   98 1  
    98   44   99 1  
    99   47  100 1  
   100   47  101 1  
   101   47  102 1  
   102   48  103 1  
   103   49  104 1  
   104   50  105 ar 
   105   52  106 1  
   106   53  107 1  
   107   54  108 1  
   108   54  109 1  
   109   54  110 1  
@<TRIPOS>SUBSTRUCTURE
     1 CYS         1

