4u5v_ligand
  -I-interpret- 

 46 47  0  0  0  0  0  0  0  0999 V2000
    4.3780   39.0960   11.3880 N   0  0  0  0  0
    4.5850   38.3490   10.2960 C   0  0  0  0  0
    3.5180   37.2670    9.9080 C   0  0  0  0  0
    3.5490   36.8600    8.3610 C   0  0  0  0  0
    2.3540   37.5020    7.6290 C   0  0  0  0  0
    2.3980   37.4620    6.0720 C   0  0  0  0  0
    1.3740   38.5930    5.7250 C   0  0  0  0  0
    0.8560   38.6320    4.3160 N   0  3  0  0  0
    2.1920   37.7220   10.4450 N   0  3  0  0  0
    1.8560   37.0710   11.7170 C   0  0  0  0  0
    1.2230   35.7480   11.3450 C   0  0  0  0  0
    0.5270   35.3980   10.0810 C   0  0  0  0  0
   -0.3240   34.1850   10.3120 C   0  0  0  0  0
    0.1760   33.4940   11.5360 C   0  0  0  0  0
   -0.3150   32.2950   12.0090 C   0  0  0  0  0
    0.4420   31.6070   12.9570 C   0  0  0  0  0
   -0.0120   30.4050   13.4780 C   0  0  0  0  0
   -1.2470   29.9060   13.0600 C   0  0  0  0  0
   -2.0300   30.6130   12.1090 N   0  0  0  0  0
   -1.5560   31.8250   11.5630 C   0  0  0  0  0
    1.2970   34.4250   12.2890 S   0  0  0  0  0
    5.6050   38.4730    9.6360 O   0  0  0  0  0
    5.0771   39.7796   11.6783 H   0  0  0  0  0
    3.5212   38.9814   11.9294 H   0  0  0  0  0
    3.7555   36.3116   10.3760 H   0  0  0  0  0
    3.4861   35.7755    8.2720 H   0  0  0  0  0
    4.4781   37.2133    7.9136 H   0  0  0  0  0
    2.3581   38.5561    7.9064 H   0  0  0  0  0
    1.4741   36.9299    7.9232 H   0  0  0  0  0
    2.1487   36.4905    5.6452 H   0  0  0  0  0
    3.3914   37.6176    5.6513 H   0  0  0  0  0
    1.9058   39.5328    5.8734 H   0  0  0  0  0
    0.5048   38.4128    6.3575 H   0  0  0  0  0
    0.2015   39.4080    4.2170 H   0  0  0  0  0
    1.6363   38.7595    3.6716 H   0  0  0  0  0
    0.3796   37.7549    4.1058 H   0  0  0  0  0
    1.4731   37.4778    9.7639 H   0  0  0  0  0
    2.2435   38.7277   10.6071 H   0  0  0  0  0
    1.1771   37.6838   12.3101 H   0  0  0  0  0
    2.7414   36.9279   12.3364 H   0  0  0  0  0
    0.6196   35.9359    9.1375 H   0  0  0  0  0
   -1.1620   33.8641    9.6933 H   0  0  0  0  0
    1.3957   32.0165   13.2901 H   0  0  0  0  0
    0.5876   29.8567   14.2046 H   0  0  0  0  0
   -1.6141   28.9641   13.4677 H   0  0  0  0  0
   -2.1350   32.3750   10.8212 H   0  0  0  0  0
  1  2  1  0  0  0
  2  3  1  0  0  0
  2 22  2  0  0  0
  3  4  1  0  0  0
  3  9  1  0  0  0
  4  5  1  0  0  0
  5  6  1  0  0  0
  6  7  1  0  0  0
  7  8  1  0  0  0
  9 10  1  0  0  0
 10 11  1  0  0  0
 11 12  4  0  0  0
 11 21  4  0  0  0
 12 13  4  0  0  0
 13 14  4  0  0  0
 14 15  1  0  0  0
 14 21  4  0  0  0
 15 16  4  0  0  0
 15 20  4  0  0  0
 16 17  4  0  0  0
 17 18  4  0  0  0
 18 19  4  0  0  0
 19 20  4  0  0  0
  1 23  1  0  0  0
  1 24  1  0  0  0
  3 25  1  0  0  0
  4 26  1  0  0  0
  4 27  1  0  0  0
  5 28  1  0  0  0
  5 29  1  0  0  0
  6 30  1  0  0  0
  6 31  1  0  0  0
  7 32  1  0  0  0
  7 33  1  0  0  0
  8 34  1  0  0  0
  8 35  1  0  0  0
  8 36  1  0  0  0
  9 37  1  0  0  0
  9 38  1  0  0  0
 10 39  1  0  0  0
 10 40  1  0  0  0
 12 41  1  0  0  0
 13 42  1  0  0  0
 16 43  1  0  0  0
 17 44  1  0  0  0
 18 45  1  0  0  0
 20 46  1  0  0  0
M  END
$$$$
