4b8o_ligand
  -I-interpret- 

184185  0  0  0  0  0  0  0  0999 V2000
   43.4410   -2.4990   10.2760 N   0  3  0  0  0
   43.6850   -3.4510    9.2060 C   0  0  0  0  0
   43.0040   -3.0670    7.8980 C   0  0  0  0  0
   42.6420   -3.9260    7.0940 O   0  0  0  0  0
   42.8170   -1.7700    7.6890 N   0  0  0  0  0
   42.2400   -1.2550    6.4550 C   0  0  0  0  0
   43.1440   -1.4940    5.2370 C   0  0  0  0  0
   44.3420   -1.6840    5.3870 O   0  0  0  0  0
   42.0080    0.2380    6.6170 C   0  0  0  0  0
   41.5150    0.7920    5.4220 O   0  0  0  0  0
   42.5780   -1.4700    4.0150 N   0  0  0  0  0
   43.4520   -1.6930    2.8540 C   0  0  0  0  0
   44.4430   -0.5410    2.6650 C   0  0  0  0  0
   44.1230    0.6020    2.9840 O   0  0  0  0  0
   42.4750   -1.7480    1.6700 C   0  0  0  0  0
   41.1330   -2.0170    2.2900 C   0  0  0  0  0
   41.1720   -1.3260    3.6180 C   0  0  0  0  0
   45.6320   -0.8310    2.1340 N   0  0  0  0  0
   46.6020    0.2600    1.9450 C   0  0  0  0  0
   46.0410    1.3880    1.0770 C   0  0  0  0  0
   45.2350    1.1640    0.1630 O   0  0  0  0  0
   47.7860   -0.4270    1.2480 C   0  0  0  0  0
   47.2160   -1.6600    0.6360 C   0  0  0  0  0
   46.0390   -2.0800    1.4700 C   0  0  0  0  0
   46.4710    2.6030    1.3950 N   0  0  0  0  0
   46.1350    3.7840    0.6280 C   0  0  0  0  0
   46.9600    3.9000   -0.6390 C   0  0  0  0  0
   46.5520    4.5340   -1.5960 O   0  0  0  0  0
   46.3830    5.0170    1.4830 C   0  0  0  0  0
   45.3410    5.1620    2.6140 C   0  0  0  0  0
   45.6440    6.3550    3.4800 C   0  0  0  0  0
   44.4510    6.7180    4.3330 C   0  0  0  0  0
   44.7390    7.9340    5.1400 N   0  3  0  0  0
   48.1390    3.3050   -0.6130 N   0  0  0  0  0
   49.0880    3.3860   -1.7170 C   0  0  0  0  0
   49.7980    2.0660   -1.8120 C   0  0  0  0  0
   49.9210    1.3710   -0.8250 O   0  0  0  0  0
   50.0910    4.4970   -1.4810 C   0  0  0  0  0
   49.5050    5.9000   -1.6060 C   0  0  0  0  0
   50.5970    6.9490   -1.6190 C   0  0  0  0  0
   50.0140    8.3320   -1.6870 C   0  0  0  0  0
   51.0580    9.3510   -1.9060 N   0  3  0  0  0
   50.2010    1.6900   -3.0200 N   0  0  0  0  0
   50.9420    0.4560   -3.2200 C   0  0  0  0  0
   52.0750    0.7460   -4.1810 C   0  0  0  0  0
   51.8560    1.3490   -5.2490 O   0  0  0  0  0
   50.0670   -0.6180   -3.8590 C   0  0  0  0  0
   48.9860   -1.1820   -3.0110 C   0  0  0  0  0
   48.2460   -2.2610   -3.7880 C   0  0  0  0  0
   47.0470   -2.7820   -3.0220 C   0  0  0  0  0
   46.2980   -3.8430   -3.7710 N   0  3  0  0  0
   53.2710    0.3090   -3.8070 N   0  0  0  0  0
   54.4480    0.4500   -4.6570 C   0  0  0  0  0
   54.6260   -0.8700   -5.3880 C   0  0  0  0  0
   54.4970   -1.9270   -4.7980 O   0  0  0  0  0
   55.6790    0.7820   -3.8030 C   0  0  0  0  0
   56.9370    1.1300   -4.6290 C   0  0  0  0  0
   57.9920    1.8170   -3.7660 C   0  0  0  0  0
   58.4560    0.9190   -2.7190 N   0  0  0  0  0
   59.4790    0.0790   -2.8300 C   0  0  0  0  0
   60.2040    0.0440   -3.9510 N   0  0  0  0  0
   59.7900   -0.7170   -1.8050 N   0  0  0  0  0
   54.8990   -0.7930   -6.6780 N   0  0  0  0  0
   55.0480   -1.9800   -7.4970 C   0  0  0  0  0
   56.5020   -2.4580   -7.4820 C   0  0  0  0  0
   57.3850   -1.7880   -7.9770 O   0  0  0  0  0
   54.5730   -1.6880   -8.9200 C   0  0  0  0  0
   54.5090   -2.8870   -9.8420 C   0  0  0  0  0
   54.1500   -2.4520  -11.2540 C   0  0  0  0  0
   54.5080   -3.4880  -12.3010 C   0  0  0  0  0
   53.7420   -4.7370  -12.1080 N   0  3  0  0  0
   56.7420   -3.6150   -6.8900 N   0  0  0  0  0
   58.1020   -4.1050   -6.7560 C   0  0  0  0  0
   58.3980   -5.2630   -7.6990 C   0  0  0  0  0
   59.5490   -5.6160   -7.9100 O   0  0  0  0  0
   58.4340   -4.4940   -5.3060 C   0  0  0  0  0
   58.2540   -3.3110   -4.3750 C   0  0  0  0  0
   57.5850   -5.6610   -4.8560 C   0  0  0  0  0
   57.3580   -5.8380   -8.2780 N   0  0  0  0  0
   57.5130   -6.9910   -9.1430 C   0  0  0  0  0
   56.7180   -6.8890  -10.4300 C   0  0  0  0  0
   55.6665   -6.1969  -10.4847 O   0  0  0  0  0
   57.1133   -7.5034  -11.4566 O   0  0  0  0  0
   43.9203   -2.8091   11.1213 H   0  0  0  0  0
   43.7935   -1.5823   10.0008 H   0  0  0  0  0
   42.4385   -2.4396   10.4545 H   0  0  0  0  0
   43.2807   -4.4133    9.5200 H   0  0  0  0  0
   44.7595   -3.4776    9.0248 H   0  0  0  0  0
   43.0870   -1.1103    8.4186 H   0  0  0  0  0
   41.3055   -1.7864    6.2745 H   0  0  0  0  0
   42.9540    0.7185    6.8664 H   0  0  0  0  0
   41.2776    0.3991    7.4099 H   0  0  0  0  0
   41.3742    1.7341    5.5415 H   0  0  0  0  0
   44.0569   -2.5932    2.9624 H   0  0  0  0  0
   42.7517   -2.5199    0.9518 H   0  0  0  0  0
   42.4786   -0.8200    1.0982 H   0  0  0  0  0
   40.9449   -3.0853    2.3967 H   0  0  0  0  0
   40.3192   -1.6468    1.6665 H   0  0  0  0  0
   40.8490   -0.2863    3.5662 H   0  0  0  0  0
   40.4795   -1.7559    4.3417 H   0  0  0  0  0
   46.8711    0.7363    2.8877 H   0  0  0  0  0
   48.5866   -0.6594    1.9502 H   0  0  0  0  0
   48.2425    0.2200    0.4990 H   0  0  0  0  0
   47.9646   -2.4518    0.6094 H   0  0  0  0  0
   46.9043   -1.4655   -0.3902 H   0  0  0  0  0
   45.2383   -2.5192    0.8750 H   0  0  0  0  0
   46.2872   -2.8704    2.1784 H   0  0  0  0  0
   47.0652    2.7093    2.2172 H   0  0  0  0  0
   45.0863    3.7042    0.3417 H   0  0  0  0  0
   46.3111    5.8949    0.8410 H   0  0  0  0  0
   47.3680    4.9205    1.9397 H   0  0  0  0  0
   45.3707    4.2652    3.2328 H   0  0  0  0  0
   44.3565    5.2971    2.1661 H   0  0  0  0  0
   45.8869    7.2018    2.8381 H   0  0  0  0  0
   46.4812    6.1104    4.1337 H   0  0  0  0  0
   44.2317    5.8895    5.0065 H   0  0  0  0  0
   43.5986    6.9174    3.6836 H   0  0  0  0  0
   43.9241    8.1640    5.7087 H   0  0  0  0  0
   45.5394    7.7562    5.7468 H   0  0  0  0  0
   44.9503    8.7126    4.5159 H   0  0  0  0  0
   48.3963    2.7663    0.2140 H   0  0  0  0  0
   48.5597    3.6058   -2.6447 H   0  0  0  0  0
   50.8646    4.4010   -2.2428 H   0  0  0  0  0
   50.4576    4.3898   -0.4601 H   0  0  0  0  0
   48.8555    6.0838   -0.7501 H   0  0  0  0  0
   48.9497    5.9635   -2.5418 H   0  0  0  0  0
   51.2241    6.7902   -2.4963 H   0  0  0  0  0
   51.1789    6.8595   -0.7017 H   0  0  0  0  0
   49.5190    8.5441   -0.7393 H   0  0  0  0  0
   49.3146    8.3703   -2.5222 H   0  0  0  0  0
   50.6268   10.2745   -1.9466 H   0  0  0  0  0
   51.7277    9.3206   -1.1372 H   0  0  0  0  0
   51.5388    9.1600   -2.7851 H   0  0  0  0  0
   49.9860    2.2795   -3.8242 H   0  0  0  0  0
   51.2958    0.1003   -2.2523 H   0  0  0  0  0
   50.7319   -1.4493   -4.0935 H   0  0  0  0  0
   49.5703   -0.1401   -4.7034 H   0  0  0  0  0
   48.2898   -0.3903   -2.7340 H   0  0  0  0  0
   49.4189   -1.6147   -2.1091 H   0  0  0  0  0
   48.9310   -3.0914   -3.9592 H   0  0  0  0  0
   47.8934   -1.8287   -4.7244 H   0  0  0  0  0
   46.3671   -1.9464   -2.8561 H   0  0  0  0  0
   47.4089   -3.2210   -2.0923 H   0  0  0  0  0
   45.5046   -4.1564   -3.2118 H   0  0  0  0  0
   45.9625   -3.4607   -4.6551 H   0  0  0  0  0
   46.9191   -4.6312   -3.9538 H   0  0  0  0  0
   53.3703   -0.1397   -2.8964 H   0  0  0  0  0
   54.3259    1.2637   -5.3719 H   0  0  0  0  0
   55.9131   -0.1040   -3.2128 H   0  0  0  0  0
   55.4316    1.6582   -3.2037 H   0  0  0  0  0
   56.6490    1.8085   -5.4320 H   0  0  0  0  0
   57.3593    0.2065   -5.0251 H   0  0  0  0  0
   57.5521    2.7015   -3.3053 H   0  0  0  0  0
   58.8377    2.0957   -4.3946 H   0  0  0  0  0
   57.9563    0.9360   -1.8299 H   0  0  0  0  0
   60.9977   -0.5923   -4.0254 H   0  0  0  0  0
   59.9640    0.6535   -4.7328 H   0  0  0  0  0
   59.2437   -0.6775   -0.9446 H   0  0  0  0  0
   55.0078    0.1250   -7.1090 H   0  0  0  0  0
   54.4321   -2.7809   -7.0878 H   0  0  0  0  0
   55.2974   -0.9993   -9.3548 H   0  0  0  0  0
   53.5559   -1.3051   -8.8362 H   0  0  0  0  0
   53.7456   -3.5744   -9.4776 H   0  0  0  0  0
   55.4837   -3.3747   -9.8580 H   0  0  0  0  0
   54.7141   -1.5462  -11.4763 H   0  0  0  0  0
   53.0711   -2.3010  -11.2911 H   0  0  0  0  0
   55.5702   -3.7163  -12.2129 H   0  0  0  0  0
   54.2682   -3.0834  -13.2843 H   0  0  0  0  0
   54.0060   -5.4108  -12.8268 H   0  0  0  0  0
   53.9489   -5.1224  -11.1866 H   0  0  0  0  0
   52.7443   -4.5368  -12.1779 H   0  0  0  0  0
   55.9663   -4.1675   -6.5247 H   0  0  0  0  0
   58.7485   -3.2747   -7.0401 H   0  0  0  0  0
   59.4799   -4.7989   -5.2695 H   0  0  0  0  0
   58.9181   -2.5035   -4.6831 H   0  0  0  0  0
   57.2198   -2.9695   -4.4193 H   0  0  0  0  0
   58.4951   -3.6125   -3.3557 H   0  0  0  0  0
   56.5318   -5.3864   -4.9146 H   0  0  0  0  0
   57.7750   -6.5176   -5.5027 H   0  0  0  0  0
   57.8382   -5.9175   -3.8273 H   0  0  0  0  0
   56.4246   -5.4616   -8.1123 H   0  0  0  0  0
   57.1472   -7.8617   -8.5988 H   0  0  0  0  0
   58.5669   -7.0605   -9.4123 H   0  0  0  0  0
   57.9211   -7.9800  -11.2517 H   0  0  0  0  0
  1  2  1  0  0  0
  2  3  1  0  0  0
  3  4  2  0  0  0
  3  5  1  0  0  0
  5  6  1  0  0  0
  6  7  1  0  0  0
  6  9  1  0  0  0
  7  8  2  0  0  0
  7 11  1  0  0  0
  9 10  1  0  0  0
 11 12  1  0  0  0
 11 17  1  0  0  0
 12 13  1  0  0  0
 12 15  1  0  0  0
 13 14  2  0  0  0
 13 18  1  0  0  0
 15 16  1  0  0  0
 16 17  1  0  0  0
 18 19  1  0  0  0
 18 24  1  0  0  0
 19 20  1  0  0  0
 19 22  1  0  0  0
 20 21  2  0  0  0
 20 25  1  0  0  0
 22 23  1  0  0  0
 23 24  1  0  0  0
 25 26  1  0  0  0
 26 27  1  0  0  0
 26 29  1  0  0  0
 27 28  2  0  0  0
 27 34  1  0  0  0
 29 30  1  0  0  0
 30 31  1  0  0  0
 31 32  1  0  0  0
 32 33  1  0  0  0
 34 35  1  0  0  0
 35 36  1  0  0  0
 35 38  1  0  0  0
 36 37  2  0  0  0
 36 43  1  0  0  0
 38 39  1  0  0  0
 39 40  1  0  0  0
 40 41  1  0  0  0
 41 42  1  0  0  0
 43 44  1  0  0  0
 44 45  1  0  0  0
 44 47  1  0  0  0
 45 46  2  0  0  0
 45 52  1  0  0  0
 47 48  1  0  0  0
 48 49  1  0  0  0
 49 50  1  0  0  0
 50 51  1  0  0  0
 52 53  1  0  0  0
 53 54  1  0  0  0
 53 56  1  0  0  0
 54 55  2  0  0  0
 54 63  1  0  0  0
 56 57  1  0  0  0
 57 58  1  0  0  0
 58 59  1  0  0  0
 59 60  1  0  0  0
 60 61  1  0  0  0
 60 62  2  0  0  0
 63 64  1  0  0  0
 64 65  1  0  0  0
 64 67  1  0  0  0
 65 66  2  0  0  0
 65 72  1  0  0  0
 67 68  1  0  0  0
 68 69  1  0  0  0
 69 70  1  0  0  0
 70 71  1  0  0  0
 72 73  1  0  0  0
 73 74  1  0  0  0
 73 76  1  0  0  0
 74 75  2  0  0  0
 74 79  1  0  0  0
 76 77  1  0  0  0
 76 78  1  0  0  0
 79 80  1  0  0  0
 80 81  1  0  0  0
 81 82  2  0  0  0
 81 83  1  0  0  0
  1 84  1  0  0  0
  1 85  1  0  0  0
  1 86  1  0  0  0
  2 87  1  0  0  0
  2 88  1  0  0  0
  5 89  1  0  0  0
  6 90  1  0  0  0
  9 91  1  0  0  0
  9 92  1  0  0  0
 10 93  1  0  0  0
 12 94  1  0  0  0
 15 95  1  0  0  0
 15 96  1  0  0  0
 16 97  1  0  0  0
 16 98  1  0  0  0
 17 99  1  0  0  0
 17100  1  0  0  0
 19101  1  0  0  0
 22102  1  0  0  0
 22103  1  0  0  0
 23104  1  0  0  0
 23105  1  0  0  0
 24106  1  0  0  0
 24107  1  0  0  0
 25108  1  0  0  0
 26109  1  0  0  0
 29110  1  0  0  0
 29111  1  0  0  0
 30112  1  0  0  0
 30113  1  0  0  0
 31114  1  0  0  0
 31115  1  0  0  0
 32116  1  0  0  0
 32117  1  0  0  0
 33118  1  0  0  0
 33119  1  0  0  0
 33120  1  0  0  0
 34121  1  0  0  0
 35122  1  0  0  0
 38123  1  0  0  0
 38124  1  0  0  0
 39125  1  0  0  0
 39126  1  0  0  0
 40127  1  0  0  0
 40128  1  0  0  0
 41129  1  0  0  0
 41130  1  0  0  0
 42131  1  0  0  0
 42132  1  0  0  0
 42133  1  0  0  0
 43134  1  0  0  0
 44135  1  0  0  0
 47136  1  0  0  0
 47137  1  0  0  0
 48138  1  0  0  0
 48139  1  0  0  0
 49140  1  0  0  0
 49141  1  0  0  0
 50142  1  0  0  0
 50143  1  0  0  0
 51144  1  0  0  0
 51145  1  0  0  0
 51146  1  0  0  0
 52147  1  0  0  0
 53148  1  0  0  0
 56149  1  0  0  0
 56150  1  0  0  0
 57151  1  0  0  0
 57152  1  0  0  0
 58153  1  0  0  0
 58154  1  0  0  0
 59155  1  0  0  0
 61156  1  0  0  0
 61157  1  0  0  0
 62158  1  0  0  0
 63159  1  0  0  0
 64160  1  0  0  0
 67161  1  0  0  0
 67162  1  0  0  0
 68163  1  0  0  0
 68164  1  0  0  0
 69165  1  0  0  0
 69166  1  0  0  0
 70167  1  0  0  0
 70168  1  0  0  0
 71169  1  0  0  0
 71170  1  0  0  0
 71171  1  0  0  0
 72172  1  0  0  0
 73173  1  0  0  0
 76174  1  0  0  0
 77175  1  0  0  0
 77176  1  0  0  0
 77177  1  0  0  0
 78178  1  0  0  0
 78179  1  0  0  0
 78180  1  0  0  0
 79181  1  0  0  0
 80182  1  0  0  0
 80183  1  0  0  0
 83184  1  0  0  0
M  END
$$$$
