### 
### Created by X-TOOL on Mon Sep 10 21:13:13 2018
### 

@<TRIPOS>MOLECULE
4b8o_ligand
  184   185     1     0     0
SMALL
GAST_HUCK


@<TRIPOS>ATOM
      1 N          43.4410   -2.4990   10.2760 N.4       1 GLY         0.2357
      2 CA         43.6850   -3.4510    9.2060 C.3       1 GLY         0.0545
      3 C          43.0040   -3.0670    7.8980 C.2       1 GLY         0.2237
      4 O          42.6420   -3.9260    7.0940 O.2       1 GLY        -0.3910
      5 N          42.8170   -1.7700    7.6890 N.am      1 SER        -0.2591
      6 CA         42.2400   -1.2550    6.4550 C.3       1 SER         0.1542
      7 C          43.1440   -1.4940    5.2370 C.2       1 SER         0.2087
      8 O          44.3420   -1.6840    5.3870 O.2       1 SER        -0.3941
      9 CB         42.0080    0.2380    6.6170 C.3       1 SER         0.0843
     10 OG         41.5150    0.7920    5.4220 O.3       1 SER        -0.3903
     11 N          42.5780   -1.4700    4.0150 N.am      1 PRO        -0.2498
     12 CA         43.4520   -1.6930    2.8540 C.3       1 PRO         0.1340
     13 C          44.4430   -0.5410    2.6650 C.2       1 PRO         0.2066
     14 O          44.1230    0.6020    2.9840 O.2       1 PRO        -0.3942
     15 CB         42.4750   -1.7480    1.6700 C.3       1 PRO        -0.0104
     16 CG         41.1330   -2.0170    2.2900 C.3       1 PRO        -0.0281
     17 CD         41.1720   -1.3260    3.6180 C.3       1 PRO         0.0369
     18 N          45.6320   -0.8310    2.1340 N.am      1 PRO        -0.2498
     19 CA         46.6020    0.2600    1.9450 C.3       1 PRO         0.1338
     20 C          46.0410    1.3880    1.0770 C.2       1 PRO         0.2041
     21 O          45.2350    1.1640    0.1630 O.2       1 PRO        -0.3944
     22 CB         47.7860   -0.4270    1.2480 C.3       1 PRO        -0.0104
     23 CG         47.2160   -1.6600    0.6360 C.3       1 PRO        -0.0281
     24 CD         46.0390   -2.0800    1.4700 C.3       1 PRO         0.0369
     25 N          46.4710    2.6030    1.3950 N.am      1 LYS        -0.2637
     26 CA         46.1350    3.7840    0.6280 C.3       1 LYS         0.1310
     27 C          46.9600    3.9000   -0.6390 C.2       1 LYS         0.2039
     28 O          46.5520    4.5340   -1.5960 O.2       1 LYS        -0.3944
     29 CB         46.3830    5.0170    1.4830 C.3       1 LYS        -0.0122
     30 CG         45.3410    5.1620    2.6140 C.3       1 LYS        -0.0440
     31 CD         45.6440    6.3550    3.4800 C.3       1 LYS        -0.0124
     32 CE         44.4510    6.7180    4.3330 C.3       1 LYS        -0.0354
     33 NZ         44.7390    7.9340    5.1400 N.4       1 LYS         0.2185
     34 N          48.1390    3.3050   -0.6130 N.am      1 LYS        -0.2637
     35 CA         49.0880    3.3860   -1.7170 C.3       1 LYS         0.1310
     36 C          49.7980    2.0660   -1.8120 C.2       1 LYS         0.2039
     37 O          49.9210    1.3710   -0.8250 O.2       1 LYS        -0.3944
     38 CB         50.0910    4.4970   -1.4810 C.3       1 LYS        -0.0122
     39 CG         49.5050    5.9000   -1.6060 C.3       1 LYS        -0.0440
     40 CD         50.5970    6.9490   -1.6190 C.3       1 LYS        -0.0124
     41 CE         50.0140    8.3320   -1.6870 C.3       1 LYS        -0.0354
     42 NZ         51.0580    9.3510   -1.9060 N.4       1 LYS         0.2185
     43 N          50.2010    1.6900   -3.0200 N.am      1 LYS        -0.2637
     44 CA         50.9420    0.4560   -3.2200 C.3       1 LYS         0.1310
     45 C          52.0750    0.7460   -4.1810 C.2       1 LYS         0.2039
     46 O          51.8560    1.3490   -5.2490 O.2       1 LYS        -0.3944
     47 CB         50.0670   -0.6180   -3.8590 C.3       1 LYS        -0.0122
     48 CG         48.9860   -1.1820   -3.0110 C.3       1 LYS        -0.0440
     49 CD         48.2460   -2.2610   -3.7880 C.3       1 LYS        -0.0124
     50 CE         47.0470   -2.7820   -3.0220 C.3       1 LYS        -0.0354
     51 NZ         46.2980   -3.8430   -3.7710 N.4       1 LYS         0.2185
     52 N          53.2710    0.3090   -3.8070 N.am      1 ARG        -0.2637
     53 CA         54.4480    0.4500   -4.6570 C.3       1 ARG         0.1311
     54 C          54.6260   -0.8700   -5.3880 C.2       1 ARG         0.2039
     55 O          54.4970   -1.9270   -4.7980 O.2       1 ARG        -0.3944
     56 CB         55.6790    0.7820   -3.8030 C.3       1 ARG        -0.0092
     57 CG         56.9370    1.1300   -4.6290 C.3       1 ARG        -0.0156
     58 CD         57.9920    1.8170   -3.7660 C.3       1 ARG         0.0627
     59 NE         58.4560    0.9190   -2.7190 N.pl3     1 ARG        -0.2723
     60 CZ         59.4790    0.0790   -2.8300 C.cat     1 ARG         0.2882
     61 NH1        60.2040    0.0440   -3.9510 N.pl3     1 ARG        -0.2849
     62 NH2        59.7900   -0.7170   -1.8050 N.pl3     1 ARG        -0.2849
     63 N          54.8990   -0.7930   -6.6780 N.am      1 LYS        -0.2637
     64 CA         55.0480   -1.9800   -7.4970 C.3       1 LYS         0.1310
     65 C          56.5020   -2.4580   -7.4820 C.2       1 LYS         0.2039
     66 O          57.3850   -1.7880   -7.9770 O.2       1 LYS        -0.3944
     67 CB         54.5730   -1.6880   -8.9200 C.3       1 LYS        -0.0122
     68 CG         54.5090   -2.8870   -9.8420 C.3       1 LYS        -0.0440
     69 CD         54.1500   -2.4520  -11.2540 C.3       1 LYS        -0.0124
     70 CE         54.5080   -3.4880  -12.3010 C.3       1 LYS        -0.0354
     71 NZ         53.7420   -4.7370  -12.1080 N.4       1 LYS         0.2185
     72 N          56.7420   -3.6150   -6.8900 N.am      1 VAL        -0.2635
     73 CA         58.1020   -4.1050   -6.7560 C.3       1 VAL         0.1332
     74 C          58.3980   -5.2630   -7.6990 C.2       1 VAL         0.2034
     75 O          59.5490   -5.6160   -7.9100 O.2       1 VAL        -0.3944
     76 CB         58.4340   -4.4940   -5.3060 C.3       1 VAL        -0.0063
     77 CG1        58.2540   -3.3110   -4.3750 C.3       1 VAL        -0.0584
     78 CG2        57.5850   -5.6610   -4.8560 C.3       1 VAL        -0.0584
     79 N          57.3580   -5.8380   -8.2780 N.am      1 GLY        -0.2722
     80 CA         57.5130   -6.9910   -9.1430 C.3       1 GLY         0.0833
     81 C          56.7180   -6.8890  -10.4300 C.2       1 GLY         0.0570
     82 O          55.6665   -6.1969  -10.4847 O.co2     1 GLY        -0.5669
     83 O          57.1133   -7.5034  -11.4566 O.co2     1 GLY        -0.5669
     84 H1         43.9142   -2.8045   11.1119 H         1 GLY         0.2012
     85 H2         42.4505   -2.4394   10.4534 H         1 GLY         0.2012
     86 H3         43.7890   -1.5926   10.0052 H         1 GLY         0.2012
     87 H4         43.3088   -4.4356    9.5207 H         1 GLY         0.1061
     88 H5         44.7694   -3.5114    9.0316 H         1 GLY         0.1061
     89 H6         43.0817   -1.1232    8.4043 H         1 SER         0.1885
     90 H7         41.2770   -1.7570    6.2801 H         1 SER         0.0823
     91 H8         42.9589    0.7261    6.8771 H         1 SER         0.0606
     92 H9         41.2775    0.4057    7.4221 H         1 SER         0.0606
     93 H10        40.6924    0.3739    5.1962 H         1 SER         0.2097
     94 H11        44.0035   -2.6392    2.9566 H         1 PRO         0.0802
     95 H12        42.7508   -2.5570    0.9776 H         1 PRO         0.0313
     96 H13        42.4669   -0.7898    1.1298 H         1 PRO         0.0313
     97 H14        40.9779   -3.0980    2.4215 H         1 PRO         0.0287
     98 H15        40.3284   -1.6046    1.6635 H         1 PRO         0.0287
     99 H16        40.8934   -0.2662    3.5221 H         1 PRO         0.0524
    100 H17        40.5035   -1.8170    4.3404 H         1 PRO         0.0524
    101 H18        46.9090    0.6739    2.9168 H         1 PRO         0.0802
    102 H19        48.5672   -0.6844    1.9783 H         1 PRO         0.0313
    103 H20        48.2103    0.2279    0.4727 H         1 PRO         0.0313
    104 H21        47.9728   -2.4583    0.6267 H         1 PRO         0.0287
    105 H22        46.8904   -1.4514   -0.3938 H         1 PRO         0.0287
    106 H23        45.2286   -2.4728    0.8384 H         1 PRO         0.0524
    107 H24        46.3307   -2.8417    2.2080 H         1 PRO         0.0524
    108 H25        47.0536    2.7073    2.2011 H         1 LYS         0.1883
    109 H26        45.0706    3.7362    0.3546 H         1 LYS         0.0800
    110 H27        46.3352    5.9088    0.8409 H         1 LYS         0.0312
    111 H28        47.3845    4.9414    1.9316 H         1 LYS         0.0312
    112 H29        45.3561    4.2542    3.2350 H         1 LYS         0.0269
    113 H30        44.3426    5.2854    2.1691 H         1 LYS         0.0269
    114 H31        45.9013    7.2103    2.8379 H         1 LYS         0.0317
    115 H32        46.4960    6.1182    4.1343 H         1 LYS         0.0317
    116 H33        44.2209    5.8811    5.0088 H         1 LYS         0.0813
    117 H34        43.5859    6.9121    3.6819 H         1 LYS         0.0813
    118 H35        43.9343    8.1623    5.7025 H         1 LYS         0.1994
    119 H36        44.9479    8.7042    4.5243 H         1 LYS         0.1994
    120 H37        45.5298    7.7595    5.7401 H         1 LYS         0.1994
    121 H38        48.3913    2.7769    0.1978 H         1 LYS         0.1883
    122 H39        48.5461    3.5833   -2.6537 H         1 LYS         0.0800
    123 H40        50.9011    4.3938   -2.2180 H         1 LYS         0.0312
    124 H41        50.5012    4.3828   -0.4668 H         1 LYS         0.0312
    125 H42        48.8372    6.0876   -0.7523 H         1 LYS         0.0269
    126 H43        48.9313    5.9674   -2.5421 H         1 LYS         0.0269
    127 H44        51.2413    6.7868   -2.4956 H         1 LYS         0.0317
    128 H45        51.1962    6.8560   -0.7012 H         1 LYS         0.0317
    129 H46        49.4969    8.5484   -0.7406 H         1 LYS         0.0813
    130 H47        49.2933    8.3753   -2.5169 H         1 LYS         0.0813
    131 H48        50.6330   10.2641   -1.9463 H         1 LYS         0.1994
    132 H49        51.5339    9.1633   -2.7745 H         1 LYS         0.1994
    133 H50        51.7204    9.3220   -1.1468 H         1 LYS         0.1994
    134 H51        49.9903    2.2679   -3.8084 H         1 LYS         0.1883
    135 H52        51.3336    0.0960   -2.2572 H         1 LYS         0.0800
    136 H53        50.7229   -1.4480   -4.1604 H         1 LYS         0.0312
    137 H54        49.5972   -0.1792   -4.7516 H         1 LYS         0.0312
    138 H55        48.2832   -0.3830   -2.7324 H         1 LYS         0.0269
    139 H56        49.4233   -1.6193   -2.1013 H         1 LYS         0.0269
    140 H57        48.9350   -3.0962   -3.9822 H         1 LYS         0.0317
    141 H58        47.9022   -1.8393   -4.7440 H         1 LYS         0.0317
    142 H59        46.3642   -1.9427   -2.8239 H         1 LYS         0.0813
    143 H60        47.3954   -3.2043   -2.0679 H         1 LYS         0.0813
    144 H61        45.5136   -4.1535   -3.2193 H         1 LYS         0.1994
    145 H62        46.9108   -4.6225   -3.9522 H         1 LYS         0.1994
    146 H63        45.9659   -3.4664   -4.6450 H         1 LYS         0.1994
    147 H64        53.3684   -0.1309   -2.9142 H         1 ARG         0.1883
    148 H65        54.2886    1.2583   -5.3859 H         1 ARG         0.0800
    149 H66        55.9087   -0.0896   -3.1724 H         1 ARG         0.0313
    150 H67        55.4352    1.6432   -3.1636 H         1 ARG         0.0313
    151 H68        56.6517    1.8034   -5.4506 H         1 ARG         0.0301
    152 H69        57.3609    0.2039   -5.0443 H         1 ARG         0.0301
    153 H70        57.5545    2.7150   -3.3053 H         1 ARG         0.0689
    154 H71        58.8442    2.1072   -4.3981 H         1 ARG         0.0689
    155 H72        57.9514    0.9361   -1.8212 H         1 ARG         0.2642
    156 H73        60.9962   -0.6093   -4.0318 H         1 ARG         0.2615
    157 H74        59.9710    0.6703   -4.7348 H         1 ARG         0.2615
    158 H75        59.2290   -0.6878   -0.9416 H         1 ARG         0.2615
    159 H76        60.5910   -1.3605   -1.8773 H         1 ARG         0.2615
    160 H77        55.0056    0.1070   -7.1006 H         1 LYS         0.1883
    161 H78        54.4178   -2.7778   -7.0771 H         1 LYS         0.0800
    162 H79        55.2623   -0.9548   -9.3642 H         1 LYS         0.0312
    163 H80        53.5646   -1.2529   -8.8586 H         1 LYS         0.0312
    164 H81        53.7450   -3.5872   -9.4733 H         1 LYS         0.0269
    165 H82        55.4888   -3.3868   -9.8550 H         1 LYS         0.0269
    166 H83        54.6903   -1.5215  -11.4824 H         1 LYS         0.0317
    167 H84        53.0665   -2.2675  -11.2994 H         1 LYS         0.0317
    168 H85        55.5825   -3.7126  -12.2295 H         1 LYS         0.0813
    169 H86        54.2839   -3.0813  -13.2982 H         1 LYS         0.0813
    170 H87        54.0021   -5.4037  -12.8179 H         1 LYS         0.1994
    171 H88        52.7558   -4.5404  -12.1769 H         1 LYS         0.1994
    172 H89        53.9457   -5.1189  -11.1977 H         1 LYS         0.1994
    173 H90        55.9815   -4.1567   -6.5319 H         1 VAL         0.1883
    174 H91        58.7706   -3.2773   -7.0351 H         1 VAL         0.0802
    175 H92        59.4891   -4.8027   -5.2676 H         1 VAL         0.0343
    176 H93        58.4970   -3.6140   -3.3459 H         1 VAL         0.0234
    177 H94        57.2106   -2.9654   -4.4187 H         1 VAL         0.0234
    178 H95        58.9238   -2.4953   -4.6848 H         1 VAL         0.0234
    179 H96        57.7304   -6.5069   -5.5439 H         1 VAL         0.0234
    180 H97        56.5254   -5.3655   -4.8570 H         1 VAL         0.0234
    181 H98        57.8814   -5.9598   -3.8397 H         1 VAL         0.0234
    182 H99        56.4429   -5.4690   -8.1155 H         1 GLY         0.1873
    183 H100       57.1781   -7.8848   -8.5962 H         1 GLY         0.0689
    184 H101       58.5779   -7.0949   -9.3983 H         1 GLY         0.0689
@<TRIPOS>BOND
     1    1    2 1  
     2    2    3 1  
     3    3    4 2  
     4    3    5 am 
     5    5    6 1  
     6    6    7 1  
     7    6    9 1  
     8    7    8 2  
     9    7   11 am 
    10    9   10 1  
    11   11   12 1  
    12   11   17 1  
    13   12   13 1  
    14   12   15 1  
    15   13   14 2  
    16   13   18 am 
    17   15   16 1  
    18   16   17 1  
    19   18   19 1  
    20   18   24 1  
    21   19   20 1  
    22   19   22 1  
    23   20   21 2  
    24   20   25 am 
    25   22   23 1  
    26   23   24 1  
    27   25   26 1  
    28   26   27 1  
    29   26   29 1  
    30   27   28 2  
    31   27   34 am 
    32   29   30 1  
    33   30   31 1  
    34   31   32 1  
    35   32   33 1  
    36   34   35 1  
    37   35   36 1  
    38   35   38 1  
    39   36   37 2  
    40   36   43 am 
    41   38   39 1  
    42   39   40 1  
    43   40   41 1  
    44   41   42 1  
    45   43   44 1  
    46   44   45 1  
    47   44   47 1  
    48   45   46 2  
    49   45   52 am 
    50   47   48 1  
    51   48   49 1  
    52   49   50 1  
    53   50   51 1  
    54   52   53 1  
    55   53   54 1  
    56   53   56 1  
    57   54   55 2  
    58   54   63 am 
    59   56   57 1  
    60   57   58 1  
    61   58   59 1  
    62   59   60 ar 
    63   60   61 ar 
    64   60   62 ar 
    65   63   64 1  
    66   64   65 1  
    67   64   67 1  
    68   65   66 2  
    69   65   72 am 
    70   67   68 1  
    71   68   69 1  
    72   69   70 1  
    73   70   71 1  
    74   72   73 1  
    75   73   74 1  
    76   73   76 1  
    77   74   75 2  
    78   74   79 am 
    79   76   77 1  
    80   76   78 1  
    81   79   80 1  
    82   80   81 1  
    83   81   82 ar 
    84   81   83 ar 
    85    1   84 1  
    86    1   85 1  
    87    1   86 1  
    88    2   87 1  
    89    2   88 1  
    90    5   89 1  
    91    6   90 1  
    92    9   91 1  
    93    9   92 1  
    94   10   93 1  
    95   12   94 1  
    96   15   95 1  
    97   15   96 1  
    98   16   97 1  
    99   16   98 1  
   100   17   99 1  
   101   17  100 1  
   102   19  101 1  
   103   22  102 1  
   104   22  103 1  
   105   23  104 1  
   106   23  105 1  
   107   24  106 1  
   108   24  107 1  
   109   25  108 1  
   110   26  109 1  
   111   29  110 1  
   112   29  111 1  
   113   30  112 1  
   114   30  113 1  
   115   31  114 1  
   116   31  115 1  
   117   32  116 1  
   118   32  117 1  
   119   33  118 1  
   120   33  119 1  
   121   33  120 1  
   122   34  121 1  
   123   35  122 1  
   124   38  123 1  
   125   38  124 1  
   126   39  125 1  
   127   39  126 1  
   128   40  127 1  
   129   40  128 1  
   130   41  129 1  
   131   41  130 1  
   132   42  131 1  
   133   42  132 1  
   134   42  133 1  
   135   43  134 1  
   136   44  135 1  
   137   47  136 1  
   138   47  137 1  
   139   48  138 1  
   140   48  139 1  
   141   49  140 1  
   142   49  141 1  
   143   50  142 1  
   144   50  143 1  
   145   51  144 1  
   146   51  145 1  
   147   51  146 1  
   148   52  147 1  
   149   53  148 1  
   150   56  149 1  
   151   56  150 1  
   152   57  151 1  
   153   57  152 1  
   154   58  153 1  
   155   58  154 1  
   156   59  155 1  
   157   61  156 1  
   158   61  157 1  
   159   62  158 1  
   160   62  159 1  
   161   63  160 1  
   162   64  161 1  
   163   67  162 1  
   164   67  163 1  
   165   68  164 1  
   166   68  165 1  
   167   69  166 1  
   168   69  167 1  
   169   70  168 1  
   170   70  169 1  
   171   71  170 1  
   172   71  171 1  
   173   71  172 1  
   174   72  173 1  
   175   73  174 1  
   176   76  175 1  
   177   77  176 1  
   178   77  177 1  
   179   77  178 1  
   180   78  179 1  
   181   78  180 1  
   182   78  181 1  
   183   79  182 1  
   184   80  183 1  
   185   80  184 1  
@<TRIPOS>SUBSTRUCTURE
     1 GLY         1

