5edr_ligand
  -I-interpret- 

 45 49  0  0  0  0  0  0  0  0999 V2000
  -51.1190   -0.9520  -24.6210 C   0  0  0  0  0
  -54.7240    1.7880  -21.8010 C   0  0  0  0  0
  -51.7440   -0.4470  -25.7700 C   0  0  0  0  0
  -56.4270    2.4670  -24.9100 C   0  0  0  0  0
  -53.3540    0.5510  -24.4070 C   0  0  0  0  0
  -54.5890    1.3630  -24.3160 C   0  0  0  0  0
  -55.3590    1.7240  -25.3860 C   0  0  0  0  0
  -51.6850   -0.6700  -23.3750 C   0  0  0  0  0
  -50.1220   -0.1900  -21.5060 C   0  0  0  0  0
  -50.8250   -1.3030  -22.3020 C   0  0  0  0  0
  -52.8600    0.2680  -25.6050 N   0  0  0  0  0
  -52.7860    0.0640  -23.3140 N   0  0  0  0  0
  -56.3170    2.5860  -23.6120 N   0  0  0  0  0
  -55.1790    1.8890  -23.1920 N   0  0  0  0  0
  -51.2130   -0.6850  -27.0360 N   0  0  0  0  0
  -51.7040   -0.1170  -28.2290 C   0  0  0  0  0
  -52.0740    1.2860  -28.5080 C   0  0  0  0  0
  -52.1010    2.4780  -27.7580 C   0  0  0  0  0
  -52.5440    3.6370  -28.3490 C   0  0  0  0  0
  -52.9260    3.6680  -29.7020 C   0  0  0  0  0
  -52.8910    2.5310  -30.4620 C   0  0  0  0  0
  -52.4770    1.3230  -29.8700 C   0  0  0  0  0
  -52.3510    0.0440  -30.3440 N   0  0  0  0  0
  -51.8870   -0.7920  -29.3330 N   0  0  0  0  0
  -49.8800   -1.7790  -24.3900 C   0  0  0  0  0
  -49.8780   -2.1470  -22.9930 O   0  0  0  0  0
  -51.6770   -2.1740  -21.3640 C   0  0  0  0  0
  -54.6807    0.7386  -21.5095 H   0  0  0  0  0
  -53.7328    2.2326  -21.7111 H   0  0  0  0  0
  -55.4215    2.3181  -21.1525 H   0  0  0  0  0
  -57.2290    2.8848  -25.5185 H   0  0  0  0  0
  -55.1668    1.4720  -26.4289 H   0  0  0  0  0
  -49.4580   -0.6378  -20.7666 H   0  0  0  0  0
  -49.5419    0.4317  -22.1879 H   0  0  0  0  0
  -50.8697    0.4219  -21.0014 H   0  0  0  0  0
  -50.4131   -1.3142  -27.1043 H   0  0  0  0  0
  -51.7735    2.4812  -26.7184 H   0  0  0  0  0
  -52.6004    4.5505  -27.7571 H   0  0  0  0  0
  -53.2530    4.6066  -30.1494 H   0  0  0  0  0
  -53.1800    2.5602  -31.5126 H   0  0  0  0  0
  -48.9835   -1.2128  -24.6428 H   0  0  0  0  0
  -49.8821   -2.6655  -25.0242 H   0  0  0  0  0
  -52.2094   -2.9233  -21.9498 H   0  0  0  0  0
  -51.0285   -2.6694  -20.6414 H   0  0  0  0  0
  -52.3949   -1.5446  -20.8381 H   0  0  0  0  0
  3  1  4  0  0  0
  1  8  4  0  0  0
  1 25  1  0  0  0
 14  2  1  0  0  0
 11  3  4  0  0  0
  3 15  1  0  0  0
  7  4  4  0  0  0
  4 13  4  0  0  0
  6  5  1  0  0  0
  5 11  4  0  0  0
  5 12  4  0  0  0
  6  7  4  0  0  0
  6 14  4  0  0  0
  8 10  1  0  0  0
  8 12  4  0  0  0
 10  9  1  0  0  0
 10 26  1  0  0  0
 10 27  1  0  0  0
 13 14  4  0  0  0
 15 16  1  0  0  0
 16 17  4  0  0  0
 16 24  4  0  0  0
 17 18  4  0  0  0
 17 22  4  0  0  0
 18 19  4  0  0  0
 19 20  4  0  0  0
 20 21  4  0  0  0
 21 22  4  0  0  0
 22 23  4  0  0  0
 23 24  4  0  0  0
 25 26  1  0  0  0
  2 28  1  0  0  0
  2 29  1  0  0  0
  2 30  1  0  0  0
  4 31  1  0  0  0
  7 32  1  0  0  0
  9 33  1  0  0  0
  9 34  1  0  0  0
  9 35  1  0  0  0
 15 36  1  0  0  0
 18 37  1  0  0  0
 19 38  1  0  0  0
 20 39  1  0  0  0
 21 40  1  0  0  0
 25 41  1  0  0  0
 25 42  1  0  0  0
 27 43  1  0  0  0
 27 44  1  0  0  0
 27 45  1  0  0  0
M  END
$$$$
