4yx4_ligand
  -I-interpret- 

 17 17  0  0  0  0  0  0  0  0999 V2000
   -1.1430    6.4730   84.4120 C   0  0  0  0  0
   -2.4720    6.4170   84.7710 C   0  0  0  0  0
   -2.9690    5.3280   85.4680 C   0  0  0  0  0
   -2.1100    4.2940   85.8060 C   0  0  0  0  0
   -0.7730    4.3350   85.4400 C   0  0  0  0  0
   -0.2980    5.4340   84.7430 C   0  0  0  0  0
   -2.7160    2.9340   86.7620 S   0  0  0  0  0
   -4.1410    2.9110   86.6050 O   0  0  0  0  0
   -2.1710    3.0770   88.0790 O   0  0  0  0  0
   -2.1010    1.6270   86.1490 N   0  0  0  0  0
   -0.7601    7.3363   83.8677 H   0  0  0  0  0
   -3.1385    7.2372   84.5041 H   0  0  0  0  0
   -4.0218    5.2847   85.7470 H   0  0  0  0  0
   -0.1046    3.5133   85.6974 H   0  0  0  0  0
    0.7520    5.4781   84.4538 H   0  0  0  0  0
   -2.7099    0.9270   85.7251 H   0  0  0  0  0
   -1.0923    1.4774   86.1744 H   0  0  0  0  0
  1  2  4  0  0  0
  1  6  4  0  0  0
  2  3  4  0  0  0
  3  4  4  0  0  0
  4  5  4  0  0  0
  4  7  1  0  0  0
  5  6  4  0  0  0
  7  8  2  0  0  0
  7  9  2  0  0  0
  7 10  1  0  0  0
  1 11  1  0  0  0
  2 12  1  0  0  0
  3 13  1  0  0  0
  5 14  1  0  0  0
  6 15  1  0  0  0
 10 16  1  0  0  0
 10 17  1  0  0  0
M  END
$$$$
