2qnn_ligand
  -I-interpret- 

 85 89  0  0  0  0  0  0  0  0999 V2000
    5.4650  -14.7950  -15.7110 N   0  0  0  0  0
    6.6870  -14.4800  -15.2260 C   0  0  0  0  0
    7.7030  -15.5870  -15.1660 C   0  0  0  0  0
    8.9190  -15.3360  -14.5120 C   0  0  0  0  0
    9.8700  -16.3580  -14.4340 C   0  0  0  0  0
    9.5590  -17.6180  -14.9240 C   0  0  0  0  0
    8.3650  -17.8910  -15.6180 C   0  0  0  0  0
    7.4340  -16.8520  -15.7020 C   0  0  0  0  0
   10.7120  -18.9050  -14.7960 S   0  0  0  0  0
   11.0780  -18.9590  -13.3840 O   0  0  0  0  0
   10.0950  -20.0770  -15.4220 O   0  0  0  0  0
   12.1460  -18.5450  -15.6620 N   0  0  0  0  0
   13.3740  -18.2470  -14.9170 C   0  0  0  0  0
   14.1730  -19.5530  -14.6580 C   0  0  0  0  0
   15.5200  -19.6240  -15.0740 C   0  0  0  0  0
   16.2970  -20.7690  -14.8450 C   0  0  0  0  0
   15.7060  -21.8970  -14.2370 C   0  0  0  0  0
   16.5620  -23.1420  -13.9740 C   0  0  0  0  0
   16.0650  -24.2710  -14.5290 F   0  0  0  0  0
   17.8310  -22.9200  -14.4370 F   0  0  0  0  0
   16.6890  -23.2940  -12.6310 F   0  0  0  0  0
   14.3730  -21.8360  -13.8250 C   0  0  0  0  0
   13.6040  -20.6820  -14.0630 C   0  0  0  0  0
   12.0200  -18.6950  -17.1220 C   0  0  0  0  0
   12.7820  -17.6020  -17.8960 C   0  0  0  0  0
   14.1300  -18.1670  -18.2000 N   0  3  0  0  0
   14.0500  -19.6200  -18.2230 C   0  0  0  0  0
   12.7260  -20.0290  -17.5390 C   0  0  0  0  0
   11.9440  -20.8450  -18.4430 N   0  0  0  0  0
   11.4650  -20.4150  -19.7450 C   0  0  0  0  0
   10.1870  -19.6400  -19.8400 C   0  0  0  0  0
   10.1350  -18.6430  -20.8180 C   0  0  0  0  0
    8.9730  -17.9150  -21.0010 C   0  0  0  0  0
    7.8790  -18.1210  -20.1800 C   0  0  0  0  0
    6.6210  -17.2570  -20.4290 C   0  0  0  0  0
    7.0570  -16.0210  -20.8730 F   0  0  0  0  0
    5.9840  -17.8300  -21.4720 F   0  0  0  0  0
    5.9090  -17.0620  -19.3220 F   0  0  0  0  0
    7.9460  -19.0880  -19.1750 C   0  0  0  0  0
    9.1030  -19.8280  -18.9860 C   0  0  0  0  0
   11.7530  -22.4550  -18.0800 S   0  0  0  0  0
   13.2540  -23.1460  -18.7230 C   0  0  0  0  0
   13.3330  -23.4130  -20.0920 C   0  0  0  0  0
   14.5120  -23.9520  -20.6350 C   0  0  0  0  0
   15.5610  -24.2390  -19.7680 C   0  0  0  0  0
   16.8530  -24.7890  -20.3680 C   0  0  0  0  0
   17.1470  -24.4690  -21.5110 O   0  0  0  0  0
   17.6640  -25.5970  -19.6980 N   0  0  0  0  0
   15.4810  -23.9470  -18.4130 C   0  0  0  0  0
   14.3050  -23.4120  -17.8350 C   0  0  0  0  0
   10.6580  -22.9630  -18.8910 O   0  0  0  0  0
   11.7310  -22.6690  -16.6410 O   0  0  0  0  0
    6.9750  -13.3560  -14.8400 O   0  0  0  0  0
    4.7386  -14.0811  -15.7661 H   0  0  0  0  0
    5.2694  -15.7466  -16.0219 H   0  0  0  0  0
    9.1191  -14.3592  -14.0716 H   0  0  0  0  0
   10.8477  -16.1663  -13.9918 H   0  0  0  0  0
    8.1758  -18.8655  -16.0681 H   0  0  0  0  0
    6.4785  -17.0303  -16.1952 H   0  0  0  0  0
   13.1109  -17.7938  -13.9613 H   0  0  0  0  0
   13.9887  -17.5620  -15.5010 H   0  0  0  0  0
   15.9660  -18.7704  -15.5843 H   0  0  0  0  0
   17.3478  -20.7874  -15.1340 H   0  0  0  0  0
   13.9249  -22.6889  -13.3152 H   0  0  0  0  0
   12.5515  -20.6686  -13.7798 H   0  0  0  0  0
   10.9553  -18.6529  -17.3518 H   0  0  0  0  0
   12.8634  -16.6886  -17.3068 H   0  0  0  0  0
   12.2555  -17.3297  -18.8107 H   0  0  0  0  0
   14.7926  -17.8733  -17.4823 H   0  0  0  0  0
   14.4445  -17.8284  -19.1093 H   0  0  0  0  0
   14.8992  -20.0549  -17.6959 H   0  0  0  0  0
   14.0748  -19.9849  -19.2498 H   0  0  0  0  0
   12.8752  -20.6423  -16.6504 H   0  0  0  0  0
   11.2692  -21.3399  -20.2876 H   0  0  0  0  0
   12.2314  -19.7315  -20.1104 H   0  0  0  0  0
   11.0094  -18.4392  -21.4361 H   0  0  0  0  0
    8.9191  -17.1735  -21.7981 H   0  0  0  0  0
    7.0818  -19.2624  -18.5340 H   0  0  0  0  0
    9.1639  -20.5526  -18.1740 H   0  0  0  0  0
   12.4809  -23.2035  -20.7386 H   0  0  0  0  0
   14.6017  -24.1397  -21.7050 H   0  0  0  0  0
   18.5178  -25.9415  -20.1371 H   0  0  0  0  0
   17.4339  -25.8739  -18.7436 H   0  0  0  0  0
   16.3466  -24.1347  -17.7777 H   0  0  0  0  0
   14.2220  -23.2189  -16.7655 H   0  0  0  0  0
  1  2  1  0  0  0
  2  3  1  0  0  0
  2 53  2  0  0  0
  3  4  4  0  0  0
  3  8  4  0  0  0
  4  5  4  0  0  0
  5  6  4  0  0  0
  6  7  4  0  0  0
  6  9  1  0  0  0
  7  8  4  0  0  0
  9 10  2  0  0  0
  9 11  2  0  0  0
  9 12  1  0  0  0
 12 13  1  0  0  0
 12 24  1  0  0  0
 13 14  1  0  0  0
 14 15  4  0  0  0
 14 23  4  0  0  0
 15 16  4  0  0  0
 16 17  4  0  0  0
 17 18  1  0  0  0
 17 22  4  0  0  0
 18 19  1  0  0  0
 18 20  1  0  0  0
 18 21  1  0  0  0
 22 23  4  0  0  0
 24 25  1  0  0  0
 24 28  1  0  0  0
 25 26  1  0  0  0
 26 27  1  0  0  0
 27 28  1  0  0  0
 28 29  1  0  0  0
 29 30  1  0  0  0
 29 41  1  0  0  0
 30 31  1  0  0  0
 31 32  4  0  0  0
 31 40  4  0  0  0
 32 33  4  0  0  0
 33 34  4  0  0  0
 34 35  1  0  0  0
 34 39  4  0  0  0
 35 36  1  0  0  0
 35 37  1  0  0  0
 35 38  1  0  0  0
 39 40  4  0  0  0
 41 42  1  0  0  0
 41 51  2  0  0  0
 41 52  2  0  0  0
 42 43  4  0  0  0
 42 50  4  0  0  0
 43 44  4  0  0  0
 44 45  4  0  0  0
 45 46  1  0  0  0
 45 49  4  0  0  0
 46 47  2  0  0  0
 46 48  1  0  0  0
 49 50  4  0  0  0
  1 54  1  0  0  0
  1 55  1  0  0  0
  4 56  1  0  0  0
  5 57  1  0  0  0
  7 58  1  0  0  0
  8 59  1  0  0  0
 13 60  1  0  0  0
 13 61  1  0  0  0
 15 62  1  0  0  0
 16 63  1  0  0  0
 22 64  1  0  0  0
 23 65  1  0  0  0
 24 66  1  0  0  0
 25 67  1  0  0  0
 25 68  1  0  0  0
 26 69  1  0  0  0
 26 70  1  0  0  0
 27 71  1  0  0  0
 27 72  1  0  0  0
 28 73  1  0  0  0
 30 74  1  0  0  0
 30 75  1  0  0  0
 32 76  1  0  0  0
 33 77  1  0  0  0
 39 78  1  0  0  0
 40 79  1  0  0  0
 43 80  1  0  0  0
 44 81  1  0  0  0
 48 82  1  0  0  0
 48 83  1  0  0  0
 49 84  1  0  0  0
 50 85  1  0  0  0
M  END
$$$$
