3zhf_ligand
  -I-interpret- 

102105  0  0  0  0  0  0  0  0999 V2000
   35.8040   46.5610   37.0700 N   0  3  0  0  0
   34.7910   47.6170   37.0420 C   0  0  0  0  0
   33.7440   47.4060   38.1340 C   0  0  0  0  0
   33.0960   46.3610   38.1530 O   0  0  0  0  0
   34.1670   47.4440   35.6560 C   0  0  0  0  0
   35.2630   46.8130   34.8050 C   0  0  0  0  0
   36.3570   46.3120   35.7290 C   0  0  0  0  0
   33.5890   48.3910   39.0190 N   0  0  0  0  0
   32.7230   48.2910   40.2020 C   0  0  0  0  0
   31.2990   47.7890   39.9070 C   0  0  0  0  0
   30.8290   47.8610   38.7750 O   0  0  0  0  0
   32.6720   49.6390   40.9270 C   0  0  0  0  0
   34.0520   50.2210   41.1730 C   0  0  0  0  0
   34.9190   49.5000   41.7160 O   0  0  0  0  0
   34.2720   51.3950   40.8050 O   0  0  0  0  0
   30.6260   47.2720   40.9340 N   0  0  0  0  0
   29.3230   46.6270   40.7710 C   0  0  0  0  0
   28.3250   47.2680   41.7350 C   0  0  0  0  0
   28.6750   48.2290   42.4230 O   0  0  0  0  0
   29.4040   45.1190   41.0710 C   0  0  0  0  0
   30.6780   44.3740   40.6510 C   0  0  0  0  0
   31.9630   44.8500   40.6510 C   0  0  0  0  0
   30.7690   43.0130   40.2010 C   0  0  0  0  0
   32.8320   43.8850   40.2190 N   0  0  0  0  0
   32.1250   42.7450   39.9390 C   0  0  0  0  0
   29.8320   41.9990   39.9860 C   0  0  0  0  0
   32.5670   41.5000   39.4810 C   0  0  0  0  0
   30.2770   40.7640   39.5280 C   0  0  0  0  0
   31.6230   40.5250   39.2900 C   0  0  0  0  0
   27.0980   46.7410   41.7870 N   0  0  0  0  0
   26.1150   47.1640   42.7960 C   0  0  0  0  0
   24.8830   46.2520   42.9290 C   0  0  0  0  0
   24.3100   45.7950   41.9340 O   0  0  0  0  0
   25.6860   48.6290   42.6040 C   0  0  0  0  0
   24.6870   48.8130   41.4760 C   0  0  0  0  0
   24.7700   48.0790   40.4670 O   0  0  0  0  0
   23.8190   49.7070   41.6010 O   0  0  0  0  0
   24.4970   45.9900   44.1770 N   0  0  0  0  0
   23.3020   45.2080   44.4990 C   0  0  0  0  0
   22.1400   46.1600   44.7630 C   0  0  0  0  0
   22.1900   46.9380   45.7160 O   0  0  0  0  0
   23.5470   44.3390   45.7440 C   0  0  0  0  0
   24.2150   43.0270   45.4490 C   0  0  0  0  0
   23.8430   42.2770   44.3510 C   0  0  0  0  0
   25.2190   42.5480   46.2700 C   0  0  0  0  0
   24.4550   41.0680   44.0830 C   0  0  0  0  0
   25.8430   41.3430   46.0030 C   0  0  0  0  0
   25.4580   40.6010   44.9080 C   0  0  0  0  0
   21.0980   46.1250   43.9380 N   0  0  0  0  0
   19.9990   47.0710   44.1330 C   0  0  0  0  0
   18.7480   46.5110   44.7850 C   0  0  0  0  0
   18.7920   45.4980   45.4710 O   0  0  0  0  0
   19.6540   47.7960   42.8210 C   0  0  0  0  0
   19.3670   46.8390   41.6640 C   0  0  0  0  0
   20.2160   46.0220   41.2950 O   0  0  0  0  0
   18.1660   46.9430   41.0840 N   0  0  0  0  0
   17.6370   47.2090   44.6040 N   0  0  0  0  0
   35.3675   45.7021   37.4051 H   0  0  0  0  0
   36.5632   46.8565   37.6838 H   0  0  0  0  0
   35.2012   48.6115   37.2178 H   0  0  0  0  0
   33.8322   48.3953   35.2425 H   0  0  0  0  0
   33.2735   46.8206   35.6905 H   0  0  0  0  0
   35.6684   47.5502   34.1119 H   0  0  0  0  0
   34.8553   45.9846   34.2257 H   0  0  0  0  0
   36.6004   45.2627   35.5625 H   0  0  0  0  0
   37.3091   46.8170   35.5662 H   0  0  0  0  0
   34.0991   49.2611   38.8667 H   0  0  0  0  0
   33.1742   47.5318   40.8409 H   0  0  0  0  0
   32.1965   49.4817   41.8951 H   0  0  0  0  0
   32.1202   50.3377   40.2982 H   0  0  0  0  0
   34.5397   48.6411   41.9162 H   0  0  0  0  0
   31.0338   47.3279   41.8673 H   0  0  0  0  0
   29.0028   46.7585   39.7374 H   0  0  0  0  0
   28.5977   44.6640   40.4957 H   0  0  0  0  0
   29.3627   45.0356   42.1570 H   0  0  0  0  0
   32.2526   45.8565   40.9529 H   0  0  0  0  0
   28.7725   42.1729   40.1738 H   0  0  0  0  0
   33.6223   41.3121   39.2834 H   0  0  0  0  0
   29.5540   39.9674   39.3523 H   0  0  0  0  0
   31.9364   39.5402   38.9435 H   0  0  0  0  0
   26.8361   46.0259   41.1084 H   0  0  0  0  0
   26.6511   47.0703   43.7404 H   0  0  0  0  0
   26.5770   49.2055   42.3551 H   0  0  0  0  0
   25.2084   48.9583   43.5268 H   0  0  0  0  0
   23.9348   50.1480   42.4458 H   0  0  0  0  0
   25.0616   46.3519   44.9455 H   0  0  0  0  0
   23.0666   44.5545   43.6590 H   0  0  0  0  0
   22.5733   44.1159   46.1801 H   0  0  0  0  0
   24.2094   44.8986   46.4044 H   0  0  0  0  0
   23.0583   42.6428   43.6888 H   0  0  0  0  0
   25.5233   43.1288   47.1407 H   0  0  0  0  0
   24.1451   40.4815   43.2181 H   0  0  0  0  0
   26.6368   40.9816   46.6568 H   0  0  0  0  0
   25.9436   39.6489   44.6940 H   0  0  0  0  0
   21.0651   45.4461   43.1775 H   0  0  0  0  0
   20.3880   47.7828   44.8611 H   0  0  0  0  0
   20.5150   48.4036   42.5423 H   0  0  0  0  0
   18.7532   48.3846   42.9950 H   0  0  0  0  0
   17.9216   46.3326   40.3042 H   0  0  0  0  0
   17.4946   47.6327   41.4216 H   0  0  0  0  0
   16.7681   46.9083   45.0457 H   0  0  0  0  0
   17.6503   48.0472   44.0230 H   0  0  0  0  0
  1  2  1  0  0  0
  1  7  1  0  0  0
  2  3  1  0  0  0
  2  5  1  0  0  0
  3  4  2  0  0  0
  3  8  1  0  0  0
  5  6  1  0  0  0
  6  7  1  0  0  0
  8  9  1  0  0  0
  9 10  1  0  0  0
  9 12  1  0  0  0
 10 11  2  0  0  0
 10 16  1  0  0  0
 12 13  1  0  0  0
 13 14  1  0  0  0
 13 15  2  0  0  0
 16 17  1  0  0  0
 17 18  1  0  0  0
 17 20  1  0  0  0
 18 19  2  0  0  0
 18 30  1  0  0  0
 20 21  1  0  0  0
 21 22  4  0  0  0
 21 23  4  0  0  0
 22 24  4  0  0  0
 23 25  4  0  0  0
 23 26  4  0  0  0
 24 25  4  0  0  0
 25 27  4  0  0  0
 26 28  4  0  0  0
 27 29  4  0  0  0
 28 29  4  0  0  0
 30 31  1  0  0  0
 31 32  1  0  0  0
 31 34  1  0  0  0
 32 33  2  0  0  0
 32 38  1  0  0  0
 34 35  1  0  0  0
 35 36  2  0  0  0
 35 37  1  0  0  0
 38 39  1  0  0  0
 39 40  1  0  0  0
 39 42  1  0  0  0
 40 41  2  0  0  0
 40 49  1  0  0  0
 42 43  1  0  0  0
 43 44  4  0  0  0
 43 45  4  0  0  0
 44 46  4  0  0  0
 45 47  4  0  0  0
 46 48  4  0  0  0
 47 48  4  0  0  0
 49 50  1  0  0  0
 50 51  1  0  0  0
 50 53  1  0  0  0
 51 52  2  0  0  0
 51 57  1  0  0  0
 53 54  1  0  0  0
 54 55  2  0  0  0
 54 56  1  0  0  0
  1 58  1  0  0  0
  1 59  1  0  0  0
  2 60  1  0  0  0
  5 61  1  0  0  0
  5 62  1  0  0  0
  6 63  1  0  0  0
  6 64  1  0  0  0
  7 65  1  0  0  0
  7 66  1  0  0  0
  8 67  1  0  0  0
  9 68  1  0  0  0
 12 69  1  0  0  0
 12 70  1  0  0  0
 14 71  1  0  0  0
 16 72  1  0  0  0
 17 73  1  0  0  0
 20 74  1  0  0  0
 20 75  1  0  0  0
 22 76  1  0  0  0
 26 77  1  0  0  0
 27 78  1  0  0  0
 28 79  1  0  0  0
 29 80  1  0  0  0
 30 81  1  0  0  0
 31 82  1  0  0  0
 34 83  1  0  0  0
 34 84  1  0  0  0
 37 85  1  0  0  0
 38 86  1  0  0  0
 39 87  1  0  0  0
 42 88  1  0  0  0
 42 89  1  0  0  0
 44 90  1  0  0  0
 45 91  1  0  0  0
 46 92  1  0  0  0
 47 93  1  0  0  0
 48 94  1  0  0  0
 49 95  1  0  0  0
 50 96  1  0  0  0
 53 97  1  0  0  0
 53 98  1  0  0  0
 56 99  1  0  0  0
 56100  1  0  0  0
 57101  1  0  0  0
 57102  1  0  0  0
M  END
$$$$
