### 
### Created by X-TOOL on Mon Sep 10 21:13:14 2018
### 

@<TRIPOS>MOLECULE
3zhf_ligand
  101   104     1     0     0
SMALL
GAST_HUCK


@<TRIPOS>ATOM
      1 N          35.8040   46.5610   37.0700 N.4       1 PRO         0.2461
      2 CA         34.7910   47.6170   37.0420 C.3       1 PRO         0.0670
      3 C          33.7440   47.4060   38.1340 C.2       1 PRO         0.2269
      4 O          33.0960   46.3610   38.1530 O.2       1 PRO        -0.3907
      5 CB         34.1670   47.4440   35.6560 C.3       1 PRO         0.0127
      6 CG         35.2630   46.8130   34.8050 C.3       1 PRO        -0.0053
      7 CD         36.3570   46.3120   35.7290 C.3       1 PRO        -0.0313
      8 N          33.5890   48.3910   39.0190 N.am      1 ASP        -0.2595
      9 CA         32.7230   48.2910   40.2020 C.3       1 ASP         0.1424
     10 C          31.2990   47.7890   39.9070 C.2       1 ASP         0.2057
     11 O          30.8290   47.8610   38.7750 O.2       1 ASP        -0.3943
     12 CB         32.6720   49.6390   40.9270 C.3       1 ASP         0.0406
     13 CG         34.0520   50.2210   41.1730 C.2       1 ASP         0.0393
     14 OD1        34.9190   49.5000   41.7160 O.co2     1 ASP        -0.5688
     15 OD2        34.2720   51.3950   40.8050 O.co2     1 ASP        -0.5688
     16 N          30.6260   47.2720   40.9340 N.am      1 TRP        -0.2626
     17 CA         29.3230   46.6270   40.7710 C.3       1 TRP         0.1352
     18 C          28.3250   47.2680   41.7350 C.2       1 TRP         0.2052
     19 O          28.6750   48.2290   42.4230 O.2       1 TRP        -0.3942
     20 CB         29.4040   45.1190   41.0710 C.3       1 TRP         0.0042
     21 CG         30.6780   44.3740   40.6510 C.2       1 TRP        -0.0418
     22 CD1        31.9630   44.8500   40.6510 C.2       1 TRP         0.0167
     23 CD2        30.7690   43.0130   40.2010 C.ar      1 TRP        -0.0214
     24 NE1        32.8320   43.8850   40.2190 N.pl3     1 TRP        -0.2890
     25 CE2        32.1250   42.7450   39.9390 C.ar      1 TRP         0.0603
     26 CE3        29.8320   41.9990   39.9860 C.ar      1 TRP        -0.0747
     27 CZ2        32.5670   41.5000   39.4810 C.ar      1 TRP        -0.0443
     28 CZ3        30.2770   40.7640   39.5280 C.ar      1 TRP        -0.0792
     29 CH2        31.6230   40.5250   39.2900 C.ar      1 TRP        -0.0768
     30 N          27.0980   46.7410   41.7870 N.am      1 ASP        -0.2621
     31 CA         26.1150   47.1640   42.7960 C.3       1 ASP         0.1423
     32 C          24.8830   46.2520   42.9290 C.2       1 ASP         0.2057
     33 O          24.3100   45.7950   41.9340 O.2       1 ASP        -0.3943
     34 CB         25.6860   48.6290   42.6040 C.3       1 ASP         0.0406
     35 CG         24.6870   48.8130   41.4760 C.2       1 ASP         0.0393
     36 OD1        24.7700   48.0790   40.4670 O.co2     1 ASP        -0.5688
     37 OD2        23.8190   49.7070   41.6010 O.co2     1 ASP        -0.5688
     38 N          24.4970   45.9900   44.1770 N.am      1 PHE        -0.2618
     39 CA         23.3020   45.2080   44.4990 C.3       1 PHE         0.1404
     40 C          22.1400   46.1600   44.7630 C.2       1 PHE         0.2061
     41 O          22.1900   46.9380   45.7160 O.2       1 PHE        -0.3942
     42 CB         23.5470   44.3390   45.7440 C.3       1 PHE         0.0214
     43 CG         24.2150   43.0270   45.4490 C.ar      1 PHE        -0.0386
     44 CD1        23.8430   42.2770   44.3510 C.ar      1 PHE        -0.0601
     45 CD2        25.2190   42.5480   46.2700 C.ar      1 PHE        -0.0601
     46 CE1        24.4550   41.0680   44.0830 C.ar      1 PHE        -0.0686
     47 CE2        25.8430   41.3430   46.0030 C.ar      1 PHE        -0.0686
     48 CZ         25.4580   40.6010   44.9080 C.ar      1 PHE        -0.0687
     49 N          21.0980   46.1250   43.9380 N.am      1 ASN        -0.2615
     50 CA         19.9990   47.0710   44.1330 C.3       1 ASN         0.1472
     51 C          18.7480   46.5110   44.7850 C.2       1 ASN         0.2015
     52 O          18.7920   45.4980   45.4710 O.2       1 ASN        -0.3946
     53 CB         19.6540   47.7960   42.8210 C.3       1 ASN         0.0773
     54 CG         19.3670   46.8390   41.6640 C.2       1 ASN         0.1780
     55 OD1        20.2160   46.0220   41.2950 O.2       1 ASN        -0.3970
     56 ND2        18.1660   46.9430   41.0840 N.am      1 ASN        -0.3007
     57 N          17.6370   47.2090   44.6040 N.am      1 NH2        -0.2988
     58 H1         35.3834   45.7120   37.4141 H         1 PRO         0.2035
     59 H2         36.5513   46.8396   37.6864 H         1 PRO         0.2035
     60 H3         35.2481   48.6112   37.1544 H         1 PRO         0.1099
     61 H4         33.8691   48.4185   35.2419 H         1 PRO         0.0347
     62 H5         33.2890   46.7834   35.7072 H         1 PRO         0.0347
     63 H6         35.6750   47.5630   34.1138 H         1 PRO         0.0320
     64 H7         34.8488   45.9721   34.2294 H         1 PRO         0.0320
     65 H8         36.5450   45.2395   35.5726 H         1 PRO         0.0814
     66 H9         37.2902   46.8739   35.5765 H         1 PRO         0.0814
     67 H10        34.0891   49.2440   38.8697 H         1 ASP         0.1886
     68 H11        33.1871   47.5602   40.8806 H         1 ASP         0.0819
     69 H12        32.1706   49.4993   41.8960 H         1 ASP         0.0478
     70 H13        32.0950   50.3472   40.3142 H         1 ASP         0.0478
     71 H14        31.0258   47.3268   41.8490 H         1 TRP         0.1884
     72 H15        28.9787   46.7699   39.7361 H         1 TRP         0.0815
     73 H16        28.5581   44.6367   40.5594 H         1 TRP         0.0397
     74 H17        29.2943   44.9943   42.1584 H         1 TRP         0.0397
     75 H18        32.2523   45.8556   40.9526 H         1 TRP         0.0795
     76 H19        33.8511   43.9973   40.1204 H         1 TRP         0.2216
     77 H20        28.7783   42.1719   40.1727 H         1 TRP         0.0540
     78 H21        33.6165   41.3131   39.2845 H         1 TRP         0.0541
     79 H22        29.5580   39.9718   39.3533 H         1 TRP         0.0510
     80 H23        31.9347   39.5456   38.9454 H         1 TRP         0.0530
     81 H24        26.8412   46.0399   41.1217 H         1 ASP         0.1884
     82 H25        26.6374   47.1125   43.7627 H         1 ASP         0.0819
     83 H26        26.5803   49.2295   42.3813 H         1 ASP         0.0478
     84 H27        25.2284   48.9854   43.5387 H         1 ASP         0.0478
     85 H28        25.0505   46.3448   44.9305 H         1 PHE         0.1885
     86 H29        23.0550   44.5567   43.6477 H         1 PHE         0.0823
     87 H30        22.5766   44.1341   46.2197 H         1 PHE         0.0474
     88 H31        24.1848   44.9034   46.4402 H         1 PHE         0.0474
     89 H32        23.0626   42.6407   43.6925 H         1 PHE         0.0557
     90 H33        25.5216   43.1256   47.1360 H         1 PHE         0.0557
     91 H34        24.1468   40.4848   43.2228 H         1 PHE         0.0599
     92 H35        26.6324   40.9836   46.6532 H         1 PHE         0.0599
     93 H36        25.9409   39.6541   44.6952 H         1 PHE         0.0559
     94 H37        21.0657   45.4594   43.1924 H         1 ASN         0.1885
     95 H38        20.3818   47.8345   44.8262 H         1 ASN         0.0826
     96 H39        20.5028   48.4377   42.5420 H         1 ASN         0.0551
     97 H40        18.7631   48.4189   42.9891 H         1 ASN         0.0551
     98 H41        17.9249   46.3417   40.3222 H         1 ASN         0.1814
     99 H42        17.5094   47.6220   41.4122 H         1 ASN         0.1814
    100 H43        16.7776   46.8945   45.0072 H         1 NH2         0.1815
    101 H44        17.6575   48.0505   44.0641 H         1 NH2         0.1815
@<TRIPOS>BOND
     1    1    2 1  
     2    1    7 1  
     3    2    3 1  
     4    2    5 1  
     5    3    4 2  
     6    3    8 am 
     7    5    6 1  
     8    6    7 1  
     9    8    9 1  
    10    9   10 1  
    11    9   12 1  
    12   10   11 2  
    13   10   16 am 
    14   12   13 1  
    15   13   14 ar 
    16   13   15 ar 
    17   16   17 1  
    18   17   18 1  
    19   17   20 1  
    20   18   19 2  
    21   18   30 am 
    22   20   21 1  
    23   21   22 2  
    24   21   23 1  
    25   22   24 1  
    26   23   25 ar 
    27   23   26 ar 
    28   24   25 1  
    29   25   27 ar 
    30   26   28 ar 
    31   27   29 ar 
    32   28   29 ar 
    33   30   31 1  
    34   31   32 1  
    35   31   34 1  
    36   32   33 2  
    37   32   38 am 
    38   34   35 1  
    39   35   36 ar 
    40   35   37 ar 
    41   38   39 1  
    42   39   40 1  
    43   39   42 1  
    44   40   41 2  
    45   40   49 am 
    46   42   43 1  
    47   43   44 ar 
    48   43   45 ar 
    49   44   46 ar 
    50   45   47 ar 
    51   46   48 ar 
    52   47   48 ar 
    53   49   50 1  
    54   50   51 1  
    55   50   53 1  
    56   51   52 2  
    57   51   57 am 
    58   53   54 1  
    59   54   55 2  
    60   54   56 am 
    61    1   58 1  
    62    1   59 1  
    63    2   60 1  
    64    5   61 1  
    65    5   62 1  
    66    6   63 1  
    67    6   64 1  
    68    7   65 1  
    69    7   66 1  
    70    8   67 1  
    71    9   68 1  
    72   12   69 1  
    73   12   70 1  
    74   16   71 1  
    75   17   72 1  
    76   20   73 1  
    77   20   74 1  
    78   22   75 1  
    79   24   76 1  
    80   26   77 1  
    81   27   78 1  
    82   28   79 1  
    83   29   80 1  
    84   30   81 1  
    85   31   82 1  
    86   34   83 1  
    87   34   84 1  
    88   38   85 1  
    89   39   86 1  
    90   42   87 1  
    91   42   88 1  
    92   44   89 1  
    93   45   90 1  
    94   46   91 1  
    95   47   92 1  
    96   48   93 1  
    97   49   94 1  
    98   50   95 1  
    99   53   96 1  
   100   53   97 1  
   101   56   98 1  
   102   56   99 1  
   103   57  100 1  
   104   57  101 1  
@<TRIPOS>SUBSTRUCTURE
     1 PRO         1

