### 
### Created by X-TOOL on Mon Sep 10 21:12:52 2018
### 

@<TRIPOS>MOLECULE
1ynd_ligand
  170   174     1     0     0
SMALL
GAST_HUCK


@<TRIPOS>ATOM
      1 O77        60.2030   49.1890   58.2510 O.2       1 SFA        -0.3967
      2 C41        59.6520   48.9720   57.1610 C.2       1 SFA         0.1812
      3 C40        59.1570   50.1440   56.2550 C.3       1 SFA         0.0488
      4 C43        60.3470   50.8240   55.5700 C.3       1 SFA        -0.0361
      5 C44        61.3150   51.5050   56.4900 C.3       1 SFA        -0.0629
      6 C39        58.2120   49.6490   55.1530 C.3       1 SFA        -0.0260
      7 N42        59.4860   47.7070   56.7620 N.am      1 SFA        -0.2573
      8 C37        58.8040   47.2670   55.5280 C.3       1 SFA         0.1618
      9 O76        57.4300   46.9390   55.8330 O.3       1 SFA        -0.3475
     10 C38        58.7500   48.4010   54.4820 C.3       1 SFA         0.0096
     11 C45        57.8040   48.0050   53.3260 C.3       1 SFA        -0.0576
     12 C36        59.4600   45.9680   54.9560 C.3       1 SFA         0.0335
     13 C46        60.9320   46.2150   54.6180 C.3       1 SFA        -0.0554
     14 C35        59.2940   44.7920   55.9650 C.3       1 SFA         0.0673
     15 O75        60.0360   45.0250   57.1780 O.3       1 SFA        -0.3910
     16 C34        57.7840   44.6060   56.3180 C.3       1 SFA         0.0091
     17 C47        57.6190   43.4390   57.3350 C.3       1 SFA        -0.0577
     18 C33        57.1920   45.9620   56.8100 C.3       1 SFA         0.0689
     19 C32        55.7210   45.7850   57.1450 C.3       1 SFA         0.0002
     20 C31        55.1830   47.0080   57.8950 C.3       1 SFA         0.0603
     21 O74        55.4680   46.8190   59.2870 O.3       1 SFA        -0.3914
     22 C30        53.6580   47.1190   57.6910 C.3       1 SFA        -0.0160
     23 C48        52.9520   45.8760   58.2200 C.3       1 SFA        -0.0599
     24 C29        53.1220   48.3700   58.3910 C.3       1 SFA        -0.0406
     25 C28        53.5040   49.6680   57.6810 C.3       1 SFA        -0.0348
     26 C27        52.7510   49.7780   56.3270 C.2       1 SFA        -0.1012
     27 C26        53.3550   49.9780   55.1550 C.2       1 SFA        -0.1063
     28 C25        52.5980   50.0590   54.0200 C.2       1 SFA        -0.0910
     29 C24        53.1460   50.2550   52.8110 C.2       1 SFA        -0.0299
     30 C49        54.6390   50.4100   52.5360 C.3       1 SFA        -0.0256
     31 C23        52.3520   50.3550   51.5230 C.3       1 SFA         0.1331
     32 O65        51.0530   49.7430   51.8120 O.3       1 SFA        -0.2502
     33 C22        52.2420   51.8330   51.0540 C.3       1 SFA         0.0157
     34 C21        51.2930   52.0140   49.8710 C.2       1 SFA        -0.0819
     35 C20        50.4510   53.0560   49.8020 C.2       1 SFA        -0.0902
     36 C19        49.6210   53.1770   48.7510 C.2       1 SFA        -0.0881
     37 C18        48.7590   54.2100   48.6400 C.2       1 SFA        -0.0588
     38 C17        47.7870   54.3570   47.4400 C.3       1 SFA         0.0861
     39 O73        48.0280   55.5600   46.6810 O.3       1 SFA        -0.3786
     40 C16        46.3420   54.3950   47.9370 C.3       1 SFA         0.0205
     41 C50        46.1200   53.1980   48.8990 C.3       1 SFA        -0.0554
     42 C15        45.3770   54.3530   46.6820 C.3       1 SFA         0.0818
     43 O72        45.6540   53.2080   45.8550 O.3       1 SFA        -0.3886
     44 C14        43.8540   54.4430   47.0690 C.3       1 SFA         0.0772
     45 C51        43.0610   54.7700   45.7990 C.3       1 SFA        -0.0149
     46 C52        41.5600   54.9510   46.0710 C.3       1 SFA         0.0232
     47 C53        40.8020   55.1370   44.7720 C.2       1 SFA         0.1021
     48 C54        39.4160   54.5390   44.5610 C.3       1 SFA         0.0094
     49 O71        41.2400   55.7530   43.7950 O.2       1 SFA        -0.3919
     50 C13        43.2890   53.1530   47.7300 C.2       1 SFA         0.1840
     51 O70        42.6020   53.2180   48.7620 O.2       1 SFA        -0.3965
     52 N12        43.5810   51.9730   47.1640 N.am      1 SFA        -0.2651
     53 C11        43.1720   50.7040   47.7780 C.3       1 SFA         0.1332
     54 C55        42.5650   49.7610   46.7190 C.3       1 SFA        -0.0063
     55 C56        41.3310   50.4380   46.0910 C.3       1 SFA        -0.0584
     56 C57        42.1700   48.4350   47.3550 C.3       1 SFA        -0.0584
     57 C10        44.4950   50.1620   48.3260 C.2       1 SFA         0.2043
     58 O69        45.4120   49.8390   47.5910 O.2       1 SFA        -0.3944
     59 N9         44.5370   50.1170   49.6430 N.am      1 SFA        -0.2617
     60 C8         45.7280   49.8730   50.4350 C.3       1 SFA         0.1448
     61 C58        45.5600   50.8180   51.6320 C.3       1 SFA         0.0191
     62 C59        46.6050   50.6710   52.7010 C.ar      1 SFA        -0.0474
     63 C60        46.3830   49.8570   53.8150 C.ar      1 SFA        -0.0323
     64 C61        47.3300   49.7160   54.8020 C.ar      1 SFA         0.0809
     65 O68        47.0580   48.8990   55.8700 O.3       1 SFA        -0.3349
     66 C62        48.5250   50.4010   54.7030 C.ar      1 SFA        -0.0403
     67 C63        48.7520   51.2170   53.6210 C.ar      1 SFA        -0.0772
     68 C64        47.8100   51.3590   52.6200 C.ar      1 SFA        -0.0712
     69 C7         45.7840   48.4050   50.8730 C.2       1 SFA         0.2434
     70 O67        44.7760   47.8610   51.3050 O.2       1 SFA        -0.3893
     71 N6         46.9490   47.7490   50.7360 N.am      1 SFA        -0.2374
     72 N65        48.1210   48.3740   50.3430 N.4       1 SFA         0.3834
     73 C5         47.1050   46.3570   51.2070 C.3       1 SFA         0.0730
     74 C4         48.1410   46.3070   52.3240 C.3       1 SFA        -0.0204
     75 C3         49.4200   47.0560   51.9730 C.3       1 SFA         0.0121
     76 C2         49.1490   48.4630   51.3910 C.3       1 SFA         0.1028
     77 C1         50.4250   49.0440   50.8620 C.2       1 SFA         0.2866
     78 O66        50.7990   48.8490   49.7250 O.2       1 SFA        -0.3638
     79 H1         58.6280   50.8755   56.8835 H         1 SFA         0.0538
     80 H2         59.9521   51.5787   54.8739 H         1 SFA         0.0290
     81 H3         60.8975   50.0569   55.0056 H         1 SFA         0.0290
     82 H4         62.1255   51.9574   55.8997 H         1 SFA         0.0231
     83 H5         61.7376   50.7678   57.1885 H         1 SFA         0.0231
     84 H6         60.7923   52.2895   57.0568 H         1 SFA         0.0231
     85 H7         58.0976   50.4403   54.3976 H         1 SFA         0.0296
     86 H8         57.2318   49.4219   55.5975 H         1 SFA         0.0296
     87 H9         59.8582   46.9922   57.3540 H         1 SFA         0.1880
     88 H10        59.7587   48.5917   54.0869 H         1 SFA         0.0349
     89 H11        57.7706   48.8173   52.5850 H         1 SFA         0.0234
     90 H12        56.7934   47.8291   53.7231 H         1 SFA         0.0234
     91 H13        58.1747   47.0868   52.8470 H         1 SFA         0.0234
     92 H14        58.9376   45.6973   54.0266 H         1 SFA         0.0372
     93 H15        61.3762   45.2917   54.2176 H         1 SFA         0.0235
     94 H16        61.4715   46.5168   55.5278 H         1 SFA         0.0235
     95 H17        61.0064   47.0139   53.8655 H         1 SFA         0.0235
     96 H18        59.6686   43.8713   55.4939 H         1 SFA         0.0601
     97 H19        59.9131   44.2914   57.7689 H         1 SFA         0.2098
     98 H20        57.2464   44.3233   55.4009 H         1 SFA         0.0348
     99 H21        56.5538   43.3134   57.5792 H         1 SFA         0.0234
    100 H22        58.1807   43.6697   58.2522 H         1 SFA         0.0234
    101 H23        58.0057   42.5093   56.8922 H         1 SFA         0.0234
    102 H24        57.7140   46.2649   57.7296 H         1 SFA         0.0601
    103 H25        55.5997   44.8926   57.7765 H         1 SFA         0.0315
    104 H26        55.1519   45.6546   56.2127 H         1 SFA         0.0315
    105 H27        55.6732   47.9219   57.5284 H         1 SFA         0.0597
    106 H28        56.4068   46.7405   59.4090 H         1 SFA         0.2098
    107 H29        53.4545   47.2047   56.6134 H         1 SFA         0.0325
    108 H30        51.8676   45.9762   58.0647 H         1 SFA         0.0233
    109 H31        53.1598   45.7656   59.2945 H         1 SFA         0.0233
    110 H32        53.3189   44.9892   57.6825 H         1 SFA         0.0233
    111 H33        53.5266   48.3988   59.4135 H         1 SFA         0.0291
    112 H34        52.0248   48.3043   58.4325 H         1 SFA         0.0291
    113 H35        54.5883   49.6758   57.4958 H         1 SFA         0.0405
    114 H36        53.2345   50.5237   58.3175 H         1 SFA         0.0405
    115 H37        51.6659   49.6864   56.3352 H         1 SFA         0.0470
    116 H38        54.4384   50.0756   55.1030 H         1 SFA         0.0372
    117 H39        51.5163   49.9614   54.0993 H         1 SFA         0.0249
    118 H40        55.1958   50.3345   53.4817 H         1 SFA         0.0433
    119 H41        54.8273   51.3918   52.0771 H         1 SFA         0.0433
    120 H42        54.9701   49.6155   51.8511 H         1 SFA         0.0433
    121 H43        52.8551   49.7800   50.7316 H         1 SFA         0.0883
    122 H44        53.2421   52.1823   50.7578 H         1 SFA         0.0494
    123 H45        51.8751   52.4411   51.8940 H         1 SFA         0.0494
    124 H46        51.3001   51.2809   49.0657 H         1 SFA         0.0607
    125 H47        50.4397   53.8021   50.5952 H         1 SFA         0.0402
    126 H48        49.6448   52.4208   47.9677 H         1 SFA         0.0403
    127 H49        48.7455   54.9681   49.4217 H         1 SFA         0.0630
    128 H50        47.9199   53.4885   46.7782 H         1 SFA         0.0771
    129 H51        47.9156   56.3165   47.2446 H         1 SFA         0.2135
    130 H52        46.1657   55.3303   48.4884 H         1 SFA         0.0376
    131 H53        45.0833   53.2104   49.2665 H         1 SFA         0.0236
    132 H54        46.8118   53.2786   49.7504 H         1 SFA         0.0236
    133 H55        46.3074   52.2564   48.3621 H         1 SFA         0.0236
    134 H56        45.6010   55.2460   46.0800 H         1 SFA         0.0627
    135 H57        46.5519   53.2505   45.5478 H         1 SFA         0.2100
    136 H58        43.7326   55.2673   47.7872 H         1 SFA         0.0565
    137 H59        43.1922   53.9479   45.0800 H         1 SFA         0.0318
    138 H60        43.4557   55.7014   45.3670 H         1 SFA         0.0318
    139 H61        41.4118   55.8367   46.7062 H         1 SFA         0.0495
    140 H62        41.1763   54.0598   46.5892 H         1 SFA         0.0495
    141 H63        39.0552   54.7960   43.5541 H         1 SFA         0.0458
    142 H64        38.7233   54.9444   45.3132 H         1 SFA         0.0458
    143 H65        39.4692   53.4451   44.6633 H         1 SFA         0.0458
    144 H66        44.0895   51.9571   46.3031 H         1 SFA         0.1883
    145 H67        42.4443   50.8660   48.5868 H         1 SFA         0.0802
    146 H68        43.3119   49.5715   45.9340 H         1 SFA         0.0343
    147 H69        40.8923   49.7710   45.3342 H         1 SFA         0.0234
    148 H70        41.6332   51.3830   45.6159 H         1 SFA         0.0234
    149 H71        40.5867   50.6431   46.8746 H         1 SFA         0.0234
    150 H72        43.0584   47.9623   47.7991 H         1 SFA         0.0234
    151 H73        41.7471   47.7713   46.5865 H         1 SFA         0.0234
    152 H74        41.4192   48.6135   48.1388 H         1 SFA         0.0234
    153 H75        43.6791   50.2627   50.1357 H         1 SFA         0.1885
    154 H76        46.6375   50.1201   49.8678 H         1 SFA         0.0825
    155 H77        44.5767   50.6246   52.0856 H         1 SFA         0.0472
    156 H78        45.5948   51.8523   51.2592 H         1 SFA         0.0472
    157 H79        45.4429   49.3246   53.9031 H         1 SFA         0.0478
    158 H80        46.9021   48.0149   55.5593 H         1 SFA         0.2479
    159 H81        49.2794   50.2956   55.4742 H         1 SFA         0.0485
    160 H82        49.6878   51.7597   53.5513 H         1 SFA         0.0572
    161 H83        48.0104   52.0056   51.7734 H         1 SFA         0.0464
    162 H84        47.8937   49.3099   50.0455 H         1 SFA         0.2307
    163 H85        48.5069   47.8591   49.5671 H         1 SFA         0.2307
    164 H86        47.4369   45.7231   50.3716 H         1 SFA         0.0573
    165 H87        46.1403   45.9887   51.5860 H         1 SFA         0.0573
    166 H88        48.3928   45.2550   52.5237 H         1 SFA         0.0290
    167 H89        47.7059   46.7580   53.2281 H         1 SFA         0.0290
    168 H90        49.9781   46.4692   51.2286 H         1 SFA         0.0347
    169 H91        50.0261   47.1634   52.8847 H         1 SFA         0.0347
    170 H92        48.7745   49.1150   52.1939 H         1 SFA         0.1123
@<TRIPOS>BOND
     1    1    2 2  
     2    2    3 1  
     3    2    7 am 
     4    3    4 1  
     5    3    6 1  
     6    4    5 1  
     7    6   10 1  
     8    7    8 1  
     9    8    9 1  
    10    8   10 1  
    11    8   12 1  
    12    9   18 1  
    13   10   11 1  
    14   12   13 1  
    15   12   14 1  
    16   14   15 1  
    17   14   16 1  
    18   16   17 1  
    19   16   18 1  
    20   18   19 1  
    21   19   20 1  
    22   20   21 1  
    23   20   22 1  
    24   22   23 1  
    25   22   24 1  
    26   24   25 1  
    27   25   26 1  
    28   26   27 2  
    29   27   28 1  
    30   28   29 2  
    31   29   30 1  
    32   29   31 1  
    33   31   32 1  
    34   31   33 1  
    35   32   77 1  
    36   33   34 1  
    37   34   35 2  
    38   35   36 1  
    39   36   37 2  
    40   37   38 1  
    41   38   39 1  
    42   38   40 1  
    43   40   41 1  
    44   40   42 1  
    45   42   43 1  
    46   42   44 1  
    47   44   45 1  
    48   44   50 1  
    49   45   46 1  
    50   46   47 1  
    51   47   48 1  
    52   47   49 2  
    53   50   51 2  
    54   50   52 am 
    55   52   53 1  
    56   53   54 1  
    57   53   57 1  
    58   54   55 1  
    59   54   56 1  
    60   57   58 2  
    61   57   59 am 
    62   59   60 1  
    63   60   61 1  
    64   60   69 1  
    65   61   62 1  
    66   62   63 ar 
    67   62   68 ar 
    68   63   64 ar 
    69   64   65 1  
    70   64   66 ar 
    71   66   67 ar 
    72   67   68 ar 
    73   69   70 2  
    74   69   71 am 
    75   71   72 1  
    76   71   73 1  
    77   72   76 1  
    78   73   74 1  
    79   74   75 1  
    80   75   76 1  
    81   76   77 1  
    82   77   78 2  
    83    3   79 1  
    84    4   80 1  
    85    4   81 1  
    86    5   82 1  
    87    5   83 1  
    88    5   84 1  
    89    6   85 1  
    90    6   86 1  
    91    7   87 1  
    92   10   88 1  
    93   11   89 1  
    94   11   90 1  
    95   11   91 1  
    96   12   92 1  
    97   13   93 1  
    98   13   94 1  
    99   13   95 1  
   100   14   96 1  
   101   15   97 1  
   102   16   98 1  
   103   17   99 1  
   104   17  100 1  
   105   17  101 1  
   106   18  102 1  
   107   19  103 1  
   108   19  104 1  
   109   20  105 1  
   110   21  106 1  
   111   22  107 1  
   112   23  108 1  
   113   23  109 1  
   114   23  110 1  
   115   24  111 1  
   116   24  112 1  
   117   25  113 1  
   118   25  114 1  
   119   26  115 1  
   120   27  116 1  
   121   28  117 1  
   122   30  118 1  
   123   30  119 1  
   124   30  120 1  
   125   31  121 1  
   126   33  122 1  
   127   33  123 1  
   128   34  124 1  
   129   35  125 1  
   130   36  126 1  
   131   37  127 1  
   132   38  128 1  
   133   39  129 1  
   134   40  130 1  
   135   41  131 1  
   136   41  132 1  
   137   41  133 1  
   138   42  134 1  
   139   43  135 1  
   140   44  136 1  
   141   45  137 1  
   142   45  138 1  
   143   46  139 1  
   144   46  140 1  
   145   48  141 1  
   146   48  142 1  
   147   48  143 1  
   148   52  144 1  
   149   53  145 1  
   150   54  146 1  
   151   55  147 1  
   152   55  148 1  
   153   55  149 1  
   154   56  150 1  
   155   56  151 1  
   156   56  152 1  
   157   59  153 1  
   158   60  154 1  
   159   61  155 1  
   160   61  156 1  
   161   63  157 1  
   162   65  158 1  
   163   66  159 1  
   164   67  160 1  
   165   68  161 1  
   166   72  162 1  
   167   72  163 1  
   168   73  164 1  
   169   73  165 1  
   170   74  166 1  
   171   74  167 1  
   172   75  168 1  
   173   75  169 1  
   174   76  170 1  
@<TRIPOS>SUBSTRUCTURE
     1 SFA         1

