1ynd_ligand
  -I-interpret- 

170174  0  0  0  0  0  0  0  0999 V2000
   60.2030   49.1890   58.2510 O   0  0  0  0  0
   59.6520   48.9720   57.1610 C   0  0  0  0  0
   59.1570   50.1440   56.2550 C   0  0  0  0  0
   60.3470   50.8240   55.5700 C   0  0  0  0  0
   61.3150   51.5050   56.4900 C   0  0  0  0  0
   58.2120   49.6490   55.1530 C   0  0  0  0  0
   59.4860   47.7070   56.7620 N   0  0  0  0  0
   58.8040   47.2670   55.5280 C   0  0  0  0  0
   57.4300   46.9390   55.8330 O   0  0  0  0  0
   58.7500   48.4010   54.4820 C   0  0  0  0  0
   57.8040   48.0050   53.3260 C   0  0  0  0  0
   59.4600   45.9680   54.9560 C   0  0  0  0  0
   60.9320   46.2150   54.6180 C   0  0  0  0  0
   59.2940   44.7920   55.9650 C   0  0  0  0  0
   60.0360   45.0250   57.1780 O   0  0  0  0  0
   57.7840   44.6060   56.3180 C   0  0  0  0  0
   57.6190   43.4390   57.3350 C   0  0  0  0  0
   57.1920   45.9620   56.8100 C   0  0  0  0  0
   55.7210   45.7850   57.1450 C   0  0  0  0  0
   55.1830   47.0080   57.8950 C   0  0  0  0  0
   55.4680   46.8190   59.2870 O   0  0  0  0  0
   53.6580   47.1190   57.6910 C   0  0  0  0  0
   52.9520   45.8760   58.2200 C   0  0  0  0  0
   53.1220   48.3700   58.3910 C   0  0  0  0  0
   53.5040   49.6680   57.6810 C   0  0  0  0  0
   52.7510   49.7780   56.3270 C   0  0  0  0  0
   53.3550   49.9780   55.1550 C   0  0  0  0  0
   52.5980   50.0590   54.0200 C   0  0  0  0  0
   53.1460   50.2550   52.8110 C   0  0  0  0  0
   54.6390   50.4100   52.5360 C   0  0  0  0  0
   52.3520   50.3550   51.5230 C   0  0  0  0  0
   51.0530   49.7430   51.8120 O   0  0  0  0  0
   52.2420   51.8330   51.0540 C   0  0  0  0  0
   51.2930   52.0140   49.8710 C   0  0  0  0  0
   50.4510   53.0560   49.8020 C   0  0  0  0  0
   49.6210   53.1770   48.7510 C   0  0  0  0  0
   48.7590   54.2100   48.6400 C   0  0  0  0  0
   47.7870   54.3570   47.4400 C   0  0  0  0  0
   48.0280   55.5600   46.6810 O   0  0  0  0  0
   46.3420   54.3950   47.9370 C   0  0  0  0  0
   46.1200   53.1980   48.8990 C   0  0  0  0  0
   45.3770   54.3530   46.6820 C   0  0  0  0  0
   45.6540   53.2080   45.8550 O   0  0  0  0  0
   43.8540   54.4430   47.0690 C   0  0  0  0  0
   43.0610   54.7700   45.7990 C   0  0  0  0  0
   41.5600   54.9510   46.0710 C   0  0  0  0  0
   40.8020   55.1370   44.7720 C   0  0  0  0  0
   39.4160   54.5390   44.5610 C   0  0  0  0  0
   41.2400   55.7530   43.7950 O   0  0  0  0  0
   43.2890   53.1530   47.7300 C   0  0  0  0  0
   42.6020   53.2180   48.7620 O   0  0  0  0  0
   43.5810   51.9730   47.1640 N   0  0  0  0  0
   43.1720   50.7040   47.7780 C   0  0  0  0  0
   42.5650   49.7610   46.7190 C   0  0  0  0  0
   41.3310   50.4380   46.0910 C   0  0  0  0  0
   42.1700   48.4350   47.3550 C   0  0  0  0  0
   44.4950   50.1620   48.3260 C   0  0  0  0  0
   45.4120   49.8390   47.5910 O   0  0  0  0  0
   44.5370   50.1170   49.6430 N   0  0  0  0  0
   45.7280   49.8730   50.4350 C   0  0  0  0  0
   45.5600   50.8180   51.6320 C   0  0  0  0  0
   46.6050   50.6710   52.7010 C   0  0  0  0  0
   46.3830   49.8570   53.8150 C   0  0  0  0  0
   47.3300   49.7160   54.8020 C   0  0  0  0  0
   47.0580   48.8990   55.8700 O   0  0  0  0  0
   48.5250   50.4010   54.7030 C   0  0  0  0  0
   48.7520   51.2170   53.6210 C   0  0  0  0  0
   47.8100   51.3590   52.6200 C   0  0  0  0  0
   45.7840   48.4050   50.8730 C   0  0  0  0  0
   44.7760   47.8610   51.3050 O   0  0  0  0  0
   46.9490   47.7490   50.7360 N   0  0  0  0  0
   48.1210   48.3740   50.3430 N   0  3  0  0  0
   47.1050   46.3570   51.2070 C   0  0  0  0  0
   48.1410   46.3070   52.3240 C   0  0  0  0  0
   49.4200   47.0560   51.9730 C   0  0  0  0  0
   49.1490   48.4630   51.3910 C   0  0  0  0  0
   50.4250   49.0440   50.8620 C   0  0  0  0  0
   50.7990   48.8490   49.7250 O   0  0  0  0  0
   58.6277   50.8416   56.9040 H   0  0  0  0  0
   59.9335   51.5987   54.9243 H   0  0  0  0  0
   60.9032   50.0378   55.0594 H   0  0  0  0  0
   60.7958   52.2820   57.0510 H   0  0  0  0  0
   61.7330   50.7735   57.1816 H   0  0  0  0  0
   62.1176   51.9529   55.9040 H   0  0  0  0  0
   58.1168   50.4324   54.4011 H   0  0  0  0  0
   57.2487   49.4113   55.6043 H   0  0  0  0  0
   59.8656   46.9779   57.3659 H   0  0  0  0  0
   59.7485   48.5804   54.0833 H   0  0  0  0  0
   58.1724   47.0951   52.8523 H   0  0  0  0  0
   56.8030   47.8310   53.7208 H   0  0  0  0  0
   57.7717   48.8106   52.5925 H   0  0  0  0  0
   58.9520   45.6911   54.0322 H   0  0  0  0  0
   61.0043   47.0068   53.8724 H   0  0  0  0  0
   61.4654   46.5140   55.5203 H   0  0  0  0  0
   61.3710   45.2995   54.2214 H   0  0  0  0  0
   59.6840   43.8917   55.4902 H   0  0  0  0  0
   59.9118   44.2837   57.7752 H   0  0  0  0  0
   57.2119   44.3217   55.4348 H   0  0  0  0  0
   58.0026   42.5184   56.8951 H   0  0  0  0  0
   58.1761   43.6688   58.2433 H   0  0  0  0  0
   56.5632   43.3155   57.5762 H   0  0  0  0  0
   57.6771   46.2970   57.7268 H   0  0  0  0  0
   55.6083   44.9059   57.7795 H   0  0  0  0  0
   55.1609   45.6671   56.2174 H   0  0  0  0  0
   55.6494   47.9204   57.5235 H   0  0  0  0  0
   55.1414   47.5723   59.7845 H   0  0  0  0  0
   53.4581   47.1989   56.6225 H   0  0  0  0  0
   53.3165   44.9980   57.6867 H   0  0  0  0  0
   53.1587   45.7677   59.2847 H   0  0  0  0  0
   51.8777   45.9765   58.0656 H   0  0  0  0  0
   53.5558   48.4004   59.3905 H   0  0  0  0  0
   52.0340   48.3046   58.3965 H   0  0  0  0  0
   54.5779   49.6706   57.4941 H   0  0  0  0  0
   53.2311   50.5141   58.3116 H   0  0  0  0  0
   51.6649   49.6863   56.3352 H   0  0  0  0  0
   54.4394   50.0757   55.1029 H   0  0  0  0  0
   51.5153   49.9613   54.0994 H   0  0  0  0  0
   55.0203   51.2723   53.0829 H   0  0  0  0  0
   55.1624   49.5111   52.8618 H   0  0  0  0  0
   54.7970   50.5569   51.4676 H   0  0  0  0  0
   52.8344   49.8359   50.6948 H   0  0  0  0  0
   53.2337   52.1557   50.7369 H   0  0  0  0  0
   51.8504   52.4175   51.8865 H   0  0  0  0  0
   51.3001   51.2803   49.0650 H   0  0  0  0  0
   50.4397   53.8028   50.5959 H   0  0  0  0  0
   49.6448   52.4201   47.9670 H   0  0  0  0  0
   48.7455   54.9688   49.4224 H   0  0  0  0  0
   47.9580   53.4956   46.7944 H   0  0  0  0  0
   47.4051   55.6073   45.9520 H   0  0  0  0  0
   46.1276   55.3095   48.4900 H   0  0  0  0  0
   46.3061   52.2657   48.3658 H   0  0  0  0  0
   46.8061   53.2790   49.7421 H   0  0  0  0  0
   45.0925   53.2114   49.2625 H   0  0  0  0  0
   45.5858   55.2493   46.0980 H   0  0  0  0  0
   45.0571   53.2058   45.1031 H   0  0  0  0  0
   43.7531   55.2239   47.8228 H   0  0  0  0  0
   43.1785   53.9369   45.1060 H   0  0  0  0  0
   43.4445   55.7072   45.3957 H   0  0  0  0  0
   41.4175   55.8347   46.6930 H   0  0  0  0  0
   41.1826   54.0620   46.5763 H   0  0  0  0  0
   38.7071   55.3370   44.3402 H   0  0  0  0  0
   39.4473   53.8380   43.7269 H   0  0  0  0  0
   39.1059   54.0158   45.4655 H   0  0  0  0  0
   44.0997   51.9568   46.2859 H   0  0  0  0  0
   42.4036   50.8074   48.5441 H   0  0  0  0  0
   43.3057   49.5612   45.9447 H   0  0  0  0  0
   40.5944   50.6407   46.8684 H   0  0  0  0  0
   41.6318   51.3742   45.6207 H   0  0  0  0  0
   40.8972   49.7762   45.3413 H   0  0  0  0  0
   43.0526   47.9637   47.7874 H   0  0  0  0  0
   41.4322   48.6141   48.1371 H   0  0  0  0  0
   41.7435   47.7813   46.5941 H   0  0  0  0  0
   43.6619   50.2657   50.1455 H   0  0  0  0  0
   46.6571   50.0534   49.8944 H   0  0  0  0  0
   44.6009   50.5795   52.0917 H   0  0  0  0  0
   45.6415   51.8345   51.2470 H   0  0  0  0  0
   45.4377   49.3217   53.9036 H   0  0  0  0  0
   47.8062   48.9007   56.4715 H   0  0  0  0  0
   49.2836   50.2950   55.4785 H   0  0  0  0  0
   49.6930   51.7627   53.5509 H   0  0  0  0  0
   48.0115   52.0092   51.7687 H   0  0  0  0  0
   47.8762   49.3298   50.0843 H   0  0  0  0  0
   48.5158   47.8167   49.5854 H   0  0  0  0  0
   47.4352   45.7298   50.3790 H   0  0  0  0  0
   46.1490   45.9933   51.5837 H   0  0  0  0  0
   48.4007   45.2620   52.4932 H   0  0  0  0  0
   47.7069   46.7802   53.2047 H   0  0  0  0  0
   49.9489   46.4774   51.2157 H   0  0  0  0  0
   49.9973   47.1790   52.8893 H   0  0  0  0  0
   48.7769   49.1243   52.1735 H   0  0  0  0  0
  1  2  2  0  0  0
  2  3  1  0  0  0
  2  7  1  0  0  0
  3  4  1  0  0  0
  3  6  1  0  0  0
  4  5  1  0  0  0
  6 10  1  0  0  0
  7  8  1  0  0  0
  8  9  1  0  0  0
  8 10  1  0  0  0
  8 12  1  0  0  0
  9 18  1  0  0  0
 10 11  1  0  0  0
 12 13  1  0  0  0
 12 14  1  0  0  0
 14 15  1  0  0  0
 14 16  1  0  0  0
 16 17  1  0  0  0
 16 18  1  0  0  0
 18 19  1  0  0  0
 19 20  1  0  0  0
 20 21  1  0  0  0
 20 22  1  0  0  0
 22 23  1  0  0  0
 22 24  1  0  0  0
 24 25  1  0  0  0
 25 26  1  0  0  0
 26 27  2  0  0  0
 27 28  1  0  0  0
 28 29  2  0  0  0
 29 30  1  0  0  0
 29 31  1  0  0  0
 31 32  1  0  0  0
 31 33  1  0  0  0
 32 77  1  0  0  0
 33 34  1  0  0  0
 34 35  2  0  0  0
 35 36  1  0  0  0
 36 37  2  0  0  0
 37 38  1  0  0  0
 38 39  1  0  0  0
 38 40  1  0  0  0
 40 41  1  0  0  0
 40 42  1  0  0  0
 42 43  1  0  0  0
 42 44  1  0  0  0
 44 45  1  0  0  0
 44 50  1  0  0  0
 45 46  1  0  0  0
 46 47  1  0  0  0
 47 48  1  0  0  0
 47 49  2  0  0  0
 50 51  2  0  0  0
 50 52  1  0  0  0
 52 53  1  0  0  0
 53 54  1  0  0  0
 53 57  1  0  0  0
 54 55  1  0  0  0
 54 56  1  0  0  0
 57 58  2  0  0  0
 57 59  1  0  0  0
 59 60  1  0  0  0
 60 61  1  0  0  0
 60 69  1  0  0  0
 61 62  1  0  0  0
 62 63  4  0  0  0
 62 68  4  0  0  0
 63 64  4  0  0  0
 64 65  1  0  0  0
 64 66  4  0  0  0
 66 67  4  0  0  0
 67 68  4  0  0  0
 69 70  2  0  0  0
 69 71  1  0  0  0
 71 72  1  0  0  0
 71 73  1  0  0  0
 72 76  1  0  0  0
 73 74  1  0  0  0
 74 75  1  0  0  0
 75 76  1  0  0  0
 76 77  1  0  0  0
 77 78  2  0  0  0
  3 79  1  0  0  0
  4 80  1  0  0  0
  4 81  1  0  0  0
  5 82  1  0  0  0
  5 83  1  0  0  0
  5 84  1  0  0  0
  6 85  1  0  0  0
  6 86  1  0  0  0
  7 87  1  0  0  0
 10 88  1  0  0  0
 11 89  1  0  0  0
 11 90  1  0  0  0
 11 91  1  0  0  0
 12 92  1  0  0  0
 13 93  1  0  0  0
 13 94  1  0  0  0
 13 95  1  0  0  0
 14 96  1  0  0  0
 15 97  1  0  0  0
 16 98  1  0  0  0
 17 99  1  0  0  0
 17100  1  0  0  0
 17101  1  0  0  0
 18102  1  0  0  0
 19103  1  0  0  0
 19104  1  0  0  0
 20105  1  0  0  0
 21106  1  0  0  0
 22107  1  0  0  0
 23108  1  0  0  0
 23109  1  0  0  0
 23110  1  0  0  0
 24111  1  0  0  0
 24112  1  0  0  0
 25113  1  0  0  0
 25114  1  0  0  0
 26115  1  0  0  0
 27116  1  0  0  0
 28117  1  0  0  0
 30118  1  0  0  0
 30119  1  0  0  0
 30120  1  0  0  0
 31121  1  0  0  0
 33122  1  0  0  0
 33123  1  0  0  0
 34124  1  0  0  0
 35125  1  0  0  0
 36126  1  0  0  0
 37127  1  0  0  0
 38128  1  0  0  0
 39129  1  0  0  0
 40130  1  0  0  0
 41131  1  0  0  0
 41132  1  0  0  0
 41133  1  0  0  0
 42134  1  0  0  0
 43135  1  0  0  0
 44136  1  0  0  0
 45137  1  0  0  0
 45138  1  0  0  0
 46139  1  0  0  0
 46140  1  0  0  0
 48141  1  0  0  0
 48142  1  0  0  0
 48143  1  0  0  0
 52144  1  0  0  0
 53145  1  0  0  0
 54146  1  0  0  0
 55147  1  0  0  0
 55148  1  0  0  0
 55149  1  0  0  0
 56150  1  0  0  0
 56151  1  0  0  0
 56152  1  0  0  0
 59153  1  0  0  0
 60154  1  0  0  0
 61155  1  0  0  0
 61156  1  0  0  0
 63157  1  0  0  0
 65158  1  0  0  0
 66159  1  0  0  0
 67160  1  0  0  0
 68161  1  0  0  0
 72162  1  0  0  0
 72163  1  0  0  0
 73164  1  0  0  0
 73165  1  0  0  0
 74166  1  0  0  0
 74167  1  0  0  0
 75168  1  0  0  0
 75169  1  0  0  0
 76170  1  0  0  0
M  END
$$$$
