4bpj_ligand
  -I-interpret- 

298298  0  0  0  0  0  0  0  0999 V2000
   -1.9180   20.8810   20.4110 N   0  3  0  0  0
   -1.6850   19.6520   19.6560 C   0  0  0  0  0
   -0.3210   19.6660   18.9800 C   0  0  0  0  0
    0.2770   20.7320   18.7870 O   0  0  0  0  0
   -2.7830   19.4440   18.6320 C   0  0  0  0  0
    0.1670   18.4800   18.6190 N   0  0  0  0  0
    1.4840   18.3510   18.0060 C   0  0  0  0  0
    1.5820   19.1180   16.6890 C   0  0  0  0  0
    2.5510   19.8330   16.4470 O   0  0  0  0  0
    1.8720   16.8790   17.7790 C   0  0  0  0  0
    3.0560   16.7990   16.8160 C   0  0  0  0  0
    0.6820   16.0940   17.2510 C   0  0  0  0  0
    3.6600   15.4430   16.6440 C   0  0  0  0  0
    0.5530   18.9740   15.8590 N   0  0  0  0  0
    0.5180   19.6160   14.5430 C   0  0  0  0  0
    1.4970   18.9490   13.5870 C   0  0  0  0  0
    0.7500   21.1270   14.5990 C   0  0  0  0  0
    1.7580   21.6290   14.0780 O   0  0  0  0  0
   -0.1880   21.8310   15.2350 N   0  0  0  0  0
   -0.1750   23.2930   15.3510 C   0  0  0  0  0
    0.9850   23.7700   16.2120 C   0  0  0  0  0
    1.5780   24.8340   15.9520 O   0  0  0  0  0
   -1.4930   23.7850   15.9300 C   0  0  0  0  0
    1.2320   23.0070   17.2730 N   0  0  0  0  0
    2.1660   23.6340   18.2120 C   0  0  0  0  0
    1.5350   23.8750   19.5910 C   0  0  0  0  0
    3.4150   22.7780   18.3520 C   0  0  0  0  0
    4.3750   22.9870   17.1860 C   0  0  0  0  0
    5.0740   23.9970   17.1530 O   0  0  0  0  0
    0.3740   24.8640   19.6190 C   0  0  0  0  0
    0.7280   26.2600   19.1200 C   0  0  0  0  0
   -0.2370   26.9420   18.5260 N   0  0  0  0  0
    1.8610   26.7190   19.2520 O   0  0  0  0  0
    4.4040   22.0680   16.2170 N   0  0  0  0  0
    5.3800   22.1590   15.1500 C   0  0  0  0  0
    5.1700   23.3390   14.2220 C   0  0  0  0  0
    6.1330   24.0060   13.8500 O   0  0  0  0  0
    5.3810   20.8800   14.3120 C   0  0  0  0  0
    5.9740   19.7020   15.0730 C   0  0  0  0  0
    5.7280   18.4240   14.2910 C   0  0  0  0  0
    7.4640   19.8890   15.2680 C   0  0  0  0  0
    3.9220   23.5760   13.8260 N   0  0  0  0  0
    3.6440   24.5910   12.8080 C   0  0  0  0  0
    3.9620   25.9800   13.3520 C   0  0  0  0  0
    4.6350   26.7630   12.6810 O   0  0  0  0  0
    2.2020   24.5210   12.3360 C   0  0  0  0  0
    1.8920   25.5180   11.2220 C   0  0  0  0  0
    0.4060   25.5930   10.9990 C   0  0  0  0  0
   -0.0870   24.4450   10.2290 N   0  0  0  0  0
   -1.3570   24.0490   10.1960 C   0  0  0  0  0
   -2.2890   24.6890   10.8990 N   0  0  0  0  0
   -1.7080   22.9940    9.4640 N   0  0  0  0  0
    3.3940   26.2690   14.5250 N   0  0  0  0  0
    3.4820   27.6500   14.9970 C   0  0  0  0  0
    2.0870   28.1490   15.3840 C   0  0  0  0  0
    1.1000   28.0030   14.2330 C   0  0  0  0  0
    0.0400   29.0900   14.2920 C   0  0  0  0  0
   -0.7100   29.0730   15.5400 N   0  0  0  0  0
   -1.7960   29.8060   15.7430 C   0  0  0  0  0
   -2.2320   30.6080   14.7800 N   0  0  0  0  0
   -2.4350   29.7420   16.9030 N   0  0  0  0  0
    5.8440   27.7700   15.9110 C   0  0  0  0  0
    6.3000   28.7700   15.3690 O   0  0  0  0  0
    4.3580   27.7090   16.2420 C   0  0  0  0  0
    6.5720   26.7020   16.2310 N   0  0  0  0  0
    8.0220   26.6510   16.0480 C   0  0  0  0  0
    8.4570   27.0570   14.6460 C   0  0  0  0  0
    9.3190   27.9120   14.4690 O   0  0  0  0  0
    8.5370   25.2390   16.3230 C   0  0  0  0  0
    8.1800   24.7180   17.6890 C   0  0  0  0  0
    8.6470   23.0010   17.8820 S   0  0  0  0  0
    7.7710   22.6350   19.3840 C   0  0  0  0  0
    7.8410   26.4320   13.6560 N   0  0  0  0  0
    8.2600   26.5810   12.2660 C   0  0  0  0  0
    8.0280   27.9680   11.6890 C   0  0  0  0  0
    8.9370   28.5410   11.0720 O   0  0  0  0  0
    7.5650   25.5410   11.4010 C   0  0  0  0  0
    6.8100   28.4870   11.8560 N   0  0  0  0  0
    6.4390   29.7780   11.2570 C   0  0  0  0  0
    7.0560   30.9040   12.0610 C   0  0  0  0  0
    7.3590   31.9700   11.5070 O   0  0  0  0  0
    4.9230   29.9480   11.2080 C   0  0  0  0  0
    4.2700   29.1160   10.1180 C   0  0  0  0  0
    4.9890   28.5090    9.2750 O   0  0  0  0  0
    3.0210   29.0920   10.0910 O   0  0  0  0  0
    6.9970   33.1890   17.2300 O   0  0  0  0  0
    6.7630   33.3850   16.0280 C   0  0  0  0  0
    6.8040   34.5220   15.5050 O   0  0  0  0  0
    6.4110   32.1750   15.1820 C   0  0  0  0  0
    7.4980   31.8320   14.1590 C   0  0  0  0  0
    7.1330   30.6540   13.3690 N   0  0  0  0  0
    8.7810   31.5430   14.9210 C   0  0  0  0  0
    9.9840   31.5780   14.0180 C   0  0  0  0  0
   10.4690   32.6640   13.6980 O   0  0  0  0  0
   10.4560   30.4120   13.5870 N   0  0  0  0  0
   11.6900   30.3500   12.8060 C   0  0  0  0  0
   11.5980   31.1000   11.4720 C   0  0  0  0  0
   12.4780   31.9000   11.1480 O   0  0  0  0  0
   12.1340   28.9010   12.5770 C   0  0  0  0  0
   13.5000   28.7310   11.9030 C   0  0  0  0  0
   14.6100   29.3700   12.7210 C   0  0  0  0  0
   13.7860   27.2650   11.6730 C   0  0  0  0  0
   10.5500   30.8370   10.6990 N   0  0  0  0  0
   10.4440   31.4300    9.3670 C   0  0  0  0  0
   10.3260   32.9270    9.4900 C   0  0  0  0  0
   10.9330   33.6690    8.7160 O   0  0  0  0  0
    9.2750   30.8510    8.5780 C   0  0  0  0  0
    9.4670   31.0240    7.0830 C   0  0  0  0  0
   10.2720   30.3160    6.4800 O   0  0  0  0  0
    8.7440   31.9640    6.4850 N   0  0  0  0  0
    7.8580   35.1270    9.9760 C   0  0  0  0  0
    9.2960   34.7750   10.3350 C   0  0  0  0  0
    9.4840   33.3320   10.4390 N   0  0  0  0  0
    9.6440   35.3900   11.6630 C   0  0  0  0  0
   11.1080   35.7240   11.7210 C   0  0  0  0  0
   11.5000   36.7800   11.2310 O   0  0  0  0  0
   11.9170   34.8440   12.3050 N   0  0  0  0  0
   13.3400   35.1350   12.4870 C   0  0  0  0  0
   14.0450   35.3900   11.1660 C   0  0  0  0  0
   14.8580   36.3040   11.0620 O   0  0  0  0  0
   14.0460   33.9970   13.2210 C   0  0  0  0  0
   13.5680   33.7710   14.6370 C   0  0  0  0  0
   14.3670   32.6910   15.3390 C   0  0  0  0  0
   15.5730   32.5680   15.1330 O   0  0  0  0  0
   13.6960   31.8980   16.1660 N   0  0  0  0  0
   13.7290   34.5880   10.1530 N   0  0  0  0  0
   14.4130   34.7070    8.8650 C   0  0  0  0  0
   13.6640   35.5160    7.8020 C   0  0  0  0  0
   14.0220   35.4840    6.6240 O   0  0  0  0  0
   14.8180   33.3260    8.3380 C   0  0  0  0  0
   16.0190   32.7870    9.0690 C   0  0  0  0  0
   17.3040   33.0960    8.6420 C   0  0  0  0  0
   15.8730   32.0030   10.2040 C   0  0  0  0  0
   18.4090   32.6270    9.3100 C   0  0  0  0  0
   16.9800   31.5270   10.8870 C   0  0  0  0  0
   18.2450   31.8440   10.4280 C   0  0  0  0  0
   19.3580   31.3870   11.0890 O   0  0  0  0  0
   12.6420   36.2510    8.2320 N   0  0  0  0  0
   11.8550   37.0990    7.3300 C   0  0  0  0  0
   11.3390   36.3640    6.0880 C   0  0  0  0  0
   11.4870   36.8470    4.9630 O   0  0  0  0  0
   12.6590   38.3490    6.9430 C   0  0  0  0  0
   13.0740   39.1700    8.1490 C   0  0  0  0  0
   13.7180   40.4970    7.7830 C   0  0  0  0  0
   14.5770   40.5180    6.8790 O   0  0  0  0  0
   13.3660   41.5200    8.4030 O   0  0  0  0  0
   10.7330   35.1980    6.3000 N   0  0  0  0  0
   -1.1712   21.0055   21.0945 H   0  0  0  0  0
   -1.9302   21.6748   19.7706 H   0  0  0  0  0
   -2.8147   20.8176   20.8931 H   0  0  0  0  0
   -1.6991   18.8197   20.3597 H   0  0  0  0  0
   -2.7566   20.2542   17.9033 H   0  0  0  0  0
   -2.6290   18.4918   18.1244 H   0  0  0  0  0
   -3.7502   19.4370   19.1346 H   0  0  0  0  0
   -0.3938   17.6424   18.7751 H   0  0  0  0  0
    2.1879   18.7897   18.7132 H   0  0  0  0  0
    2.1698   16.4352   18.7290 H   0  0  0  0  0
    3.8371   17.4344   17.2333 H   0  0  0  0  0
    2.6788   17.0956   15.8373 H   0  0  0  0  0
   -0.1320   16.1402   17.9745 H   0  0  0  0  0
    0.3543   16.5257   16.3053 H   0  0  0  0  0
    0.9735   15.0552   17.0960 H   0  0  0  0  0
    4.0232   15.0837   17.6068 H   0  0  0  0  0
    2.9054   14.7566   16.2597 H   0  0  0  0  0
    4.4903   15.5031   15.9404 H   0  0  0  0  0
   -0.2374   18.3978   16.1482 H   0  0  0  0  0
   -0.4944   19.4784   14.1632 H   0  0  0  0  0
    2.5069   19.0282   13.9894 H   0  0  0  0  0
    1.2317   17.8981   13.4720 H   0  0  0  0  0
    1.4510   19.4448   12.6174 H   0  0  0  0  0
   -0.9599   21.3223   15.6661 H   0  0  0  0  0
   -0.0451   23.7077   14.3514 H   0  0  0  0  0
   -2.3107   23.4854   15.2745 H   0  0  0  0  0
   -1.6395   23.3491   16.9182 H   0  0  0  0  0
   -1.4698   24.8718   16.0107 H   0  0  0  0  0
    0.8169   22.0865   17.4172 H   0  0  0  0  0
    2.4314   24.6091   17.8035 H   0  0  0  0  0
    2.3179   24.2979   20.2206 H   0  0  0  0  0
    1.1339   22.9165   19.9203 H   0  0  0  0  0
    3.1139   21.7305   18.3656 H   0  0  0  0  0
    3.9251   23.0625   19.2723 H   0  0  0  0  0
    0.0627   24.9642   20.6588 H   0  0  0  0  0
   -0.3975   24.4722   18.9561 H   0  0  0  0  0
   -0.0514   27.8766   18.1619 H   0  0  0  0  0
   -1.1669   26.5334   18.4320 H   0  0  0  0  0
    3.7353   21.2979   16.2283 H   0  0  0  0  0
    6.3379   22.3016   15.6503 H   0  0  0  0  0
    5.9890   21.0539   13.4242 H   0  0  0  0  0
    4.3492   20.6376   14.0576 H   0  0  0  0  0
    5.4966   19.6408   16.0510 H   0  0  0  0  0
    4.6552   18.2762   14.1671 H   0  0  0  0  0
    6.2008   18.5019   13.3120 H   0  0  0  0  0
    6.1520   17.5797   14.8345 H   0  0  0  0  0
    7.9501   19.9624   14.2951 H   0  0  0  0  0
    7.6431   20.8026   15.8349 H   0  0  0  0  0
    7.8676   19.0362   15.8138 H   0  0  0  0  0
    3.1524   23.0461   14.2351 H   0  0  0  0  0
    4.2834   24.3921   11.9479 H   0  0  0  0  0
    1.5619   24.7610   13.1850 H   0  0  0  0  0
    2.0286   23.5190   11.9436 H   0  0  0  0  0
    2.3770   25.1909   10.3023 H   0  0  0  0  0
    2.2623   26.5025   11.5080 H   0  0  0  0  0
    0.1888   26.5015   10.4373 H   0  0  0  0  0
   -0.0873   25.5914   11.9710 H   0  0  0  0  0
    0.5904   23.9142    9.6815 H   0  0  0  0  0
   -3.2573   24.3694   10.8722 H   0  0  0  0  0
   -2.0348   25.4990   11.4644 H   0  0  0  0  0
   -1.0032   22.4882    8.9276 H   0  0  0  0  0
    2.9162   25.5527   15.0719 H   0  0  0  0  0
    3.9031   28.2665   14.2028 H   0  0  0  0  0
    2.1589   29.2051   15.6442 H   0  0  0  0  0
    1.7284   27.5526   16.2229 H   0  0  0  0  0
    0.6122   27.0312   14.3087 H   0  0  0  0  0
    1.6419   28.0906   13.2913 H   0  0  0  0  0
   -0.6622   28.9186   13.4761 H   0  0  0  0  0
    0.5432   30.0539   14.2160 H   0  0  0  0  0
   -0.3843   28.4683   16.2941 H   0  0  0  0  0
   -3.0632   31.1798   14.9299 H   0  0  0  0  0
   -1.7359   30.6527   13.8899 H   0  0  0  0  0
   -2.0913   29.1280   17.6414 H   0  0  0  0  0
    4.1803   26.8023   16.8203 H   0  0  0  0  0
    4.0994   28.6143   16.7913 H   0  0  0  0  0
    6.0990   25.8861   16.6196 H   0  0  0  0  0
    8.4452   27.3654   16.7541 H   0  0  0  0  0
    9.6248   25.2719   16.2616 H   0  0  0  0  0
    8.0752   24.5762   15.5912 H   0  0  0  0  0
    7.1004   24.7977   17.8167 H   0  0  0  0  0
    8.7166   25.3066   18.4331 H   0  0  0  0  0
    8.1269   23.2897   20.1794 H   0  0  0  0  0
    6.7041   22.7959   19.2293 H   0  0  0  0  0
    7.9465   21.5956   19.6614 H   0  0  0  0  0
    7.0484   25.8270   13.8709 H   0  0  0  0  0
    9.3393   26.4287   12.2611 H   0  0  0  0  0
    7.8293   24.5433   11.7516 H   0  0  0  0  0
    6.4856   25.6770   11.4681 H   0  0  0  0  0
    7.8838   25.6598   10.3654 H   0  0  0  0  0
    6.1219   27.9777   12.4106 H   0  0  0  0  0
    6.8157   29.8041   10.2345 H   0  0  0  0  0
    4.7122   30.9966   10.9979 H   0  0  0  0  0
    4.5198   29.6179   12.1654 H   0  0  0  0  0
    5.9150   28.6595    9.4786 H   0  0  0  0  0
    6.5920   34.4514   14.5714 H   0  0  0  0  0
    5.4968   32.4042   14.6345 H   0  0  0  0  0
    6.2989   31.3210   15.8500 H   0  0  0  0  0
    7.6229   32.6703   13.4737 H   0  0  0  0  0
    6.9558   29.7362   13.7773 H   0  0  0  0  0
    8.7058   30.5458   15.3547 H   0  0  0  0  0
    8.9047   32.3076   15.6879 H   0  0  0  0  0
    9.9519   29.5521   13.8036 H   0  0  0  0  0
   12.4464   30.8593   13.4032 H   0  0  0  0  0
   11.3991   28.4521   11.9088 H   0  0  0  0  0
   12.2132   28.4403   13.5617 H   0  0  0  0  0
   13.4669   29.2421   10.9408 H   0  0  0  0  0
   14.4104   30.4358   12.8320 H   0  0  0  0  0
   14.6501   28.9022   13.7047 H   0  0  0  0  0
   15.5629   29.2287   12.2110 H   0  0  0  0  0
   13.7907   26.7426   12.6296 H   0  0  0  0  0
   13.0139   26.8420   11.0303 H   0  0  0  0  0
   14.7590   27.1568   11.1937 H   0  0  0  0  0
    9.8141   30.2169   11.0373 H   0  0  0  0  0
   11.3489   31.1862    8.8103 H   0  0  0  0  0
    8.3676   31.3789    8.8712 H   0  0  0  0  0
    9.2087   29.7848    8.7948 H   0  0  0  0  0
    8.8439   32.1237    5.4825 H   0  0  0  0  0
    8.0888   32.5262    7.0282 H   0  0  0  0  0
    7.6033   34.6756    9.0171 H   0  0  0  0  0
    7.1887   34.7463   10.7474 H   0  0  0  0  0
    7.7567   36.2101    9.9075 H   0  0  0  0  0
    9.9391   35.1597    9.5435 H   0  0  0  0  0
    9.0400   32.7278   11.1305 H   0  0  0  0  0
    9.4117   34.6778   12.4548 H   0  0  0  0  0
    9.0666   36.3055   11.7914 H   0  0  0  0  0
   11.5403   33.9538   12.6306 H   0  0  0  0  0
   13.3934   36.0430   13.0877 H   0  0  0  0  0
   15.1016   34.2622   13.2796 H   0  0  0  0  0
   13.8390   33.0825   12.6651 H   0  0  0  0  0
   12.5257   33.4542   14.5990 H   0  0  0  0  0
   13.6910   34.7014   15.1914 H   0  0  0  0  0
   14.1812   31.1497   16.6610 H   0  0  0  0  0
   12.6953   32.0371   16.3063 H   0  0  0  0  0
   13.0023   33.8827   10.2753 H   0  0  0  0  0
   15.3083   35.2943    9.0689 H   0  0  0  0  0
   15.0701   33.4198    7.2817 H   0  0  0  0  0
   13.9846   32.6402    8.4903 H   0  0  0  0  0
   17.4382   33.7225    7.7602 H   0  0  0  0  0
   14.8735   31.7582   10.5633 H   0  0  0  0  0
   19.4097   32.8742    8.9557 H   0  0  0  0  0
   16.8552   30.9094   11.7764 H   0  0  0  0  0
   19.0865   30.8582   11.8429 H   0  0  0  0  0
   12.3974   36.2241    9.2219 H   0  0  0  0  0
   10.9639   37.3992    7.8813 H   0  0  0  0  0
   12.0261   38.9738    6.3128 H   0  0  0  0  0
   13.5643   38.0214    6.4319 H   0  0  0  0  0
   13.8107   38.5893    8.7041 H   0  0  0  0  0
   12.1736   39.3890    8.7230 H   0  0  0  0  0
   14.6994   39.6303    6.5347 H   0  0  0  0  0
   10.3670   34.6629    5.5126 H   0  0  0  0  0
   10.6346   34.8396    7.2499 H   0  0  0  0  0
  2  1  1  0  0  0
  3  2  1  0  0  0
  2  5  1  0  0  0
  3  4  2  0  0  0
  6  3  1  0  0  0
  7  6  1  0  0  0
  8  7  1  0  0  0
  7 10  1  0  0  0
  8  9  2  0  0  0
 14  8  1  0  0  0
 10 11  1  0  0  0
 10 12  1  0  0  0
 11 13  1  0  0  0
 15 14  1  0  0  0
 15 16  1  0  0  0
 17 15  1  0  0  0
 17 18  2  0  0  0
 19 17  1  0  0  0
 20 19  1  0  0  0
 21 20  1  0  0  0
 20 23  1  0  0  0
 21 22  2  0  0  0
 24 21  1  0  0  0
 25 24  1  0  0  0
 25 26  1  0  0  0
 27 25  1  0  0  0
 26 30  1  0  0  0
 28 27  1  0  0  0
 28 29  2  0  0  0
 34 28  1  0  0  0
 30 31  1  0  0  0
 31 32  1  0  0  0
 31 33  2  0  0  0
 35 34  1  0  0  0
 36 35  1  0  0  0
 35 38  1  0  0  0
 36 37  2  0  0  0
 42 36  1  0  0  0
 38 39  1  0  0  0
 39 40  1  0  0  0
 39 41  1  0  0  0
 43 42  1  0  0  0
 44 43  1  0  0  0
 43 46  1  0  0  0
 44 45  2  0  0  0
 53 44  1  0  0  0
 46 47  1  0  0  0
 47 48  1  0  0  0
 48 49  1  0  0  0
 49 50  1  0  0  0
 50 51  1  0  0  0
 50 52  2  0  0  0
 54 53  1  0  0  0
 54 55  1  0  0  0
 64 54  1  0  0  0
 55 56  1  0  0  0
 56 57  1  0  0  0
 57 58  1  0  0  0
 58 59  1  0  0  0
 59 60  1  0  0  0
 59 61  2  0  0  0
 62 63  2  0  0  0
 62 64  1  0  0  0
 65 62  1  0  0  0
 66 65  1  0  0  0
 67 66  1  0  0  0
 66 69  1  0  0  0
 67 68  2  0  0  0
 73 67  1  0  0  0
 69 70  1  0  0  0
 70 71  1  0  0  0
 71 72  1  0  0  0
 74 73  1  0  0  0
 75 74  1  0  0  0
 74 77  1  0  0  0
 75 76  2  0  0  0
 78 75  1  0  0  0
 79 78  1  0  0  0
 80 79  1  0  0  0
 79 82  1  0  0  0
 80 81  2  0  0  0
 91 80  1  0  0  0
 82 83  1  0  0  0
 83 84  1  0  0  0
 83 85  2  0  0  0
 87 86  2  0  0  0
 87 88  1  0  0  0
 89 87  1  0  0  0
 90 89  1  0  0  0
 90 91  1  0  0  0
 92 90  1  0  0  0
 93 92  1  0  0  0
 93 94  2  0  0  0
 95 93  1  0  0  0
 96 95  1  0  0  0
 97 96  1  0  0  0
 96 99  1  0  0  0
 97 98  2  0  0  0
103 97  1  0  0  0
 99100  1  0  0  0
100101  1  0  0  0
100102  1  0  0  0
104103  1  0  0  0
105104  1  0  0  0
104107  1  0  0  0
105106  2  0  0  0
113105  1  0  0  0
107108  1  0  0  0
108109  2  0  0  0
108110  1  0  0  0
112111  1  0  0  0
112113  1  0  0  0
112114  1  0  0  0
114115  1  0  0  0
115116  2  0  0  0
115117  1  0  0  0
117118  1  0  0  0
118119  1  0  0  0
118121  1  0  0  0
119120  2  0  0  0
119126  1  0  0  0
121122  1  0  0  0
122123  1  0  0  0
123124  2  0  0  0
123125  1  0  0  0
126127  1  0  0  0
127128  1  0  0  0
127130  1  0  0  0
128129  2  0  0  0
128138  1  0  0  0
130131  1  0  0  0
131132  4  0  0  0
131133  4  0  0  0
132134  4  0  0  0
133135  4  0  0  0
134136  4  0  0  0
135136  4  0  0  0
136137  1  0  0  0
138139  1  0  0  0
139140  1  0  0  0
139142  1  0  0  0
140141  2  0  0  0
140147  1  0  0  0
142143  1  0  0  0
143144  1  0  0  0
144145  1  0  0  0
144146  2  0  0  0
  1148  1  0  0  0
  1149  1  0  0  0
  1150  1  0  0  0
  2151  1  0  0  0
  5152  1  0  0  0
  5153  1  0  0  0
  5154  1  0  0  0
  6155  1  0  0  0
  7156  1  0  0  0
 10157  1  0  0  0
 11158  1  0  0  0
 11159  1  0  0  0
 12160  1  0  0  0
 12161  1  0  0  0
 12162  1  0  0  0
 13163  1  0  0  0
 13164  1  0  0  0
 13165  1  0  0  0
 14166  1  0  0  0
 15167  1  0  0  0
 16168  1  0  0  0
 16169  1  0  0  0
 16170  1  0  0  0
 19171  1  0  0  0
 20172  1  0  0  0
 23173  1  0  0  0
 23174  1  0  0  0
 23175  1  0  0  0
 24176  1  0  0  0
 25177  1  0  0  0
 26178  1  0  0  0
 26179  1  0  0  0
 27180  1  0  0  0
 27181  1  0  0  0
 30182  1  0  0  0
 30183  1  0  0  0
 32184  1  0  0  0
 32185  1  0  0  0
 34186  1  0  0  0
 35187  1  0  0  0
 38188  1  0  0  0
 38189  1  0  0  0
 39190  1  0  0  0
 40191  1  0  0  0
 40192  1  0  0  0
 40193  1  0  0  0
 41194  1  0  0  0
 41195  1  0  0  0
 41196  1  0  0  0
 42197  1  0  0  0
 43198  1  0  0  0
 46199  1  0  0  0
 46200  1  0  0  0
 47201  1  0  0  0
 47202  1  0  0  0
 48203  1  0  0  0
 48204  1  0  0  0
 49205  1  0  0  0
 51206  1  0  0  0
 51207  1  0  0  0
 52208  1  0  0  0
 53209  1  0  0  0
 54210  1  0  0  0
 55211  1  0  0  0
 55212  1  0  0  0
 56213  1  0  0  0
 56214  1  0  0  0
 57215  1  0  0  0
 57216  1  0  0  0
 58217  1  0  0  0
 60218  1  0  0  0
 60219  1  0  0  0
 61220  1  0  0  0
 64221  1  0  0  0
 64222  1  0  0  0
 65223  1  0  0  0
 66224  1  0  0  0
 69225  1  0  0  0
 69226  1  0  0  0
 70227  1  0  0  0
 70228  1  0  0  0
 72229  1  0  0  0
 72230  1  0  0  0
 72231  1  0  0  0
 73232  1  0  0  0
 74233  1  0  0  0
 77234  1  0  0  0
 77235  1  0  0  0
 77236  1  0  0  0
 78237  1  0  0  0
 79238  1  0  0  0
 82239  1  0  0  0
 82240  1  0  0  0
 84241  1  0  0  0
 88242  1  0  0  0
 89243  1  0  0  0
 89244  1  0  0  0
 90245  1  0  0  0
 91246  1  0  0  0
 92247  1  0  0  0
 92248  1  0  0  0
 95249  1  0  0  0
 96250  1  0  0  0
 99251  1  0  0  0
 99252  1  0  0  0
100253  1  0  0  0
101254  1  0  0  0
101255  1  0  0  0
101256  1  0  0  0
102257  1  0  0  0
102258  1  0  0  0
102259  1  0  0  0
103260  1  0  0  0
104261  1  0  0  0
107262  1  0  0  0
107263  1  0  0  0
110264  1  0  0  0
110265  1  0  0  0
111266  1  0  0  0
111267  1  0  0  0
111268  1  0  0  0
112269  1  0  0  0
113270  1  0  0  0
114271  1  0  0  0
114272  1  0  0  0
117273  1  0  0  0
118274  1  0  0  0
121275  1  0  0  0
121276  1  0  0  0
122277  1  0  0  0
122278  1  0  0  0
125279  1  0  0  0
125280  1  0  0  0
126281  1  0  0  0
127282  1  0  0  0
130283  1  0  0  0
130284  1  0  0  0
132285  1  0  0  0
133286  1  0  0  0
134287  1  0  0  0
135288  1  0  0  0
137289  1  0  0  0
138290  1  0  0  0
139291  1  0  0  0
142292  1  0  0  0
142293  1  0  0  0
143294  1  0  0  0
143295  1  0  0  0
145296  1  0  0  0
147297  1  0  0  0
147298  1  0  0  0
M  END
$$$$
