4cj4_ligand
  -I-interpret- 

 52 54  0  0  0  0  0  0  0  0999 V2000
  -11.2580   44.2170   -1.8040 C   0  0  0  0  0
  -12.1510   44.2180   -2.8540 C   0  0  0  0  0
  -10.8670   49.4760    3.1290 C   0  0  0  0  0
   -9.3590   48.0840    4.3370 C   0  0  0  0  0
  -11.4340   49.8090    4.3400 C   0  0  0  0  0
  -10.0000   48.4850    5.4870 C   0  0  0  0  0
   -9.8120   48.5960    3.1450 C   0  0  0  0  0
  -12.8890   45.1580   -0.3010 C   0  0  0  0  0
  -11.6080   44.6820   -0.5430 C   0  0  0  0  0
  -13.4080   44.6940   -2.5980 C   0  0  0  0  0
  -13.7600   45.1490   -1.3640 C   0  0  0  0  0
   -9.1670   48.2030    1.8930 C   0  0  0  0  0
  -13.3800   45.6780    1.0100 C   0  0  0  0  0
  -15.5020   45.0450   -2.5900 C   0  0  0  0  0
   -7.4570   42.6850    0.2260 C   0  0  0  0  0
   -6.8800   43.2720    2.5690 C   0  0  0  0  0
  -10.5740   44.6140    0.5350 C   0  0  0  0  0
   -8.2180   44.8770    1.2510 C   0  0  0  0  0
   -9.3550   46.6880   -0.0210 C   0  0  0  0  0
   -7.9330   43.3920    1.4800 C   0  0  0  0  0
   -9.2310   45.1870    0.1600 C   0  0  0  0  0
  -11.0310   49.3360    5.5250 N   0  0  0  0  0
   -9.9210   47.3320    1.1400 N   0  0  0  0  0
  -14.4820   45.2350    1.4360 O   0  0  0  0  0
   -8.0650   48.6550    1.6190 O   0  0  0  0  0
  -12.6750   46.5540    1.5890 O   0  0  0  0  0
  -14.4310   44.7680   -3.4940 O   0  0  0  0  0
  -15.0590   45.5680   -1.3310 O   0  0  0  0  0
  -10.2483   43.8405   -1.9680 H   0  0  0  0  0
  -11.8688   43.8563   -3.8427 H   0  0  0  0  0
  -11.2410   49.8945    2.1946 H   0  0  0  0  0
   -8.5226   47.3858    4.3705 H   0  0  0  0  0
  -12.2706   50.5077    4.3320 H   0  0  0  0  0
   -9.6421   48.0804    6.4337 H   0  0  0  0  0
  -16.0190   44.1057   -2.3934 H   0  0  0  0  0
  -16.1390   45.7979   -3.0542 H   0  0  0  0  0
   -6.5288   43.1420   -0.1171 H   0  0  0  0  0
   -7.2847   41.6317    0.4475 H   0  0  0  0  0
   -8.2165   42.7748   -0.5507 H   0  0  0  0  0
   -6.7075   42.2190    2.7914 H   0  0  0  0  0
   -5.9516   43.7292    2.2269 H   0  0  0  0  0
   -7.2283   43.7820    3.4672 H   0  0  0  0  0
  -10.4169   43.5584    0.7566 H   0  0  0  0  0
  -10.9484   45.2057    1.3703 H   0  0  0  0  0
   -7.2768   45.3297    0.9391 H   0  0  0  0  0
   -8.6362   45.2605    2.1817 H   0  0  0  0  0
  -10.0155   46.8741   -0.8679 H   0  0  0  0  0
   -8.3562   47.0940   -0.1810 H   0  0  0  0  0
   -8.8643   42.9088    1.7753 H   0  0  0  0  0
   -8.8928   44.7395   -0.7746 H   0  0  0  0  0
  -10.8872   47.1401    1.4045 H   0  0  0  0  0
  -11.8854   46.7223    1.0695 H   0  0  0  0  0
  1  2  4  0  0  0
  9  1  4  0  0  0
  2 10  4  0  0  0
  3  5  4  0  0  0
  7  3  4  0  0  0
  4  6  4  0  0  0
  7  4  4  0  0  0
  5 22  4  0  0  0
  6 22  4  0  0  0
 12  7  1  0  0  0
  9  8  4  0  0  0
  8 11  4  0  0  0
  8 13  1  0  0  0
 17  9  1  0  0  0
 11 10  4  0  0  0
 10 27  1  0  0  0
 11 28  1  0  0  0
 23 12  1  0  0  0
 12 25  2  0  0  0
 13 24  2  0  0  0
 13 26  1  0  0  0
 14 27  1  0  0  0
 28 14  1  0  0  0
 20 15  1  0  0  0
 20 16  1  0  0  0
 21 17  1  0  0  0
 18 20  1  0  0  0
 21 18  1  0  0  0
 19 21  1  0  0  0
 19 23  1  0  0  0
  1 29  1  0  0  0
  2 30  1  0  0  0
  3 31  1  0  0  0
  4 32  1  0  0  0
  5 33  1  0  0  0
  6 34  1  0  0  0
 14 35  1  0  0  0
 14 36  1  0  0  0
 15 37  1  0  0  0
 15 38  1  0  0  0
 15 39  1  0  0  0
 16 40  1  0  0  0
 16 41  1  0  0  0
 16 42  1  0  0  0
 17 43  1  0  0  0
 17 44  1  0  0  0
 18 45  1  0  0  0
 18 46  1  0  0  0
 19 47  1  0  0  0
 19 48  1  0  0  0
 20 49  1  0  0  0
 21 50  1  0  0  0
 23 51  1  0  0  0
 26 52  1  0  0  0
M  END
$$$$
