6dz0_ligand
  -I-interpret- 

 46 48  0  0  0  0  0  0  0  0999 V2000
  105.4690   64.0280   46.1970 N   0  0  0  0  0
  106.1260   63.5600   47.2860 C   0  0  0  0  0
  107.2510   64.1360   47.7820 N   0  0  0  0  0
  107.9080   63.6070   48.8400 C   0  0  0  0  0
  107.5210   62.5070   49.5130 N   0  0  0  0  0
  105.6400   62.3640   47.9290 C   0  0  0  0  0
  106.3980   61.8900   49.0620 C   0  0  0  0  0
  104.5690   61.5100   47.7510 N   0  0  0  0  0
  104.6360   60.5210   48.6800 C   0  0  0  0  0
  105.7250   60.6880   49.5380 C   0  0  0  0  0
  106.1820   59.8030   50.6680 C   0  0  0  0  0
  105.8860   60.1330   52.0560 N   0  3  0  0  0
  106.3760   61.4630   52.5220 C   0  0  0  0  0
  105.7460   61.4990   53.8940 C   0  0  0  0  0
  106.4450   60.6420   54.8210 O   0  0  0  0  0
  104.4350   60.1330   52.3420 C   0  0  0  0  0
  104.3310   60.9610   53.6330 C   0  0  0  0  0
  103.3610   62.1170   53.4770 C   0  0  0  0  0
  101.6840   61.6290   53.0860 S   0  0  0  0  0
  100.7660   61.6880   54.5750 C   0  0  0  0  0
  101.4050   61.0660   55.7960 C   0  0  0  0  0
  100.4350   61.1440   56.9860 C   0  0  0  0  0
  100.3750   62.5350   57.4590 C   0  0  0  0  0
  100.3080   63.7650   57.7850 C   0  0  0  0  0
  105.8162   64.8526   45.7073 H   0  0  0  0  0
  104.6273   63.5556   45.8671 H   0  0  0  0  0
  108.8173   64.1082   49.1718 H   0  0  0  0  0
  103.9257   59.6969   48.7475 H   0  0  0  0  0
  107.2696   59.8504   50.6140 H   0  0  0  0  0
  105.6465   58.8684   50.5013 H   0  0  0  0  0
  106.3852   59.3947   52.5522 H   0  0  0  0  0
  106.1043   62.2980   51.8762 H   0  0  0  0  0
  107.4604   61.5736   52.5179 H   0  0  0  0  0
  105.7661   62.4927   54.3416 H   0  0  0  0  0
  106.0201   60.6883   55.6806 H   0  0  0  0  0
  104.0286   59.1278   52.4535 H   0  0  0  0  0
  103.8457   60.5511   51.5259 H   0  0  0  0  0
  103.9590   60.3503   54.4557 H   0  0  0  0  0
  103.7190   62.7245   52.6458 H   0  0  0  0  0
  103.3274   62.6373   54.4342 H   0  0  0  0  0
   99.8573   61.1156   54.3888 H   0  0  0  0  0
  100.6424   62.7455   54.8083 H   0  0  0  0  0
  102.3196   61.6065   56.0397 H   0  0  0  0  0
  101.6388   60.0218   55.5887 H   0  0  0  0  0
  100.7839   60.4956   57.7897 H   0  0  0  0  0
   99.4428   60.8166   56.6755 H   0  0  0  0  0
  1  2  1  0  0  0
  2  3  4  0  0  0
  2  6  4  0  0  0
  3  4  4  0  0  0
  4  5  4  0  0  0
  5  7  4  0  0  0
  6  7  4  0  0  0
  6  8  4  0  0  0
  7 10  4  0  0  0
  8  9  4  0  0  0
  9 10  4  0  0  0
 10 11  1  0  0  0
 11 12  1  0  0  0
 12 13  1  0  0  0
 12 16  1  0  0  0
 13 14  1  0  0  0
 14 15  1  0  0  0
 14 17  1  0  0  0
 16 17  1  0  0  0
 17 18  1  0  0  0
 18 19  1  0  0  0
 19 20  1  0  0  0
 20 21  1  0  0  0
 21 22  1  0  0  0
 22 23  1  0  0  0
 23 24  3  0  0  0
  1 25  1  0  0  0
  1 26  1  0  0  0
  4 27  1  0  0  0
  9 28  1  0  0  0
 11 29  1  0  0  0
 11 30  1  0  0  0
 12 31  1  0  0  0
 13 32  1  0  0  0
 13 33  1  0  0  0
 14 34  1  0  0  0
 15 35  1  0  0  0
 16 36  1  0  0  0
 16 37  1  0  0  0
 17 38  1  0  0  0
 18 39  1  0  0  0
 18 40  1  0  0  0
 20 41  1  0  0  0
 20 42  1  0  0  0
 21 43  1  0  0  0
 21 44  1  0  0  0
 22 45  1  0  0  0
 22 46  1  0  0  0
M  END
$$$$
