4jg6_ligand
  -I-interpret- 

 25 26  0  0  0  0  0  0  0  0999 V2000
   11.9170  -27.3320   21.1630 C   0  0  0  0  0
   12.5920  -26.7010   22.3320 C   0  0  0  0  0
   13.1130  -26.2170   23.2270 N   0  0  0  0  0
   12.8260  -27.2810   19.9800 C   0  0  0  0  0
   12.2790  -27.1690   18.6640 N   0  0  0  0  0
   14.0360  -27.3460   20.1330 O   0  0  0  0  0
   11.5910  -28.7560   21.4680 C   0  0  0  0  0
   12.6250  -29.8120   21.2590 C   0  0  0  0  0
   12.7460  -30.4280   20.0110 C   0  0  0  0  0
   13.7100  -31.4160   19.8070 C   0  0  0  0  0
   14.5400  -31.7740   20.8620 C   0  0  0  0  0
   15.5670  -32.7000   20.9650 N   0  0  0  0  0
   16.0690  -32.6880   22.1720 N   0  0  0  0  0
   15.4180  -31.7700   22.9270 C   0  0  0  0  0
   14.4140  -31.1540   22.1080 C   0  0  0  0  0
   13.4620  -30.1770   22.3040 C   0  0  0  0  0
   10.9961  -26.7898   20.9485 H   0  0  0  0  0
   12.8990  -27.1435   17.8545 H   0  0  0  0  0
   11.2687  -27.1146   18.5346 H   0  0  0  0  0
   10.7926  -29.0109   20.7710 H   0  0  0  0  0
   11.3962  -28.7701   22.5404 H   0  0  0  0  0
   12.0856  -30.1361   19.1944 H   0  0  0  0  0
   13.8103  -31.8993   18.8352 H   0  0  0  0  0
   15.6215  -31.5400   23.9729 H   0  0  0  0  0
   13.3668  -29.6929   23.2759 H   0  0  0  0  0
  1  2  1  0  0  0
  1  4  1  0  0  0
  1  7  1  0  0  0
  2  3  3  0  0  0
  4  5  1  0  0  0
  4  6  2  0  0  0
  7  8  1  0  0  0
  8  9  4  0  0  0
  8 16  4  0  0  0
  9 10  4  0  0  0
 10 11  4  0  0  0
 11 12  4  0  0  0
 11 15  4  0  0  0
 12 13  4  0  0  0
 13 14  4  0  0  0
 14 15  4  0  0  0
 15 16  4  0  0  0
  1 17  1  0  0  0
  5 18  1  0  0  0
  5 19  1  0  0  0
  7 20  1  0  0  0
  7 21  1  0  0  0
  9 22  1  0  0  0
 10 23  1  0  0  0
 14 24  1  0  0  0
 16 25  1  0  0  0
M  END
$$$$
