3osw_ligand
  -I-interpret- 

 33 34  0  0  0  0  0  0  0  0999 V2000
   15.9390   16.5120    9.9090 C   0  0  0  0  0
   17.4180   18.4230    9.7330 C   0  0  0  0  0
   16.8920   17.3990   16.0080 O   0  0  0  0  0
   11.6980   21.1340    9.1540 O   0  0  0  0  0
   19.6530   17.1920   14.6440 Br  0  0  0  0  0
   13.9940   17.7720   15.3430 Br  0  0  0  0  0
   14.2170   22.7850    9.5690 Br  0  0  0  0  0
   10.8320   18.1990    9.1840 Br  0  0  0  0  0
   17.7210   17.5750   12.4340 C   0  0  0  0  0
   15.3340   17.8140   12.7500 C   0  0  0  0  0
   15.1030   20.0780    9.9870 C   0  0  0  0  0
   13.7160   18.1140    9.8380 C   0  0  0  0  0
   16.7710   17.5130   14.6490 C   0  0  0  0  0
   12.7690   20.3070    9.4530 C   0  0  0  0  0
   17.8940   17.4490   13.8230 C   0  0  0  0  0
   15.5040   17.6940   14.1250 C   0  0  0  0  0
   14.0110   20.8690    9.6800 C   0  0  0  0  0
   12.6130   18.9240    9.5310 C   0  0  0  0  0
   16.4350   17.7660   11.8960 C   0  0  0  0  0
   14.9690   18.7000   10.0750 C   0  0  0  0  0
   16.1940   17.8850   10.4110 C   0  0  0  0  0
   16.8071   15.8850   10.1125 H   0  0  0  0  0
   15.0649   16.0990   10.4124 H   0  0  0  0  0
   15.7584   16.5470    8.8346 H   0  0  0  0  0
   17.6533   19.4071   10.1382 H   0  0  0  0  0
   18.2552   17.7471    9.9075 H   0  0  0  0  0
   17.2324   18.5045    8.6620 H   0  0  0  0  0
   16.0238   17.4658   16.4122 H   0  0  0  0  0
   10.9102   20.6010    9.0239 H   0  0  0  0  0
   18.5853   17.5246   11.7718 H   0  0  0  0  0
   14.3338   17.9464   12.3374 H   0  0  0  0  0
   16.0748   20.5400   10.1609 H   0  0  0  0  0
   13.6003   17.0315    9.8924 H   0  0  0  0  0
 21  1  1  0  0  0
 21  2  1  0  0  0
 13  3  1  0  0  0
 14  4  1  0  0  0
 15  5  1  0  0  0
 16  6  1  0  0  0
 17  7  1  0  0  0
 18  8  1  0  0  0
  9 15  4  0  0  0
 19  9  4  0  0  0
 10 16  4  0  0  0
 19 10  4  0  0  0
 11 17  4  0  0  0
 20 11  4  0  0  0
 12 18  4  0  0  0
 20 12  4  0  0  0
 15 13  4  0  0  0
 16 13  4  0  0  0
 17 14  4  0  0  0
 18 14  4  0  0  0
 21 19  1  0  0  0
 20 21  1  0  0  0
  1 22  1  0  0  0
  1 23  1  0  0  0
  1 24  1  0  0  0
  2 25  1  0  0  0
  2 26  1  0  0  0
  2 27  1  0  0  0
  3 28  1  0  0  0
  4 29  1  0  0  0
  9 30  1  0  0  0
 10 31  1  0  0  0
 11 32  1  0  0  0
 12 33  1  0  0  0
M  END
$$$$
