2uy5_ligand
  -I-interpret- 

 24 26  0  0  0  0  0  0  0  0999 V2000
   39.8000   25.9940   28.7230 C   0  0  0  0  0
   40.6000   27.0690   28.6410 C   0  0  0  0  0
   41.4600   26.9030   27.6230 C   0  0  0  0  0
   41.1990   25.6780   27.0690 O   0  0  0  0  0
   40.1550   25.1380   27.7530 C   0  0  0  0  0
   39.5950   23.7640   27.3750 C   0  0  0  0  0
   39.1250   23.8690   25.9490 N   0  0  0  0  0
   38.7510   22.8210   25.2340 C   0  0  0  0  0
   38.5140   21.6520   25.8190 N   0  0  0  0  0
   38.1520   20.5790   25.1040 C   0  0  0  0  0
   38.0000   20.6090   23.7670 N   0  0  0  0  0
   38.2040   21.7630   23.1200 C   0  0  0  0  0
   38.5860   22.8960   23.8360 C   0  0  0  0  0
   38.7190   23.8750   22.9460 N   0  0  0  0  0
   38.4570   23.3940   21.7250 C   0  0  0  0  0
   38.1320   22.1000   21.8240 N   0  0  0  0  0
   39.0021   25.8432   29.4501 H   0  0  0  0  0
   40.5581   27.9387   29.2967 H   0  0  0  0  0
   42.2229   27.6107   27.2984 H   0  0  0  0  0
   38.7749   23.4826   28.0356 H   0  0  0  0  0
   40.3568   22.9912   27.4780 H   0  0  0  0  0
   39.0934   24.7910   25.5139 H   0  0  0  0  0
   37.9726   19.6401   25.6279 H   0  0  0  0  0
   38.5013   23.9653   20.7978 H   0  0  0  0  0
  1  2  4  0  0  0
  1  5  4  0  0  0
  2  3  4  0  0  0
  3  4  4  0  0  0
  4  5  4  0  0  0
  5  6  1  0  0  0
  6  7  1  0  0  0
  7  8  1  0  0  0
  8  9  4  0  0  0
  8 13  4  0  0  0
  9 10  4  0  0  0
 10 11  4  0  0  0
 11 12  4  0  0  0
 12 13  4  0  0  0
 12 16  4  0  0  0
 13 14  4  0  0  0
 14 15  4  0  0  0
 15 16  4  0  0  0
  1 17  1  0  0  0
  2 18  1  0  0  0
  3 19  1  0  0  0
  6 20  1  0  0  0
  6 21  1  0  0  0
  7 22  1  0  0  0
 10 23  1  0  0  0
 15 24  1  0  0  0
M  END
$$$$
