### 
### Created by X-TOOL on Mon Sep 10 21:13:06 2018
### 

@<TRIPOS>MOLECULE
3pab_ligand
  146   146     1     0     0
SMALL
GAST_HUCK


@<TRIPOS>ATOM
      1 N         -10.6000   75.9670   33.5480 N.4       1 GLU         0.2380
      2 CA        -11.9510   76.4760   33.3570 C.3       1 GLU         0.0665
      3 C         -11.9490   78.0010   33.2520 C.2       1 GLU         0.2268
      4 O         -11.6230   78.7000   34.2190 O.2       1 GLU        -0.3907
      5 CB        -12.8380   76.0300   34.5200 C.3       1 GLU         0.0194
      6 CG        -14.2960   76.3760   34.3570 C.3       1 GLU         0.0075
      7 CD        -15.1420   75.8410   35.5020 C.2       1 GLU         0.0351
      8 OE1       -14.9920   74.6440   35.8440 O.co2     1 GLU        -0.5690
      9 OE2       -15.9450   76.6190   36.0650 O.co2     1 GLU        -0.5690
     10 N         -12.3210   78.5110   32.0800 N.am      1 ILE        -0.2607
     11 CA        -12.3550   79.9530   31.8180 C.3       1 ILE         0.1336
     12 C         -13.5090   80.6170   32.5580 C.2       1 ILE         0.2042
     13 O         -14.5300   79.9910   32.7920 O.2       1 ILE        -0.3944
     14 CB        -12.5030   80.2500   30.2830 C.3       1 ILE        -0.0037
     15 CG1       -12.0170   81.6560   29.9430 C.3       1 ILE        -0.0491
     16 CG2       -13.9540   80.0790   29.8340 C.3       1 ILE        -0.0582
     17 CD1       -11.8440   81.9050   28.4300 C.3       1 ILE        -0.0648
     18 N         -13.3320   81.8870   32.9120 N.am      1 ILE        -0.2635
     19 CA        -14.3820   82.7170   33.5030 C.3       1 ILE         0.1335
     20 C         -15.5100   83.0730   32.5280 C.2       1 ILE         0.2043
     21 O         -15.3470   82.9720   31.3180 O.2       1 ILE        -0.3944
     22 CB        -13.7830   84.0610   33.9980 C.3       1 ILE        -0.0037
     23 CG1       -14.6970   84.7340   35.0200 C.3       1 ILE        -0.0491
     24 CG2       -13.5550   85.0150   32.8390 C.3       1 ILE        -0.0582
     25 CD1       -14.0420   85.9010   35.7380 C.3       1 ILE        -0.0648
     26 N         -16.6530   83.5010   33.0640 N.am      1 ASN        -0.2616
     27 CA        -17.6670   84.2060   32.2740 C.3       1 ASN         0.1476
     28 C         -17.2780   85.6650   32.1230 C.2       1 ASN         0.2064
     29 O         -17.0750   86.3630   33.1210 O.2       1 ASN        -0.3942
     30 CB        -19.0390   84.1850   32.9600 C.3       1 ASN         0.0773
     31 CG        -19.4880   82.8030   33.3300 C.2       1 ASN         0.1780
     32 OD1       -20.0850   82.0900   32.5170 O.2       1 ASN        -0.3970
     33 ND2       -19.2180   82.4130   34.5690 N.am      1 ASN        -0.3007
     34 N         -17.2010   86.1450   30.8890 N.am      1 PHE        -0.2618
     35 CA        -16.7790   87.5140   30.6640 C.3       1 PHE         0.1404
     36 C         -17.9510   88.4590   30.7570 C.2       1 PHE         0.2060
     37 O         -19.0870   88.0780   30.4980 O.2       1 PHE        -0.3942
     38 CB        -16.0550   87.6470   29.3240 C.3       1 PHE         0.0214
     39 CG        -14.7650   86.8970   29.2830 C.ar      1 PHE        -0.0386
     40 CD1       -13.6260   87.4300   29.8700 C.ar      1 PHE        -0.0601
     41 CD2       -14.6930   85.6430   28.7020 C.ar      1 PHE        -0.0601
     42 CE1       -12.4180   86.7360   29.8590 C.ar      1 PHE        -0.0686
     43 CE2       -13.4920   84.9440   28.6830 C.ar      1 PHE        -0.0686
     44 CZ        -12.3530   85.4980   29.2660 C.ar      1 PHE        -0.0687
     45 N         -17.6630   89.6950   31.1350 N.am      1 GLU        -0.2635
     46 CA        -18.6950   90.6930   31.3420 C.3       1 GLU         0.1325
     47 C         -18.5530   91.7690   30.2820 C.2       1 GLU         0.2040
     48 O         -17.4550   92.0190   29.7840 O.2       1 GLU        -0.3944
     49 CB        -18.5470   91.3120   32.7340 C.3       1 GLU        -0.0008
     50 CG        -19.7260   92.1680   33.1590 C.3       1 GLU         0.0044
     51 CD        -20.8440   91.3610   33.8050 C.2       1 GLU         0.0350
     52 OE1       -20.9970   90.1540   33.5040 O.co2     1 GLU        -0.5690
     53 OE2       -21.5690   91.9450   34.6310 O.co2     1 GLU        -0.5690
     54 N         -19.6660   92.4050   29.9440 N.am      1 LYS        -0.2637
     55 CA        -19.6970   93.3990   28.8780 C.3       1 LYS         0.1309
     56 C         -18.6780   94.5180   29.0810 C.2       1 LYS         0.2033
     57 O         -18.4380   94.9590   30.2060 O.2       1 LYS        -0.3944
     58 CB        -21.1020   93.9990   28.7590 C.3       1 LYS        -0.0122
     59 CG        -22.2000   92.9740   28.4790 C.3       1 LYS        -0.0440
     60 CD        -22.0340   92.2860   27.1280 C.3       1 LYS        -0.0124
     61 CE        -23.1240   91.2290   26.9210 C.3       1 LYS        -0.0354
     62 NZ        -24.4100   91.8340   26.5050 N.4       1 LYS         0.2185
     63 N         -18.0800   94.9620   27.9810 N.am      1 LEU        -0.2695
     64 CA        -17.2150   96.1340   27.9950 C.3       1 LEU         0.0946
     65 C         -18.0770   97.3810   27.9700 C.2       1 LEU         0.0601
     66 O         -19.2600   97.3150   27.6230 O.co2     1 LEU        -0.5666
     67 CB        -16.2930   96.1410   26.7720 C.3       1 LEU        -0.0156
     68 CG        -15.3710   94.9430   26.5810 C.3       1 LEU        -0.0431
     69 CD1       -14.5030   95.1560   25.3610 C.3       1 LEU        -0.0625
     70 CD2       -14.5060   94.7410   27.8160 C.3       1 LEU        -0.0625
     71 OXT       -17.6100   98.4760   28.2800 O.co2     1 LEU        -0.5666
     72 H         -10.0119   76.2667   32.7703 H         1 GLU         0.2015
     73 H         -10.2212   76.3311   34.4223 H         1 GLU         0.2015
     74 H         -10.6239   74.9479   33.5847 H         1 GLU         0.2015
     75 H         -12.3462   76.0723   32.4248 H         1 GLU         0.1099
     76 H         -12.4832   76.5484   35.4108 H         1 GLU         0.0363
     77 H         -12.7707   74.9435   34.5761 H         1 GLU         0.0363
     78 H         -14.6515   75.9236   33.4312 H         1 GLU         0.0434
     79 H         -14.3885   77.4620   34.3443 H         1 GLU         0.0434
     80 H         -12.5937   77.8719   31.3333 H         1 ILE         0.1885
     81 H         -11.4098   80.3620   32.1749 H         1 ILE         0.0803
     82 H         -11.8813   79.5313   29.7491 H         1 ILE         0.0345
     83 H         -11.0393   81.7837   30.4077 H         1 ILE         0.0267
     84 H         -12.7697   82.3568   30.3042 H         1 ILE         0.0267
     85 H         -14.2744   79.0551   30.0267 H         1 ILE         0.0235
     86 H         -14.5885   80.7701   30.3888 H         1 ILE         0.0235
     87 H         -14.0302   80.2902   28.7674 H         1 ILE         0.0235
     88 H         -11.1131   81.2030   28.0288 H         1 ILE         0.0230
     89 H         -12.8008   81.7619   27.9278 H         1 ILE         0.0230
     90 H         -11.4964   82.9254   28.2684 H         1 ILE         0.0230
     91 H         -12.4137   82.3052   32.7632 H         1 ILE         0.1883
     92 H         -14.7960   82.1194   34.3151 H         1 ILE         0.0803
     93 H         -12.8287   83.8285   34.4706 H         1 ILE         0.0345
     94 H         -14.9547   83.9882   35.7720 H         1 ILE         0.0267
     95 H         -15.5617   85.1225   34.4821 H         1 ILE         0.0267
     96 H         -12.8621   84.5632   32.1291 H         1 ILE         0.0235
     97 H         -14.5048   85.2164   32.3436 H         1 ILE         0.0235
     98 H         -13.1350   85.9478   33.2152 H         1 ILE         0.0235
     99 H         -13.1582   85.5488   36.2699 H         1 ILE         0.0230
    100 H         -13.7515   86.6576   35.0091 H         1 ILE         0.0230
    101 H         -14.7478   86.3312   36.4485 H         1 ILE         0.0230
    102 H         -16.8276   83.3327   34.0548 H         1 ASN         0.1885
    103 H         -17.7253   83.6988   31.3109 H         1 ASN         0.0826
    104 H         -19.7669   84.5941   32.2593 H         1 ASN         0.0551
    105 H         -18.9596   84.7655   33.8791 H         1 ASN         0.0551
    106 H         -19.5064   81.4876   34.8867 H         1 ASN         0.1814
    107 H         -18.7220   83.0385   35.2039 H         1 ASN         0.1814
    108 H         -17.4393   85.5495   30.0959 H         1 PHE         0.1885
    109 H         -16.0727   87.7879   31.4477 H         1 PHE         0.0823
    110 H         -15.8311   88.7026   29.1702 H         1 PHE         0.0474
    111 H         -16.7047   87.2339   28.5524 H         1 PHE         0.0474
    112 H         -13.6774   88.4083   30.3478 H         1 PHE         0.0557
    113 H         -15.5840   85.2007   28.2564 H         1 PHE         0.0557
    114 H         -11.5305   87.1720   30.3176 H         1 PHE         0.0599
    115 H         -13.4404   83.9623   28.2122 H         1 PHE         0.0599
    116 H         -11.4113   84.9493   29.2514 H         1 PHE         0.0559
    117 H         -16.6875   89.9526   31.2849 H         1 GLU         0.1883
    118 H         -19.6784   90.2288   31.2678 H         1 GLU         0.0801
    119 H         -17.6707   91.9596   32.7078 H         1 GLU         0.0330
    120 H         -18.4712   90.4904   33.4463 H         1 GLU         0.0330
    121 H         -20.1319   92.6419   32.2652 H         1 GLU         0.0433
    122 H         -19.3665   92.8866   33.8955 H         1 GLU         0.0433
    123 H         -20.5281   92.1921   30.4458 H         1 LYS         0.1883
    124 H         -19.4297   92.8808   27.9571 H         1 LYS         0.0800
    125 H         -21.0857   94.6906   27.9167 H         1 LYS         0.0312
    126 H         -21.3344   94.4654   29.7164 H         1 LYS         0.0312
    127 H         -23.1544   93.5004   28.4710 H         1 LYS         0.0269
    128 H         -22.1475   92.2081   29.2528 H         1 LYS         0.0269
    129 H         -21.0598   91.7980   27.0984 H         1 LYS         0.0317
    130 H         -22.1143   93.0341   26.3393 H         1 LYS         0.0317
    131 H         -23.2809   90.7108   27.8670 H         1 LYS         0.0813
    132 H         -22.7959   90.5500   26.1340 H         1 LYS         0.0813
    133 H         -25.1053   91.0985   26.3786 H         1 LYS         0.1994
    134 H         -24.7273   92.4835   27.2246 H         1 LYS         0.1994
    135 H         -24.2800   92.3353   25.6262 H         1 LYS         0.1994
    136 H         -18.2308   94.4681   27.1014 H         1 LEU         0.1875
    137 H         -16.6025   96.1094   28.8963 H         1 LEU         0.0726
    138 H         -15.6352   96.9999   26.9048 H         1 LEU         0.0308
    139 H         -16.9542   96.1441   25.9055 H         1 LEU         0.0308
    140 H         -15.9763   94.0485   26.4341 H         1 LEU         0.0297
    141 H         -15.1365   95.2687   24.4812 H         1 LEU         0.0232
    142 H         -13.9032   96.0560   25.4961 H         1 LEU         0.0232
    143 H         -13.8460   94.2963   25.2296 H         1 LEU         0.0232
    144 H         -13.9020   95.6325   27.9848 H         1 LEU         0.0232
    145 H         -15.1454   94.5646   28.6810 H         1 LEU         0.0232
    146 H         -13.8530   93.8816   27.6640 H         1 LEU         0.0232
@<TRIPOS>BOND
     1    1    2 1  
     2    2    3 1  
     3    2    5 1  
     4    3    4 2  
     5    3   10 am 
     6    5    6 1  
     7    6    7 1  
     8    7    8 ar 
     9    7    9 ar 
    10   10   11 1  
    11   11   12 1  
    12   11   14 1  
    13   12   13 2  
    14   12   18 am 
    15   14   15 1  
    16   14   16 1  
    17   15   17 1  
    18   18   19 1  
    19   19   20 1  
    20   19   22 1  
    21   20   21 2  
    22   20   26 am 
    23   22   23 1  
    24   22   24 1  
    25   23   25 1  
    26   26   27 1  
    27   27   28 1  
    28   27   30 1  
    29   28   29 2  
    30   28   34 am 
    31   30   31 1  
    32   31   32 2  
    33   31   33 am 
    34   34   35 1  
    35   35   36 1  
    36   35   38 1  
    37   36   37 2  
    38   36   45 am 
    39   38   39 1  
    40   39   40 ar 
    41   39   41 ar 
    42   40   42 ar 
    43   41   43 ar 
    44   42   44 ar 
    45   43   44 ar 
    46   45   46 1  
    47   46   47 1  
    48   46   49 1  
    49   47   48 2  
    50   47   54 am 
    51   49   50 1  
    52   50   51 1  
    53   51   52 ar 
    54   51   53 ar 
    55   54   55 1  
    56   55   56 1  
    57   55   58 1  
    58   56   57 2  
    59   56   63 am 
    60   58   59 1  
    61   59   60 1  
    62   60   61 1  
    63   61   62 1  
    64   63   64 1  
    65   64   65 1  
    66   64   67 1  
    67   65   66 ar 
    68   65   71 ar 
    69   67   68 1  
    70   68   69 1  
    71   68   70 1  
    72    1   72 1  
    73    1   73 1  
    74    1   74 1  
    75    2   75 1  
    76    5   76 1  
    77    5   77 1  
    78    6   78 1  
    79    6   79 1  
    80   10   80 1  
    81   11   81 1  
    82   14   82 1  
    83   15   83 1  
    84   15   84 1  
    85   16   85 1  
    86   16   86 1  
    87   16   87 1  
    88   17   88 1  
    89   17   89 1  
    90   17   90 1  
    91   18   91 1  
    92   19   92 1  
    93   22   93 1  
    94   23   94 1  
    95   23   95 1  
    96   24   96 1  
    97   24   97 1  
    98   24   98 1  
    99   25   99 1  
   100   25  100 1  
   101   25  101 1  
   102   26  102 1  
   103   27  103 1  
   104   30  104 1  
   105   30  105 1  
   106   33  106 1  
   107   33  107 1  
   108   34  108 1  
   109   35  109 1  
   110   38  110 1  
   111   38  111 1  
   112   40  112 1  
   113   41  113 1  
   114   42  114 1  
   115   43  115 1  
   116   44  116 1  
   117   45  117 1  
   118   46  118 1  
   119   49  119 1  
   120   49  120 1  
   121   50  121 1  
   122   50  122 1  
   123   54  123 1  
   124   55  124 1  
   125   58  125 1  
   126   58  126 1  
   127   59  127 1  
   128   59  128 1  
   129   60  129 1  
   130   60  130 1  
   131   61  131 1  
   132   61  132 1  
   133   62  133 1  
   134   62  134 1  
   135   62  135 1  
   136   63  136 1  
   137   64  137 1  
   138   67  138 1  
   139   67  139 1  
   140   68  140 1  
   141   69  141 1  
   142   69  142 1  
   143   69  143 1  
   144   70  144 1  
   145   70  145 1  
   146   70  146 1  
@<TRIPOS>SUBSTRUCTURE
     1 GLU         1

