3pab_ligand
  -I-interpret- 

149149  0  0  0  0  0  0  0  0999 V2000
  -10.6000   75.9670   33.5480 N   0  3  0  0  0
  -11.9510   76.4760   33.3570 C   0  0  0  0  0
  -11.9490   78.0010   33.2520 C   0  0  0  0  0
  -11.6230   78.7000   34.2190 O   0  0  0  0  0
  -12.8380   76.0300   34.5200 C   0  0  0  0  0
  -14.2960   76.3760   34.3570 C   0  0  0  0  0
  -15.1420   75.8410   35.5020 C   0  0  0  0  0
  -14.9920   74.6440   35.8440 O   0  0  0  0  0
  -15.9450   76.6190   36.0650 O   0  0  0  0  0
  -12.3210   78.5110   32.0800 N   0  0  0  0  0
  -12.3550   79.9530   31.8180 C   0  0  0  0  0
  -13.5090   80.6170   32.5580 C   0  0  0  0  0
  -14.5300   79.9910   32.7920 O   0  0  0  0  0
  -12.5030   80.2500   30.2830 C   0  0  0  0  0
  -12.0170   81.6560   29.9430 C   0  0  0  0  0
  -13.9540   80.0790   29.8340 C   0  0  0  0  0
  -11.8440   81.9050   28.4300 C   0  0  0  0  0
  -13.3320   81.8870   32.9120 N   0  0  0  0  0
  -14.3820   82.7170   33.5030 C   0  0  0  0  0
  -15.5100   83.0730   32.5280 C   0  0  0  0  0
  -15.3470   82.9720   31.3180 O   0  0  0  0  0
  -13.7830   84.0610   33.9980 C   0  0  0  0  0
  -14.6970   84.7340   35.0200 C   0  0  0  0  0
  -13.5550   85.0150   32.8390 C   0  0  0  0  0
  -14.0420   85.9010   35.7380 C   0  0  0  0  0
  -16.6530   83.5010   33.0640 N   0  0  0  0  0
  -17.6670   84.2060   32.2740 C   0  0  0  0  0
  -17.2780   85.6650   32.1230 C   0  0  0  0  0
  -17.0750   86.3630   33.1210 O   0  0  0  0  0
  -19.0390   84.1850   32.9600 C   0  0  0  0  0
  -19.4880   82.8030   33.3300 C   0  0  0  0  0
  -20.0850   82.0900   32.5170 O   0  0  0  0  0
  -19.2180   82.4130   34.5690 N   0  0  0  0  0
  -17.2010   86.1450   30.8890 N   0  0  0  0  0
  -16.7790   87.5140   30.6640 C   0  0  0  0  0
  -17.9510   88.4590   30.7570 C   0  0  0  0  0
  -19.0870   88.0780   30.4980 O   0  0  0  0  0
  -16.0550   87.6470   29.3240 C   0  0  0  0  0
  -14.7650   86.8970   29.2830 C   0  0  0  0  0
  -13.6260   87.4300   29.8700 C   0  0  0  0  0
  -14.6930   85.6430   28.7020 C   0  0  0  0  0
  -12.4180   86.7360   29.8590 C   0  0  0  0  0
  -13.4920   84.9440   28.6830 C   0  0  0  0  0
  -12.3530   85.4980   29.2660 C   0  0  0  0  0
  -17.6630   89.6950   31.1350 N   0  0  0  0  0
  -18.6950   90.6930   31.3420 C   0  0  0  0  0
  -18.5530   91.7690   30.2820 C   0  0  0  0  0
  -17.4550   92.0190   29.7840 O   0  0  0  0  0
  -18.5470   91.3120   32.7340 C   0  0  0  0  0
  -19.7260   92.1680   33.1590 C   0  0  0  0  0
  -20.8440   91.3610   33.8050 C   0  0  0  0  0
  -20.9970   90.1540   33.5040 O   0  0  0  0  0
  -21.5690   91.9450   34.6310 O   0  0  0  0  0
  -19.6660   92.4050   29.9440 N   0  0  0  0  0
  -19.6970   93.3990   28.8780 C   0  0  0  0  0
  -18.6780   94.5180   29.0810 C   0  0  0  0  0
  -18.4380   94.9590   30.2060 O   0  0  0  0  0
  -21.1020   93.9990   28.7590 C   0  0  0  0  0
  -22.2000   92.9740   28.4790 C   0  0  0  0  0
  -22.0340   92.2860   27.1280 C   0  0  0  0  0
  -23.1240   91.2290   26.9210 C   0  0  0  0  0
  -24.4100   91.8340   26.5050 N   0  3  0  0  0
  -18.0800   94.9620   27.9810 N   0  0  0  0  0
  -17.2150   96.1340   27.9950 C   0  0  0  0  0
  -18.0770   97.3810   27.9700 C   0  0  0  0  0
  -19.2600   97.3150   27.6230 O   0  0  0  0  0
  -16.2930   96.1410   26.7720 C   0  0  0  0  0
  -15.3710   94.9430   26.5810 C   0  0  0  0  0
  -14.5030   95.1560   25.3610 C   0  0  0  0  0
  -14.5060   94.7410   27.8160 C   0  0  0  0  0
  -17.6100   98.4760   28.2800 O   0  0  0  0  0
  -10.0119   76.2667   32.7703 H   0  0  0  0  0
  -10.2212   76.3311   34.4223 H   0  0  0  0  0
  -10.6239   74.9479   33.5847 H   0  0  0  0  0
  -12.3462   76.0723   32.4248 H   0  0  0  0  0
  -12.4832   76.5484   35.4108 H   0  0  0  0  0
  -12.7707   74.9435   34.5761 H   0  0  0  0  0
  -14.6515   75.9236   33.4312 H   0  0  0  0  0
  -14.3885   77.4620   34.3443 H   0  0  0  0  0
  -14.3307   74.2325   35.2828 H   0  0  0  0  0
  -12.5937   77.8719   31.3333 H   0  0  0  0  0
  -11.4098   80.3620   32.1749 H   0  0  0  0  0
  -11.8813   79.5313   29.7491 H   0  0  0  0  0
  -11.0393   81.7837   30.4077 H   0  0  0  0  0
  -12.7697   82.3568   30.3042 H   0  0  0  0  0
  -14.2744   79.0551   30.0267 H   0  0  0  0  0
  -14.5885   80.7701   30.3888 H   0  0  0  0  0
  -14.0302   80.2902   28.7674 H   0  0  0  0  0
  -11.1131   81.2030   28.0288 H   0  0  0  0  0
  -12.8008   81.7619   27.9278 H   0  0  0  0  0
  -11.4964   82.9254   28.2684 H   0  0  0  0  0
  -12.4137   82.3052   32.7632 H   0  0  0  0  0
  -14.7960   82.1194   34.3151 H   0  0  0  0  0
  -12.8287   83.8285   34.4706 H   0  0  0  0  0
  -14.9547   83.9882   35.7720 H   0  0  0  0  0
  -15.5617   85.1225   34.4821 H   0  0  0  0  0
  -12.8621   84.5632   32.1291 H   0  0  0  0  0
  -14.5048   85.2164   32.3436 H   0  0  0  0  0
  -13.1350   85.9478   33.2152 H   0  0  0  0  0
  -13.1582   85.5488   36.2699 H   0  0  0  0  0
  -13.7515   86.6576   35.0091 H   0  0  0  0  0
  -14.7478   86.3312   36.4485 H   0  0  0  0  0
  -16.8276   83.3327   34.0548 H   0  0  0  0  0
  -17.7253   83.6988   31.3109 H   0  0  0  0  0
  -19.7669   84.5941   32.2593 H   0  0  0  0  0
  -18.9596   84.7655   33.8791 H   0  0  0  0  0
  -19.5064   81.4876   34.8867 H   0  0  0  0  0
  -18.7220   83.0385   35.2039 H   0  0  0  0  0
  -17.4393   85.5495   30.0959 H   0  0  0  0  0
  -16.0727   87.7879   31.4477 H   0  0  0  0  0
  -15.8311   88.7026   29.1702 H   0  0  0  0  0
  -16.7047   87.2339   28.5524 H   0  0  0  0  0
  -13.6774   88.4083   30.3478 H   0  0  0  0  0
  -15.5840   85.2007   28.2564 H   0  0  0  0  0
  -11.5305   87.1720   30.3176 H   0  0  0  0  0
  -13.4404   83.9623   28.2122 H   0  0  0  0  0
  -11.4113   84.9493   29.2514 H   0  0  0  0  0
  -16.6875   89.9526   31.2849 H   0  0  0  0  0
  -19.6784   90.2288   31.2678 H   0  0  0  0  0
  -17.6707   91.9596   32.7078 H   0  0  0  0  0
  -18.4712   90.4904   33.4463 H   0  0  0  0  0
  -20.1319   92.6419   32.2652 H   0  0  0  0  0
  -19.3665   92.8866   33.8955 H   0  0  0  0  0
  -20.3382   89.9017   32.8529 H   0  0  0  0  0
  -20.5281   92.1921   30.4458 H   0  0  0  0  0
  -19.4297   92.8808   27.9571 H   0  0  0  0  0
  -21.0857   94.6906   27.9167 H   0  0  0  0  0
  -21.3344   94.4654   29.7164 H   0  0  0  0  0
  -23.1544   93.5004   28.4710 H   0  0  0  0  0
  -22.1475   92.2081   29.2528 H   0  0  0  0  0
  -21.0598   91.7980   27.0984 H   0  0  0  0  0
  -22.1143   93.0341   26.3393 H   0  0  0  0  0
  -23.2809   90.7108   27.8670 H   0  0  0  0  0
  -22.7959   90.5500   26.1340 H   0  0  0  0  0
  -25.1053   91.0985   26.3786 H   0  0  0  0  0
  -24.7273   92.4835   27.2246 H   0  0  0  0  0
  -24.2800   92.3353   25.6262 H   0  0  0  0  0
  -18.2308   94.4681   27.1014 H   0  0  0  0  0
  -16.6025   96.1094   28.8963 H   0  0  0  0  0
  -19.4804   96.4045   27.4130 H   0  0  0  0  0
  -15.6352   96.9999   26.9048 H   0  0  0  0  0
  -16.9542   96.1441   25.9055 H   0  0  0  0  0
  -15.9763   94.0485   26.4341 H   0  0  0  0  0
  -15.1365   95.2687   24.4812 H   0  0  0  0  0
  -13.9032   96.0560   25.4961 H   0  0  0  0  0
  -13.8460   94.2963   25.2296 H   0  0  0  0  0
  -13.9020   95.6325   27.9848 H   0  0  0  0  0
  -15.1454   94.5646   28.6810 H   0  0  0  0  0
  -13.8530   93.8816   27.6640 H   0  0  0  0  0
  1  2  1  0  0  0
  2  3  1  0  0  0
  2  5  1  0  0  0
  3  4  2  0  0  0
  3 10  1  0  0  0
  5  6  1  0  0  0
  6  7  1  0  0  0
  7  8  1  0  0  0
  7  9  2  0  0  0
 10 11  1  0  0  0
 11 12  1  0  0  0
 11 14  1  0  0  0
 12 13  2  0  0  0
 12 18  1  0  0  0
 14 15  1  0  0  0
 14 16  1  0  0  0
 15 17  1  0  0  0
 18 19  1  0  0  0
 19 20  1  0  0  0
 19 22  1  0  0  0
 20 21  2  0  0  0
 20 26  1  0  0  0
 22 23  1  0  0  0
 22 24  1  0  0  0
 23 25  1  0  0  0
 26 27  1  0  0  0
 27 28  1  0  0  0
 27 30  1  0  0  0
 28 29  2  0  0  0
 28 34  1  0  0  0
 30 31  1  0  0  0
 31 32  2  0  0  0
 31 33  1  0  0  0
 34 35  1  0  0  0
 35 36  1  0  0  0
 35 38  1  0  0  0
 36 37  2  0  0  0
 36 45  1  0  0  0
 38 39  1  0  0  0
 39 40  4  0  0  0
 39 41  4  0  0  0
 40 42  4  0  0  0
 41 43  4  0  0  0
 42 44  4  0  0  0
 43 44  4  0  0  0
 45 46  1  0  0  0
 46 47  1  0  0  0
 46 49  1  0  0  0
 47 48  2  0  0  0
 47 54  1  0  0  0
 49 50  1  0  0  0
 50 51  1  0  0  0
 51 52  1  0  0  0
 51 53  2  0  0  0
 54 55  1  0  0  0
 55 56  1  0  0  0
 55 58  1  0  0  0
 56 57  2  0  0  0
 56 63  1  0  0  0
 58 59  1  0  0  0
 59 60  1  0  0  0
 60 61  1  0  0  0
 61 62  1  0  0  0
 63 64  1  0  0  0
 64 65  1  0  0  0
 64 67  1  0  0  0
 65 66  1  0  0  0
 65 71  2  0  0  0
 67 68  1  0  0  0
 68 69  1  0  0  0
 68 70  1  0  0  0
  1 72  1  0  0  0
  1 73  1  0  0  0
  1 74  1  0  0  0
  2 75  1  0  0  0
  5 76  1  0  0  0
  5 77  1  0  0  0
  6 78  1  0  0  0
  6 79  1  0  0  0
  8 80  1  0  0  0
 10 81  1  0  0  0
 11 82  1  0  0  0
 14 83  1  0  0  0
 15 84  1  0  0  0
 15 85  1  0  0  0
 16 86  1  0  0  0
 16 87  1  0  0  0
 16 88  1  0  0  0
 17 89  1  0  0  0
 17 90  1  0  0  0
 17 91  1  0  0  0
 18 92  1  0  0  0
 19 93  1  0  0  0
 22 94  1  0  0  0
 23 95  1  0  0  0
 23 96  1  0  0  0
 24 97  1  0  0  0
 24 98  1  0  0  0
 24 99  1  0  0  0
 25100  1  0  0  0
 25101  1  0  0  0
 25102  1  0  0  0
 26103  1  0  0  0
 27104  1  0  0  0
 30105  1  0  0  0
 30106  1  0  0  0
 33107  1  0  0  0
 33108  1  0  0  0
 34109  1  0  0  0
 35110  1  0  0  0
 38111  1  0  0  0
 38112  1  0  0  0
 40113  1  0  0  0
 41114  1  0  0  0
 42115  1  0  0  0
 43116  1  0  0  0
 44117  1  0  0  0
 45118  1  0  0  0
 46119  1  0  0  0
 49120  1  0  0  0
 49121  1  0  0  0
 50122  1  0  0  0
 50123  1  0  0  0
 52124  1  0  0  0
 54125  1  0  0  0
 55126  1  0  0  0
 58127  1  0  0  0
 58128  1  0  0  0
 59129  1  0  0  0
 59130  1  0  0  0
 60131  1  0  0  0
 60132  1  0  0  0
 61133  1  0  0  0
 61134  1  0  0  0
 62135  1  0  0  0
 62136  1  0  0  0
 62137  1  0  0  0
 63138  1  0  0  0
 64139  1  0  0  0
 66140  1  0  0  0
 67141  1  0  0  0
 67142  1  0  0  0
 68143  1  0  0  0
 69144  1  0  0  0
 69145  1  0  0  0
 69146  1  0  0  0
 70147  1  0  0  0
 70148  1  0  0  0
 70149  1  0  0  0
M  END
$$$$
