3sww_ligand
  -I-interpret- 

 45 47  0  0  0  0  0  0  0  0999 V2000
   47.4920   49.1780   37.1850 C   0  0  0  0  0
   47.3570   48.7020   38.4730 C   0  0  0  0  0
   48.4700   50.6910   39.3500 C   0  0  0  0  0
   48.1080   50.3960   36.9650 C   0  0  0  0  0
   48.2770   50.9190   35.5920 C   0  0  0  0  0
   49.4990   50.7830   34.9660 C   0  0  0  0  0
   47.2530   51.5740   34.8820 C   0  0  0  0  0
   47.8410   49.4750   39.5290 C   0  0  0  0  0
   48.5910   51.1260   38.0500 C   0  0  0  0  0
   49.6700   51.3040   33.6750 C   0  0  0  0  0
   47.5140   52.0690   33.5880 C   0  0  0  0  0
   51.0550   51.0200   33.2140 C   0  0  0  0  0
   50.7740   50.1510   35.4430 C   0  0  0  0  0
   46.4840   52.7710   32.7570 C   0  0  0  0  0
   55.2990   51.9390   35.8610 C   0  0  0  0  0
   45.8890   51.7420   35.5030 C   0  0  0  0  0
   53.0290   49.8000   34.1790 C   0  0  0  0  0
   53.8620   50.0310   35.5200 C   0  0  0  0  0
   48.7200   51.9360   32.9470 N   0  0  0  0  0
   51.6560   50.3210   34.2530 N   0  0  0  0  0
   45.9580   52.7170   36.5580 N   0  3  0  0  0
   51.5850   51.2810   32.1410 O   0  0  0  0  0
   53.9400   51.4400   35.7520 O   0  0  0  0  0
   47.6770   48.8860   41.1160 Cl  0  0  0  0  0
   49.3490   52.6190   37.7680 Cl  0  0  0  0  0
   47.1145   48.5960   36.3442 H   0  0  0  0  0
   46.8810   47.7398   38.6621 H   0  0  0  0  0
   48.8490   51.2730   40.1901 H   0  0  0  0  0
   50.6560   49.1127   35.7529 H   0  0  0  0  0
   51.1731   50.6061   36.3495 H   0  0  0  0  0
   45.6407   52.1023   32.5846 H   0  0  0  0  0
   46.1411   53.6623   33.2823 H   0  0  0  0  0
   46.9235   53.0574   31.8015 H   0  0  0  0  0
   55.8008   51.4442   36.6926 H   0  0  0  0  0
   55.8362   51.7316   34.9355 H   0  0  0  0  0
   55.2768   53.0146   36.0364 H   0  0  0  0  0
   45.5564   50.7879   35.9118 H   0  0  0  0  0
   45.1834   52.0786   34.7434 H   0  0  0  0  0
   52.9657   48.7250   34.0105 H   0  0  0  0  0
   53.5410   50.3310   33.3765 H   0  0  0  0  0
   54.8620   49.6089   35.4206 H   0  0  0  0  0
   53.3716   49.5370   36.3588 H   0  0  0  0  0
   45.0346   52.8291   36.9766 H   0  0  0  0  0
   46.6186   52.4015   37.2683 H   0  0  0  0  0
   46.2695   53.6094   36.1747 H   0  0  0  0  0
  1  2  4  0  0  0
  4  1  4  0  0  0
  2  8  4  0  0  0
  3  8  4  0  0  0
  9  3  4  0  0  0
  5  4  1  0  0  0
  4  9  4  0  0  0
  6  5  4  0  0  0
  5  7  4  0  0  0
  6 10  4  0  0  0
 13  6  1  0  0  0
  7 11  4  0  0  0
  7 16  1  0  0  0
  8 24  1  0  0  0
  9 25  1  0  0  0
 12 10  1  0  0  0
 10 19  4  0  0  0
 11 14  1  0  0  0
 19 11  4  0  0  0
 20 12  1  0  0  0
 12 22  2  0  0  0
 20 13  1  0  0  0
 23 15  1  0  0  0
 16 21  1  0  0  0
 18 17  1  0  0  0
 17 20  1  0  0  0
 18 23  1  0  0  0
  1 26  1  0  0  0
  2 27  1  0  0  0
  3 28  1  0  0  0
 13 29  1  0  0  0
 13 30  1  0  0  0
 14 31  1  0  0  0
 14 32  1  0  0  0
 14 33  1  0  0  0
 15 34  1  0  0  0
 15 35  1  0  0  0
 15 36  1  0  0  0
 16 37  1  0  0  0
 16 38  1  0  0  0
 17 39  1  0  0  0
 17 40  1  0  0  0
 18 41  1  0  0  0
 18 42  1  0  0  0
 21 43  1  0  0  0
 21 44  1  0  0  0
 21 45  1  0  0  0
M  END
$$$$
