6hlb_ligand
  -I-interpret- 

160160  0  0  0  0  0  0  0  0999 V2000
   59.3740  -38.2670   -8.7400 N   0  3  0  0  0
   58.4380  -38.5580   -7.6390 C   0  0  0  0  0
   57.7850  -37.2490   -7.1470 C   0  0  0  0  0
   58.3240  -36.5430   -6.2930 O   0  0  0  0  0
   59.1440  -39.2730   -6.4760 C   0  0  0  0  0
   60.5630  -38.7300   -6.2820 C   0  0  0  0  0
   60.9530  -38.8330   -4.8040 C   0  0  0  0  0
   61.0930  -40.2460   -4.4210 N   0  0  0  0  0
   61.9840  -40.6930   -3.5250 C   0  0  0  0  0
   62.8120  -39.8330   -2.9170 N   0  0  0  0  0
   62.0450  -42.0000   -3.2340 N   0  0  0  0  0
   56.6090  -36.9490   -7.7250 N   0  0  0  0  0
   55.8400  -35.7440   -7.3810 C   0  0  0  0  0
   55.2830  -35.8820   -5.9510 C   0  0  0  0  0
   54.9990  -36.9820   -5.4810 O   0  0  0  0  0
   54.6520  -35.5970   -8.3530 C   0  0  0  0  0
   55.0900  -35.6690   -9.8180 C   0  0  0  0  0
   53.8710  -35.4130  -10.7310 C   0  0  0  0  0
   53.0440  -34.3580  -10.1130 N   0  0  0  0  0
   52.4840  -33.3260  -10.7680 C   0  0  0  0  0
   52.6380  -33.2020  -12.1040 N   0  0  0  0  0
   51.7750  -32.4110  -10.0830 N   0  0  0  0  0
   55.0990  -34.7390   -5.2780 N   0  0  0  0  0
   54.5250  -34.7390   -3.9130 C   0  0  0  0  0
   53.0250  -35.1380   -4.0020 C   0  0  0  0  0
   52.5130  -35.8730   -3.1490 O   0  0  0  0  0
   54.6870  -33.3290   -3.3150 C   0  0  0  0  0
   54.2200  -33.2380   -1.8280 C   0  0  0  0  0
   54.6370  -31.8690   -1.2670 C   0  0  0  0  0
   54.0840  -31.5930    0.0780 N   0  0  0  0  0
   52.9110  -30.9580    0.3000 C   0  0  0  0  0
   52.1600  -30.5680   -0.7530 N   0  0  0  0  0
   52.4880  -30.7270    1.5740 N   0  0  0  0  0
   52.3370  -34.6210   -5.0490 N   0  0  0  0  0
   50.8870  -34.8600   -5.2640 C   0  0  0  0  0
   50.6180  -35.2950   -6.7200 C   0  0  0  0  0
   51.2100  -34.7690   -7.6640 O   0  0  0  0  0
   50.0790  -33.5890   -4.9070 C   0  0  0  0  0
   50.3890  -33.1130   -3.4690 C   0  0  0  0  0
   49.7260  -34.0480   -2.4390 C   0  0  0  0  0
   49.9280  -33.5670   -1.0530 N   0  0  0  0  0
   50.7650  -34.1330   -0.1570 C   0  0  0  0  0
   51.5170  -35.1800   -0.5110 N   0  0  0  0  0
   50.8470  -33.6670    1.1060 N   0  0  0  0  0
   47.8970  -36.6910   -8.5970 C   0  0  0  0  0
   49.6980  -36.2630   -6.8870 N   0  0  0  0  0
   47.0280  -36.7150   -7.7310 O   0  0  0  0  0
   49.3870  -36.8050   -8.2230 C   0  0  0  0  0
   49.7230  -38.3050   -8.1810 C   0  0  0  0  0
   51.7730  -39.1970   -9.3000 C   0  0  0  0  0
   53.2470  -39.6120   -9.1280 C   0  0  0  0  0
   51.2270  -38.5520   -8.0120 C   0  0  0  0  0
   53.9630  -39.6030  -10.4220 N   0  3  0  0  0
   47.6260  -36.6360   -9.9180 N   0  0  0  0  0
   46.2540  -36.6470  -10.4500 C   0  0  0  0  0
   45.6960  -38.0370  -10.0590 C   0  0  0  0  0
   46.4030  -39.0360  -10.2130 O   0  0  0  0  0
   46.2900  -36.5510  -11.9880 C   0  0  0  0  0
   46.7180  -35.1550  -12.4980 C   0  0  0  0  0
   47.0270  -35.2670  -14.0110 C   0  0  0  0  0
   47.3990  -33.9660  -14.6090 N   0  0  0  0  0
   48.6320  -33.4370  -14.5380 C   0  0  0  0  0
   49.5970  -34.0800  -13.8530 N   0  0  0  0  0
   48.8940  -32.2530  -15.1250 N   0  0  0  0  0
   44.4640  -38.0810   -9.5020 N   0  0  0  0  0
   43.8520  -39.3460   -9.0090 C   0  0  0  0  0
   43.9640  -39.4160   -7.5740 C   0  0  0  0  0
   45.1830  -39.7150   -6.9670 C   0  0  0  0  0
   45.3100  -39.7730   -5.5610 C   0  0  0  0  0
   44.2210  -39.5380   -4.7200 C   0  0  0  0  0
   44.3660  -39.6030   -3.3090 C   0  0  0  0  0
   45.5620  -39.8940   -2.7780 N   0  0  0  0  0
   43.3140  -39.3370   -2.5280 N   0  0  0  0  0
   42.9950  -39.2340   -5.3280 C   0  0  0  0  0
   42.8700  -39.1780   -6.7310 C   0  0  0  0  0
   58.8746  -37.7939   -9.4931 H   0  0  0  0  0
   60.1237  -37.6661   -8.3975 H   0  0  0  0  0
   59.7691  -39.1404   -9.0886 H   0  0  0  0  0
   57.6648  -39.2266   -8.0175 H   0  0  0  0  0
   59.2038  -40.3374   -6.7032 H   0  0  0  0  0
   58.5751  -39.1021   -5.5621 H   0  0  0  0  0
   60.5981  -37.6864   -6.5947 H   0  0  0  0  0
   61.2603  -39.3139   -6.8828 H   0  0  0  0  0
   60.1771  -38.3702   -4.1942 H   0  0  0  0  0
   61.9026  -38.3218   -4.6461 H   0  0  0  0  0
   60.4752  -40.9264   -4.8636 H   0  0  0  0  0
   62.7644  -38.8379   -3.1359 H   0  0  0  0  0
   62.7215  -42.3392   -2.5501 H   0  0  0  0  0
   61.4149  -42.6554   -3.6965 H   0  0  0  0  0
   56.2349  -37.5831   -8.4309 H   0  0  0  0  0
   56.4917  -34.8730   -7.4492 H   0  0  0  0  0
   54.1943  -34.6223   -8.1837 H   0  0  0  0  0
   53.9580  -36.4165   -8.1662 H   0  0  0  0  0
   55.5003  -36.6570  -10.0271 H   0  0  0  0  0
   55.8520  -34.9130  -10.0077 H   0  0  0  0  0
   53.2887  -36.3276  -10.8431 H   0  0  0  0  0
   54.2037  -35.0968  -11.7197 H   0  0  0  0  0
   52.8844  -34.4167   -9.1073 H   0  0  0  0  0
   52.2163  -32.4136  -12.5950 H   0  0  0  0  0
   53.1760  -33.8967  -12.6220 H   0  0  0  0  0
   51.6649  -32.5026   -9.0731 H   0  0  0  0  0
   55.3586  -33.8536   -5.7129 H   0  0  0  0  0
   55.0380  -35.4551   -3.2709 H   0  0  0  0  0
   54.0680  -32.6480   -3.8991 H   0  0  0  0  0
   55.7467  -33.0756   -3.3458 H   0  0  0  0  0
   54.6812  -34.0347   -1.2444 H   0  0  0  0  0
   53.1371  -33.3485   -1.7713 H   0  0  0  0  0
   54.2532  -31.1054   -1.9436 H   0  0  0  0  0
   55.7238  -31.8650   -1.1831 H   0  0  0  0  0
   54.6215  -31.9012    0.8883 H   0  0  0  0  0
   52.4795  -30.7533   -1.7038 H   0  0  0  0  0
   51.5982  -30.2563    1.7385 H   0  0  0  0  0
   53.0611  -31.0247    2.3635 H   0  0  0  0  0
   52.8387  -34.0404   -5.7210 H   0  0  0  0  0
   50.5638  -35.6684   -4.6081 H   0  0  0  0  0
   49.0164  -33.8226   -4.9741 H   0  0  0  0  0
   50.3540  -32.7959   -5.6023 H   0  0  0  0  0
   49.9973  -32.1044   -3.3367 H   0  0  0  0  0
   51.4682  -33.1246   -3.3161 H   0  0  0  0  0
   50.1793  -35.0351   -2.5295 H   0  0  0  0  0
   48.6551  -34.0762   -2.6401 H   0  0  0  0  0
   49.3967  -32.7494   -0.7536 H   0  0  0  0  0
   51.4590  -35.5523   -1.4588 H   0  0  0  0  0
   51.4757  -34.1126    1.7742 H   0  0  0  0  0
   50.2803  -32.8690    1.3930 H   0  0  0  0  0
   49.2054  -36.6295   -6.0725 H   0  0  0  0  0
   49.9589  -36.2373   -8.9570 H   0  0  0  0  0
   49.4080  -38.7515   -9.1242 H   0  0  0  0  0
   49.2071  -38.7462   -7.3282 H   0  0  0  0  0
   51.1832  -40.0861   -9.5230 H   0  0  0  0  0
   51.7065  -38.4707  -10.1101 H   0  0  0  0  0
   53.2774  -40.6231   -8.7219 H   0  0  0  0  0
   53.7315  -38.9011   -8.4587 H   0  0  0  0  0
   51.3990  -39.2163   -7.1651 H   0  0  0  0  0
   51.7377  -37.6069   -7.8274 H   0  0  0  0  0
   54.9331  -39.8814  -10.2744 H   0  0  0  0  0
   53.5138  -40.2577  -11.0623 H   0  0  0  0  0
   53.9342  -38.6637  -10.8186 H   0  0  0  0  0
   48.4046  -36.5847  -10.5750 H   0  0  0  0  0
   45.6586  -35.8186  -10.0662 H   0  0  0  0  0
   45.2822  -36.7437  -12.3559 H   0  0  0  0  0
   47.0216  -37.2742  -12.3483 H   0  0  0  0  0
   47.6019  -34.8138  -11.9591 H   0  0  0  0  0
   45.9182  -34.4335  -12.3311 H   0  0  0  0  0
   46.1278  -35.6239  -14.5131 H   0  0  0  0  0
   47.8697  -35.9475  -14.1334 H   0  0  0  0  0
   46.6781  -33.4405  -15.1035 H   0  0  0  0  0
   49.3905  -34.9653  -13.3904 H   0  0  0  0  0
   49.8246  -31.8420  -15.0511 H   0  0  0  0  0
   48.1618  -31.7676  -15.6433 H   0  0  0  0  0
   43.9336  -37.2140   -9.4163 H   0  0  0  0  0
   44.3723  -40.1948   -9.4528 H   0  0  0  0  0
   42.7991  -39.3701   -9.2898 H   0  0  0  0  0
   46.0563  -39.9080   -7.5901 H   0  0  0  0  0
   46.2805  -40.0066   -5.1231 H   0  0  0  0  0
   45.6788  -39.9147   -1.7649 H   0  0  0  0  0
   46.3552  -40.0947   -3.3870 H   0  0  0  0  0
   42.4174  -39.0900   -2.9469 H   0  0  0  0  0
   42.1227  -39.0374   -4.7047 H   0  0  0  0  0
   41.9002  -38.9442   -7.1703 H   0  0  0  0  0
  2  1  1  0  0  0
  3  2  1  0  0  0
  2  5  1  0  0  0
  3  4  2  0  0  0
 12  3  1  0  0  0
  5  6  1  0  0  0
  6  7  1  0  0  0
  7  8  1  0  0  0
  8  9  1  0  0  0
  9 10  2  0  0  0
  9 11  1  0  0  0
 13 12  1  0  0  0
 14 13  1  0  0  0
 13 16  1  0  0  0
 14 15  2  0  0  0
 23 14  1  0  0  0
 16 17  1  0  0  0
 17 18  1  0  0  0
 18 19  1  0  0  0
 19 20  1  0  0  0
 20 21  1  0  0  0
 20 22  2  0  0  0
 24 23  1  0  0  0
 25 24  1  0  0  0
 24 27  1  0  0  0
 25 26  2  0  0  0
 34 25  1  0  0  0
 27 28  1  0  0  0
 28 29  1  0  0  0
 29 30  1  0  0  0
 30 31  1  0  0  0
 31 32  2  0  0  0
 31 33  1  0  0  0
 35 34  1  0  0  0
 36 35  1  0  0  0
 35 38  1  0  0  0
 36 37  2  0  0  0
 46 36  1  0  0  0
 38 39  1  0  0  0
 39 40  1  0  0  0
 40 41  1  0  0  0
 41 42  1  0  0  0
 42 43  2  0  0  0
 42 44  1  0  0  0
 45 47  2  0  0  0
 48 45  1  0  0  0
 45 54  1  0  0  0
 48 46  1  0  0  0
 49 48  1  0  0  0
 52 49  1  0  0  0
 50 51  1  0  0  0
 50 52  1  0  0  0
 51 53  1  0  0  0
 54 55  1  0  0  0
 55 56  1  0  0  0
 55 58  1  0  0  0
 56 57  2  0  0  0
 56 65  1  0  0  0
 58 59  1  0  0  0
 59 60  1  0  0  0
 60 61  1  0  0  0
 61 62  1  0  0  0
 62 63  2  0  0  0
 62 64  1  0  0  0
 65 66  1  0  0  0
 66 67  1  0  0  0
 67 68  4  0  0  0
 67 75  4  0  0  0
 68 69  4  0  0  0
 69 70  4  0  0  0
 70 71  1  0  0  0
 70 74  4  0  0  0
 71 72  1  0  0  0
 71 73  2  0  0  0
 74 75  4  0  0  0
  1 76  1  0  0  0
  1 77  1  0  0  0
  1 78  1  0  0  0
  2 79  1  0  0  0
  5 80  1  0  0  0
  5 81  1  0  0  0
  6 82  1  0  0  0
  6 83  1  0  0  0
  7 84  1  0  0  0
  7 85  1  0  0  0
  8 86  1  0  0  0
 10 87  1  0  0  0
 11 88  1  0  0  0
 11 89  1  0  0  0
 12 90  1  0  0  0
 13 91  1  0  0  0
 16 92  1  0  0  0
 16 93  1  0  0  0
 17 94  1  0  0  0
 17 95  1  0  0  0
 18 96  1  0  0  0
 18 97  1  0  0  0
 19 98  1  0  0  0
 21 99  1  0  0  0
 21100  1  0  0  0
 22101  1  0  0  0
 23102  1  0  0  0
 24103  1  0  0  0
 27104  1  0  0  0
 27105  1  0  0  0
 28106  1  0  0  0
 28107  1  0  0  0
 29108  1  0  0  0
 29109  1  0  0  0
 30110  1  0  0  0
 32111  1  0  0  0
 33112  1  0  0  0
 33113  1  0  0  0
 34114  1  0  0  0
 35115  1  0  0  0
 38116  1  0  0  0
 38117  1  0  0  0
 39118  1  0  0  0
 39119  1  0  0  0
 40120  1  0  0  0
 40121  1  0  0  0
 41122  1  0  0  0
 43123  1  0  0  0
 44124  1  0  0  0
 44125  1  0  0  0
 46126  1  0  0  0
 48127  1  0  0  0
 49128  1  0  0  0
 49129  1  0  0  0
 50130  1  0  0  0
 50131  1  0  0  0
 51132  1  0  0  0
 51133  1  0  0  0
 52134  1  0  0  0
 52135  1  0  0  0
 53136  1  0  0  0
 53137  1  0  0  0
 53138  1  0  0  0
 54139  1  0  0  0
 55140  1  0  0  0
 58141  1  0  0  0
 58142  1  0  0  0
 59143  1  0  0  0
 59144  1  0  0  0
 60145  1  0  0  0
 60146  1  0  0  0
 61147  1  0  0  0
 63148  1  0  0  0
 64149  1  0  0  0
 64150  1  0  0  0
 65151  1  0  0  0
 66152  1  0  0  0
 66153  1  0  0  0
 68154  1  0  0  0
 69155  1  0  0  0
 72156  1  0  0  0
 72157  1  0  0  0
 73158  1  0  0  0
 74159  1  0  0  0
 75160  1  0  0  0
M  END
$$$$
