### 
### Created by X-TOOL on Mon Aug  2 16:17:05 2021
### 

@<TRIPOS>MOLECULE
6hlb_ligand
  166   166     1     0     0
SMALL
GAST_HUCK


@<TRIPOS>ATOM
      1 N          59.3740  -38.2670   -8.7400 N.4       1 ARG         0.2379
      2 CA         58.4380  -38.5580   -7.6390 C.3       1 ARG         0.0651
      3 C          57.7850  -37.2490   -7.1470 C.2       1 ARG         0.2267
      4 O          58.3240  -36.5430   -6.2930 O.2       1 ARG        -0.3907
      5 CB         59.1440  -39.2730   -6.4760 C.3       1 ARG         0.0110
      6 CG         60.5630  -38.7300   -6.2820 C.3       1 ARG        -0.0125
      7 CD         60.9530  -38.8330   -4.8040 C.3       1 ARG         0.0629
      8 NE         61.0930  -40.2460   -4.4210 N.pl3     1 ARG        -0.2723
      9 CZ         61.9840  -40.6930   -3.5250 C.cat     1 ARG         0.2882
     10 NH1        62.8120  -39.8330   -2.9170 N.pl3     1 ARG        -0.2849
     11 NH2        62.0450  -42.0000   -3.2340 N.pl3     1 ARG        -0.2849
     12 N          56.6090  -36.9490   -7.7250 N.am      1 ARG        -0.2610
     13 CA         55.8400  -35.7440   -7.3810 C.3       1 ARG         0.1312
     14 C          55.2830  -35.8820   -5.9510 C.2       1 ARG         0.2039
     15 O          54.9990  -36.9820   -5.4810 O.2       1 ARG        -0.3944
     16 CB         54.6520  -35.5970   -8.3530 C.3       1 ARG        -0.0092
     17 CG         55.0900  -35.6690   -9.8180 C.3       1 ARG        -0.0156
     18 CD         53.8710  -35.4130  -10.7310 C.3       1 ARG         0.0627
     19 NE         53.0440  -34.3580  -10.1130 N.pl3     1 ARG        -0.2723
     20 CZ         52.4840  -33.3260  -10.7680 C.cat     1 ARG         0.2882
     21 NH1        52.6380  -33.2020  -12.1040 N.pl3     1 ARG        -0.2849
     22 NH2        51.7750  -32.4110  -10.0830 N.pl3     1 ARG        -0.2849
     23 N          55.0990  -34.7390   -5.2780 N.am      1 ARG        -0.2637
     24 CA         54.5250  -34.7390   -3.9130 C.3       1 ARG         0.1311
     25 C          53.0250  -35.1380   -4.0020 C.2       1 ARG         0.2039
     26 O          52.5130  -35.8730   -3.1490 O.2       1 ARG        -0.3944
     27 CB         54.6870  -33.3290   -3.3150 C.3       1 ARG        -0.0092
     28 CG         54.2200  -33.2380   -1.8280 C.3       1 ARG        -0.0156
     29 CD         54.6370  -31.8690   -1.2670 C.3       1 ARG         0.0627
     30 NE         54.0840  -31.5930    0.0780 N.pl3     1 ARG        -0.2723
     31 CZ         52.9110  -30.9580    0.3000 C.cat     1 ARG         0.2882
     32 NH1        52.1600  -30.5680   -0.7530 N.pl3     1 ARG        -0.2849
     33 NH2        52.4880  -30.7270    1.5740 N.pl3     1 ARG        -0.2849
     34 N          52.3370  -34.6210   -5.0490 N.am      1 ARG        -0.2637
     35 CA         50.8870  -34.8600   -5.2640 C.3       1 ARG         0.1311
     36 C          50.6180  -35.2950   -6.7200 C.2       1 ARG         0.2039
     37 O          51.2100  -34.7690   -7.6640 O.2       1 ARG        -0.3944
     38 CB         50.0790  -33.5890   -4.9070 C.3       1 ARG        -0.0092
     39 CG         50.3890  -33.1130   -3.4690 C.3       1 ARG        -0.0156
     40 CD         49.7260  -34.0480   -2.4390 C.3       1 ARG         0.0627
     41 NE         49.9280  -33.5670   -1.0530 N.pl3     1 ARG        -0.2723
     42 CZ         50.7650  -34.1330   -0.1570 C.cat     1 ARG         0.2882
     43 NH1        51.5170  -35.1800   -0.5110 N.pl3     1 ARG        -0.2849
     44 NH2        50.8470  -33.6670    1.1060 N.pl3     1 ARG        -0.2849
     45 C          47.8970  -36.6910   -8.5970 C.2       1 ARG         0.2039
     46 N          49.6980  -36.2630   -6.8870 N.am      1 ARG        -0.2637
     47 O          47.0280  -36.7150   -7.7310 O.2       1 ARG        -0.3944
     48 CA         49.3870  -36.8050   -8.2230 C.3       1 ARG         0.1310
     49 CB         49.7230  -38.3050   -8.1810 C.3       1 ARG        -0.0122
     50 CD         51.7730  -39.1970   -9.3000 C.3       1 ARG        -0.0124
     51 CE         53.2470  -39.6120   -9.1280 C.3       1 ARG        -0.0354
     52 CG         51.2270  -38.5520   -8.0120 C.3       1 ARG        -0.0440
     53 NZ         53.9630  -39.6030  -10.4220 N.4       1 ARG         0.2185
     54 N          47.6260  -36.6360   -9.9180 N.am      1 ARG        -0.2637
     55 CA         46.2540  -36.6470  -10.4500 C.3       1 ARG         0.1311
     56 C          45.6960  -38.0370  -10.0590 C.2       1 ARG         0.2035
     57 O          46.4030  -39.0360  -10.2130 O.2       1 ARG        -0.3944
     58 CB         46.2900  -36.5510  -11.9880 C.3       1 ARG        -0.0092
     59 CG         46.7180  -35.1550  -12.4980 C.3       1 ARG        -0.0156
     60 CD         47.0270  -35.2670  -14.0110 C.3       1 ARG         0.0627
     61 NE         47.3990  -33.9660  -14.6090 N.pl3     1 ARG        -0.2723
     62 CZ         48.6320  -33.4370  -14.5380 C.cat     1 ARG         0.2882
     63 NH1        49.5970  -34.0800  -13.8530 N.pl3     1 ARG        -0.2849
     64 NH2        48.8940  -32.2530  -15.1250 N.pl3     1 ARG        -0.2849
     65 N23        44.4640  -38.0810   -9.5020 N.am      1 ARG        -0.2737
     66 C16        43.8520  -39.3460   -9.0090 C.3       1 ARG         0.0645
     67 C17        43.9640  -39.4160   -7.5740 C.ar      1 ARG        -0.0210
     68 C22        45.1830  -39.7150   -6.9670 C.ar      1 ARG        -0.0584
     69 C21        45.3100  -39.7730   -5.5610 C.ar      1 ARG        -0.0633
     70 C24        44.2210  -39.5380   -4.7200 C.ar      1 ARG         0.0188
     71 C27        44.3660  -39.6030   -3.3090 C.cat     1 ARG         0.2318
     72 N35        45.5620  -39.8940   -2.7780 N.pl3     1 ARG        -0.2729
     73 N34        43.3140  -39.3370   -2.5280 N.pl3     1 ARG        -0.2729
     74 C19        42.9950  -39.2340   -5.3280 C.ar      1 ARG        -0.0633
     75 C18        42.8700  -39.1780   -6.7310 C.ar      1 ARG        -0.0584
     76 H1         59.7971  -39.1252   -9.0570 H         1 ARG         0.2015
     77 H2         60.0918  -37.6390   -8.4137 H         1 ARG         0.2015
     78 H3         58.8732  -37.8378   -9.5022 H         1 ARG         0.2015
     79 H4         57.6482  -39.2209   -8.0221 H         1 ARG         0.1098
     80 H5         59.1971  -40.3498   -6.6941 H         1 ARG         0.0347
     81 H6         58.5681  -39.1139   -5.5524 H         1 ARG         0.0347
     82 H7         60.5988  -37.6769   -6.5978 H         1 ARG         0.0302
     83 H8         61.2668  -39.3189   -6.8885 H         1 ARG         0.0302
     84 H9         60.1726  -38.3635   -4.1872 H         1 ARG         0.0689
     85 H10        61.9096  -38.3147   -4.6421 H         1 ARG         0.0689
     86 H11        60.4692  -40.9330   -4.8679 H         1 ARG         0.2642
     87 H12        63.4966  -40.1767   -2.2285 H         1 ARG         0.2615
     88 H13        62.7639  -38.8282   -3.1381 H         1 ARG         0.2615
     89 H14        61.4088  -42.6618   -3.7010 H         1 ARG         0.2615
     90 H15        62.7281  -42.3425   -2.5434 H         1 ARG         0.2615
     91 H16        56.2423  -37.5707   -8.4171 H         1 ARG         0.1884
     92 H17        56.4893  -34.8585   -7.4465 H         1 ARG         0.0800
     93 H18        54.1675  -34.6255   -8.1757 H         1 ARG         0.0313
     94 H19        53.9329  -36.4063   -8.1583 H         1 ARG         0.0313
     95 H20        55.5034  -36.6663  -10.0289 H         1 ARG         0.0301
     96 H21        55.8585  -34.9056  -10.0093 H         1 ARG         0.0301
     97 H22        53.2816  -36.3362  -10.8325 H         1 ARG         0.0689
     98 H23        54.2121  -35.0847  -11.7239 H         1 ARG         0.0689
     99 H24        52.8828  -34.4173   -9.0974 H         1 ARG         0.2642
    100 H25        52.2068  -32.4094  -12.6007 H         1 ARG         0.2615
    101 H26        53.1867  -33.9000  -12.6262 H         1 ARG         0.2615
    102 H27        51.6585  -32.5070   -9.0641 H         1 ARG         0.2615
    103 H28        51.3486  -31.6143  -10.5773 H         1 ARG         0.2615
    104 H29        55.3535  -33.8710   -5.7044 H         1 ARG         0.1883
    105 H30        55.0587  -35.4662   -3.2834 H         1 ARG         0.0800
    106 H31        54.0907  -32.6242   -3.9131 H         1 ARG         0.0313
    107 H32        55.7489  -33.0466   -3.3665 H         1 ARG         0.0313
    108 H33        54.6933  -34.0389   -1.2411 H         1 ARG         0.0301
    109 H34        53.1262  -33.3425   -1.7758 H         1 ARG         0.0301
    110 H35        54.2846  -31.0875   -1.9562 H         1 ARG         0.0689
    111 H36        55.7348  -31.8365   -1.2062 H         1 ARG         0.0689
    112 H37        54.6268  -31.9042    0.8962 H         1 ARG         0.2642
    113 H38        51.2648  -30.0835   -0.5958 H         1 ARG         0.2615
    114 H39        52.4826  -30.7551   -1.7131 H         1 ARG         0.2615
    115 H40        53.0667  -31.0276    2.3713 H         1 ARG         0.2615
    116 H41        51.5894  -30.2517    1.7401 H         1 ARG         0.2615
    117 H42        52.8289  -34.0518   -5.7078 H         1 ARG         0.1883
    118 H43        50.5660  -35.6732   -4.5965 H         1 ARG         0.0800
    119 H44        49.0050  -33.8127   -4.9868 H         1 ARG         0.0313
    120 H45        50.3402  -32.7878   -5.6139 H         1 ARG         0.0313
    121 H46        50.0020  -32.0923   -3.3337 H         1 ARG         0.0301
    122 H47        51.4779  -33.1160   -3.3130 H         1 ARG         0.0301
    123 H48        50.1642  -35.0523   -2.5352 H         1 ARG         0.0689
    124 H49        48.6467  -34.0976   -2.6454 H         1 ARG         0.0689
    125 H50        49.3915  -32.7414   -0.7507 H         1 ARG         0.2642
    126 H51        52.1550  -35.6107    0.1734 H         1 ARG         0.2615
    127 H52        51.4585  -35.5560   -1.4681 H         1 ARG         0.2615
    128 H53        50.2747  -32.8611    1.3958 H         1 ARG         0.2615
    129 H54        51.4819  -34.1170    1.7808 H         1 ARG         0.2615
    130 H55        49.2151  -36.6223   -6.0884 H         1 ARG         0.1883
    131 H56        49.9958  -36.2887   -8.9798 H         1 ARG         0.0800
    132 H57        49.3901  -38.7700   -9.1206 H         1 ARG         0.0312
    133 H58        49.1904  -38.7648   -7.3355 H         1 ARG         0.0312
    134 H59        51.1738  -40.0883   -9.5378 H         1 ARG         0.0317
    135 H60        51.6970  -38.4732  -10.1248 H         1 ARG         0.0317
    136 H61        53.2865  -40.6262   -8.7039 H         1 ARG         0.0813
    137 H62        53.7396  -38.9079   -8.4412 H         1 ARG         0.0813
    138 H63        51.3973  -39.2267   -7.1601 H         1 ARG         0.0269
    139 H64        51.7404  -37.5962   -7.8311 H         1 ARG         0.0269
    140 H65        54.9219  -39.8780  -10.2773 H         1 ARG         0.1994
    141 H66        53.9352  -38.6752  -10.8150 H         1 ARG         0.1994
    142 H67        53.5200  -40.2497  -11.0557 H         1 ARG         0.1994
    143 H68        48.3893  -36.5857  -10.5621 H         1 ARG         0.1883
    144 H69        45.6509  -35.8316  -10.0241 H         1 ARG         0.0800
    145 H70        45.2851  -36.7728  -12.3764 H         1 ARG         0.0313
    146 H71        47.0032  -37.2968  -12.3689 H         1 ARG         0.0313
    147 H72        47.6162  -34.8205  -11.9582 H         1 ARG         0.0301
    148 H73        45.9034  -34.4337  -12.3367 H         1 ARG         0.0301
    149 H74        46.1339  -35.6501  -14.5264 H         1 ARG         0.0689
    150 H75        47.8608  -35.9708  -14.1500 H         1 ARG         0.0689
    151 H76        46.6711  -33.4353  -15.1084 H         1 ARG         0.2642
    152 H77        50.5435  -33.6777  -13.7962 H         1 ARG         0.2615
    153 H78        49.3885  -34.9740  -13.3859 H         1 ARG         0.2615
    154 H79        48.1546  -31.7629  -15.6484 H         1 ARG         0.2615
    155 H80        49.8337  -31.8379  -15.0504 H         1 ARG         0.2615
    156 H81        43.9440  -37.2310   -9.4180 H         1 ARG         0.1878
    157 H82        44.3742  -40.2036   -9.4582 H         1 ARG         0.0683
    158 H83        42.7899  -39.3731   -9.2940 H         1 ARG         0.0683
    159 H84        46.0515  -39.9070   -7.5867 H         1 ARG         0.0557
    160 H85        46.2751  -40.0053   -5.1255 H         1 ARG         0.0599
    161 H86        45.6733  -39.9426   -1.7552 H         1 ARG         0.3180
    162 H87        46.3696  -40.0690   -3.3928 H         1 ARG         0.3180
    163 H88        42.4015  -39.1151   -2.9511 H         1 ARG         0.3180
    164 H89        43.4160  -39.3539   -1.5032 H         1 ARG         0.3180
    165 H90        42.1275  -39.0385   -4.7081 H         1 ARG         0.0599
    166 H91        41.9056  -38.9455   -7.1679 H         1 ARG         0.0557
@<TRIPOS>BOND
     1    2    1 1  
     2    3    2 1  
     3    2    5 1  
     4    3    4 2  
     5   12    3 am 
     6    5    6 1  
     7    6    7 1  
     8    7    8 1  
     9    8    9 ar 
    10    9   10 ar 
    11    9   11 ar 
    12   13   12 1  
    13   14   13 1  
    14   13   16 1  
    15   14   15 2  
    16   23   14 am 
    17   16   17 1  
    18   17   18 1  
    19   18   19 1  
    20   19   20 ar 
    21   20   21 ar 
    22   20   22 ar 
    23   24   23 1  
    24   25   24 1  
    25   24   27 1  
    26   25   26 2  
    27   34   25 am 
    28   27   28 1  
    29   28   29 1  
    30   29   30 1  
    31   30   31 ar 
    32   31   32 ar 
    33   31   33 ar 
    34   35   34 1  
    35   36   35 1  
    36   35   38 1  
    37   36   37 2  
    38   46   36 am 
    39   38   39 1  
    40   39   40 1  
    41   40   41 1  
    42   41   42 ar 
    43   42   43 ar 
    44   42   44 ar 
    45   45   47 2  
    46   48   45 1  
    47   45   54 am 
    48   48   46 1  
    49   49   48 1  
    50   52   49 1  
    51   50   51 1  
    52   50   52 1  
    53   51   53 1  
    54   54   55 1  
    55   55   56 1  
    56   55   58 1  
    57   56   57 2  
    58   56   65 am 
    59   58   59 1  
    60   59   60 1  
    61   60   61 1  
    62   61   62 ar 
    63   62   63 ar 
    64   62   64 ar 
    65   65   66 1  
    66   66   67 1  
    67   67   68 ar 
    68   67   75 ar 
    69   68   69 ar 
    70   69   70 ar 
    71   70   71 1  
    72   70   74 ar 
    73   71   72 ar 
    74   71   73 ar 
    75   74   75 ar 
    76    1   76 1  
    77    1   77 1  
    78    1   78 1  
    79    2   79 1  
    80    5   80 1  
    81    5   81 1  
    82    6   82 1  
    83    6   83 1  
    84    7   84 1  
    85    7   85 1  
    86    8   86 1  
    87   10   87 1  
    88   10   88 1  
    89   11   89 1  
    90   11   90 1  
    91   12   91 1  
    92   13   92 1  
    93   16   93 1  
    94   16   94 1  
    95   17   95 1  
    96   17   96 1  
    97   18   97 1  
    98   18   98 1  
    99   19   99 1  
   100   21  100 1  
   101   21  101 1  
   102   22  102 1  
   103   22  103 1  
   104   23  104 1  
   105   24  105 1  
   106   27  106 1  
   107   27  107 1  
   108   28  108 1  
   109   28  109 1  
   110   29  110 1  
   111   29  111 1  
   112   30  112 1  
   113   32  113 1  
   114   32  114 1  
   115   33  115 1  
   116   33  116 1  
   117   34  117 1  
   118   35  118 1  
   119   38  119 1  
   120   38  120 1  
   121   39  121 1  
   122   39  122 1  
   123   40  123 1  
   124   40  124 1  
   125   41  125 1  
   126   43  126 1  
   127   43  127 1  
   128   44  128 1  
   129   44  129 1  
   130   46  130 1  
   131   48  131 1  
   132   49  132 1  
   133   49  133 1  
   134   50  134 1  
   135   50  135 1  
   136   51  136 1  
   137   51  137 1  
   138   52  138 1  
   139   52  139 1  
   140   53  140 1  
   141   53  141 1  
   142   53  142 1  
   143   54  143 1  
   144   55  144 1  
   145   58  145 1  
   146   58  146 1  
   147   59  147 1  
   148   59  148 1  
   149   60  149 1  
   150   60  150 1  
   151   61  151 1  
   152   63  152 1  
   153   63  153 1  
   154   64  154 1  
   155   64  155 1  
   156   65  156 1  
   157   66  157 1  
   158   66  158 1  
   159   68  159 1  
   160   69  160 1  
   161   72  161 1  
   162   72  162 1  
   163   73  163 1  
   164   73  164 1  
   165   74  165 1  
   166   75  166 1  
@<TRIPOS>SUBSTRUCTURE
     1 ARG         1

