6eq6_ligand
  -I-interpret- 

 30 32  0  0  0  0  0  0  0  0999 V2000
  -12.4310   12.3600  -22.9700 N   0  0  0  0  0
  -12.7080   12.0920  -21.6160 C   0  0  0  0  0
  -11.6780   11.7490  -20.8100 N   0  0  0  0  0
  -11.9130   11.4730  -19.4570 C   0  0  0  0  0
  -10.8120   11.1060  -18.5730 C   0  0  0  0  0
  -11.0350   10.8410  -17.2220 C   0  0  0  0  0
  -14.0980   12.1960  -21.0810 C   0  0  0  0  0
  -14.2750   11.9270  -19.7870 N   0  0  0  0  0
  -13.2040   11.5630  -18.9330 C   0  0  0  0  0
  -13.4220   11.2780  -17.5140 C   0  0  0  0  0
  -12.3570   10.9240  -16.6880 C   0  0  0  0  0
  -15.1600   12.5640  -22.0390 N   0  0  0  0  0
  -15.3740   11.8440  -23.3090 C   0  0  0  0  0
  -16.9130   11.5460  -23.4270 C   0  0  0  0  0
  -17.5800   12.6470  -22.6870 C   0  0  0  0  0
  -16.5510   13.1120  -21.6300 C   0  0  0  0  0
  -11.4745   12.2929  -23.3179 H   0  0  0  0  0
  -13.1868   12.6213  -23.6032 H   0  0  0  0  0
   -9.8008   11.0379  -18.9741 H   0  0  0  0  0
  -10.2010   10.5708  -16.5742 H   0  0  0  0  0
  -14.4278   11.3433  -17.0991 H   0  0  0  0  0
  -12.5330   10.7103  -15.6337 H   0  0  0  0  0
  -14.8030   10.9156  -23.3227 H   0  0  0  0  0
  -15.0360   12.4471  -24.1517 H   0  0  0  0  0
  -17.1669   10.5706  -23.0119 H   0  0  0  0  0
  -17.2366   11.5065  -24.4671 H   0  0  0  0  0
  -18.5082   12.3133  -22.2231 H   0  0  0  0  0
  -17.8666   13.4612  -23.3526 H   0  0  0  0  0
  -16.5269   14.2007  -21.5825 H   0  0  0  0  0
  -16.8281   12.7364  -20.6450 H   0  0  0  0  0
  1  2  1  0  0  0
  2  3  4  0  0  0
  2  7  4  0  0  0
  3  4  4  0  0  0
  4  5  4  0  0  0
  4  9  4  0  0  0
  5  6  4  0  0  0
  6 11  4  0  0  0
  7  8  4  0  0  0
  7 12  1  0  0  0
  8  9  4  0  0  0
  9 10  4  0  0  0
 10 11  4  0  0  0
 12 13  1  0  0  0
 12 16  1  0  0  0
 13 14  1  0  0  0
 14 15  1  0  0  0
 15 16  1  0  0  0
  1 17  1  0  0  0
  1 18  1  0  0  0
  5 19  1  0  0  0
  6 20  1  0  0  0
 10 21  1  0  0  0
 11 22  1  0  0  0
 13 23  1  0  0  0
 13 24  1  0  0  0
 14 25  1  0  0  0
 14 26  1  0  0  0
 15 27  1  0  0  0
 15 28  1  0  0  0
 16 29  1  0  0  0
 16 30  1  0  0  0
M  END
$$$$
