### 
### Created by X-TOOL on Mon Sep 10 21:13:04 2018
### 

@<TRIPOS>MOLECULE
3hb8_ligand
   31    32     1     0     0
SMALL
GAST_HUCK


@<TRIPOS>ATOM
      1 N1         25.4610  -11.6780  100.5810 N.am      1 UMP        -0.1618
      2 C2         25.7200  -10.8880   99.4780 C.2       1 UMP         0.3327
      3 N3         25.8450  -11.4540   98.2500 N.am      1 UMP        -0.1865
      4 C4         25.7320  -12.8080   98.0710 C.2       1 UMP         0.1822
      5 C5         25.4720  -13.6500   99.1990 C.2       1 UMP         0.0062
      6 C6         25.3440  -13.0630  100.4330 C.2       1 UMP         0.0590
      7 O2         25.8290   -9.6840   99.5760 O.2       1 UMP        -0.3815
      8 O4         25.8520  -13.2960   96.9740 O.2       1 UMP        -0.4124
      9 C1'        25.3010  -11.1280  101.9690 C.3       1 UMP         0.1800
     10 C2'        26.4290  -10.1750  102.4570 C.3       1 UMP         0.0316
     11 C3'        25.6840   -9.3010  103.5180 C.3       1 UMP         0.0890
     12 C4'        24.2640   -9.8770  103.5090 C.3       1 UMP         0.1156
     13 O3'        26.2650   -9.4830  104.8150 O.3       1 UMP        -0.3890
     14 O4'        24.1130  -10.3440  102.1360 O.3       1 UMP        -0.3387
     15 C5'        23.2030   -8.8290  103.9040 C.3       1 UMP         0.1071
     16 O5'        21.9190   -9.4540  103.8820 O.3       1 UMP        -0.2734
     17 P          20.7600   -8.4250  104.3260 P.3       1 UMP         0.2008
     18 OP1        20.7300   -7.2520  103.4420 O.co2     1 UMP        -0.5537
     19 OP2        19.3580   -9.1820  104.2670 O.co2     1 UMP        -0.5537
     20 OP3        21.0240   -7.9390  105.8220 O.co2     1 UMP        -0.5537
     21 H          26.0271  -10.8579   97.4426 H         1 UMP         0.2259
     22 H          25.3781  -14.7295   99.0810 H         1 UMP         0.0258
     23 H          25.1489  -13.6838  101.3074 H         1 UMP         0.1178
     24 H          25.2976  -12.0533  102.5451 H         1 UMP         0.0970
     25 H          26.8755   -9.5893  101.6535 H         1 UMP         0.0345
     26 H          27.2924  -10.7021  102.8629 H         1 UMP         0.0345
     27 H          25.7288   -8.2347  103.2963 H         1 UMP         0.0622
     28 H          24.1180  -10.6700  104.2424 H         1 UMP         0.0649
     29 H          27.1544   -9.1219  104.8195 H         1 UMP         0.2099
     30 H          23.2234   -7.9957  103.2016 H         1 UMP         0.0639
     31 H          23.4129   -8.4448  104.9022 H         1 UMP         0.0639
@<TRIPOS>BOND
     1    1    2 am 
     2    1    6 1  
     3    1    9 1  
     4    2    3 am 
     5    2    7 2  
     6    3    4 am 
     7    4    5 1  
     8    4    8 2  
     9    5    6 2  
    10    9   10 1  
    11    9   14 1  
    12   10   11 1  
    13   11   12 1  
    14   11   13 1  
    15   12   14 1  
    16   12   15 1  
    17   15   16 1  
    18   16   17 1  
    19   17   18 ar 
    20   17   19 ar 
    21   17   20 ar 
    22    3   21 1  
    23    5   22 1  
    24    6   23 1  
    25    9   24 1  
    26   10   25 1  
    27   10   26 1  
    28   11   27 1  
    29   12   28 1  
    30   13   29 1  
    31   15   30 1  
    32   15   31 1  
@<TRIPOS>SUBSTRUCTURE
     1 UMP         1

