3hb8_ligand
  -I-interpret- 

 33 34  0  0  0  0  0  0  0  0999 V2000
   25.4610  -11.6780  100.5810 N   0  0  0  0  0
   25.7200  -10.8880   99.4780 C   0  0  0  0  0
   25.8450  -11.4540   98.2500 N   0  0  0  0  0
   25.7320  -12.8080   98.0710 C   0  0  0  0  0
   25.4720  -13.6500   99.1990 C   0  0  0  0  0
   25.3440  -13.0630  100.4330 C   0  0  0  0  0
   25.8290   -9.6840   99.5760 O   0  0  0  0  0
   25.8520  -13.2960   96.9740 O   0  0  0  0  0
   25.3010  -11.1280  101.9690 C   0  0  0  0  0
   26.4290  -10.1750  102.4570 C   0  0  0  0  0
   25.6840   -9.3010  103.5180 C   0  0  0  0  0
   24.2640   -9.8770  103.5090 C   0  0  0  0  0
   26.2650   -9.4830  104.8150 O   0  0  0  0  0
   24.1130  -10.3440  102.1360 O   0  0  0  0  0
   23.2030   -8.8290  103.9040 C   0  0  0  0  0
   21.9190   -9.4540  103.8820 O   0  0  0  0  0
   20.7600   -8.4250  104.3260 P   0  0  0  0  0
   20.7300   -7.2520  103.4420 O   0  0  0  0  0
   19.3580   -9.1820  104.2670 O   0  0  0  0  0
   21.0240   -7.9390  105.8220 O   0  0  0  0  0
   26.0271  -10.8579   97.4426 H   0  0  0  0  0
   25.3781  -14.7295   99.0810 H   0  0  0  0  0
   25.1489  -13.6838  101.3074 H   0  0  0  0  0
   25.2976  -12.0533  102.5451 H   0  0  0  0  0
   26.8755   -9.5893  101.6535 H   0  0  0  0  0
   27.2924  -10.7021  102.8629 H   0  0  0  0  0
   25.7288   -8.2347  103.2963 H   0  0  0  0  0
   24.1180  -10.6700  104.2424 H   0  0  0  0  0
   25.7965   -8.9402  105.4533 H   0  0  0  0  0
   23.2234   -7.9957  103.2016 H   0  0  0  0  0
   23.4129   -8.4448  104.9022 H   0  0  0  0  0
   19.3840   -9.9470  104.8464 H   0  0  0  0  0
   21.0449   -8.7008  106.4058 H   0  0  0  0  0
  1  2  1  0  0  0
  1  6  1  0  0  0
  1  9  1  0  0  0
  2  3  1  0  0  0
  2  7  2  0  0  0
  3  4  1  0  0  0
  4  5  1  0  0  0
  4  8  2  0  0  0
  5  6  2  0  0  0
  9 10  1  0  0  0
  9 14  1  0  0  0
 10 11  1  0  0  0
 11 12  1  0  0  0
 11 13  1  0  0  0
 12 14  1  0  0  0
 12 15  1  0  0  0
 15 16  1  0  0  0
 16 17  1  0  0  0
 17 18  2  0  0  0
 17 19  1  0  0  0
 17 20  1  0  0  0
  3 21  1  0  0  0
  5 22  1  0  0  0
  6 23  1  0  0  0
  9 24  1  0  0  0
 10 25  1  0  0  0
 10 26  1  0  0  0
 11 27  1  0  0  0
 12 28  1  0  0  0
 13 29  1  0  0  0
 15 30  1  0  0  0
 15 31  1  0  0  0
 19 32  1  0  0  0
 20 33  1  0  0  0
M  END
$$$$
