5l26_ligand
  -I-interpret- 

 29 30  0  0  0  0  0  0  0  0999 V2000
  -91.1720   66.9350    7.7180 N   0  0  0  0  0
  -90.9760   66.1900    8.8680 C   0  0  0  0  0
  -91.3070   64.8610    8.7620 N   0  0  0  0  0
  -91.8080   64.2150    7.6500 C   0  0  0  0  0
  -91.9860   65.0530    6.5050 C   0  0  0  0  0
  -91.6720   66.3500    6.5780 C   0  0  0  0  0
  -90.5390   66.6620    9.9030 O   0  0  0  0  0
  -92.0590   63.0100    7.7100 O   0  0  0  0  0
  -90.8420   68.3790    7.7550 C   0  0  0  0  0
  -89.3360   68.6350    7.6990 C   0  0  0  0  0
  -89.1260   68.8690    6.2080 C   0  0  0  0  0
  -90.3930   69.6080    5.8080 C   0  0  0  0  0
  -89.0580   69.8160    8.4380 O   0  0  0  0  0
  -87.9450   69.5900    5.9040 O   0  0  0  0  0
  -91.4260   69.0050    6.6310 O   0  0  0  0  0
  -90.7780   69.5160    4.3530 C   0  0  0  0  0
  -90.7790   68.1700    3.8990 O   0  0  0  0  0
  -91.1674   64.2897    9.5954 H   0  0  0  0  0
  -92.3761   64.6357    5.5767 H   0  0  0  0  0
  -91.8187   66.9718    5.6949 H   0  0  0  0  0
  -91.2247   68.7780    8.6944 H   0  0  0  0  0
  -88.7058   67.8446    8.1067 H   0  0  0  0  0
  -88.9744   67.9414    5.6560 H   0  0  0  0  0
  -90.2447   70.6774    5.9580 H   0  0  0  0  0
  -88.1147   69.9927    8.4137 H   0  0  0  0  0
  -87.8752   69.7013    4.9530 H   0  0  0  0  0
  -90.0503   70.0775    3.7671 H   0  0  0  0  0
  -91.7832   69.9208    4.2355 H   0  0  0  0  0
  -91.0274   68.1463    2.9720 H   0  0  0  0  0
  1  2  1  0  0  0
  1  6  1  0  0  0
  1  9  1  0  0  0
  2  3  1  0  0  0
  2  7  2  0  0  0
  3  4  1  0  0  0
  4  5  1  0  0  0
  4  8  2  0  0  0
  5  6  2  0  0  0
  9 10  1  0  0  0
  9 15  1  0  0  0
 10 11  1  0  0  0
 10 13  1  0  0  0
 11 12  1  0  0  0
 11 14  1  0  0  0
 12 15  1  0  0  0
 12 16  1  0  0  0
 16 17  1  0  0  0
  3 18  1  0  0  0
  5 19  1  0  0  0
  6 20  1  0  0  0
  9 21  1  0  0  0
 10 22  1  0  0  0
 11 23  1  0  0  0
 12 24  1  0  0  0
 13 25  1  0  0  0
 14 26  1  0  0  0
 16 27  1  0  0  0
 16 28  1  0  0  0
 17 29  1  0  0  0
M  END
$$$$
