### 
### Created by X-TOOL on Mon Sep 10 21:12:46 2018
### 

@<TRIPOS>MOLECULE
1c3b_ligand
   19    20     1     0     0
SMALL
GAST_HUCK


@<TRIPOS>ATOM
      1 B          26.2010    5.1640   16.9450 B         1 BZB         0.7493
      2 O1         26.3150    6.2430   17.9770 O.3       1 BZB        -0.4926
      3 O2         25.1800    4.1770   17.1080 O.3       1 BZB        -0.4926
      4 C1         25.7230    5.9200   15.6570 C.2       1 BZB         0.0042
      5 C2         25.4640    7.2610   15.5840 C.2       1 BZB        -0.0709
      6 C8         24.9960    6.5280   13.4110 C.ar      1 BZB         0.0364
      7 C3         25.0290    7.5990   14.2420 C.ar      1 BZB        -0.0266
      8 C7         24.5840    6.6610   12.0200 C.ar      1 BZB        -0.0499
      9 S          25.4670    5.0630   14.1670 S.3       1 BZB        -0.0494
     10 C4         24.6580    8.8890   13.7370 C.ar      1 BZB        -0.0667
     11 C6         24.2220    7.9240   11.5320 C.ar      1 BZB        -0.0705
     12 C5         24.2560    9.0390   12.3860 C.ar      1 BZB        -0.0718
     13 H1         26.4857    5.8513   18.8255 H         1 BZB         0.1670
     14 H2         24.3297    4.6007   17.1149 H         1 BZB         0.1670
     15 H3         25.5683    7.9666   16.4069 H         1 BZB         0.0410
     16 H4         24.5577    5.7937   11.3703 H         1 BZB         0.0570
     17 H5         24.6851    9.7529   14.3912 H         1 BZB         0.0570
     18 H6         23.9166    8.0402   10.4984 H         1 BZB         0.0566
     19 H7         23.9742   10.0162   12.0110 H         1 BZB         0.0556
@<TRIPOS>BOND
     1    4    9 1  
     2    4    5 2  
     3    5    7 1  
     4    9    6 1  
     5    6    8 ar 
     6    6    7 ar 
     7    7   10 ar 
     8    8   11 ar 
     9   10   12 ar 
    10   11   12 ar 
    11    4    1 1  
    12    1    3 1  
    13    1    2 1  
    14    2   13 1  
    15    3   14 1  
    16    5   15 1  
    17    8   16 1  
    18   10   17 1  
    19   11   18 1  
    20   12   19 1  
@<TRIPOS>SUBSTRUCTURE
     1 BZB         1

