2vba_ligand
  -I-interpret- 

 28 29  0  0  0  0  0  0  0  0999 V2000
   41.8960   69.6860   64.7120 N   0  0  0  0  0
   40.5730   69.9040   64.5970 C   0  0  0  0  0
   39.5920   69.0510   65.0340 N   0  0  0  0  0
   42.6290   70.7010   64.1770 C   0  0  0  0  0
   41.7210   71.7270   63.5900 C   0  0  0  0  0
   42.0220   73.0310   62.8980 C   0  0  0  0  0
   44.1270   70.7420   64.1830 C   0  0  0  0  0
   39.6590   67.8230   65.7050 C   0  0  0  0  0
   38.5050   67.3760   66.3720 C   0  0  0  0  0
   38.5070   66.1550   67.0750 C   0  0  0  0  0
   39.6590   65.3730   67.0820 C   0  0  0  0  0
   40.7940   65.8160   66.4030 C   0  0  0  0  0
   40.8070   67.0340   65.7090 C   0  0  0  0  0
   40.0450   71.3360   63.7750 S   0  0  0  0  0
   43.4480   73.4440   62.7320 C   0  0  0  0  0
   41.1070   73.7350   62.4680 O   0  0  0  0  0
   38.6431   69.3676   64.8346 H   0  0  0  0  0
   44.4856   70.7233   65.2122 H   0  0  0  0  0
   44.5150   69.8765   63.6459 H   0  0  0  0  0
   44.4661   71.6559   63.6953 H   0  0  0  0  0
   37.5986   67.9808   66.3450 H   0  0  0  0  0
   37.6152   65.8257   67.6083 H   0  0  0  0  0
   39.6738   64.4218   67.6141 H   0  0  0  0  0
   41.6931   65.1999   66.4122 H   0  0  0  0  0
   41.7028   67.3591   65.1800 H   0  0  0  0  0
   43.6759   73.5399   61.6704 H   0  0  0  0  0
   43.6075   74.4018   63.2272 H   0  0  0  0  0
   44.0974   72.6905   63.1777 H   0  0  0  0  0
  1  2  4  0  0  0
  1  4  4  0  0  0
  2  3  1  0  0  0
  2 14  4  0  0  0
  3  8  1  0  0  0
  4  5  4  0  0  0
  4  7  1  0  0  0
  5  6  1  0  0  0
  5 14  4  0  0  0
  6 15  1  0  0  0
  6 16  2  0  0  0
  8  9  4  0  0  0
  8 13  4  0  0  0
  9 10  4  0  0  0
 10 11  4  0  0  0
 11 12  4  0  0  0
 12 13  4  0  0  0
  3 17  1  0  0  0
  7 18  1  0  0  0
  7 19  1  0  0  0
  7 20  1  0  0  0
  9 21  1  0  0  0
 10 22  1  0  0  0
 11 23  1  0  0  0
 12 24  1  0  0  0
 13 25  1  0  0  0
 15 26  1  0  0  0
 15 27  1  0  0  0
 15 28  1  0  0  0
M  END
$$$$
