3hlo_ligand
  -I-interpret- 

122121  0  0  0  0  0  0  0  0999 V2000
    4.3510   -8.7890   16.4110 C   0  0  0  0  0
    3.4550   -8.6740   17.2660 O   0  0  0  0  0
    4.1090   -9.5280   15.1240 C   0  0  0  0  0
    5.6530   -8.6540   16.7100 N   0  0  0  0  0
    6.1430   -7.9820   17.9460 C   0  0  0  0  0
    6.7650   -6.5710   17.7690 C   0  0  0  0  0
    7.0660   -5.8990   18.7720 O   0  0  0  0  0
    7.1780   -8.8290   18.6430 C   0  0  0  0  0
    8.3130   -9.0080   17.7910 O   0  0  0  0  0
    6.5710  -10.2300   19.0500 C   0  0  0  0  0
    6.9430   -6.1320   16.5400 N   0  0  0  0  0
    7.4660   -4.7980   16.2490 C   0  0  0  0  0
    6.4250   -3.9090   15.5790 C   0  0  0  0  0
    6.3450   -3.8160   14.3590 O   0  0  0  0  0
    8.7890   -4.8510   15.4280 C   0  0  0  0  0
    9.7940   -5.8690   15.9880 C   0  0  0  0  0
    9.4750   -3.4830   15.3370 C   0  0  0  0  0
   10.3210   -5.5790   17.4260 C   0  0  0  0  0
    5.5880   -3.2520   16.3500 N   0  0  0  0  0
    4.4610   -2.5470   15.6860 C   0  0  0  0  0
    4.6300   -1.0510   15.5490 C   0  0  0  0  0
    3.1410   -2.9240   16.3710 C   0  0  0  0  0
    2.9190   -4.3970   16.6810 C   0  0  0  0  0
    2.9010   -5.3280   15.4520 C   0  0  0  0  0
    1.8360   -4.7790   14.5410 C   0  0  0  0  0
    5.9060   -0.6480   14.9600 N   0  3  0  0  0
    5.9080    0.5220   14.0690 C   0  0  0  0  0
    4.8240    0.4230   12.9850 C   0  0  0  0  0
    4.5370   -0.6040   12.3480 O   0  0  0  0  0
    7.2950    0.7060   13.4600 C   0  0  0  0  0
    7.4690    1.8810   12.5170 C   0  0  0  0  0
    7.5800    1.3740   11.0870 C   0  0  0  0  0
    8.7810    0.4410   10.9390 C   0  0  0  0  0
    4.2260    1.5620   12.7160 N   0  0  0  0  0
    3.2400    1.6570   11.6160 C   0  0  0  0  0
    3.2680    3.0540   11.0210 C   0  0  0  0  0
    3.3600    4.0720   11.7100 O   0  0  0  0  0
    1.8360    1.2260   12.0720 C   0  0  0  0  0
    0.7550    1.4070   10.9890 C   0  0  0  0  0
    0.1670    2.7920   10.9440 C   0  0  0  0  0
    0.2230    3.5170   11.9240 O   0  0  0  0  0
   -0.4140    3.1650    9.8080 N   0  0  0  0  0
    3.2440    3.0870    9.7100 N   0  0  0  0  0
    2.1830    4.4120    8.0840 C   0  0  0  0  0
    1.9130    3.4600    7.3130 O   0  0  0  0  0
    4.6960    4.2260    8.2190 C   0  0  0  0  0
    5.8630    4.9650    8.9010 C   0  0  0  0  0
    6.1830    6.2930    8.1400 C   0  0  0  0  0
    5.3600    7.4190    8.6010 N   0  0  0  0  0
    5.8130    8.6220    8.9350 C   0  0  0  0  0
    7.1040    8.9390    8.8430 N   0  0  0  0  0
    4.9570    9.5320    9.3500 N   0  0  0  0  0
    1.4690    5.5560    8.0330 N   0  0  0  0  0
    3.3073    4.2778    9.0694 C   0  0  0  0  0
    3.8370  -10.5602   15.3448 H   0  0  0  0  0
    3.2985   -9.0465   14.5769 H   0  0  0  0  0
    5.0166   -9.5112   14.5207 H   0  0  0  0  0
    6.3412   -9.0305   16.0581 H   0  0  0  0  0
    5.2290   -7.8571   18.5266 H   0  0  0  0  0
    7.4928   -8.3174   19.5525 H   0  0  0  0  0
    8.6709   -8.1498   17.5521 H   0  0  0  0  0
    6.2617  -10.7652   18.1522 H   0  0  0  0  0
    7.3257  -10.8116   19.5794 H   0  0  0  0  0
    5.7083  -10.0763   19.6982 H   0  0  0  0  0
    6.7068   -6.7466   15.7610 H   0  0  0  0  0
    7.7058   -4.3433   17.2102 H   0  0  0  0  0
    8.4862   -5.1673   14.4298 H   0  0  0  0  0
   10.6622   -5.8394   15.3296 H   0  0  0  0  0
    9.2704   -6.8237   16.0382 H   0  0  0  0  0
    8.8049   -2.7735   14.8516 H   0  0  0  0  0
    9.7144   -3.1306   16.3403 H   0  0  0  0  0
   10.3917   -3.5757   14.7547 H   0  0  0  0  0
   10.8251   -4.6127   17.4388 H   0  0  0  0  0
    9.4826   -5.5621   18.1223 H   0  0  0  0  0
   11.0225   -6.3601   17.7189 H   0  0  0  0  0
    5.7070   -3.2270   17.3627 H   0  0  0  0  0
    4.4483   -2.8938   14.6527 H   0  0  0  0  0
    4.5892   -0.6278   16.5527 H   0  0  0  0  0
    3.8413   -0.6960   14.8857 H   0  0  0  0  0
    2.3528   -2.6452   15.6716 H   0  0  0  0  0
    3.1504   -2.4154   17.3350 H   0  0  0  0  0
    1.9374   -4.4750   17.1485 H   0  0  0  0  0
    3.7543   -4.7160   17.3044 H   0  0  0  0  0
    2.6882   -6.3584   15.7368 H   0  0  0  0  0
    3.8724   -5.3533   14.9581 H   0  0  0  0  0
    0.8770   -4.7869   15.0591 H   0  0  0  0  0
    2.0907   -3.7568   14.2610 H   0  0  0  0  0
    1.7717   -5.3971   13.6455 H   0  0  0  0  0
    6.1991   -1.4338   14.3795 H   0  0  0  0  0
    6.5017   -0.3925   15.7476 H   0  0  0  0  0
    5.6673    1.4033   14.6636 H   0  0  0  0  0
    7.4853   -0.1883   12.8666 H   0  0  0  0  0
    7.9704    0.8872   14.2962 H   0  0  0  0  0
    8.3757    2.4258   12.7800 H   0  0  0  0  0
    6.6078    2.5439   12.6009 H   0  0  0  0  0
    7.7100    2.2257   10.4194 H   0  0  0  0  0
    6.6728    0.8246   10.8356 H   0  0  0  0  0
    9.6927    0.9810   11.1947 H   0  0  0  0  0
    8.6621   -0.4111   11.6082 H   0  0  0  0  0
    8.8419    0.0899    9.9089 H   0  0  0  0  0
    4.4437    2.3895   13.2712 H   0  0  0  0  0
    3.5179    0.9571   10.8280 H   0  0  0  0  0
    1.5595    1.8542   12.9188 H   0  0  0  0  0
    1.8820    0.1643   12.3145 H   0  0  0  0  0
   -0.0561    0.7166   11.2204 H   0  0  0  0  0
    1.2272    1.2226   10.0241 H   0  0  0  0  0
   -0.8362    4.0903    9.7309 H   0  0  0  0  0
   -0.4376    2.5259    9.0134 H   0  0  0  0  0
    3.1780    2.2203    9.1762 H   0  0  0  0  0
    4.9827    3.1787    8.1239 H   0  0  0  0  0
    4.5127    4.7158    7.2626 H   0  0  0  0  0
    6.7456    4.3255    8.8875 H   0  0  0  0  0
    5.5830    5.2016    9.9275 H   0  0  0  0  0
    5.9720    6.1335    7.0826 H   0  0  0  0  0
    7.2278    6.5427    8.3249 H   0  0  0  0  0
    4.3543    7.2637    8.6706 H   0  0  0  0  0
    7.4179    9.8768    9.0926 H   0  0  0  0  0
    7.7783    8.2438    8.5229 H   0  0  0  0  0
    3.9638    9.3078    9.4108 H   0  0  0  0  0
    0.7044    5.6506    7.3646 H   0  0  0  0  0
    1.6940    6.3261    8.6629 H   0  0  0  0  0
    3.2504    5.1040    9.7781 H   0  0  0  0  0
  1  2  2  0  0  0
  1  3  1  0  0  0
  4  1  1  0  0  0
  5  4  1  0  0  0
  6  5  1  0  0  0
  5  8  1  0  0  0
  6  7  2  0  0  0
 11  6  1  0  0  0
  8  9  1  0  0  0
  8 10  1  0  0  0
 12 11  1  0  0  0
 13 12  1  0  0  0
 12 15  1  0  0  0
 13 14  2  0  0  0
 19 13  1  0  0  0
 15 16  1  0  0  0
 15 17  1  0  0  0
 16 18  1  0  0  0
 20 19  1  0  0  0
 21 20  1  0  0  0
 20 22  1  0  0  0
 26 21  1  0  0  0
 22 23  1  0  0  0
 23 24  1  0  0  0
 24 25  1  0  0  0
 27 26  1  0  0  0
 28 27  1  0  0  0
 27 30  1  0  0  0
 28 29  2  0  0  0
 34 28  1  0  0  0
 30 31  1  0  0  0
 31 32  1  0  0  0
 32 33  1  0  0  0
 35 34  1  0  0  0
 36 35  1  0  0  0
 35 38  1  0  0  0
 36 37  2  0  0  0
 43 36  1  0  0  0
 38 39  1  0  0  0
 39 40  1  0  0  0
 40 41  2  0  0  0
 40 42  1  0  0  0
 44 45  2  0  0  0
 44 53  1  0  0  0
 46 47  1  0  0  0
 47 48  1  0  0  0
 48 49  1  0  0  0
 49 50  1  0  0  0
 50 51  1  0  0  0
 50 52  2  0  0  0
 54 44  1  0  0  0
 54 43  1  0  0  0
 54 46  1  0  0  0
  3 55  1  0  0  0
  3 56  1  0  0  0
  3 57  1  0  0  0
  4 58  1  0  0  0
  5 59  1  0  0  0
  8 60  1  0  0  0
  9 61  1  0  0  0
 10 62  1  0  0  0
 10 63  1  0  0  0
 10 64  1  0  0  0
 11 65  1  0  0  0
 12 66  1  0  0  0
 15 67  1  0  0  0
 16 68  1  0  0  0
 16 69  1  0  0  0
 17 70  1  0  0  0
 17 71  1  0  0  0
 17 72  1  0  0  0
 18 73  1  0  0  0
 18 74  1  0  0  0
 18 75  1  0  0  0
 19 76  1  0  0  0
 20 77  1  0  0  0
 21 78  1  0  0  0
 21 79  1  0  0  0
 22 80  1  0  0  0
 22 81  1  0  0  0
 23 82  1  0  0  0
 23 83  1  0  0  0
 24 84  1  0  0  0
 24 85  1  0  0  0
 25 86  1  0  0  0
 25 87  1  0  0  0
 25 88  1  0  0  0
 26 89  1  0  0  0
 26 90  1  0  0  0
 27 91  1  0  0  0
 30 92  1  0  0  0
 30 93  1  0  0  0
 31 94  1  0  0  0
 31 95  1  0  0  0
 32 96  1  0  0  0
 32 97  1  0  0  0
 33 98  1  0  0  0
 33 99  1  0  0  0
 33100  1  0  0  0
 34101  1  0  0  0
 35102  1  0  0  0
 38103  1  0  0  0
 38104  1  0  0  0
 39105  1  0  0  0
 39106  1  0  0  0
 42107  1  0  0  0
 42108  1  0  0  0
 43109  1  0  0  0
 46110  1  0  0  0
 46111  1  0  0  0
 47112  1  0  0  0
 47113  1  0  0  0
 48114  1  0  0  0
 48115  1  0  0  0
 49116  1  0  0  0
 51117  1  0  0  0
 51118  1  0  0  0
 52119  1  0  0  0
 53120  1  0  0  0
 53121  1  0  0  0
 54122  1  0  0  0
M  END
$$$$
