### 
### Created by X-TOOL on Mon Sep 10 21:13:06 2018
### 

@<TRIPOS>MOLECULE
3hlo_ligand
  123   122     1     0     0
SMALL
GAST_HUCK


@<TRIPOS>ATOM
      1 C           4.3510   -8.7890   16.4110 C.2       1 2NC         0.1752
      2 O           3.4550   -8.6740   17.2660 O.2       1 2NC        -0.3972
      3 CH3         4.1090   -9.5280   15.1240 C.3       1 2NC         0.0258
      4 N           5.6530   -8.6540   16.7100 N.am      1 2NC        -0.2635
      5 CA          6.1430   -7.9820   17.9460 C.3       1 2NC         0.1564
      6 C1          6.7650   -6.5710   17.7690 C.2       1 2NC         0.2065
      7 O1          7.0660   -5.8990   18.7720 O.2       1 2NC        -0.3943
      8 CB          7.1780   -8.8290   18.6430 C.3       1 2NC         0.0924
      9 OG1         8.3130   -9.0080   17.7910 O.3       1 2NC        -0.3874
     10 CG2         6.5710  -10.2300   19.0500 C.3       1 2NC        -0.0346
     11 N1          6.9430   -6.1320   16.5400 N.am      1 2NC        -0.2634
     12 CA1         7.4660   -4.7980   16.2490 C.3       1 2NC         0.1334
     13 C2          6.4250   -3.9090   15.5790 C.2       1 2NC         0.2023
     14 O2          6.3450   -3.8160   14.3590 O.2       1 2NC        -0.3945
     15 CB1         8.7890   -4.8510   15.4280 C.3       1 2NC        -0.0037
     16 CG1         9.7940   -5.8690   15.9880 C.3       1 2NC        -0.0491
     17 CG21        9.4750   -3.4830   15.3370 C.3       1 2NC        -0.0582
     18 CD1        10.3210   -5.5790   17.4260 C.3       1 2NC        -0.0648
     19 N2          5.5880   -3.2520   16.3500 N.am      1 2NC        -0.2769
     20 CA2         4.4610   -2.5470   15.6860 C.3       1 2NC         0.0817
     21 C3          4.6300   -1.0510   15.5490 C.3       1 2NC        -0.0081
     22 CB2         3.1410   -2.9240   16.3710 C.3       1 2NC        -0.0249
     23 CG          2.9190   -4.3970   16.6810 C.3       1 2NC        -0.0510
     24 CD          2.9010   -5.3280   15.4520 C.3       1 2NC        -0.0558
     25 CE          1.8360   -4.7790   14.5410 C.3       1 2NC        -0.0653
     26 N3          5.9060   -0.6480   14.9600 N.4       1 2NC         0.2477
     27 CA3         5.9080    0.5220   14.0690 C.3       1 2NC         0.0668
     28 C4          4.8240    0.4230   12.9850 C.2       1 2NC         0.2268
     29 O3          4.5370   -0.6040   12.3480 O.2       1 2NC        -0.3907
     30 CB3         7.2950    0.7060   13.4600 C.3       1 2NC         0.0079
     31 CG3         7.4690    1.8810   12.5170 C.3       1 2NC        -0.0460
     32 CD2         7.5800    1.3740   11.0870 C.3       1 2NC        -0.0556
     33 CE1         8.7810    0.4410   10.9390 C.3       1 2NC        -0.0653
     34 N4          4.2260    1.5620   12.7160 N.am      1 2NC        -0.2609
     35 CA4         3.2400    1.6570   11.6160 C.3       1 2NC         0.1331
     36 C5          3.2680    3.0540   11.0210 C.2       1 2NC         0.2040
     37 O4          3.3600    4.0720   11.7100 O.2       1 2NC        -0.3944
     38 CB4         1.8360    1.2260   12.0720 C.3       1 2NC         0.0045
     39 CG4         0.7550    1.4070   10.9890 C.3       1 2NC         0.0412
     40 CD3         0.1670    2.7920   10.9440 C.2       1 2NC         0.1737
     41 OE1         0.2230    3.5170   11.9240 O.2       1 2NC        -0.3973
     42 NE2        -0.4140    3.1650    9.8080 N.am      1 2NC        -0.3009
     43 N5          3.2440    3.0870    9.7100 N.am      1 2NC        -0.2637
     44 C6          2.1830    4.4120    8.0840 C.2       1 2NC         0.1992
     45 O5          1.9130    3.4600    7.3130 O.2       1 2NC        -0.3947
     46 CB5         4.6960    4.2260    8.2190 C.3       1 2NC        -0.0092
     47 CG5         5.8630    4.9650    8.9010 C.3       1 2NC        -0.0156
     48 CD4         6.1830    6.2930    8.1400 C.3       1 2NC         0.0627
     49 NE          5.3600    7.4190    8.6010 N.pl3     1 2NC        -0.2723
     50 CZ          5.8130    8.6220    8.9350 C.cat     1 2NC         0.2882
     51 NH1         7.1040    8.9390    8.8430 N.pl3     1 2NC        -0.2849
     52 NH2         4.9570    9.5320    9.3500 N.pl3     1 2NC        -0.2849
     53 N6          1.4690    5.5560    8.0330 N.am      1 2NC        -0.2990
     54 H           3.8370  -10.5602   15.3448 H         1 2NC         0.0467
     55 H           3.2985   -9.0465   14.5769 H         1 2NC         0.0467
     56 H           5.0166   -9.5112   14.5207 H         1 2NC         0.0467
     57 H           6.3412   -9.0305   16.0581 H         1 2NC         0.1883
     58 H           5.2290   -7.8571   18.5266 H         1 2NC         0.0826
     59 H           7.4928   -8.3174   19.5525 H         1 2NC         0.0639
     60 H           8.9674   -9.5477   18.2407 H         1 2NC         0.2101
     61 H           6.2617  -10.7652   18.1522 H         1 2NC         0.0257
     62 H           7.3257  -10.8116   19.5794 H         1 2NC         0.0257
     63 H           5.7083  -10.0763   19.6982 H         1 2NC         0.0257
     64 H           6.7068   -6.7466   15.7610 H         1 2NC         0.1883
     65 H           7.7058   -4.3433   17.2102 H         1 2NC         0.0802
     66 H           8.4862   -5.1673   14.4298 H         1 2NC         0.0345
     67 H          10.6622   -5.8394   15.3296 H         1 2NC         0.0267
     68 H           9.2704   -6.8237   16.0382 H         1 2NC         0.0267
     69 H           8.8049   -2.7735   14.8516 H         1 2NC         0.0235
     70 H           9.7144   -3.1306   16.3403 H         1 2NC         0.0235
     71 H          10.3917   -3.5757   14.7547 H         1 2NC         0.0235
     72 H          10.8251   -4.6127   17.4388 H         1 2NC         0.0230
     73 H           9.4826   -5.5621   18.1223 H         1 2NC         0.0230
     74 H          11.0225   -6.3601   17.7189 H         1 2NC         0.0230
     75 H           5.7070   -3.2270   17.3627 H         1 2NC         0.1857
     76 H           4.4483   -2.8938   14.6527 H         1 2NC         0.0609
     77 H           4.5892   -0.6278   16.5527 H         1 2NC         0.0837
     78 H           3.8413   -0.6960   14.8857 H         1 2NC         0.0837
     79 H           2.3528   -2.6452   15.6716 H         1 2NC         0.0289
     80 H           3.1504   -2.4154   17.3350 H         1 2NC         0.0289
     81 H           1.9374   -4.4750   17.1485 H         1 2NC         0.0266
     82 H           3.7543   -4.7160   17.3044 H         1 2NC         0.0266
     83 H           2.6882   -6.3584   15.7368 H         1 2NC         0.0263
     84 H           3.8724   -5.3533   14.9581 H         1 2NC         0.0263
     85 H           0.8770   -4.7869   15.0591 H         1 2NC         0.0230
     86 H           2.0907   -3.7568   14.2610 H         1 2NC         0.0230
     87 H           1.7717   -5.3971   13.6455 H         1 2NC         0.0230
     88 H           6.1991   -1.4338   14.3795 H         1 2NC         0.2036
     89 H           6.5017   -0.3925   15.7476 H         1 2NC         0.2036
     90 H           5.6673    1.4033   14.6636 H         1 2NC         0.1099
     91 H           7.4853   -0.1883   12.8666 H         1 2NC         0.0346
     92 H           7.9704    0.8872   14.2962 H         1 2NC         0.0346
     93 H           8.3757    2.4258   12.7800 H         1 2NC         0.0269
     94 H           6.6078    2.5439   12.6009 H         1 2NC         0.0269
     95 H           7.7100    2.2257   10.4194 H         1 2NC         0.0263
     96 H           6.6728    0.8246   10.8356 H         1 2NC         0.0263
     97 H           9.6927    0.9810   11.1947 H         1 2NC         0.0230
     98 H           8.6621   -0.4111   11.6082 H         1 2NC         0.0230
     99 H           8.8419    0.0899    9.9089 H         1 2NC         0.0230
    100 H           4.4437    2.3895   13.2712 H         1 2NC         0.1885
    101 H           3.5179    0.9571   10.8280 H         1 2NC         0.0801
    102 H           1.5595    1.8542   12.9188 H         1 2NC         0.0337
    103 H           1.8820    0.1643   12.3145 H         1 2NC         0.0337
    104 H          -0.0561    0.7166   11.2204 H         1 2NC         0.0504
    105 H           1.2272    1.2226   10.0241 H         1 2NC         0.0504
    106 H          -0.8362    4.0903    9.7309 H         1 2NC         0.1814
    107 H          -0.4376    2.5259    9.0134 H         1 2NC         0.1814
    108 C7          3.3073    4.2778    9.0694 C.3       1 2NC         0.1307
    109 H           3.1667    2.2194    9.1793 H         1 2NC         0.1883
    110 H           4.9824    3.1725    8.0842 H         1 2NC         0.0313
    111 H           4.5194    4.6867    7.2359 H         1 2NC         0.0313
    112 H           3.2974    5.1133    9.7848 H         1 2NC         0.0800
    113 H           6.7456    4.3255    8.8875 H         1 2NC         0.0301
    114 H           5.5830    5.2016    9.9275 H         1 2NC         0.0301
    115 H           5.9720    6.1335    7.0826 H         1 2NC         0.0689
    116 H           7.2278    6.5427    8.3249 H         1 2NC         0.0689
    117 H           4.3543    7.2637    8.6706 H         1 2NC         0.2642
    118 H           7.7761    8.2486    8.5081 H         1 2NC         0.2615
    119 H           7.4202    9.8720    9.1074 H         1 2NC         0.2615
    120 H           3.9638    9.3078    9.4108 H         1 2NC         0.2615
    121 H           5.2870   10.4613    9.6107 H         1 2NC         0.2615
    122 H           0.7044    5.6506    7.3646 H         1 2NC         0.1815
    123 H           1.6940    6.3261    8.6629 H         1 2NC         0.1815
@<TRIPOS>BOND
     1    1    2 2  
     2    1    3 1  
     3    4    1 am 
     4    5    4 1  
     5    6    5 1  
     6    5    8 1  
     7    6    7 2  
     8   11    6 am 
     9    8    9 1  
    10    8   10 1  
    11   12   11 1  
    12   13   12 1  
    13   12   15 1  
    14   13   14 2  
    15   19   13 am 
    16   15   16 1  
    17   15   17 1  
    18   16   18 1  
    19   20   19 1  
    20   21   20 1  
    21   20   22 1  
    22   26   21 1  
    23   22   23 1  
    24   23   24 1  
    25   24   25 1  
    26   27   26 1  
    27   28   27 1  
    28   27   30 1  
    29   28   29 2  
    30   34   28 am 
    31   30   31 1  
    32   31   32 1  
    33   32   33 1  
    34   35   34 1  
    35   36   35 1  
    36   35   38 1  
    37   36   37 2  
    38   43   36 am 
    39   38   39 1  
    40   39   40 1  
    41   40   41 2  
    42   40   42 am 
    43   44   45 2  
    44   44   53 am 
    45   46   47 1  
    46   47   48 1  
    47   48   49 1  
    48   49   50 ar 
    49   50   51 ar 
    50   50   52 ar 
    51    3   54 1  
    52    3   55 1  
    53    3   56 1  
    54    4   57 1  
    55    5   58 1  
    56    8   59 1  
    57    9   60 1  
    58   10   61 1  
    59   10   62 1  
    60   10   63 1  
    61   11   64 1  
    62   12   65 1  
    63   15   66 1  
    64   16   67 1  
    65   16   68 1  
    66   17   69 1  
    67   17   70 1  
    68   17   71 1  
    69   18   72 1  
    70   18   73 1  
    71   18   74 1  
    72   19   75 1  
    73   20   76 1  
    74   21   77 1  
    75   21   78 1  
    76   22   79 1  
    77   22   80 1  
    78   23   81 1  
    79   23   82 1  
    80   24   83 1  
    81   24   84 1  
    82   25   85 1  
    83   25   86 1  
    84   25   87 1  
    85   26   88 1  
    86   26   89 1  
    87   27   90 1  
    88   30   91 1  
    89   30   92 1  
    90   31   93 1  
    91   31   94 1  
    92   32   95 1  
    93   32   96 1  
    94   33   97 1  
    95   33   98 1  
    96   33   99 1  
    97   34  100 1  
    98   35  101 1  
    99   38  102 1  
   100   38  103 1  
   101   39  104 1  
   102   39  105 1  
   103   42  106 1  
   104   42  107 1  
   105  108   44 1  
   106   43  109 1  
   107  108   43 1  
   108  108   46 1  
   109   46  110 1  
   110   46  111 1  
   111   47  113 1  
   112   47  114 1  
   113   48  115 1  
   114   48  116 1  
   115   49  117 1  
   116   51  118 1  
   117   51  119 1  
   118   52  120 1  
   119   52  121 1  
   120   53  122 1  
   121   53  123 1  
   122  108  112 1  
@<TRIPOS>SUBSTRUCTURE
     1 2NC         1

