5ku9_ligand
  -I-interpret- 

 82 85  0  0  0  0  0  0  0  0999 V2000
   -0.5440   -3.6070   22.4950 C   0  0  0  0  0
   -1.3760   -3.9800   23.7000 C   0  0  0  0  0
   -1.8950   -5.4220   23.6090 C   0  0  0  0  0
   -2.1810   -9.9170   24.3680 C   0  0  0  0  0
   -1.8500  -10.4870   23.1460 C   0  0  0  0  0
   -1.1260   -9.7560   22.2260 C   0  0  0  0  0
   -0.7160   -8.4650   22.5170 C   0  0  0  0  0
   -4.2950   -5.2180   24.1690 C   0  0  0  0  0
   -5.3950   -5.5110   25.1720 C   0  0  0  0  0
   -5.6000   -7.7830   26.1710 C   0  0  0  0  0
   -5.4060   -8.4870   24.9800 C   0  0  0  0  0
   -5.7770   -9.8220   24.9010 C   0  0  0  0  0
   -6.3390  -10.4510   25.9870 C   0  0  0  0  0
   -6.3740   -7.7520   28.6310 C   0  0  0  0  0
   -5.0510   -7.4020   29.3440 C   0  0  0  0  0
   -3.9330   -7.0340   28.3590 C   0  0  0  0  0
   -4.4520   -5.9540   27.3560 C   0  0  0  0  0
   -0.3950   -5.7980   29.0060 C   0  0  0  0  0
    0.0140   -8.7590   29.2980 C   0  0  0  0  0
   -2.2440  -10.3690   29.2430 C   0  0  0  0  0
   -1.8920   -9.7340   30.4210 C   0  0  0  0  0
   -0.7670   -8.9230   30.4360 C   0  0  0  0  0
   -3.8260  -11.4110   29.1830 Br  0  0  0  0  0
   -1.4870  -10.2290   28.0990 C   0  0  0  0  0
   -0.3550   -9.4320   28.1370 C   0  0  0  0  0
    1.1670   -7.7900   29.2900 C   0  0  0  0  0
    0.8580   -6.5160   28.4880 C   0  0  0  0  0
    2.0240   -5.6320   28.3960 N   0  3  0  0  0
   -1.6290   -6.2530   28.2600 C   0  0  0  0  0
   -1.6210   -6.3420   27.0390 O   0  0  0  0  0
   -2.6990   -6.5830   28.9960 N   0  0  0  0  0
   -6.1760   -8.4140   27.2850 C   0  0  0  0  0
   -6.5410   -9.7550   27.1690 C   0  0  0  0  0
   -4.2820   -4.7650   27.5390 O   0  0  0  0  0
   -5.1260   -6.4330   26.2680 N   0  0  0  0  0
   -4.5730   -4.6660   23.1090 O   0  0  0  0  0
   -3.0430   -5.5580   24.5100 N   0  0  0  0  0
   -0.9370   -3.8230   21.3490 O   0  0  0  0  0
    0.6130   -3.0150   22.7570 N   0  0  0  0  0
    1.4740   -2.4860   21.7110 C   0  0  0  0  0
   -0.7620   -6.4060   23.9650 C   0  0  0  0  0
   -1.0810   -7.8630   23.7190 C   0  0  0  0  0
   -0.8130  -10.4090   20.6500 Cl  0  0  0  0  0
   -2.4040  -12.0850   22.7530 Cl  0  0  0  0  0
   -1.8010   -8.6100   24.6450 C   0  0  0  0  0
   -2.2338   -3.3090   23.7455 H   0  0  0  0  0
   -0.7499   -3.8963   24.5883 H   0  0  0  0  0
   -2.2194   -5.6556   22.5949 H   0  0  0  0  0
   -2.7372  -10.4932   25.1075 H   0  0  0  0  0
   -0.1039   -7.9168   21.8008 H   0  0  0  0  0
   -6.1841   -5.9885   24.5912 H   0  0  0  0  0
   -5.5974   -4.5544   25.6536 H   0  0  0  0  0
   -4.9650   -7.9897   24.1161 H   0  0  0  0  0
   -5.6222  -10.3743   23.9741 H   0  0  0  0  0
   -6.6266  -11.5001   25.9184 H   0  0  0  0  0
   -6.9122   -6.8193   28.4619 H   0  0  0  0  0
   -6.9130   -8.4550   29.2662 H   0  0  0  0  0
   -4.7293   -8.2788   29.9060 H   0  0  0  0  0
   -5.2322   -6.5393   29.9852 H   0  0  0  0  0
   -3.6728   -7.9521   27.8323 H   0  0  0  0  0
   -0.2708   -4.7257   28.8546 H   0  0  0  0  0
   -0.5198   -6.0322   30.0632 H   0  0  0  0  0
   -2.4893   -9.8690   31.3227 H   0  0  0  0  0
   -0.4909   -8.4059   31.3550 H   0  0  0  0  0
   -1.7751  -10.7377   27.1790 H   0  0  0  0  0
    0.2580   -9.3300   27.2415 H   0  0  0  0  0
    2.0187   -8.2840   28.8224 H   0  0  0  0  0
    1.3689   -7.4984   30.3207 H   0  0  0  0  0
    0.6281   -6.8256   27.4685 H   0  0  0  0  0
    2.8235   -6.1610   28.0477 H   0  0  0  0  0
    1.8178   -4.8646   27.7565 H   0  0  0  0  0
    2.2390   -5.2576   29.3201 H   0  0  0  0  0
   -2.6509   -6.5184   30.0128 H   0  0  0  0  0
   -6.9921  -10.2639   28.0209 H   0  0  0  0  0
   -2.8814   -5.9308   25.4456 H   0  0  0  0  0
    0.9105   -2.9272   23.7287 H   0  0  0  0  0
    1.7650   -3.2933   21.0389 H   0  0  0  0  0
    0.9355   -1.7215   21.1509 H   0  0  0  0  0
    2.3645   -2.0481   22.1620 H   0  0  0  0  0
   -0.5775   -6.3003   25.0341 H   0  0  0  0  0
    0.0843   -6.1566   23.3249 H   0  0  0  0  0
   -2.0710   -8.1634   25.6020 H   0  0  0  0  0
  2  1  1  0  0  0
  1 38  2  0  0  0
  1 39  1  0  0  0
  3  2  1  0  0  0
  3 37  1  0  0  0
 41  3  1  0  0  0
  5  4  4  0  0  0
  4 45  4  0  0  0
  6  5  4  0  0  0
  5 44  1  0  0  0
  7  6  4  0  0  0
  6 43  1  0  0  0
 42  7  4  0  0  0
  8  9  1  0  0  0
  8 36  2  0  0  0
 37  8  1  0  0  0
  9 35  1  0  0  0
 10 11  4  0  0  0
 10 32  4  0  0  0
 35 10  1  0  0  0
 11 12  4  0  0  0
 12 13  4  0  0  0
 33 13  4  0  0  0
 15 14  1  0  0  0
 32 14  1  0  0  0
 16 15  1  0  0  0
 17 16  1  0  0  0
 16 31  1  0  0  0
 17 34  2  0  0  0
 35 17  1  0  0  0
 18 27  1  0  0  0
 29 18  1  0  0  0
 19 22  4  0  0  0
 19 25  4  0  0  0
 26 19  1  0  0  0
 21 20  4  0  0  0
 20 23  1  0  0  0
 24 20  4  0  0  0
 22 21  4  0  0  0
 25 24  4  0  0  0
 27 26  1  0  0  0
 27 28  1  0  0  0
 29 30  2  0  0  0
 31 29  1  0  0  0
 32 33  4  0  0  0
 39 40  1  0  0  0
 41 42  1  0  0  0
 42 45  4  0  0  0
  2 46  1  0  0  0
  2 47  1  0  0  0
  3 48  1  0  0  0
  4 49  1  0  0  0
  7 50  1  0  0  0
  9 51  1  0  0  0
  9 52  1  0  0  0
 11 53  1  0  0  0
 12 54  1  0  0  0
 13 55  1  0  0  0
 14 56  1  0  0  0
 14 57  1  0  0  0
 15 58  1  0  0  0
 15 59  1  0  0  0
 16 60  1  0  0  0
 18 61  1  0  0  0
 18 62  1  0  0  0
 21 63  1  0  0  0
 22 64  1  0  0  0
 24 65  1  0  0  0
 25 66  1  0  0  0
 26 67  1  0  0  0
 26 68  1  0  0  0
 27 69  1  0  0  0
 28 70  1  0  0  0
 28 71  1  0  0  0
 28 72  1  0  0  0
 31 73  1  0  0  0
 33 74  1  0  0  0
 37 75  1  0  0  0
 39 76  1  0  0  0
 40 77  1  0  0  0
 40 78  1  0  0  0
 40 79  1  0  0  0
 41 80  1  0  0  0
 41 81  1  0  0  0
 45 82  1  0  0  0
M  END
$$$$
