4eo6_ligand
  -I-interpret- 

 58 59  0  0  0  0  0  0  0  0999 V2000
    6.2450   31.8560   76.3870 C   0  0  0  0  0
    7.0450   33.0930   76.8020 C   0  0  0  0  0
    7.3940   35.3490   75.7000 C   0  0  0  0  0
    8.3060   32.6710   77.5680 C   0  0  0  0  0
    7.8220   36.1360   74.4620 C   0  0  0  0  0
    9.2950   36.5260   74.6930 C   0  0  0  0  0
    9.8510   37.4110   73.5790 C   0  0  0  0  0
    8.9560   38.6350   73.3500 C   0  0  0  0  0
    7.4910   38.2220   73.1050 C   0  0  0  0  0
    6.9620   37.3880   74.2800 C   0  0  0  0  0
   10.4080   31.8220   72.2270 C   0  0  0  0  0
    9.1300   32.9080   74.0760 C   0  0  0  0  0
    9.2190   32.3240   72.8280 C   0  0  0  0  0
    7.7050   32.2560   72.0650 S   0  0  0  0  0
    6.9090   33.0140   73.3750 C   0  0  0  0  0
    7.7950   33.3260   74.4100 C   0  0  0  0  0
    7.4080   33.9410   75.6300 N   0  0  0  0  0
    5.4830   33.2690   73.2770 C   0  0  0  0  0
    4.8890   32.5390   72.2970 O   0  0  0  0  0
    4.8530   34.0830   73.9350 O   0  0  0  0  0
    7.0780   35.9690   76.7210 O   0  0  0  0  0
    9.5050   39.4660   72.1860 C   0  0  0  0  0
   11.3960   31.3930   71.6930 C   0  0  0  0  0
   12.6020   30.8660   71.0190 C   0  0  0  0  0
   13.8570   31.5240   71.6150 C   0  0  0  0  0
   12.6650   29.3400   71.1840 C   0  0  0  0  0
   12.5380   31.2230   69.5190 C   0  0  0  0  0
    5.3247   32.1687   75.8936 H   0  0  0  0  0
    6.8400   31.2535   75.7007 H   0  0  0  0  0
    6.0025   31.2679   77.2721 H   0  0  0  0  0
    6.4112   33.6944   77.4538 H   0  0  0  0  0
    8.9584   32.1019   76.9058 H   0  0  0  0  0
    8.8298   33.5595   77.9206 H   0  0  0  0  0
    8.0223   32.0529   78.4198 H   0  0  0  0  0
    7.7001   35.5383   73.5587 H   0  0  0  0  0
    9.8843   35.6094   74.7184 H   0  0  0  0  0
    9.3508   37.0869   75.6259 H   0  0  0  0  0
    9.8904   36.8297   72.6578 H   0  0  0  0  0
   10.8445   37.7538   73.8681 H   0  0  0  0  0
    8.9657   39.2482   74.2511 H   0  0  0  0  0
    7.4398   37.6235   72.1954 H   0  0  0  0  0
    6.8820   39.1207   73.0070 H   0  0  0  0  0
    7.0017   37.9858   75.1906 H   0  0  0  0  0
    5.9339   37.0901   74.0741 H   0  0  0  0  0
    9.9843   33.0389   74.7402 H   0  0  0  0  0
    5.5383   31.9578   71.8943 H   0  0  0  0  0
   10.5164   39.7965   72.4225 H   0  0  0  0  0
    9.5225   38.8564   71.2826 H   0  0  0  0  0
    8.8654   40.3343   72.0277 H   0  0  0  0  0
   13.8035   32.6030   71.4702 H   0  0  0  0  0
   13.9112   31.3013   72.6806 H   0  0  0  0  0
   14.7431   31.1326   71.1152 H   0  0  0  0  0
   12.7065   29.0919   72.2446 H   0  0  0  0  0
   11.7772   28.8908   70.7390 H   0  0  0  0  0
   13.5558   28.9584   70.6851 H   0  0  0  0  0
   11.6463   30.7771   69.0784 H   0  0  0  0  0
   12.4977   32.3064   69.4061 H   0  0  0  0  0
   13.4250   30.8368   69.0168 H   0  0  0  0  0
  2  1  1  0  0  0
  2  4  1  0  0  0
 17  2  1  0  0  0
  3  5  1  0  0  0
 17  3  1  0  0  0
  3 21  2  0  0  0
  5  6  1  0  0  0
  5 10  1  0  0  0
  6  7  1  0  0  0
  7  8  1  0  0  0
  9  8  1  0  0  0
  8 22  1  0  0  0
 10  9  1  0  0  0
 13 11  1  0  0  0
 11 23  3  0  0  0
 12 13  4  0  0  0
 16 12  4  0  0  0
 14 13  4  0  0  0
 15 14  4  0  0  0
 16 15  4  0  0  0
 15 18  1  0  0  0
 16 17  1  0  0  0
 18 19  1  0  0  0
 18 20  2  0  0  0
 23 24  1  0  0  0
 24 25  1  0  0  0
 24 26  1  0  0  0
 24 27  1  0  0  0
  1 28  1  0  0  0
  1 29  1  0  0  0
  1 30  1  0  0  0
  2 31  1  0  0  0
  4 32  1  0  0  0
  4 33  1  0  0  0
  4 34  1  0  0  0
  5 35  1  0  0  0
  6 36  1  0  0  0
  6 37  1  0  0  0
  7 38  1  0  0  0
  7 39  1  0  0  0
  8 40  1  0  0  0
  9 41  1  0  0  0
  9 42  1  0  0  0
 10 43  1  0  0  0
 10 44  1  0  0  0
 12 45  1  0  0  0
 19 46  1  0  0  0
 22 47  1  0  0  0
 22 48  1  0  0  0
 22 49  1  0  0  0
 25 50  1  0  0  0
 25 51  1  0  0  0
 25 52  1  0  0  0
 26 53  1  0  0  0
 26 54  1  0  0  0
 26 55  1  0  0  0
 27 56  1  0  0  0
 27 57  1  0  0  0
 27 58  1  0  0  0
M  END
$$$$
