4ara_ligand
  -I-interpret- 

 52 53  0  0  0  0  0  0  0  0999 V2000
   29.8760   21.6360   10.1220 O   0  0  0  0  0
   30.6870   22.5270   10.3670 C   0  0  0  0  0
   31.9140   22.6630    9.4820 C   0  0  0  0  0
   33.0160   23.5610    9.7150 C   0  0  0  0  0
   32.9010   24.3180   10.8320 O   0  0  0  0  0
   33.9140   25.2190   11.2320 C   0  0  0  0  0
   34.1080   23.6420    8.8460 C   0  0  0  0  0
   34.2550   22.8580    7.6570 C   0  0  0  0  0
   35.4040   23.1030    6.8940 N   0  0  0  0  0
   36.3660   24.1690    7.2730 C   0  0  0  0  0
   35.8290   22.5700    5.5750 C   0  0  0  0  0
   33.1490   21.9700    7.4410 C   0  0  0  0  0
   32.9420   21.0030    6.3370 N   0  0  0  0  0
   33.8560   20.3320    5.9120 O   0  0  0  0  0
   31.7990   20.7170    6.0450 O   0  0  0  0  0
   32.0520   21.9090    8.3410 C   0  0  0  0  0
   30.4170   23.3790   11.4710 N   0  0  0  0  0
   29.1870   23.2480   12.3060 C   0  0  0  0  0
   29.2510   22.1710   13.4720 C   0  0  0  0  0
   27.9610   22.2320   14.3610 C   0  0  0  0  0
   27.4530   20.8030   14.5250 C   0  0  0  0  0
   28.1630   20.0070   13.4280 C   0  0  0  0  0
   29.2830   20.8110   12.8330 N   0  3  0  0  0
   30.5340   19.9950   12.8690 C   0  0  0  0  0
   30.6140   18.8700   11.8460 C   0  0  0  0  0
   34.8401   24.6701   11.4026 H   0  0  0  0  0
   34.0689   25.9607   10.4485 H   0  0  0  0  0
   33.6115   25.7186   12.1523 H   0  0  0  0  0
   34.9006   24.3494    9.0899 H   0  0  0  0  0
   35.8559   25.1322    7.2772 H   0  0  0  0  0
   36.7626   23.9621    8.2670 H   0  0  0  0  0
   37.1831   24.1923    6.5520 H   0  0  0  0  0
   35.9158   21.4851    5.6338 H   0  0  0  0  0
   35.0881   22.8361    4.8212 H   0  0  0  0  0
   36.7940   22.9989    5.3051 H   0  0  0  0  0
   31.2528   21.2056    8.1074 H   0  0  0  0  0
   31.0905   24.1093   11.7023 H   0  0  0  0  0
   28.3924   22.9251   11.6333 H   0  0  0  0  0
   29.0393   24.2142   12.7885 H   0  0  0  0  0
   30.1280   22.3669   14.0889 H   0  0  0  0  0
   27.2014   22.8561   13.8902 H   0  0  0  0  0
   28.1867   22.6714   15.3326 H   0  0  0  0  0
   26.3686   20.7447   14.4312 H   0  0  0  0  0
   27.6686   20.4072   15.5175 H   0  0  0  0  0
   27.4446   19.7675   12.6440 H   0  0  0  0  0
   28.5742   19.0958   13.8624 H   0  0  0  0  0
   29.2004   21.0190   11.8379 H   0  0  0  0  0
   30.5685   19.5237   13.8513 H   0  0  0  0  0
   31.3549   20.6763   12.6453 H   0  0  0  0  0
   29.7891   18.1757   12.0061 H   0  0  0  0  0
   30.5485   19.2886   10.8417 H   0  0  0  0  0
   31.5614   18.3433   11.9604 H   0  0  0  0  0
  1  2  2  0  0  0
  2  3  1  0  0  0
  2 17  1  0  0  0
  3  4  4  0  0  0
  3 16  4  0  0  0
  4  5  1  0  0  0
  4  7  4  0  0  0
  5  6  1  0  0  0
  7  8  4  0  0  0
  8  9  1  0  0  0
  8 12  4  0  0  0
  9 10  1  0  0  0
  9 11  1  0  0  0
 12 13  1  0  0  0
 12 16  4  0  0  0
 13 14  2  0  0  0
 13 15  2  0  0  0
 17 18  1  0  0  0
 18 19  1  0  0  0
 19 20  1  0  0  0
 19 23  1  0  0  0
 20 21  1  0  0  0
 21 22  1  0  0  0
 22 23  1  0  0  0
 23 24  1  0  0  0
 24 25  1  0  0  0
  6 26  1  0  0  0
  6 27  1  0  0  0
  6 28  1  0  0  0
  7 29  1  0  0  0
 10 30  1  0  0  0
 10 31  1  0  0  0
 10 32  1  0  0  0
 11 33  1  0  0  0
 11 34  1  0  0  0
 11 35  1  0  0  0
 16 36  1  0  0  0
 17 37  1  0  0  0
 18 38  1  0  0  0
 18 39  1  0  0  0
 19 40  1  0  0  0
 20 41  1  0  0  0
 20 42  1  0  0  0
 21 43  1  0  0  0
 21 44  1  0  0  0
 22 45  1  0  0  0
 22 46  1  0  0  0
 23 47  1  0  0  0
 24 48  1  0  0  0
 24 49  1  0  0  0
 25 50  1  0  0  0
 25 51  1  0  0  0
 25 52  1  0  0  0
M  END
$$$$
