2yof_ligand
  -I-interpret- 

 49 51  0  0  0  0  0  0  0  0999 V2000
   15.0750   -0.2270    2.1640 O   0  0  0  0  0
   14.6030   -0.0120    3.2810 C   0  0  0  0  0
   14.0210    1.2180    3.5640 N   0  0  0  0  0
   13.4810    1.4540    4.8270 C   0  0  0  0  0
   12.9620    2.5460    5.0710 O   0  0  0  0  0
   13.5230    0.4540    5.8010 C   0  0  0  0  0
   12.9320    0.7140    7.1870 C   0  0  0  0  0
   14.1040   -0.7800    5.5190 C   0  0  0  0  0
   14.6410   -1.0100    4.2540 N   0  0  0  0  0
   15.2660   -2.2980    3.9060 C   0  0  0  0  0
   14.6030   -3.4880    4.3920 O   0  0  0  0  0
   16.5840   -2.3920    4.6220 C   0  0  0  0  0
   16.9300   -3.8540    4.3950 C   0  0  0  0  0
   17.7790   -4.0030    3.2580 O   0  0  0  0  0
   15.5940   -4.4950    4.0540 C   0  0  0  0  0
   15.6870   -5.7240    4.9390 C   0  0  0  0  0
   14.6320   -5.7010    5.9240 N   0  0  0  0  0
   14.3630   -6.7330    6.7200 C   0  0  0  0  0
   13.0940   -6.4760    7.8210 S   0  0  0  0  0
   14.9930   -7.9390    6.7670 N   0  0  0  0  0
   16.0120   -8.5060    6.0580 C   0  0  0  0  0
   16.7970   -7.8750    5.0690 C   0  0  0  0  0
   16.2800   -9.8420    6.3650 C   0  0  0  0  0
   17.2890  -10.5460    5.7160 C   0  0  0  0  0
   18.0590   -9.9250    4.7370 C   0  0  0  0  0
   19.3220  -10.8070    3.9260 Cl  0  0  0  0  0
   17.8200   -8.5910    4.4030 C   0  0  0  0  0
   18.7100   -7.9440    3.2930 C   0  0  0  0  0
   18.5820   -6.6180    3.3130 F   0  0  0  0  0
   19.9960   -8.2850    3.4440 F   0  0  0  0  0
   18.3440   -8.3840    2.0880 F   0  0  0  0  0
   13.9892    1.9455    2.8498 H   0  0  0  0  0
   12.1377   -0.0063    7.3828 H   0  0  0  0  0
   13.7135    0.6085    7.9395 H   0  0  0  0  0
   12.5250    1.7245    7.2233 H   0  0  0  0  0
   14.1383   -1.5587    6.2809 H   0  0  0  0  0
   15.2718   -2.2865    2.8161 H   0  0  0  0  0
   16.5376   -2.1066    5.6730 H   0  0  0  0  0
   17.3381   -1.6967    4.2532 H   0  0  0  0  0
   17.4363   -4.2859    5.2582 H   0  0  0  0  0
   17.9847   -4.9324    3.1332 H   0  0  0  0  0
   15.3418   -4.7932    3.0364 H   0  0  0  0  0
   16.6520   -5.7299    5.4458 H   0  0  0  0  0
   15.5854   -6.6183    4.3242 H   0  0  0  0  0
   14.0676   -4.8562    6.0139 H   0  0  0  0  0
   14.6218   -8.5539    7.4913 H   0  0  0  0  0
   16.6142   -6.8304    4.8169 H   0  0  0  0  0
   15.6860  -10.3434    7.1291 H   0  0  0  0  0
   17.4773  -11.5879    5.9751 H   0  0  0  0  0
  1  2  2  0  0  0
  2  3  1  0  0  0
  2  9  1  0  0  0
  3  4  1  0  0  0
  4  5  2  0  0  0
  4  6  1  0  0  0
  6  7  1  0  0  0
  6  8  2  0  0  0
  8  9  1  0  0  0
  9 10  1  0  0  0
 10 11  1  0  0  0
 10 12  1  0  0  0
 11 15  1  0  0  0
 12 13  1  0  0  0
 13 14  1  0  0  0
 13 15  1  0  0  0
 15 16  1  0  0  0
 16 17  1  0  0  0
 17 18  1  0  0  0
 18 19  2  0  0  0
 18 20  1  0  0  0
 20 21  1  0  0  0
 21 22  4  0  0  0
 21 23  4  0  0  0
 22 27  4  0  0  0
 23 24  4  0  0  0
 24 25  4  0  0  0
 25 26  1  0  0  0
 25 27  4  0  0  0
 27 28  1  0  0  0
 28 29  1  0  0  0
 28 30  1  0  0  0
 28 31  1  0  0  0
  3 32  1  0  0  0
  7 33  1  0  0  0
  7 34  1  0  0  0
  7 35  1  0  0  0
  8 36  1  0  0  0
 10 37  1  0  0  0
 12 38  1  0  0  0
 12 39  1  0  0  0
 13 40  1  0  0  0
 14 41  1  0  0  0
 15 42  1  0  0  0
 16 43  1  0  0  0
 16 44  1  0  0  0
 17 45  1  0  0  0
 20 46  1  0  0  0
 22 47  1  0  0  0
 23 48  1  0  0  0
 24 49  1  0  0  0
M  END
$$$$
