5o07_ligand
  -I-interpret- 

 26 26  0  0  0  0  0  0  0  0999 V2000
   -5.6990    1.0030   16.5260 S   0  0  0  0  0
   -4.9670    1.3680   17.6980 O   0  0  0  0  0
   -7.1270    1.1020   16.5310 O   0  0  0  0  0
   -5.1920    1.9710   15.3980 O   0  0  0  0  0
   -5.2840   -0.4870   16.1330 N   0  0  0  0  0
   -3.8970    1.7410   14.7680 C   0  0  0  0  0
   -3.9110    2.4600   13.4620 C   0  0  0  0  0
   -3.4860    6.0360   13.9320 N   0  0  0  0  0
   -6.4640    4.2320   13.0820 N   0  0  0  0  0
   -5.1850    4.6920   13.4600 C   0  0  0  0  0
   -4.8130    5.9910   13.6840 C   0  0  0  0  0
   -3.0460    4.7940   13.8650 C   0  0  0  0  0
   -1.6520    4.4080   14.1320 C   0  0  0  0  0
   -4.0490    3.9170   13.5870 N   0  0  0  0  0
   -7.3750    5.0610   13.0420 O   0  0  0  0  0
   -6.6100    3.0680   12.7180 O   0  0  0  0  0
   -4.6018   -0.9923   16.6984 H   0  0  0  0  0
   -5.7009   -0.9340   15.3164 H   0  0  0  0  0
   -3.7258    0.6750   14.6185 H   0  0  0  0  0
   -3.0901    2.1095   15.4014 H   0  0  0  0  0
   -4.7739    2.0992   12.9023 H   0  0  0  0  0
   -2.9559    2.2652   12.9742 H   0  0  0  0  0
   -5.4816    6.8517   13.6651 H   0  0  0  0  0
   -0.9937    4.9207   13.4307 H   0  0  0  0  0
   -1.3877    4.6883   15.1516 H   0  0  0  0  0
   -1.5453    3.3300   14.0109 H   0  0  0  0  0
  1  2  2  0  0  0
  1  3  2  0  0  0
  4  1  1  0  0  0
  1  5  1  0  0  0
  6  4  1  0  0  0
  7  6  1  0  0  0
 14  7  1  0  0  0
 11  8  4  0  0  0
  8 12  4  0  0  0
 10  9  1  0  0  0
  9 15  2  0  0  0
  9 16  2  0  0  0
 10 11  4  0  0  0
 10 14  4  0  0  0
 12 13  1  0  0  0
 12 14  4  0  0  0
  5 17  1  0  0  0
  5 18  1  0  0  0
  6 19  1  0  0  0
  6 20  1  0  0  0
  7 21  1  0  0  0
  7 22  1  0  0  0
 11 23  1  0  0  0
 13 24  1  0  0  0
 13 25  1  0  0  0
 13 26  1  0  0  0
M  END
$$$$
