6p1d_ligand
  -I-interpret- 

 39 42  0  0  0  0  0  0  0  0999 V2000
  -40.5650  -10.7390   45.1840 C   0  0  0  0  0
  -40.9960  -12.0400   45.5580 C   0  0  0  0  0
  -40.1250  -13.1180   45.3850 C   0  0  0  0  0
  -38.8490  -12.9190   44.8380 C   0  0  0  0  0
  -38.4450  -11.6440   44.4510 C   0  0  0  0  0
  -41.5560   -9.5620   45.3430 C   0  0  0  0  0
  -39.6330   -6.6800   46.9160 C   0  0  0  0  0
  -38.3620   -6.1740   47.1740 C   0  0  0  0  0
  -37.2500   -6.6600   46.4670 C   0  0  0  0  0
  -37.3990   -7.6540   45.5010 C   0  0  0  0  0
  -38.7040   -8.1530   45.2390 C   0  0  0  0  0
  -39.7870   -7.6970   45.9350 C   0  0  0  0  0
  -39.3340  -10.5560   44.6220 C   0  0  0  0  0
  -42.1850   -7.2020   45.7180 C   0  0  0  0  0
  -43.0280   -7.0240   46.9740 C   0  0  0  0  0
  -42.8100   -7.7470   48.1340 C   0  0  0  0  0
  -43.6240   -7.5190   49.2350 C   0  0  0  0  0
  -44.6420   -6.5790   49.1760 C   0  0  0  0  0
  -44.8520   -5.8540   48.0150 C   0  0  0  0  0
  -44.0430   -6.0820   46.9150 C   0  0  0  0  0
  -38.2030   -5.2020   48.1180 F   0  0  0  0  0
  -38.8410   -9.2220   44.2280 N   0  0  0  0  0
  -41.1380   -8.2140   45.6780 N   0  0  0  0  0
  -42.6970   -9.7800   45.1380 O   0  0  0  0  0
  -41.9917  -12.1946   45.9738 H   0  0  0  0  0
  -40.4389  -14.1202   45.6769 H   0  0  0  0  0
  -38.1720  -13.7644   44.7156 H   0  0  0  0  0
  -37.4558  -11.4856   44.0214 H   0  0  0  0  0
  -40.4988   -6.3012   47.4592 H   0  0  0  0  0
  -36.2596   -6.2555   46.6759 H   0  0  0  0  0
  -36.5352   -8.0395   44.9594 H   0  0  0  0  0
  -41.6531   -6.2566   45.6116 H   0  0  0  0  0
  -42.8971   -7.5176   44.9554 H   0  0  0  0  0
  -42.0098   -8.4855   48.1823 H   0  0  0  0  0
  -43.4618   -8.0833   50.1533 H   0  0  0  0  0
  -45.2780   -6.4106   50.0451 H   0  0  0  0  0
  -45.6474   -5.1102   47.9677 H   0  0  0  0  0
  -44.2052   -5.5173   45.9969 H   0  0  0  0  0
  -38.5943   -9.0374   43.2557 H   0  0  0  0  0
  1  2  4  0  0  0
  6  1  1  0  0  0
  1 13  4  0  0  0
  2  3  4  0  0  0
  3  4  4  0  0  0
  5  4  4  0  0  0
 13  5  4  0  0  0
 23  6  1  0  0  0
  6 24  2  0  0  0
  7  8  4  0  0  0
 12  7  4  0  0  0
  8  9  4  0  0  0
  8 21  1  0  0  0
 10  9  4  0  0  0
 11 10  4  0  0  0
 12 11  4  0  0  0
 11 22  1  0  0  0
 23 12  1  0  0  0
 22 13  1  0  0  0
 14 15  1  0  0  0
 14 23  1  0  0  0
 15 16  4  0  0  0
 15 20  4  0  0  0
 16 17  4  0  0  0
 17 18  4  0  0  0
 18 19  4  0  0  0
 19 20  4  0  0  0
  2 25  1  0  0  0
  3 26  1  0  0  0
  4 27  1  0  0  0
  5 28  1  0  0  0
  7 29  1  0  0  0
  9 30  1  0  0  0
 10 31  1  0  0  0
 14 32  1  0  0  0
 14 33  1  0  0  0
 16 34  1  0  0  0
 17 35  1  0  0  0
 18 36  1  0  0  0
 19 37  1  0  0  0
 20 38  1  0  0  0
 22 39  1  0  0  0
M  END
$$$$
