5lyx_ligand
  -I-interpret- 

 44 48  0  0  0  0  0  0  0  0999 V2000
  -29.4880  -17.3360   17.7440 C   0  0  0  0  0
  -29.2410  -17.5440   19.0940 C   0  0  0  0  0
  -30.2470  -17.3510   20.0540 C   0  0  0  0  0
  -28.5310  -17.5390   16.7880 O   0  0  0  0  0
  -31.8220  -16.7640   18.3280 C   0  0  0  0  0
  -33.1150  -16.3680   17.9030 C   0  0  0  0  0
  -32.4080  -16.3230   15.6670 C   0  0  0  0  0
  -31.1250  -16.7050   15.9720 C   0  0  0  0  0
  -26.3370  -17.4440   15.7810 C   0  0  0  0  0
  -26.1520  -16.0300   15.1920 C   0  0  0  0  0
  -24.8220  -15.5700   15.8500 C   0  0  0  0  0
  -24.0240  -16.8810   16.0230 C   0  0  0  0  0
  -22.8880  -21.0680   15.7710 C   0  0  0  0  0
  -23.2560  -19.7210   15.8190 C   0  0  0  0  0
  -25.1320  -21.6880   15.8800 C   0  0  0  0  0
  -25.5460  -20.3730   15.9510 N   0  0  0  0  0
  -26.2220  -22.4350   15.9380 N   0  0  0  0  0
  -31.5180  -16.9750   19.6910 C   0  0  0  0  0
  -30.7940  -16.9380   17.3330 C   0  0  0  0  0
  -33.3500  -16.1780   16.6130 N   0  0  0  0  0
  -24.9830  -18.0130   15.9360 N   0  0  0  0  0
  -27.1360  -17.4180   17.0910 C   0  0  0  0  0
  -24.6130  -19.3620   15.9050 C   0  0  0  0  0
  -23.8230  -21.9970   15.7920 N   0  0  0  0  0
  -26.9510  -20.4170   16.0390 N   0  0  0  0  0
  -27.3050  -21.6730   16.0300 C   0  0  0  0  0
  -28.2490  -17.8626   19.4142 H   0  0  0  0  0
  -30.0154  -17.5024   21.1083 H   0  0  0  0  0
  -33.9110  -16.2207   18.6329 H   0  0  0  0  0
  -32.6697  -16.1318   14.6263 H   0  0  0  0  0
  -30.3779  -16.8266   15.1877 H   0  0  0  0  0
  -26.9301  -18.0739   15.1181 H   0  0  0  0  0
  -26.9885  -15.3640   15.4036 H   0  0  0  0  0
  -26.1180  -16.0198   14.1026 H   0  0  0  0  0
  -24.9838  -15.0546   16.7967 H   0  0  0  0  0
  -24.2902  -14.8374   15.2429 H   0  0  0  0  0
  -23.5157  -16.8896   16.9872 H   0  0  0  0  0
  -23.2658  -16.9674   15.2447 H   0  0  0  0  0
  -21.8361  -21.3485   15.7166 H   0  0  0  0  0
  -22.4895  -18.9466   15.7897 H   0  0  0  0  0
  -32.2875  -16.8403   20.4511 H   0  0  0  0  0
  -26.8248  -18.2458   17.7282 H   0  0  0  0  0
  -26.9533  -16.4797   17.6148 H   0  0  0  0  0
  -28.3300  -22.0392   16.0888 H   0  0  0  0  0
  1  2  4  0  0  0
  4  1  1  0  0  0
  1 19  4  0  0  0
  2  3  4  0  0  0
  3 18  4  0  0  0
 22  4  1  0  0  0
  5  6  4  0  0  0
  5 18  4  0  0  0
 19  5  4  0  0  0
  6 20  4  0  0  0
  8  7  4  0  0  0
  7 20  4  0  0  0
 19  8  4  0  0  0
  9 10  1  0  0  0
 21  9  1  0  0  0
  9 22  1  0  0  0
 11 10  1  0  0  0
 12 11  1  0  0  0
 21 12  1  0  0  0
 14 13  4  0  0  0
 13 24  4  0  0  0
 23 14  4  0  0  0
 16 15  4  0  0  0
 15 17  4  0  0  0
 15 24  4  0  0  0
 23 16  4  0  0  0
 16 25  4  0  0  0
 17 26  4  0  0  0
 21 23  1  0  0  0
 25 26  4  0  0  0
  2 27  1  0  0  0
  3 28  1  0  0  0
  6 29  1  0  0  0
  7 30  1  0  0  0
  8 31  1  0  0  0
  9 32  1  0  0  0
 10 33  1  0  0  0
 10 34  1  0  0  0
 11 35  1  0  0  0
 11 36  1  0  0  0
 12 37  1  0  0  0
 12 38  1  0  0  0
 13 39  1  0  0  0
 14 40  1  0  0  0
 18 41  1  0  0  0
 22 42  1  0  0  0
 22 43  1  0  0  0
 26 44  1  0  0  0
M  END
$$$$
