### 
### Created by X-TOOL on Wed Jan  1 15:39:35 2020
### 

@<TRIPOS>MOLECULE
6b1w_ligand
   43    44     1     0     0
SMALL
GAST_HUCK


@<TRIPOS>ATOM
      1 NAR        11.6320   -3.5500   -2.4850 N.2       1 C8V        -0.3845
      2 CAV        11.5790   -2.2410   -2.6080 C.2       1 C8V         0.0309
      3 CAK        12.5050   -1.5520   -1.8050 C.3       1 C8V         0.0175
      4 CB         12.1000   -0.1160   -1.5700 C.3       1 C8V         0.0066
      5 CAN        10.5980   -1.6930   -3.4810 C.3       1 C8V         0.1000
      6 N          10.3580   -0.2730   -3.0730 N.am      1 C8V        -0.2320
      7 CAG         9.1330    0.2190   -2.8310 C.2       1 C8V         0.1771
      8 OAA         8.8620    1.1620   -2.1260 O.2       1 C8V        -0.3825
      9 CA         11.5540    0.4120   -2.8310 C.3       1 C8V         0.1418
     10 C          12.3200    0.8840   -3.9070 C.2       1 C8V         0.2235
     11 O          11.9560    0.6650   -5.0750 O.2       1 C8V        -0.3925
     12 NAQ        13.5480    1.3640   -3.6210 N.am      1 C8V        -0.1805
     13 NAP        14.2540    1.8990   -4.6350 N.am      1 C8V        -0.1820
     14 CAT        14.0210    3.1760   -4.9990 C.2       1 C8V         0.2052
     15 OAB        13.0150    3.7780   -4.6690 O.2       1 C8V        -0.3946
     16 CAW        15.0810    3.8230   -5.9070 C.3       1 C8V         0.0903
     17 CAJ        16.3710    4.1300   -5.1650 C.3       1 C8V        -0.0234
     18 CAH        16.1150    5.1110   -4.0450 C.3       1 C8V        -0.0101
     19 CAI        15.5970    6.3800   -4.7190 C.3       1 C8V        -0.0334
     20 NAO        14.3710    6.1630   -5.4900 N.4       1 C8V         0.2288
     21 CAM        14.5810    5.1260   -6.5110 C.3       1 C8V        -0.0137
     22 H1         12.3148   -3.9717   -1.8750 H         1 C8V         0.0795
     23 H2         13.4855   -1.5663   -2.3033 H         1 C8V         0.0550
     24 H3         12.5799   -2.0623   -0.8334 H         1 C8V         0.0550
     25 H4         12.9767    0.4747   -1.2660 H         1 C8V         0.0348
     26 H5         11.3341   -0.0678   -0.7819 H         1 C8V         0.0348
     27 H6          9.6635   -2.2677   -3.4003 H         1 C8V         0.0815
     28 H7         10.9609   -1.7270   -4.5188 H         1 C8V         0.0815
     29 H8          8.2989   -0.2825   -3.3195 H         1 C8V         0.1550
     30 H9         11.1748    1.3844   -2.4838 H         1 C8V         0.0810
     31 H10        13.9189    1.3240   -2.6932 H         1 C8V         0.2166
     32 H11        14.9437    1.3550   -5.1129 H         1 C8V         0.2165
     33 H12        15.3031    3.1172   -6.7210 H         1 C8V         0.0592
     34 H13        17.0983    4.5636   -5.8671 H         1 C8V         0.0296
     35 H14        16.7776    3.1984   -4.7446 H         1 C8V         0.0296
     36 H15        17.0459    5.3199   -3.4976 H         1 C8V         0.0318
     37 H16        15.3624    4.7114   -3.3494 H         1 C8V         0.0318
     38 H17        16.3752    6.7579   -5.3984 H         1 C8V         0.0814
     39 H18        15.3929    7.1308   -3.9414 H         1 C8V         0.0814
     40 H19        14.1065    7.0244   -5.9418 H         1 C8V         0.2015
     41 H20        13.6347    5.8705   -4.8668 H         1 C8V         0.2015
     42 H21        13.6273    4.9359   -7.0251 H         1 C8V         0.0842
     43 H22        15.3233    5.4884   -7.2374 H         1 C8V         0.0842
@<TRIPOS>BOND
     1    1    2 2  
     2    2    3 1  
     3    2    5 1  
     4    3    4 1  
     5    4    9 1  
     6    5    6 1  
     7    6    7 am 
     8    6    9 1  
     9    7    8 2  
    10    9   10 1  
    11   10   11 2  
    12   10   12 am 
    13   12   13 1  
    14   13   14 am 
    15   14   15 2  
    16   14   16 1  
    17   16   17 1  
    18   16   21 1  
    19   17   18 1  
    20   18   19 1  
    21   19   20 1  
    22   20   21 1  
    23    1   22 1  
    24    3   23 1  
    25    3   24 1  
    26    4   25 1  
    27    4   26 1  
    28    5   27 1  
    29    5   28 1  
    30    7   29 1  
    31    9   30 1  
    32   12   31 1  
    33   13   32 1  
    34   16   33 1  
    35   17   34 1  
    36   17   35 1  
    37   18   36 1  
    38   18   37 1  
    39   19   38 1  
    40   19   39 1  
    41   20   40 1  
    42   20   41 1  
    43   21   42 1  
    44   21   43 1  
@<TRIPOS>SUBSTRUCTURE
     1 C8V         1

