6b1w_ligand
  -I-interpret- 

 43 44  0  0  0  0  0  0  0  0999 V2000
   11.6320   -3.5500   -2.4850 N   0  0  0  0  0
   11.5790   -2.2410   -2.6080 C   0  0  0  0  0
   12.5050   -1.5520   -1.8050 C   0  0  0  0  0
   12.1000   -0.1160   -1.5700 C   0  0  0  0  0
   10.5980   -1.6930   -3.4810 C   0  0  0  0  0
   10.3580   -0.2730   -3.0730 N   0  0  0  0  0
    9.1330    0.2190   -2.8310 C   0  0  0  0  0
    8.8620    1.1620   -2.1260 O   0  0  0  0  0
   11.5540    0.4120   -2.8310 C   0  0  0  0  0
   12.3200    0.8840   -3.9070 C   0  0  0  0  0
   11.9560    0.6650   -5.0750 O   0  0  0  0  0
   13.5480    1.3640   -3.6210 N   0  0  0  0  0
   14.2540    1.8990   -4.6350 N   0  0  0  0  0
   14.0210    3.1760   -4.9990 C   0  0  0  0  0
   13.0150    3.7780   -4.6690 O   0  0  0  0  0
   15.0810    3.8230   -5.9070 C   0  0  0  0  0
   16.3710    4.1300   -5.1650 C   0  0  0  0  0
   16.1150    5.1110   -4.0450 C   0  0  0  0  0
   15.5970    6.3800   -4.7190 C   0  0  0  0  0
   14.3710    6.1630   -5.4900 N   0  3  0  0  0
   14.5810    5.1260   -6.5110 C   0  0  0  0  0
   10.9822   -4.1380   -3.0069 H   0  0  0  0  0
   13.4662   -1.5533   -2.3189 H   0  0  0  0  0
   12.5539   -2.0529   -0.8381 H   0  0  0  0  0
   12.9618    0.4728   -1.2558 H   0  0  0  0  0
   11.3502   -0.0595   -0.7809 H   0  0  0  0  0
    9.6728   -2.2655   -3.4149 H   0  0  0  0  0
   10.9465   -1.7348   -4.5129 H   0  0  0  0  0
    8.2981   -0.2830   -3.3200 H   0  0  0  0  0
   11.4238    1.4801   -2.6568 H   0  0  0  0  0
   13.9264    1.3232   -2.6746 H   0  0  0  0  0
   14.9575    1.3441   -5.1225 H   0  0  0  0  0
   15.2750    3.0897   -6.6898 H   0  0  0  0  0
   17.0859    4.5667   -5.8624 H   0  0  0  0  0
   16.7662    3.2058   -4.7434 H   0  0  0  0  0
   17.0215    5.3063   -3.4721 H   0  0  0  0  0
   15.3935    4.7179   -3.3288 H   0  0  0  0  0
   16.3659    6.7247   -5.4104 H   0  0  0  0  0
   15.3710    7.1024   -3.9347 H   0  0  0  0  0
   14.1114    7.0347   -5.9517 H   0  0  0  0  0
   13.6310    5.8596   -4.8570 H   0  0  0  0  0
   13.6262    4.9306   -6.9991 H   0  0  0  0  0
   15.3331    5.4866   -7.2127 H   0  0  0  0  0
  1  2  2  0  0  0
  2  3  1  0  0  0
  2  5  1  0  0  0
  3  4  1  0  0  0
  4  9  1  0  0  0
  5  6  1  0  0  0
  6  7  1  0  0  0
  6  9  1  0  0  0
  7  8  2  0  0  0
  9 10  1  0  0  0
 10 11  2  0  0  0
 10 12  1  0  0  0
 12 13  1  0  0  0
 13 14  1  0  0  0
 14 15  2  0  0  0
 14 16  1  0  0  0
 16 17  1  0  0  0
 16 21  1  0  0  0
 17 18  1  0  0  0
 18 19  1  0  0  0
 19 20  1  0  0  0
 20 21  1  0  0  0
  1 22  1  0  0  0
  3 23  1  0  0  0
  3 24  1  0  0  0
  4 25  1  0  0  0
  4 26  1  0  0  0
  5 27  1  0  0  0
  5 28  1  0  0  0
  7 29  1  0  0  0
  9 30  1  0  0  0
 12 31  1  0  0  0
 13 32  1  0  0  0
 16 33  1  0  0  0
 17 34  1  0  0  0
 17 35  1  0  0  0
 18 36  1  0  0  0
 18 37  1  0  0  0
 19 38  1  0  0  0
 19 39  1  0  0  0
 20 40  1  0  0  0
 20 41  1  0  0  0
 21 42  1  0  0  0
 21 43  1  0  0  0
M  END
$$$$
