1ydb_ligand
  -I-interpret- 

 19 19  0  0  0  0  0  0  0  0999 V2000
   -5.0120    2.2110   16.1310 C   0  0  0  0  0
   -4.4160    4.0180   14.9440 C   0  0  0  0  0
   -5.1680    5.7640   13.6410 C   0  0  0  0  0
   -4.6670    6.9100   12.7870 C   0  0  0  0  0
   -5.0980   -0.4120   16.2950 N   0  0  0  0  0
   -3.3660    3.4000   15.3680 N   0  0  0  0  0
   -3.7160    2.3010   16.0840 N   0  0  0  0  0
   -4.1580    5.0620   14.1790 N   0  0  0  0  0
   -5.4430    0.9180   18.4030 O   0  0  0  0  0
   -7.2490    0.9930   16.8390 O   0  0  0  0  0
   -6.3740    5.5610   13.7610 O   0  0  0  0  0
   -5.7750    0.8600   16.9770 S   0  0  0  0  0
   -5.9310    3.4180   15.3460 S   0  0  0  0  0
   -5.0123    6.7756   11.7619 H   0  0  0  0  0
   -5.0521    7.8505   13.1811 H   0  0  0  0  0
   -3.5773    6.9259   12.8055 H   0  0  0  0  0
   -4.5267   -1.0464   16.8532 H   0  0  0  0  0
   -5.2362   -0.5915   15.3005 H   0  0  0  0  0
   -3.1923    5.3352   13.9967 H   0  0  0  0  0
  1 13  4  0  0  0
  1 12  1  0  0  0
  1  7  4  0  0  0
  7  6  4  0  0  0
  6  2  4  0  0  0
  2  8  1  0  0  0
  2 13  4  0  0  0
  8  3  1  0  0  0
  3 11  2  0  0  0
  3  4  1  0  0  0
 12  5  1  0  0  0
 12  9  2  0  0  0
 12 10  2  0  0  0
  4 14  1  0  0  0
  4 15  1  0  0  0
  4 16  1  0  0  0
  5 17  1  0  0  0
  5 18  1  0  0  0
  8 19  1  0  0  0
M  END
$$$$
