### 
### Created by X-TOOL on Sun Sep  9 21:51:41 2018
### 

@<TRIPOS>MOLECULE
3te5_ligand
   71    75     1     0     0
SMALL
GAST_HUCK


@<TRIPOS>ATOM
      1 PA        -31.3670   65.9410   -2.5540 P.3       1 NON         0.2972
      2 O1A       -30.5940   64.7030   -2.7850 O.co2     1 NON        -0.6127
      3 O2A       -31.9620   66.6370   -3.7010 O.co2     1 NON        -0.6127
      4 O5B       -30.5200   66.9200   -1.5820 O.3       1 NON        -0.2476
      5 C5B       -29.3780   67.6670   -1.9520 C.3       1 NON         0.1128
      6 C4B       -29.2660   68.9630   -1.1200 C.3       1 NON         0.1189
      7 O4B       -28.7670   69.9790   -1.9970 O.3       1 NON        -0.3364
      8 C3B       -30.6040   69.5430   -0.6580 C.3       1 NON         0.1149
      9 O3B       -30.3610   70.5530    0.3480 O.3       1 NON        -0.3864
     10 C2B       -31.1600   70.1810   -1.9290 C.3       1 NON         0.1385
     11 O2B       -31.9650   71.3480   -1.6520 O.3       1 NON        -0.3836
     12 C1B       -29.9010   70.5870   -2.6850 C.3       1 NON         0.2010
     13 N9A       -29.9320   70.1460   -4.1040 N.pl3     1 NON        -0.1919
     14 C8A       -30.6840   69.2250   -4.7090 C.2       1 NON         0.1123
     15 N7A       -30.3490   69.1960   -5.9940 N.2       1 NON        -0.2958
     16 C5A       -29.3850   70.1000   -6.1880 C.ar      1 NON         0.1045
     17 C6A       -28.7000   70.4650   -7.2760 C.ar      1 NON         0.1298
     18 N6A       -28.9970   69.8410   -8.4060 N.pl3     1 NON        -0.3152
     19 N1A       -27.7560   71.4180   -7.2360 N.ar      1 NON        -0.2698
     20 C2A       -27.4710   72.0510   -6.0220 C.ar      1 NON         0.0533
     21 N3A       -28.1930   71.6480   -4.9010 N.ar      1 NON        -0.2714
     22 C4A       -29.1280   70.6870   -5.0120 C.ar      1 NON         0.1613
     23 O3        -32.5240   65.7380   -1.4490 O.3       1 NON        -0.1319
     24 PN        -33.2730   64.3720   -1.1670 P.3       1 NON         0.2972
     25 O1N       -33.6020   63.7590   -2.4700 O.co2     1 NON        -0.6127
     26 O2N       -34.3600   64.6960   -0.2170 O.co2     1 NON        -0.6127
     27 O5D       -32.1360   63.4410   -0.5240 O.3       1 NON        -0.2476
     28 C5D       -31.9450   63.2570    0.8790 C.3       1 NON         0.1128
     29 C4D       -30.4520   63.0180    1.1420 C.3       1 NON         0.1183
     30 O4D       -29.9120   62.0800    0.1740 O.3       1 NON        -0.3416
     31 C3D       -29.6810   64.3290    0.9420 C.3       1 NON         0.1143
     32 O3D       -28.9160   64.5960    2.1320 O.3       1 NON        -0.3864
     33 C2D       -28.7740   64.0390   -0.2440 C.3       1 NON         0.1325
     34 O2D       -27.5140   64.7230   -0.1190 O.3       1 NON        -0.3842
     35 C1D       -28.5730   62.5440   -0.0970 C.3       1 NON         0.1777
     36 N1N       -27.9550   61.9450   -1.3100 N.pl3     1 NON        -0.2611
     37 C2N       -26.6290   61.4620   -1.2270 C.2       1 NON         0.0379
     38 C3N       -26.0040   60.8910   -2.3430 C.2       1 NON         0.0352
     39 C7N       -24.6850   60.4220   -2.2340 C.2       1 NON         0.1728
     40 O7N       -24.0420   60.5790   -1.1950 O.2       1 NON        -0.4055
     41 N7N       -24.1810   59.8030   -3.3060 N.am      1 NON        -0.3066
     42 C4N       -26.7170   60.8100   -3.5480 C.2       1 NON        -0.0855
     43 C5N       -28.0310   61.2810   -3.6430 C.2       1 NON        -0.0766
     44 C6N       -28.6620   61.8490   -2.5330 C.3       1 NON         0.0555
     45 H         -29.4636   67.9354   -3.0050 H         1 NON         0.0648
     46 H         -28.4911   67.0596   -1.7716 H         1 NON         0.0648
     47 H         -28.6553   68.7086   -0.2537 H         1 NON         0.0651
     48 H         -31.2803   68.8084   -0.2208 H         1 NON         0.0648
     49 H         -31.1986   70.9196    0.6407 H         1 NON         0.2100
     50 H         -31.8149   69.5020   -2.4750 H         1 NON         0.0676
     51 H         -32.7066   71.0991   -1.0955 H         1 NON         0.2101
     52 H         -29.8234   71.6741   -2.6994 H         1 NON         0.0996
     53 H         -31.4419   68.6040   -4.2316 H         1 NON         0.1349
     54 H         -29.7187   69.1202   -8.4161 H         1 NON         0.1820
     55 H         -28.5041   70.0813   -9.2660 H         1 NON         0.1820
     56 H         -26.7122   72.8307   -5.9554 H         1 NON         0.0996
     57 H         -32.5245   62.4005    1.2235 H         1 NON         0.0648
     58 H         -32.2800   64.1428    1.4187 H         1 NON         0.0648
     59 H         -30.3489   62.6359    2.1576 H         1 NON         0.0651
     60 H         -30.3132   65.1986    0.7628 H         1 NON         0.0648
     61 H         -29.5102   64.6761    2.8818 H         1 NON         0.2100
     62 H         -29.1836   64.3577   -1.2025 H         1 NON         0.0670
     63 H         -26.9647   64.5211   -0.8800 H         1 NON         0.2101
     64 H         -27.8733   62.2598    0.6890 H         1 NON         0.0918
     65 H         -26.0869   61.5347   -0.2841 H         1 NON         0.1119
     66 H         -23.2285   59.4389   -3.2838 H         1 NON         0.1794
     67 H         -24.7489   59.6947   -4.1463 H         1 NON         0.1794
     68 H         -26.2396   60.3729   -4.4250 H         1 NON         0.0384
     69 H         -28.5663   61.2044   -4.5894 H         1 NON         0.0492
     70 H         -28.8600   62.8810   -2.8225 H         1 NON         0.0680
     71 H         -29.5004   61.1861   -2.3192 H         1 NON         0.0680
@<TRIPOS>BOND
     1    1    2 ar 
     2    1    3 ar 
     3    1    4 1  
     4    1   23 1  
     5    4    5 1  
     6    5    6 1  
     7    6    7 1  
     8    6    8 1  
     9    7   12 1  
    10    8    9 1  
    11    8   10 1  
    12   10   11 1  
    13   10   12 1  
    14   12   13 1  
    15   13   14 1  
    16   13   22 1  
    17   14   15 2  
    18   15   16 1  
    19   16   17 ar 
    20   16   22 ar 
    21   17   18 1  
    22   17   19 ar 
    23   19   20 ar 
    24   20   21 ar 
    25   21   22 ar 
    26   23   24 1  
    27   24   25 ar 
    28   24   26 ar 
    29   24   27 1  
    30   27   28 1  
    31   28   29 1  
    32   29   30 1  
    33   29   31 1  
    34   30   35 1  
    35   31   32 1  
    36   31   33 1  
    37   33   34 1  
    38   33   35 1  
    39   35   36 1  
    40   36   37 1  
    41   36   44 1  
    42   37   38 2  
    43   38   39 1  
    44   38   42 1  
    45   39   40 2  
    46   39   41 am 
    47   42   43 2  
    48   43   44 1  
    49    5   45 1  
    50    5   46 1  
    51    6   47 1  
    52    8   48 1  
    53    9   49 1  
    54   10   50 1  
    55   11   51 1  
    56   12   52 1  
    57   14   53 1  
    58   18   54 1  
    59   18   55 1  
    60   20   56 1  
    61   28   57 1  
    62   28   58 1  
    63   29   59 1  
    64   31   60 1  
    65   32   61 1  
    66   33   62 1  
    67   34   63 1  
    68   35   64 1  
    69   37   65 1  
    70   41   66 1  
    71   41   67 1  
    72   42   68 1  
    73   43   69 1  
    74   44   70 1  
    75   44   71 1  
@<TRIPOS>SUBSTRUCTURE
     1 NON         1

