3te5_ligand
  -I-interpret- 

 73 77  0  0  0  0  0  0  0  0999 V2000
  -31.3670   65.9410   -2.5540 P   0  0  0  0  0
  -30.5940   64.7030   -2.7850 O   0  0  0  0  0
  -31.9620   66.6370   -3.7010 O   0  0  0  0  0
  -30.5200   66.9200   -1.5820 O   0  0  0  0  0
  -29.3780   67.6670   -1.9520 C   0  0  0  0  0
  -29.2660   68.9630   -1.1200 C   0  0  0  0  0
  -28.7670   69.9790   -1.9970 O   0  0  0  0  0
  -30.6040   69.5430   -0.6580 C   0  0  0  0  0
  -30.3610   70.5530    0.3480 O   0  0  0  0  0
  -31.1600   70.1810   -1.9290 C   0  0  0  0  0
  -31.9650   71.3480   -1.6520 O   0  0  0  0  0
  -29.9010   70.5870   -2.6850 C   0  0  0  0  0
  -29.9320   70.1460   -4.1040 N   0  0  0  0  0
  -30.6840   69.2250   -4.7090 C   0  0  0  0  0
  -30.3490   69.1960   -5.9940 N   0  0  0  0  0
  -29.3850   70.1000   -6.1880 C   0  0  0  0  0
  -28.7000   70.4650   -7.2760 C   0  0  0  0  0
  -28.9970   69.8410   -8.4060 N   0  0  0  0  0
  -27.7560   71.4180   -7.2360 N   0  0  0  0  0
  -27.4710   72.0510   -6.0220 C   0  0  0  0  0
  -28.1930   71.6480   -4.9010 N   0  0  0  0  0
  -29.1280   70.6870   -5.0120 C   0  0  0  0  0
  -32.5240   65.7380   -1.4490 O   0  0  0  0  0
  -33.2730   64.3720   -1.1670 P   0  0  0  0  0
  -33.6020   63.7590   -2.4700 O   0  0  0  0  0
  -34.3600   64.6960   -0.2170 O   0  0  0  0  0
  -32.1360   63.4410   -0.5240 O   0  0  0  0  0
  -31.9450   63.2570    0.8790 C   0  0  0  0  0
  -30.4520   63.0180    1.1420 C   0  0  0  0  0
  -29.9120   62.0800    0.1740 O   0  0  0  0  0
  -29.6810   64.3290    0.9420 C   0  0  0  0  0
  -28.9160   64.5960    2.1320 O   0  0  0  0  0
  -28.7740   64.0390   -0.2440 C   0  0  0  0  0
  -27.5140   64.7230   -0.1190 O   0  0  0  0  0
  -28.5730   62.5440   -0.0970 C   0  0  0  0  0
  -27.9550   61.9450   -1.3100 N   0  0  0  0  0
  -26.6290   61.4620   -1.2270 C   0  0  0  0  0
  -26.0040   60.8910   -2.3430 C   0  0  0  0  0
  -24.6850   60.4220   -2.2340 C   0  0  0  0  0
  -24.0420   60.5790   -1.1950 O   0  0  0  0  0
  -24.1810   59.8030   -3.3060 N   0  0  0  0  0
  -26.7170   60.8100   -3.5480 C   0  0  0  0  0
  -28.0310   61.2810   -3.6430 C   0  0  0  0  0
  -28.6620   61.8490   -2.5330 C   0  0  0  0  0
  -30.2711   64.3674   -1.9455 H   0  0  0  0  0
  -29.4636   67.9354   -3.0050 H   0  0  0  0  0
  -28.4911   67.0596   -1.7716 H   0  0  0  0  0
  -28.6553   68.7086   -0.2537 H   0  0  0  0  0
  -31.2803   68.8084   -0.2208 H   0  0  0  0  0
  -30.0122   70.1370    1.1398 H   0  0  0  0  0
  -31.8149   69.5020   -2.4750 H   0  0  0  0  0
  -32.2914   71.7135   -2.4775 H   0  0  0  0  0
  -29.8234   71.6741   -2.6994 H   0  0  0  0  0
  -31.4419   68.6040   -4.2316 H   0  0  0  0  0
  -29.7187   69.1202   -8.4161 H   0  0  0  0  0
  -28.5041   70.0813   -9.2660 H   0  0  0  0  0
  -26.7122   72.8307   -5.9554 H   0  0  0  0  0
  -33.9847   65.0854    0.5762 H   0  0  0  0  0
  -32.5245   62.4005    1.2235 H   0  0  0  0  0
  -32.2800   64.1428    1.4187 H   0  0  0  0  0
  -30.3489   62.6359    2.1576 H   0  0  0  0  0
  -30.3132   65.1986    0.7628 H   0  0  0  0  0
  -28.4278   65.4150    2.0202 H   0  0  0  0  0
  -29.1836   64.3577   -1.2025 H   0  0  0  0  0
  -26.9647   64.5211   -0.8800 H   0  0  0  0  0
  -27.8733   62.2598    0.6890 H   0  0  0  0  0
  -26.0869   61.5347   -0.2841 H   0  0  0  0  0
  -23.2285   59.4389   -3.2838 H   0  0  0  0  0
  -24.7489   59.6947   -4.1463 H   0  0  0  0  0
  -26.2396   60.3729   -4.4250 H   0  0  0  0  0
  -28.5663   61.2044   -4.5894 H   0  0  0  0  0
  -28.8600   62.8810   -2.8225 H   0  0  0  0  0
  -29.5004   61.1861   -2.3192 H   0  0  0  0  0
  1  2  1  0  0  0
  1  3  2  0  0  0
  1  4  1  0  0  0
  1 23  1  0  0  0
  4  5  1  0  0  0
  5  6  1  0  0  0
  6  7  1  0  0  0
  6  8  1  0  0  0
  7 12  1  0  0  0
  8  9  1  0  0  0
  8 10  1  0  0  0
 10 11  1  0  0  0
 10 12  1  0  0  0
 12 13  1  0  0  0
 13 14  4  0  0  0
 13 22  4  0  0  0
 14 15  4  0  0  0
 15 16  4  0  0  0
 16 17  4  0  0  0
 16 22  4  0  0  0
 17 18  1  0  0  0
 17 19  4  0  0  0
 19 20  4  0  0  0
 20 21  4  0  0  0
 21 22  4  0  0  0
 23 24  1  0  0  0
 24 25  2  0  0  0
 24 26  1  0  0  0
 24 27  1  0  0  0
 27 28  1  0  0  0
 28 29  1  0  0  0
 29 30  1  0  0  0
 29 31  1  0  0  0
 30 35  1  0  0  0
 31 32  1  0  0  0
 31 33  1  0  0  0
 33 34  1  0  0  0
 33 35  1  0  0  0
 35 36  1  0  0  0
 36 37  1  0  0  0
 36 44  1  0  0  0
 37 38  2  0  0  0
 38 39  1  0  0  0
 38 42  1  0  0  0
 39 40  2  0  0  0
 39 41  1  0  0  0
 42 43  2  0  0  0
 43 44  1  0  0  0
  2 45  1  0  0  0
  5 46  1  0  0  0
  5 47  1  0  0  0
  6 48  1  0  0  0
  8 49  1  0  0  0
  9 50  1  0  0  0
 10 51  1  0  0  0
 11 52  1  0  0  0
 12 53  1  0  0  0
 14 54  1  0  0  0
 18 55  1  0  0  0
 18 56  1  0  0  0
 20 57  1  0  0  0
 26 58  1  0  0  0
 28 59  1  0  0  0
 28 60  1  0  0  0
 29 61  1  0  0  0
 31 62  1  0  0  0
 32 63  1  0  0  0
 33 64  1  0  0  0
 34 65  1  0  0  0
 35 66  1  0  0  0
 37 67  1  0  0  0
 41 68  1  0  0  0
 41 69  1  0  0  0
 42 70  1  0  0  0
 43 71  1  0  0  0
 44 72  1  0  0  0
 44 73  1  0  0  0
M  END
$$$$
