5gn9_ligand
  -I-interpret- 

 31 32  0  0  0  0  0  0  0  0999 V2000
   26.1050   14.3320   79.0270 C   0  0  0  0  0
   24.7960   14.7360   78.3220 C   0  0  0  0  0
   24.3370   13.5810   77.3960 C   0  0  0  0  0
   23.1380   14.0340   76.5360 C   0  0  0  0  0
   22.4170   12.9440   76.0060 C   0  0  0  0  0
   22.5720   12.6290   74.6590 C   0  0  0  0  0
   21.8510   11.5610   74.0860 C   0  0  0  0  0
   22.0870   11.2470   72.9150 O   0  0  0  0  0
   20.8760   10.9090   74.7930 O   0  0  0  0  0
   20.6810   11.2180   76.1120 C   0  0  0  0  0
   21.4550   12.2260   76.7380 C   0  0  0  0  0
   21.2210   12.4360   78.1230 C   0  0  0  0  0
   20.2310   11.7020   78.8270 C   0  0  0  0  0
   19.4590   10.7350   78.1670 C   0  0  0  0  0
   18.4970   10.0060   78.7700 O   0  0  0  0  0
   19.6860   10.5020   76.8170 C   0  0  0  0  0
   18.9320    9.5560   76.1930 O   0  0  0  0  0
   25.9345   13.4333   79.6198 H   0  0  0  0  0
   26.8732   14.1352   78.2792 H   0  0  0  0  0
   26.4302   15.1427   79.6790 H   0  0  0  0  0
   24.9628   15.6353   77.7291 H   0  0  0  0  0
   24.0259   14.9348   79.0673 H   0  0  0  0  0
   24.0369   12.7302   78.0077 H   0  0  0  0  0
   25.1610   13.2996   76.7404 H   0  0  0  0  0
   23.5226   14.6221   75.7028 H   0  0  0  0  0
   22.4639   14.6083   77.1716 H   0  0  0  0  0
   23.2559   13.2123   74.0424 H   0  0  0  0  0
   21.8150   13.1775   78.6573 H   0  0  0  0  0
   20.0696   11.8913   79.8882 H   0  0  0  0  0
   18.1010    9.4095   78.1305 H   0  0  0  0  0
   18.3129    9.1764   76.8209 H   0  0  0  0  0
  1  2  1  0  0  0
  2  3  1  0  0  0
  3  4  1  0  0  0
  4  5  1  0  0  0
  5  6  2  0  0  0
  5 11  1  0  0  0
  6  7  1  0  0  0
  7  8  2  0  0  0
  7  9  1  0  0  0
  9 10  1  0  0  0
 10 11  4  0  0  0
 10 16  4  0  0  0
 11 12  4  0  0  0
 12 13  4  0  0  0
 13 14  4  0  0  0
 14 15  1  0  0  0
 14 16  4  0  0  0
 16 17  1  0  0  0
  1 18  1  0  0  0
  1 19  1  0  0  0
  1 20  1  0  0  0
  2 21  1  0  0  0
  2 22  1  0  0  0
  3 23  1  0  0  0
  3 24  1  0  0  0
  4 25  1  0  0  0
  4 26  1  0  0  0
  6 27  1  0  0  0
 12 28  1  0  0  0
 13 29  1  0  0  0
 15 30  1  0  0  0
 17 31  1  0  0  0
M  END
$$$$
