2wbb_ligand
  -I-interpret- 

 30 31  0  0  0  0  0  0  0  0999 V2000
    5.1960  -15.5910    7.9160 C   0  0  0  0  0
    5.3350  -14.4510    7.1410 C   0  0  0  0  0
    4.6950  -16.7500   10.0740 C   0  0  0  0  0
    4.8350  -15.4950    9.2570 C   0  0  0  0  0
    7.4780  -10.8590    7.5200 C   0  0  0  0  0
    6.9980  -10.3970    8.5390 O   0  0  0  0  0
    8.7720  -10.6900    7.2190 N   0  0  0  0  0
    9.5840   -9.9180    7.9450 C   0  0  0  0  0
    4.7650  -12.0650    5.4910 O   0  0  0  0  0
   11.2170   -8.4600    8.3020 C   0  0  0  0  0
   10.6300   -8.6020    9.5140 C   0  0  0  0  0
    4.7120  -13.0970    9.0540 C   0  0  0  0  0
    4.5450  -10.7830    7.3600 O   0  0  0  0  0
   11.2740   -7.6460   11.0690 Br  0  0  0  0  0
    9.3990   -9.5990    9.4930 S   0  0  0  0  0
   10.5840   -9.2110    7.4210 N   0  0  0  0  0
    6.7500  -11.5770    6.6700 N   0  0  0  0  0
    5.2650  -11.8960    6.8220 S   0  0  0  0  0
    5.0840  -13.2030    7.7110 C   0  0  0  0  0
    4.5880  -14.2450    9.8300 C   0  0  0  0  0
    5.3707  -16.5710    7.4721 H   0  0  0  0  0
    5.6374  -14.5286    6.0967 H   0  0  0  0  0
    3.9281  -17.3861    9.6320 H   0  0  0  0  0
    5.6465  -17.2815   10.0871 H   0  0  0  0  0
    4.4092  -16.4887   11.0929 H   0  0  0  0  0
    9.1521  -11.1699    6.4031 H   0  0  0  0  0
   12.0769   -7.8253    8.0880 H   0  0  0  0  0
    4.5196  -12.1177    9.4922 H   0  0  0  0  0
    7.2244  -11.9462    5.8459 H   0  0  0  0  0
    4.2999  -14.1697   10.8785 H   0  0  0  0  0
  2  1  4  0  0  0
  1  4  4  0  0  0
 19  2  4  0  0  0
  4  3  1  0  0  0
 20  4  4  0  0  0
  5  6  2  0  0  0
  5  7  1  0  0  0
 17  5  1  0  0  0
  7  8  1  0  0  0
  8 15  4  0  0  0
  8 16  4  0  0  0
 18  9  2  0  0  0
 10 11  4  0  0  0
 16 10  4  0  0  0
 11 14  1  0  0  0
 15 11  4  0  0  0
 19 12  4  0  0  0
 12 20  4  0  0  0
 18 13  2  0  0  0
 18 17  1  0  0  0
 18 19  1  0  0  0
  1 21  1  0  0  0
  2 22  1  0  0  0
  3 23  1  0  0  0
  3 24  1  0  0  0
  3 25  1  0  0  0
  7 26  1  0  0  0
 10 27  1  0  0  0
 12 28  1  0  0  0
 17 29  1  0  0  0
 20 30  1  0  0  0
M  END
$$$$
