2z1w_ligand
  -I-interpret- 

 26 27  0  0  0  0  0  0  0  0999 V2000
   15.3260   16.8160   20.5860 N   0  0  0  0  0
   16.4920   17.0800   19.9530 C   0  0  0  0  0
   16.6780   17.0770   18.4640 C   0  0  0  0  0
   16.4440   18.4620   17.8730 C   0  0  0  0  0
   16.6170   18.3760   16.3400 C   0  0  0  0  0
   16.2990   19.7140   15.7300 C   0  0  0  0  0
   17.4820   17.3890   20.7740 N   0  0  0  0  0
   16.9880   17.3380   22.0080 C   0  0  0  0  0
   17.6070   17.5830   23.3510 C   0  0  0  0  0
   16.7740   17.4320   24.3990 N   0  0  0  0  0
   15.4090   17.0720   24.3030 N   0  0  0  0  0
   14.7680   16.8290   23.1140 C   0  0  0  0  0
   13.6020   16.5220   23.0620 O   0  0  0  0  0
   15.5740   16.9620   21.8890 C   0  0  0  0  0
   18.8010   17.8980   23.4150 O   0  0  0  0  0
   15.9569   16.3869   18.0260 H   0  0  0  0  0
   17.7016   16.7743   18.2431 H   0  0  0  0  0
   17.1604   19.1702   18.2893 H   0  0  0  0  0
   15.4382   18.8051   18.1154 H   0  0  0  0  0
   15.9417   17.6209   15.9376 H   0  0  0  0  0
   17.6447   18.1010   16.1029 H   0  0  0  0  0
   15.2704   19.9851   15.9679 H   0  0  0  0  0
   16.9769   20.4662   16.1335 H   0  0  0  0  0
   16.4201   19.6567   14.6483 H   0  0  0  0  0
   17.1560   17.5890   25.3317 H   0  0  0  0  0
   14.8713   16.9884   25.1657 H   0  0  0  0  0
  1  2  4  0  0  0
  1 14  4  0  0  0
  2  3  1  0  0  0
  2  7  4  0  0  0
  3  4  1  0  0  0
  4  5  1  0  0  0
  5  6  1  0  0  0
  7  8  4  0  0  0
  8  9  1  0  0  0
  8 14  4  0  0  0
  9 10  1  0  0  0
  9 15  2  0  0  0
 10 11  1  0  0  0
 11 12  1  0  0  0
 12 13  2  0  0  0
 12 14  1  0  0  0
  3 16  1  0  0  0
  3 17  1  0  0  0
  4 18  1  0  0  0
  4 19  1  0  0  0
  5 20  1  0  0  0
  5 21  1  0  0  0
  6 22  1  0  0  0
  6 23  1  0  0  0
  6 24  1  0  0  0
 10 25  1  0  0  0
 11 26  1  0  0  0
M  END
$$$$
