5l13_ligand
  -I-interpret- 

 38 40  0  0  0  0  0  0  0  0999 V2000
   91.6310   44.4930   40.3150 C   0  0  0  0  0
   91.1230   42.8460   42.1450 C   0  0  0  0  0
   87.4510   43.4300   41.7970 C   0  0  0  0  0
   93.9000   44.9270   39.6740 C   0  0  0  0  0
   93.4880   43.2470   41.5020 C   0  0  0  0  0
   95.9420   43.7820   40.7330 C   0  0  0  0  0
   96.3570   42.8580   39.5980 C   0  0  0  0  0
   97.6740   42.1880   39.8940 C   0  0  0  0  0
   94.7210   45.5360   38.9740 O   0  0  0  0  0
   92.5480   45.1420   39.5300 O   0  0  0  0  0
   94.4380   43.9740   40.6510 C   0  0  0  0  0
   93.9570   42.2640   42.5340 C   0  0  0  0  0
   92.0510   43.5090   41.3430 C   0  0  0  0  0
   89.7960   43.1270   41.9440 C   0  0  0  0  0
   88.5000   42.6720   42.5350 C   0  0  0  0  0
   88.5050   41.6500   43.6470 C   0  0  0  0  0
   85.9580   43.5120   41.8540 C   0  0  0  0  0
   88.0600   44.2390   40.8800 O   0  0  0  0  0
   89.3660   44.1000   40.9320 C   0  0  0  0  0
   90.2850   44.7680   40.1410 C   0  0  0  0  0
   91.4406   42.1308   42.9037 H   0  0  0  0  0
   96.4508   44.7418   40.6441 H   0  0  0  0  0
   96.2155   43.3464   41.6940 H   0  0  0  0  0
   96.4646   43.4501   38.6892 H   0  0  0  0  0
   95.5942   42.0884   39.4795 H   0  0  0  0  0
   98.4452   42.9472   40.0246 H   0  0  0  0  0
   97.5836   41.5993   40.8069 H   0  0  0  0  0
   97.9425   41.5346   39.0639 H   0  0  0  0  0
   94.5170   41.4663   42.0460 H   0  0  0  0  0
   94.5987   42.7727   43.2533 H   0  0  0  0  0
   93.0947   41.8414   43.0497 H   0  0  0  0  0
   88.0429   42.0797   44.5358 H   0  0  0  0  0
   87.9430   40.7704   43.3329 H   0  0  0  0  0
   89.5327   41.3649   43.8721 H   0  0  0  0  0
   85.5335   42.5278   41.6556 H   0  0  0  0  0
   85.6514   43.8484   42.8444 H   0  0  0  0  0
   85.6053   44.2192   41.1033 H   0  0  0  0  0
   89.9564   45.4944   39.3977 H   0  0  0  0  0
  1 10  1  0  0  0
 13  1  4  0  0  0
  1 20  4  0  0  0
  2 13  4  0  0  0
 14  2  4  0  0  0
 15  3  4  0  0  0
  3 17  1  0  0  0
  3 18  4  0  0  0
  4  9  2  0  0  0
 10  4  1  0  0  0
 11  4  1  0  0  0
  5 11  2  0  0  0
  5 12  1  0  0  0
 13  5  1  0  0  0
  6  7  1  0  0  0
 11  6  1  0  0  0
  7  8  1  0  0  0
 14 15  4  0  0  0
 14 19  4  0  0  0
 15 16  1  0  0  0
 18 19  4  0  0  0
 19 20  4  0  0  0
  2 21  1  0  0  0
  6 22  1  0  0  0
  6 23  1  0  0  0
  7 24  1  0  0  0
  7 25  1  0  0  0
  8 26  1  0  0  0
  8 27  1  0  0  0
  8 28  1  0  0  0
 12 29  1  0  0  0
 12 30  1  0  0  0
 12 31  1  0  0  0
 16 32  1  0  0  0
 16 33  1  0  0  0
 16 34  1  0  0  0
 17 35  1  0  0  0
 17 36  1  0  0  0
 17 37  1  0  0  0
 20 38  1  0  0  0
M  END
$$$$
