1ywi_ligand
  -I-interpret- 

 93 97  0  0  0  0  0  0  0  0999 V2000
   -2.4660   10.0450   -7.5850 N   0  3  0  0  0
   -1.6270    9.0570   -6.9070 C   0  0  0  0  0
   -1.9070    9.0060   -5.4060 C   0  0  0  0  0
   -2.2610   10.0180   -4.8020 O   0  0  0  0  0
   -0.1920    9.5490   -7.1610 C   0  0  0  0  0
   -0.3130   10.7200   -8.0880 C   0  0  0  0  0
   -1.7050   11.2540   -7.9150 C   0  0  0  0  0
   -1.7470    7.8220   -4.7800 N   0  0  0  0  0
   -1.9950    7.6490   -3.3460 C   0  0  0  0  0
   -0.8520    8.1750   -2.4800 C   0  0  0  0  0
    0.3110    8.1340   -2.8870 O   0  0  0  0  0
   -2.1140    6.1370   -3.2030 C   0  0  0  0  0
   -1.2280    5.5920   -4.2670 C   0  0  0  0  0
   -1.3160    6.5600   -5.4170 C   0  0  0  0  0
   -1.1640    8.6660   -1.2630 N   0  0  0  0  0
   -0.1630    9.2000   -0.3440 C   0  0  0  0  0
    0.6040    8.0930    0.3660 C   0  0  0  0  0
    0.0640    7.0160    0.6190 O   0  0  0  0  0
   -0.9820   10.0130    0.6730 C   0  0  0  0  0
   -2.4100    9.9240    0.2270 C   0  0  0  0  0
   -2.5070    8.7290   -0.6760 C   0  0  0  0  0
    1.8650    8.3610    0.6810 N   0  0  0  0  0
    2.7000    7.3810    1.3620 C   0  0  0  0  0
    2.3760    7.3390    2.8600 C   0  0  0  0  0
    2.0410    8.3650    3.4540 O   0  0  0  0  0
    4.1710    7.7550    1.1450 C   0  0  0  0  0
    5.1960    6.9520    1.9400 C   0  0  0  0  0
    5.5460    5.6810    1.1980 C   0  0  0  0  0
    6.4420    7.7870    2.1930 C   0  0  0  0  0
    2.4720    6.1510    3.4940 N   0  0  0  0  0
    2.2180    5.9870    4.9230 C   0  0  0  0  0
    3.4150    6.4270    5.7630 C   0  0  0  0  0
    4.5560    6.3260    5.3150 O   0  0  0  0  0
    1.9640    4.4820    5.0950 C   0  0  0  0  0
    2.0660    3.8800    3.7270 C   0  0  0  0  0
    2.8100    4.8660    2.8760 C   0  0  0  0  0
    3.1790    6.9280    6.9880 N   0  0  0  0  0
    4.2610    7.3640    7.8740 C   0  0  0  0  0
    5.1050    6.1910    8.3670 C   0  0  0  0  0
    6.0880    5.8440    7.6780 O   0  0  0  0  0
    3.5340    8.0350    9.0520 C   0  0  0  0  0
    2.1230    8.2170    8.5990 C   0  0  0  0  0
    1.8610    7.1240    7.6070 C   0  0  0  0  0
    4.7760    5.6290    9.4320 O   0  0  0  0  0
   -3.2313   10.3031   -6.9621 H   0  0  0  0  0
   -2.8151    9.6347   -8.4511 H   0  0  0  0  0
   -1.8116    8.0488   -7.2779 H   0  0  0  0  0
    0.4229    8.7622   -7.5980 H   0  0  0  0  0
    0.2981    9.8326   -6.2296 H   0  0  0  0  0
   -0.1336   10.4218   -9.1210 H   0  0  0  0  0
    0.4305   11.4822   -7.8550 H   0  0  0  0  0
   -1.7753   12.0268   -7.1495 H   0  0  0  0  0
   -2.0798   11.7678   -8.8002 H   0  0  0  0  0
   -2.8728    8.2033   -3.0138 H   0  0  0  0  0
   -3.1433    5.7957   -3.3135 H   0  0  0  0  0
   -1.8189    5.7957   -2.2108 H   0  0  0  0  0
   -1.5414    4.5923   -4.5678 H   0  0  0  0  0
   -0.2019    5.4918   -3.9132 H   0  0  0  0  0
   -0.3691    6.6637   -5.9468 H   0  0  0  0  0
   -2.0088    6.2262   -6.1895 H   0  0  0  0  0
    0.5873    9.7928   -0.8672 H   0  0  0  0  0
   -0.6457   11.0492    0.7096 H   0  0  0  0  0
   -0.8600    9.6177    1.6814 H   0  0  0  0  0
   -2.7103   10.8316   -0.2967 H   0  0  0  0  0
   -3.0779    9.8195    1.0821 H   0  0  0  0  0
   -2.7864    7.8166   -0.1491 H   0  0  0  0  0
   -3.2959    8.8203   -1.4226 H   0  0  0  0  0
    2.2573    9.2715    0.4414 H   0  0  0  0  0
    2.5052    6.3900    0.9520 H   0  0  0  0  0
    4.2734    8.7890    1.4743 H   0  0  0  0  0
    4.3820    7.5606    0.0934 H   0  0  0  0  0
    4.7641    6.6838    2.9042 H   0  0  0  0  0
    4.6460    5.0810    1.0630 H   0  0  0  0  0
    5.9650    5.9340    0.2241 H   0  0  0  0  0
    6.2783    5.1154    1.7741 H   0  0  0  0  0
    6.8814    8.0799    1.2394 H   0  0  0  0  0
    6.1717    8.6784    2.7590 H   0  0  0  0  0
    7.1627    7.1989    2.7612 H   0  0  0  0  0
    1.3806    6.5994    5.2573 H   0  0  0  0  0
    0.9830    4.2973    5.5327 H   0  0  0  0  0
    2.6905    4.0367    5.7747 H   0  0  0  0  0
    1.0764    3.6811    3.3156 H   0  0  0  0  0
    2.5892    2.9244    3.7614 H   0  0  0  0  0
    3.8833    4.6779    2.8498 H   0  0  0  0  0
    2.5287    4.8148    1.8242 H   0  0  0  0  0
    4.9567    8.0294    7.3628 H   0  0  0  0  0
    6.1528    6.4114    6.9063 H   0  0  0  0  0
    3.9947    8.9871    9.3154 H   0  0  0  0  0
    3.5882    7.4255    9.9540 H   0  0  0  0  0
    1.9768    9.1996    8.1504 H   0  0  0  0  0
    1.4296    8.1620    9.4382 H   0  0  0  0  0
    1.4678    6.2173    8.0668 H   0  0  0  0  0
    1.0859    7.3814    6.8851 H   0  0  0  0  0
  1  2  1  0  0  0
  1  7  1  0  0  0
  2  3  1  0  0  0
  2  5  1  0  0  0
  3  4  2  0  0  0
  3  8  1  0  0  0
  5  6  1  0  0  0
  6  7  1  0  0  0
  8  9  1  0  0  0
  8 14  1  0  0  0
  9 10  1  0  0  0
  9 12  1  0  0  0
 10 11  2  0  0  0
 10 15  1  0  0  0
 12 13  1  0  0  0
 13 14  1  0  0  0
 15 16  1  0  0  0
 15 21  1  0  0  0
 16 17  1  0  0  0
 16 19  1  0  0  0
 17 18  2  0  0  0
 17 22  1  0  0  0
 19 20  1  0  0  0
 20 21  1  0  0  0
 22 23  1  0  0  0
 23 24  1  0  0  0
 23 26  1  0  0  0
 24 25  2  0  0  0
 24 30  1  0  0  0
 26 27  1  0  0  0
 27 28  1  0  0  0
 27 29  1  0  0  0
 30 31  1  0  0  0
 30 36  1  0  0  0
 31 32  1  0  0  0
 31 34  1  0  0  0
 32 33  2  0  0  0
 32 37  1  0  0  0
 34 35  1  0  0  0
 35 36  1  0  0  0
 37 38  1  0  0  0
 37 43  1  0  0  0
 38 39  1  0  0  0
 38 41  1  0  0  0
 39 40  1  0  0  0
 39 44  2  0  0  0
 41 42  1  0  0  0
 42 43  1  0  0  0
  1 45  1  0  0  0
  1 46  1  0  0  0
  2 47  1  0  0  0
  5 48  1  0  0  0
  5 49  1  0  0  0
  6 50  1  0  0  0
  6 51  1  0  0  0
  7 52  1  0  0  0
  7 53  1  0  0  0
  9 54  1  0  0  0
 12 55  1  0  0  0
 12 56  1  0  0  0
 13 57  1  0  0  0
 13 58  1  0  0  0
 14 59  1  0  0  0
 14 60  1  0  0  0
 16 61  1  0  0  0
 19 62  1  0  0  0
 19 63  1  0  0  0
 20 64  1  0  0  0
 20 65  1  0  0  0
 21 66  1  0  0  0
 21 67  1  0  0  0
 22 68  1  0  0  0
 23 69  1  0  0  0
 26 70  1  0  0  0
 26 71  1  0  0  0
 27 72  1  0  0  0
 28 73  1  0  0  0
 28 74  1  0  0  0
 28 75  1  0  0  0
 29 76  1  0  0  0
 29 77  1  0  0  0
 29 78  1  0  0  0
 31 79  1  0  0  0
 34 80  1  0  0  0
 34 81  1  0  0  0
 35 82  1  0  0  0
 35 83  1  0  0  0
 36 84  1  0  0  0
 36 85  1  0  0  0
 38 86  1  0  0  0
 40 87  1  0  0  0
 41 88  1  0  0  0
 41 89  1  0  0  0
 42 90  1  0  0  0
 42 91  1  0  0  0
 43 92  1  0  0  0
 43 93  1  0  0  0
M  END
$$$$
