4qsm_ligand
  -I-interpret- 

 53 56  0  0  0  0  0  0  0  0999 V2000
   64.2600  -21.4980  -42.4130 O   0  0  0  0  0
   64.0730  -20.2020  -43.1070 S   0  0  0  0  0
   64.4640  -19.0010  -42.3380 O   0  0  0  0  0
   62.6130  -19.9140  -43.3600 N   0  0  0  0  0
   64.9560  -20.2000  -44.4770 C   0  0  0  0  0
   64.8070  -21.1490  -45.5170 C   0  0  0  0  0
   63.7680  -22.0520  -45.4320 N   0  0  0  0  0
   62.8930  -22.4150  -46.4110 C   0  0  0  0  0
   62.3990  -23.7260  -46.3910 C   0  0  0  0  0
   62.5650  -21.6250  -47.5000 C   0  0  0  0  0
   61.8030  -22.1500  -48.5520 C   0  0  0  0  0
   61.3350  -23.4620  -48.5150 C   0  0  0  0  0
   61.6320  -24.2470  -47.4310 C   0  0  0  0  0
   61.1440  -25.6510  -47.3780 C   0  0  0  0  0
   59.9300  -25.8930  -47.2850 O   0  0  0  0  0
   61.9960  -26.5570  -47.4060 O   0  0  0  0  0
   65.8790  -19.1500  -44.6230 C   0  0  0  0  0
   66.6200  -19.0180  -45.7170 N   0  0  0  0  0
   66.5190  -19.8910  -46.7370 C   0  0  0  0  0
   65.6220  -20.9680  -46.6640 C   0  0  0  0  0
   67.3400  -19.6860  -47.8560 C   0  0  0  0  0
   67.2960  -20.5320  -48.9600 C   0  0  0  0  0
   66.4280  -21.6100  -48.8860 C   0  0  0  0  0
   65.6120  -21.8280  -47.7690 C   0  0  0  0  0
   68.1940  -20.3020  -50.1560 C   0  0  0  0  0
   69.0030  -21.3260  -50.6510 C   0  0  0  0  0
   69.0080  -22.5840  -50.0800 O   0  0  0  0  0
   69.3530  -23.7560  -50.8270 C   0  0  0  0  0
   69.8030  -21.0960  -51.7070 N   0  0  0  0  0
   69.8530  -19.8860  -52.3040 C   0  0  0  0  0
   70.7180  -19.7210  -53.3790 O   0  0  0  0  0
   72.0480  -20.2940  -53.4230 C   0  0  0  0  0
   69.0770  -18.8660  -51.8370 N   0  0  0  0  0
   68.2570  -19.0540  -50.7930 C   0  0  0  0  0
   61.9021  -20.5807  -43.0592 H   0  0  0  0  0
   62.3374  -19.0527  -43.8318 H   0  0  0  0  0
   63.6391  -22.5028  -44.5261 H   0  0  0  0  0
   62.6223  -24.3598  -45.5328 H   0  0  0  0  0
   62.9015  -20.5890  -47.5390 H   0  0  0  0  0
   61.5727  -21.5223  -49.4129 H   0  0  0  0  0
   60.7403  -23.8592  -49.3376 H   0  0  0  0  0
   62.8712  -26.1695  -47.4804 H   0  0  0  0  0
   65.9894  -18.4248  -43.8168 H   0  0  0  0  0
   68.0301  -18.8423  -47.8608 H   0  0  0  0  0
   66.3791  -22.3084  -49.7215 H   0  0  0  0  0
   64.9491  -22.6932  -47.7594 H   0  0  0  0  0
   68.6613  -23.8700  -51.6617 H   0  0  0  0  0
   70.3698  -23.6569  -51.2070 H   0  0  0  0  0
   69.2896  -24.6301  -50.1789 H   0  0  0  0  0
   72.6364  -19.9076  -52.5908 H   0  0  0  0  0
   71.9775  -21.3790  -53.3469 H   0  0  0  0  0
   72.5272  -20.0249  -54.3643 H   0  0  0  0  0
   67.6357  -18.2321  -50.4372 H   0  0  0  0  0
  1  2  2  0  0  0
  2  3  2  0  0  0
  2  4  1  0  0  0
  2  5  1  0  0  0
  5  6  4  0  0  0
  5 17  4  0  0  0
  6  7  1  0  0  0
  6 20  4  0  0  0
  7  8  1  0  0  0
  8  9  4  0  0  0
  8 10  4  0  0  0
  9 13  4  0  0  0
 10 11  4  0  0  0
 11 12  4  0  0  0
 12 13  4  0  0  0
 13 14  1  0  0  0
 14 15  2  0  0  0
 14 16  1  0  0  0
 17 18  4  0  0  0
 18 19  4  0  0  0
 19 20  4  0  0  0
 19 21  4  0  0  0
 20 24  4  0  0  0
 21 22  4  0  0  0
 22 23  4  0  0  0
 22 25  1  0  0  0
 23 24  4  0  0  0
 25 26  4  0  0  0
 25 34  4  0  0  0
 26 27  1  0  0  0
 26 29  4  0  0  0
 27 28  1  0  0  0
 29 30  4  0  0  0
 30 31  1  0  0  0
 30 33  4  0  0  0
 31 32  1  0  0  0
 33 34  4  0  0  0
  4 35  1  0  0  0
  4 36  1  0  0  0
  7 37  1  0  0  0
  9 38  1  0  0  0
 10 39  1  0  0  0
 11 40  1  0  0  0
 12 41  1  0  0  0
 16 42  1  0  0  0
 17 43  1  0  0  0
 21 44  1  0  0  0
 23 45  1  0  0  0
 24 46  1  0  0  0
 28 47  1  0  0  0
 28 48  1  0  0  0
 28 49  1  0  0  0
 32 50  1  0  0  0
 32 51  1  0  0  0
 32 52  1  0  0  0
 34 53  1  0  0  0
M  END
$$$$
