### 
### Created by X-TOOL on Mon Sep 10 21:13:17 2018
### 

@<TRIPOS>MOLECULE
4qsm_ligand
   52    55     1     0     0
SMALL
GAST_HUCK


@<TRIPOS>ATOM
      1 O30        64.2600  -21.4980  -42.4130 O.2       1 38K        -0.1524
      2 S28        64.0730  -20.2020  -43.1070 S.o2      1 38K         0.0659
      3 O29        64.4640  -19.0010  -42.3380 O.2       1 38K        -0.1524
      4 N31        62.6130  -19.9140  -43.3600 N.am      1 38K        -0.2625
      5 C10        64.9560  -20.2000  -44.4770 C.ar      1 38K         0.1547
      6 C9         64.8070  -21.1490  -45.5170 C.ar      1 38K         0.1169
      7 N8         63.7680  -22.0520  -45.4320 N.pl3     1 38K        -0.2594
      8 C4         62.8930  -22.4150  -46.4110 C.ar      1 38K         0.0679
      9 C3         62.3990  -23.7260  -46.3910 C.ar      1 38K        -0.0238
     10 C5         62.5650  -21.6250  -47.5000 C.ar      1 38K        -0.0353
     11 C6         61.8030  -22.1500  -48.5520 C.ar      1 38K        -0.0677
     12 C7         61.3350  -23.4620  -48.5150 C.ar      1 38K        -0.0591
     13 C2         61.6320  -24.2470  -47.4310 C.ar      1 38K         0.0008
     14 C1         61.1440  -25.6510  -47.3780 C.2       1 38K         0.0603
     15 O47        59.9300  -25.8930  -47.2850 O.co2     1 38K        -0.5608
     16 O49        61.9960  -26.5570  -47.4060 O.co2     1 38K        -0.5608
     17 C11        65.8790  -19.1500  -44.6230 C.ar      1 38K         0.0162
     18 N12        66.6200  -19.0180  -45.7170 N.ar      1 38K        -0.3197
     19 C13        66.5190  -19.8910  -46.7370 C.ar      1 38K         0.0298
     20 C14        65.6220  -20.9680  -46.6640 C.ar      1 38K         0.0350
     21 C18        67.3400  -19.6860  -47.8560 C.ar      1 38K        -0.0417
     22 C17        67.2960  -20.5320  -48.9600 C.ar      1 38K        -0.0139
     23 C16        66.4280  -21.6100  -48.8860 C.ar      1 38K        -0.0534
     24 C15        65.6120  -21.8280  -47.7690 C.ar      1 38K        -0.0474
     25 C19        68.1940  -20.3020  -50.1560 C.ar      1 38K         0.0554
     26 C20        69.0030  -21.3260  -50.6510 C.ar      1 38K         0.1825
     27 O24        69.0080  -22.5840  -50.0800 O.3       1 38K        -0.2928
     28 C25        69.3530  -23.7560  -50.8270 C.3       1 38K         0.0669
     29 N25        69.8030  -21.0960  -51.7070 N.ar      1 38K        -0.2141
     30 C21        69.8530  -19.8860  -52.3040 C.ar      1 38K         0.2365
     31 O26        70.7180  -19.7210  -53.3790 O.3       1 38K        -0.2822
     32 C27        72.0480  -20.2940  -53.4230 C.3       1 38K         0.0682
     33 N22        69.0770  -18.8660  -51.8370 N.ar      1 38K        -0.2552
     34 C23        68.2570  -19.0540  -50.7930 C.ar      1 38K         0.0169
     35 H          62.0565  -20.5664  -43.8746 H         1 38K         0.1633
     36 H          62.2022  -19.0708  -43.0130 H         1 38K         0.1633
     37 H          63.6378  -22.5072  -44.5173 H         1 38K         0.2170
     38 H          62.6211  -24.3563  -45.5375 H         1 38K         0.0571
     39 H          62.8997  -20.5947  -47.5388 H         1 38K         0.0559
     40 H          61.5739  -21.5258  -49.4081 H         1 38K         0.0595
     41 H          60.7435  -23.8570  -49.3331 H         1 38K         0.0554
     42 H          65.9888  -18.4288  -43.8212 H         1 38K         0.0821
     43 H          68.0263  -18.8470  -47.8607 H         1 38K         0.0590
     44 H          66.3794  -22.3045  -49.7169 H         1 38K         0.0604
     45 H          64.9527  -22.6884  -47.7595 H         1 38K         0.0654
     46 H          69.2894  -24.6389  -50.1740 H         1 38K         0.0591
     47 H          70.3790  -23.6572  -51.2111 H         1 38K         0.0591
     48 H          68.6556  -23.8722  -51.6697 H         1 38K         0.0591
     49 H          72.5327  -20.0231  -54.3726 H         1 38K         0.0591
     50 H          71.9782  -21.3891  -53.3463 H         1 38K         0.0591
     51 H          72.6429  -19.9048  -52.5836 H         1 38K         0.0591
     52 H          67.6391  -18.2367  -50.4392 H         1 38K         0.0876
@<TRIPOS>BOND
     1    1    2 2  
     2    2    3 2  
     3    2    4 am 
     4    2    5 1  
     5    5    6 ar 
     6    5   17 ar 
     7    6    7 1  
     8    6   20 ar 
     9    7    8 1  
    10    8    9 ar 
    11    8   10 ar 
    12    9   13 ar 
    13   10   11 ar 
    14   11   12 ar 
    15   12   13 ar 
    16   13   14 1  
    17   14   15 ar 
    18   14   16 ar 
    19   17   18 ar 
    20   18   19 ar 
    21   19   20 ar 
    22   19   21 ar 
    23   20   24 ar 
    24   21   22 ar 
    25   22   23 ar 
    26   22   25 1  
    27   23   24 ar 
    28   25   26 ar 
    29   25   34 ar 
    30   26   27 1  
    31   26   29 ar 
    32   27   28 1  
    33   29   30 ar 
    34   30   31 1  
    35   30   33 ar 
    36   31   32 1  
    37   33   34 ar 
    38    4   35 1  
    39    4   36 1  
    40    7   37 1  
    41    9   38 1  
    42   10   39 1  
    43   11   40 1  
    44   12   41 1  
    45   17   42 1  
    46   21   43 1  
    47   23   44 1  
    48   24   45 1  
    49   28   46 1  
    50   28   47 1  
    51   28   48 1  
    52   32   49 1  
    53   32   50 1  
    54   32   51 1  
    55   34   52 1  
@<TRIPOS>SUBSTRUCTURE
     1 38K         1

