5t18_ligand
  -I-interpret- 

 71 76  0  0  0  0  0  0  0  0999 V2000
    6.4470  -14.3660   -4.4500 C   0  0  0  0  0
    6.9920  -12.1990   -1.9470 C   0  0  0  0  0
    1.2090  -12.7520   -1.4180 C   0  0  0  0  0
    7.7530  -13.1520   -1.2620 C   0  0  0  0  0
    9.1720  -13.0850   -1.3430 C   0  0  0  0  0
    9.7890  -12.0890   -2.0370 C   0  0  0  0  0
    8.9940  -11.1330   -2.7040 C   0  0  0  0  0
    7.5860  -11.1830   -2.6640 C   0  0  0  0  0
    5.2580  -16.2720   -5.6080 C   0  0  0  0  0
    6.1660  -15.0550   -5.7660 C   0  0  0  0  0
   10.7720   -9.3460   -6.8470 C   0  0  0  0  0
   11.3920   -8.3050   -7.5340 C   0  0  0  0  0
    3.3740  -13.3320   -2.5050 C   0  0  0  0  0
    4.8080  -13.2240   -2.7320 C   0  0  0  0  0
    5.5210  -12.3640   -1.9080 C   0  0  0  0  0
    4.7840  -11.6280   -0.9500 C   0  0  0  0  0
    3.4200  -11.7060   -0.7550 C   0  0  0  0  0
    2.6720  -12.6030   -1.5480 C   0  0  0  0  0
    2.8760  -14.2670   -3.4020 N   0  0  0  0  0
    3.9790  -14.7410   -4.1490 C   0  0  0  0  0
    5.1500  -14.0970   -3.7630 C   0  0  0  0  0
    3.8690  -15.7880   -5.1820 C   0  0  0  0  0
    5.2360  -17.1840   -6.8510 C   0  0  0  0  0
    0.6550  -13.7620   -1.9160 O   0  0  0  0  0
    0.4730  -11.9430   -0.6660 N   0  0  0  0  0
    6.5650  -17.7660   -6.9640 O   0  0  0  0  0
    9.6760  -10.0950   -3.4300 N   0  0  0  0  0
   10.0940   -8.9900   -2.6710 C   0  0  0  0  0
   10.8080   -7.9790   -3.3800 N   0  0  0  0  0
   10.9640   -8.0330   -4.7580 C   0  0  0  0  0
   10.5520   -9.2000   -5.4760 C   0  0  0  0  0
    9.8850  -10.3020   -4.7750 C   0  0  0  0  0
   11.5880   -6.9990   -5.5270 C   0  0  0  0  0
   11.7990   -7.1680   -6.8860 C   0  0  0  0  0
   11.9230   -5.8520   -4.9850 F   0  0  0  0  0
    9.9030   -8.8900   -1.4870 O   0  0  0  0  0
    9.5320  -11.3530   -5.2960 O   0  0  0  0  0
    5.4330  -10.7340   -0.1540 F   0  0  0  0  0
    4.2620  -18.3410   -6.6820 C   0  0  0  0  0
    4.9350  -16.4190   -8.1310 C   0  0  0  0  0
    6.7530  -10.1320   -3.3530 C   0  0  0  0  0
   11.4520   -6.9370   -2.5720 C   0  0  0  0  0
    6.9725  -13.4279   -4.6285 H   0  0  0  0  0
    7.0715  -15.0039   -3.8245 H   0  0  0  0  0
    7.2674  -13.9325   -0.6763 H   0  0  0  0  0
    9.7744  -13.8426   -0.8418 H   0  0  0  0  0
   10.8768  -12.0314   -2.0765 H   0  0  0  0  0
    5.6616  -16.9169   -4.8274 H   0  0  0  0  0
    7.1165  -15.3962   -6.1762 H   0  0  0  0  0
    5.6612  -14.3417   -6.4175 H   0  0  0  0  0
   10.4657  -10.2534   -7.3675 H   0  0  0  0  0
   11.5567   -8.3964   -8.6076 H   0  0  0  0  0
    2.9298  -11.0871   -0.0034 H   0  0  0  0  0
    3.3112  -16.6305   -4.7733 H   0  0  0  0  0
    3.3569  -15.3747   -6.0509 H   0  0  0  0  0
   -0.5130  -12.1507   -0.5074 H   0  0  0  0  0
    0.8934  -11.1136   -0.2467 H   0  0  0  0  0
    6.5958  -18.3444   -7.7296 H   0  0  0  0  0
   12.2986   -6.3810   -7.4509 H   0  0  0  0  0
    4.5576  -18.9403   -5.8208 H   0  0  0  0  0
    3.2572  -17.9485   -6.5255 H   0  0  0  0  0
    4.2760  -18.9600   -7.5791 H   0  0  0  0  0
    3.9583  -15.9425   -8.0468 H   0  0  0  0  0
    5.6998  -15.6580   -8.2863 H   0  0  0  0  0
    4.9320  -17.1103   -8.9737 H   0  0  0  0  0
    6.0980  -10.6095   -4.0818 H   0  0  0  0  0
    6.1515   -9.6042   -2.6129 H   0  0  0  0  0
    7.4094   -9.4252   -3.8607 H   0  0  0  0  0
   10.6956   -6.4121   -1.9885 H   0  0  0  0  0
   12.1770   -7.3963   -1.9001 H   0  0  0  0  0
   11.9600   -6.2314   -3.2293 H   0  0  0  0  0
  1 10  1  0  0  0
 21  1  1  0  0  0
  2  4  4  0  0  0
  8  2  4  0  0  0
  2 15  1  0  0  0
 18  3  1  0  0  0
  3 24  2  0  0  0
  3 25  1  0  0  0
  5  4  4  0  0  0
  6  5  4  0  0  0
  7  6  4  0  0  0
  7  8  4  0  0  0
 27  7  1  0  0  0
  8 41  1  0  0  0
 10  9  1  0  0  0
 22  9  1  0  0  0
  9 23  1  0  0  0
 11 12  4  0  0  0
 31 11  4  0  0  0
 12 34  4  0  0  0
 14 13  4  0  0  0
 13 18  4  0  0  0
 13 19  4  0  0  0
 15 14  4  0  0  0
 14 21  4  0  0  0
 15 16  4  0  0  0
 16 17  4  0  0  0
 16 38  1  0  0  0
 17 18  4  0  0  0
 20 19  4  0  0  0
 21 20  4  0  0  0
 20 22  1  0  0  0
 23 26  1  0  0  0
 23 39  1  0  0  0
 23 40  1  0  0  0
 28 27  1  0  0  0
 27 32  1  0  0  0
 29 28  1  0  0  0
 28 36  2  0  0  0
 30 29  1  0  0  0
 29 42  1  0  0  0
 30 31  4  0  0  0
 30 33  4  0  0  0
 31 32  1  0  0  0
 32 37  2  0  0  0
 33 34  4  0  0  0
 33 35  1  0  0  0
  1 43  1  0  0  0
  1 44  1  0  0  0
  4 45  1  0  0  0
  5 46  1  0  0  0
  6 47  1  0  0  0
  9 48  1  0  0  0
 10 49  1  0  0  0
 10 50  1  0  0  0
 11 51  1  0  0  0
 12 52  1  0  0  0
 17 53  1  0  0  0
 22 54  1  0  0  0
 22 55  1  0  0  0
 25 56  1  0  0  0
 25 57  1  0  0  0
 26 58  1  0  0  0
 34 59  1  0  0  0
 39 60  1  0  0  0
 39 61  1  0  0  0
 39 62  1  0  0  0
 40 63  1  0  0  0
 40 64  1  0  0  0
 40 65  1  0  0  0
 41 66  1  0  0  0
 41 67  1  0  0  0
 41 68  1  0  0  0
 42 69  1  0  0  0
 42 70  1  0  0  0
 42 71  1  0  0  0
M  END
$$$$
