4qw7_ligand
  -I-interpret- 

114116  0  0  0  0  0  0  0  0999 V2000
   59.0040 -135.4210   31.5030 C   0  0  0  0  0
   59.7030 -134.4990   31.0780 O   0  0  0  0  0
   58.6330 -136.6430   30.6420 C   0  0  0  0  0
   58.2640 -136.3380   29.2370 N   0  3  0  0  0
   58.2350 -134.9390   26.9410 O   0  0  0  0  0
   59.4550 -136.2530   28.3500 C   0  0  0  0  0
   57.3780 -135.1490   29.1090 C   0  0  0  0  0
   58.9390 -136.1680   26.9500 C   0  0  0  0  0
   57.0040 -134.9820   27.7150 C   0  0  0  0  0
   58.5110 -135.4830   32.7440 N   0  0  0  0  0
   58.7750 -134.4660   33.7620 C   0  0  0  0  0
   59.9980 -134.9380   34.5370 C   0  0  0  0  0
   60.2860 -136.1330   34.5780 O   0  0  0  0  0
   57.6190 -134.4340   34.7290 C   0  0  0  0  0
   56.8350 -133.1630   34.4570 C   0  0  0  0  0
   55.5840 -133.2390   35.1240 C   0  0  0  0  0
   54.4460 -132.7100   34.5090 C   0  0  0  0  0
   55.4410 -133.8090   36.3960 C   0  0  0  0  0
   53.2060 -132.7630   35.1380 C   0  0  0  0  0
   54.2020 -133.8640   37.0250 C   0  0  0  0  0
   53.0810 -133.3390   36.3970 C   0  0  0  0  0
   60.6760 -133.9900   35.1840 N   0  0  0  0  0
   61.8320 -134.3430   36.0100 C   0  0  0  0  0
   61.3340 -134.5390   37.4340 C   0  0  0  0  0
   60.5530 -133.7320   37.9340 O   0  0  0  0  0
   62.8340 -133.2230   36.0290 C   0  0  0  0  0
   63.5060 -133.2040   34.6440 C   0  0  0  0  0
   64.3720 -131.9430   34.5260 C   0  0  0  0  0
   64.3930 -134.4450   34.4470 C   0  0  0  0  0
   61.8030 -135.6250   38.0600 N   0  0  0  0  0
   61.4360 -135.9200   39.4500 C   0  0  0  0  0
   62.7140 -135.8880   40.2760 C   0  0  0  0  0
   63.8160 -135.9580   39.7360 O   0  0  0  0  0
   60.7710 -137.2600   39.5770 C   0  0  0  0  0
   59.4780 -137.0820   39.0700 C   0  0  0  0  0
   59.1670 -137.4800   37.7730 C   0  0  0  0  0
   58.4860 -136.5030   39.8610 C   0  0  0  0  0
   57.8800 -137.3050   37.2710 C   0  0  0  0  0
   57.2000 -136.3250   39.3600 C   0  0  0  0  0
   56.8940 -136.7280   38.0640 C   0  0  0  0  0
   62.5110 -135.7550   41.5900 N   0  0  0  0  0
   63.5940 -135.5960   42.5630 C   0  0  0  0  0
   63.3730 -134.2090   43.1350 C   0  0  0  0  0
   64.4160 -133.1520   42.6820 C   0  0  0  0  0
   63.7530 -131.7700   42.8090 C   0  0  0  0  0
   64.9520 -133.3170   41.2450 C   0  0  0  0  0
   63.4800 -136.6010   43.7280 C   0  0  0  0  0
   63.7920 -138.1390   43.4160 C   0  0  0  0  0
   64.7800 -138.2790   42.2210 C   0  0  0  0  0
   62.4960 -138.7810   42.9070 C   0  0  0  0  0
   61.8790 -139.3520   44.0780 O   0  0  0  0  0
   62.1650 -136.4710   44.2860 O   0  0  0  0  0
   57.7564 -137.0968   31.1042 H   0  0  0  0  0
   59.5181 -137.2780   30.6022 H   0  0  0  0  0
   57.7102 -137.1316   28.9147 H   0  0  0  0  0
   60.0974 -137.1245   28.4760 H   0  0  0  0  0
   60.0617 -135.3812   28.5951 H   0  0  0  0  0
   57.9050 -134.2602   29.4561 H   0  0  0  0  0
   56.4827 -135.2923   29.7140 H   0  0  0  0  0
   59.7339 -136.2037   26.2051 H   0  0  0  0  0
   58.3095 -137.0161   26.6808 H   0  0  0  0  0
   56.3724 -135.8071   27.3857 H   0  0  0  0  0
   56.4327 -134.0638   27.5784 H   0  0  0  0  0
   57.9223 -136.2778   32.9932 H   0  0  0  0  0
   58.9188 -133.4851   33.3088 H   0  0  0  0  0
   57.9805 -134.4473   35.7572 H   0  0  0  0  0
   56.9846 -135.3102   34.5953 H   0  0  0  0  0
   56.6734 -133.0535   33.3846 H   0  0  0  0  0
   57.3941 -132.3014   34.8220 H   0  0  0  0  0
   54.5309 -132.2502   33.5244 H   0  0  0  0  0
   56.3165 -134.2166   36.9015 H   0  0  0  0  0
   52.3279 -132.3507   34.6409 H   0  0  0  0  0
   54.1111 -134.3194   38.0111 H   0  0  0  0  0
   52.1086 -133.3781   36.8880 H   0  0  0  0  0
   60.3882 -133.0148   35.1032 H   0  0  0  0  0
   62.3030 -135.2399   35.6078 H   0  0  0  0  0
   63.5723 -133.3768   36.8160 H   0  0  0  0  0
   62.3466 -132.2704   36.2364 H   0  0  0  0  0
   62.7298 -133.2070   33.8788 H   0  0  0  0  0
   63.7436 -131.0600   34.6424 H   0  0  0  0  0
   65.1344 -131.9532   35.3049 H   0  0  0  0  0
   64.8511 -131.9231   33.5471 H   0  0  0  0  0
   65.1683 -134.4612   35.2130 H   0  0  0  0  0
   63.7815 -135.3437   34.5281 H   0  0  0  0  0
   64.8556 -134.4065   33.4608 H   0  0  0  0  0
   62.4271 -136.2595   37.5617 H   0  0  0  0  0
   60.7203 -135.1780   39.8039 H   0  0  0  0  0
   60.7520 -137.6013   40.6120 H   0  0  0  0  0
   61.3137 -138.0301   39.0289 H   0  0  0  0  0
   59.9359 -137.9316   37.1462 H   0  0  0  0  0
   58.7194 -136.1879   40.8780 H   0  0  0  0  0
   57.6449 -137.6209   36.2546 H   0  0  0  0  0
   56.4312 -135.8691   39.9839 H   0  0  0  0  0
   55.8861 -136.5921   37.6720 H   0  0  0  0  0
   61.5507 -135.7647   41.9337 H   0  0  0  0  0
   64.5635 -135.7523   42.0900 H   0  0  0  0  0
   63.4550 -134.2940   44.2186 H   0  0  0  0  0
   62.3999 -133.8691   42.7806 H   0  0  0  0  0
   65.2871 -133.2797   43.3246 H   0  0  0  0  0
   62.8690 -131.7327   42.1725 H   0  0  0  0  0
   63.4629 -131.6015   43.8461 H   0  0  0  0  0
   64.4589 -130.9998   42.4981 H   0  0  0  0  0
   65.4376 -134.2881   41.1490 H   0  0  0  0  0
   64.1233 -133.2524   40.5398 H   0  0  0  0  0
   65.6725 -132.5267   41.0343 H   0  0  0  0  0
   64.2783 -136.3309   44.4193 H   0  0  0  0  0
   64.1977 -138.5917   44.3207 H   0  0  0  0  0
   64.3408 -137.8245   41.3329 H   0  0  0  0  0
   65.7155 -137.7750   42.4637 H   0  0  0  0  0
   64.9730 -139.3351   42.0326 H   0  0  0  0  0
   62.6906 -139.5348   42.1441 H   0  0  0  0  0
   61.8466 -138.0518   42.4226 H   0  0  0  0  0
   61.0538 -139.7750   43.8295 H   0  0  0  0  0
   62.0659 -137.0870   45.0156 H   0  0  0  0  0
  1  2  2  0  0  0
  3  1  1  0  0  0
  1 10  1  0  0  0
  4  3  1  0  0  0
  6  4  1  0  0  0
  4  7  1  0  0  0
  8  5  1  0  0  0
  5  9  1  0  0  0
  6  8  1  0  0  0
  7  9  1  0  0  0
 10 11  1  0  0  0
 11 12  1  0  0  0
 11 14  1  0  0  0
 12 13  2  0  0  0
 12 22  1  0  0  0
 14 15  1  0  0  0
 15 16  1  0  0  0
 16 17  4  0  0  0
 16 18  4  0  0  0
 17 19  4  0  0  0
 18 20  4  0  0  0
 19 21  4  0  0  0
 20 21  4  0  0  0
 22 23  1  0  0  0
 23 24  1  0  0  0
 23 26  1  0  0  0
 24 25  2  0  0  0
 24 30  1  0  0  0
 26 27  1  0  0  0
 27 28  1  0  0  0
 27 29  1  0  0  0
 30 31  1  0  0  0
 31 32  1  0  0  0
 31 34  1  0  0  0
 32 33  2  0  0  0
 32 41  1  0  0  0
 34 35  1  0  0  0
 35 36  4  0  0  0
 35 37  4  0  0  0
 36 38  4  0  0  0
 37 39  4  0  0  0
 38 40  4  0  0  0
 39 40  4  0  0  0
 41 42  1  0  0  0
 42 43  1  0  0  0
 42 47  1  0  0  0
 43 44  1  0  0  0
 44 45  1  0  0  0
 44 46  1  0  0  0
 47 48  1  0  0  0
 47 52  1  0  0  0
 48 49  1  0  0  0
 48 50  1  0  0  0
 50 51  1  0  0  0
  3 53  1  0  0  0
  3 54  1  0  0  0
  4 55  1  0  0  0
  6 56  1  0  0  0
  6 57  1  0  0  0
  7 58  1  0  0  0
  7 59  1  0  0  0
  8 60  1  0  0  0
  8 61  1  0  0  0
  9 62  1  0  0  0
  9 63  1  0  0  0
 10 64  1  0  0  0
 11 65  1  0  0  0
 14 66  1  0  0  0
 14 67  1  0  0  0
 15 68  1  0  0  0
 15 69  1  0  0  0
 17 70  1  0  0  0
 18 71  1  0  0  0
 19 72  1  0  0  0
 20 73  1  0  0  0
 21 74  1  0  0  0
 22 75  1  0  0  0
 23 76  1  0  0  0
 26 77  1  0  0  0
 26 78  1  0  0  0
 27 79  1  0  0  0
 28 80  1  0  0  0
 28 81  1  0  0  0
 28 82  1  0  0  0
 29 83  1  0  0  0
 29 84  1  0  0  0
 29 85  1  0  0  0
 30 86  1  0  0  0
 31 87  1  0  0  0
 34 88  1  0  0  0
 34 89  1  0  0  0
 36 90  1  0  0  0
 37 91  1  0  0  0
 38 92  1  0  0  0
 39 93  1  0  0  0
 40 94  1  0  0  0
 41 95  1  0  0  0
 42 96  1  0  0  0
 43 97  1  0  0  0
 43 98  1  0  0  0
 44 99  1  0  0  0
 45100  1  0  0  0
 45101  1  0  0  0
 45102  1  0  0  0
 46103  1  0  0  0
 46104  1  0  0  0
 46105  1  0  0  0
 47106  1  0  0  0
 48107  1  0  0  0
 49108  1  0  0  0
 49109  1  0  0  0
 49110  1  0  0  0
 50111  1  0  0  0
 50112  1  0  0  0
 51113  1  0  0  0
 52114  1  0  0  0
M  END
$$$$
