### 
### Created by X-TOOL on Mon Sep 10 21:13:24 2018
### 

@<TRIPOS>MOLECULE
4qw7_ligand
  114   116     1     0     0
SMALL
GAST_HUCK


@<TRIPOS>ATOM
      1 C8         59.0040 -135.4210   31.5030 C.2       1 3BV         0.2238
      2 O9         59.7030 -134.4990   31.0780 O.2       1 3BV        -0.3910
      3 C7         58.6330 -136.6430   30.6420 C.3       1 3BV         0.0582
      4 N4         58.2640 -136.3380   29.2370 N.4       1 3BV         0.2552
      5 O1         58.2350 -134.9390   26.9410 O.3       1 3BV        -0.3693
      6 C5         59.4550 -136.2530   28.3500 C.3       1 3BV        -0.0060
      7 C3         57.3780 -135.1490   29.1090 C.3       1 3BV        -0.0060
      8 C6         58.9390 -136.1680   26.9500 C.3       1 3BV         0.0878
      9 C2         57.0040 -134.9820   27.7150 C.3       1 3BV         0.0878
     10 N10        58.5110 -135.4830   32.7440 N.am      1 3BV        -0.2611
     11 C11        58.7750 -134.4660   33.7620 C.3       1 3BV         0.1328
     12 C20        59.9980 -134.9380   34.5370 C.2       1 3BV         0.2041
     13 O21        60.2860 -136.1330   34.5780 O.2       1 3BV        -0.3944
     14 C12        57.6190 -134.4340   34.7290 C.3       1 3BV        -0.0027
     15 C13        56.8350 -133.1630   34.4570 C.3       1 3BV        -0.0149
     16 C14        55.5840 -133.2390   35.1240 C.ar      1 3BV        -0.0428
     17 C19        54.4460 -132.7100   34.5090 C.ar      1 3BV        -0.0603
     18 C15        55.4410 -133.8090   36.3960 C.ar      1 3BV        -0.0603
     19 C18        53.2060 -132.7630   35.1380 C.ar      1 3BV        -0.0686
     20 C16        54.2020 -133.8640   37.0250 C.ar      1 3BV        -0.0686
     21 C17        53.0810 -133.3390   36.3970 C.ar      1 3BV        -0.0687
     22 N22        60.6760 -133.9900   35.1840 N.am      1 3BV        -0.2637
     23 C23        61.8320 -134.3430   36.0100 C.3       1 3BV         0.1312
     24 C28        61.3340 -134.5390   37.4340 C.2       1 3BV         0.2040
     25 O29        60.5530 -133.7320   37.9340 O.2       1 3BV        -0.3944
     26 C24        62.8340 -133.2230   36.0290 C.3       1 3BV        -0.0101
     27 C25        63.5060 -133.2040   34.6440 C.3       1 3BV        -0.0425
     28 C26        64.3720 -131.9430   34.5260 C.3       1 3BV        -0.0625
     29 C27        64.3930 -134.4450   34.4470 C.3       1 3BV        -0.0625
     30 N30        61.8030 -135.6250   38.0600 N.am      1 3BV        -0.2619
     31 C31        61.4360 -135.9200   39.4500 C.3       1 3BV         0.1403
     32 C39        62.7140 -135.8880   40.2760 C.2       1 3BV         0.2040
     33 O40        63.8160 -135.9580   39.7360 O.2       1 3BV        -0.3943
     34 C32        60.7710 -137.2600   39.5770 C.3       1 3BV         0.0214
     35 C33        59.4780 -137.0820   39.0700 C.ar      1 3BV        -0.0386
     36 C34        59.1670 -137.4800   37.7730 C.ar      1 3BV        -0.0601
     37 C38        58.4860 -136.5030   39.8610 C.ar      1 3BV        -0.0601
     38 C35        57.8800 -137.3050   37.2710 C.ar      1 3BV        -0.0686
     39 C37        57.2000 -136.3250   39.3600 C.ar      1 3BV        -0.0686
     40 C36        56.8940 -136.7280   38.0640 C.ar      1 3BV        -0.0687
     41 N41        62.5110 -135.7550   41.5900 N.am      1 3BV        -0.2794
     42 C42        63.5940 -135.5960   42.5630 C.3       1 3BV         0.0685
     43 C43        63.3730 -134.2090   43.1350 C.3       1 3BV        -0.0251
     44 C44        64.4160 -133.1520   42.6820 C.3       1 3BV        -0.0446
     45 C45        63.7530 -131.7700   42.8090 C.3       1 3BV        -0.0626
     46 C46        64.9520 -133.3170   41.2450 C.3       1 3BV        -0.0626
     47 C47        63.4800 -136.6010   43.7280 C.3       1 3BV         0.0827
     48 C51        63.7920 -138.1390   43.4160 C.3       1 3BV         0.0075
     49 C58        64.7800 -138.2790   42.2210 C.3       1 3BV        -0.0579
     50 C59        62.4960 -138.7810   42.9070 C.3       1 3BV         0.0492
     51 O60        61.8790 -139.3520   44.0780 O.3       1 3BV        -0.3947
     52 O48        62.1650 -136.4710   44.2860 O.3       1 3BV        -0.3892
     53 H1         57.7780 -137.1467   31.1166 H         1 3BV         0.1063
     54 H2         59.4971 -137.3234   30.6267 H         1 3BV         0.1063
     55 H3         57.7245 -137.1250   28.9118 H         1 3BV         0.2054
     56 H4         60.0822 -137.1487   28.4696 H         1 3BV         0.0837
     57 H5         60.0454 -135.3570   28.5920 H         1 3BV         0.0837
     58 H6         57.9122 -134.2525   29.4568 H         1 3BV         0.0837
     59 H7         56.4737 -135.2963   29.7177 H         1 3BV         0.0837
     60 H8         59.7658 -136.1548   26.2246 H         1 3BV         0.0613
     61 H9         58.2673 -137.0095   26.7251 H         1 3BV         0.0613
     62 H10        56.3825 -135.8285   27.3877 H         1 3BV         0.0613
     63 H11        56.4442 -134.0441   27.5849 H         1 3BV         0.0613
     64 H12        57.9338 -136.2622   32.9883 H         1 3BV         0.1884
     65 H13        58.9395 -133.4781   33.3070 H         1 3BV         0.0801
     66 H14        57.9938 -134.4305   35.7632 H         1 3BV         0.0334
     67 H15        56.9756 -135.3128   34.5751 H         1 3BV         0.0334
     68 H16        56.6698 -133.0562   33.3747 H         1 3BV         0.0428
     69 H17        57.3991 -132.2951   34.8292 H         1 3BV         0.0428
     70 H18        54.5304 -132.2527   33.5298 H         1 3BV         0.0557
     71 H19        56.3117 -134.2143   36.8987 H         1 3BV         0.0557
     72 H20        52.3328 -132.3529   34.6436 H         1 3BV         0.0599
     73 H21        54.1116 -134.3169   38.0057 H         1 3BV         0.0599
     74 H22        52.1140 -133.3779   36.8853 H         1 3BV         0.0559
     75 H23        60.3939 -133.0339   35.1048 H         1 3BV         0.1883
     76 H24        62.3009 -135.2631   35.6311 H         1 3BV         0.0800
     77 H25        63.5857 -133.4006   36.8122 H         1 3BV         0.0315
     78 H26        62.3275 -132.2649   36.2173 H         1 3BV         0.0315
     79 H27        62.7286 -133.1897   33.8660 H         1 3BV         0.0298
     80 H28        64.8561 -131.9218   33.5385 H         1 3BV         0.0232
     81 H29        65.1419 -131.9521   35.3116 H         1 3BV         0.0232
     82 H30        63.7389 -131.0511   34.6432 H         1 3BV         0.0232
     83 H31        63.7773 -135.3527   34.5306 H         1 3BV         0.0232
     84 H32        65.1771 -134.4615   35.2183 H         1 3BV         0.0232
     85 H33        64.8589 -134.4084   33.4512 H         1 3BV         0.0232
     86 H34        62.4149 -136.2470   37.5715 H         1 3BV         0.1885
     87 H35        60.7433 -135.1468   39.8137 H         1 3BV         0.0823
     88 H36        60.7316 -137.5719   40.6311 H         1 3BV         0.0474
     89 H37        61.3136 -138.0162   38.9908 H         1 3BV         0.0474
     90 H38        59.9317 -137.9291   37.1496 H         1 3BV         0.0557
     91 H39        58.7182 -136.1897   40.8724 H         1 3BV         0.0557
     92 H40        57.6462 -137.6191   36.2602 H         1 3BV         0.0599
     93 H41        56.4355 -135.8716   39.9805 H         1 3BV         0.0599
     94 H42        55.8916 -136.5929   37.6741 H         1 3BV         0.0559
     95 H43        61.5695 -135.7645   41.9269 H         1 3BV         0.1856
     96 H44        64.5762 -135.6873   42.0762 H         1 3BV         0.0582
     97 H45        63.4100 -134.2799   44.2321 H         1 3BV         0.0291
     98 H46        62.3763 -133.8636   42.8233 H         1 3BV         0.0291
     99 H47        65.2749 -133.2080   43.3670 H         1 3BV         0.0296
    100 H48        64.4645 -130.9918   42.4955 H         1 3BV         0.0232
    101 H49        63.4598 -131.5987   43.8553 H         1 3BV         0.0232
    102 H50        62.8606 -131.7310   42.1670 H         1 3BV         0.0232
    103 H51        65.4288 -134.3030   41.1425 H         1 3BV         0.0232
    104 H52        65.6907 -132.5291   41.0364 H         1 3BV         0.0232
    105 H53        64.1188 -133.2367   40.5314 H         1 3BV         0.0232
    106 H54        64.2097 -136.2871   44.4889 H         1 3BV         0.0620
    107 H55        64.1773 -138.6450   44.3135 H         1 3BV         0.0346
    108 H56        64.9756 -139.3445   42.0299 H         1 3BV         0.0234
    109 H57        65.7246 -137.7708   42.4647 H         1 3BV         0.0234
    110 H58        64.3379 -137.8207   41.3241 H         1 3BV         0.0234
    111 H59        62.7169 -139.5632   42.1658 H         1 3BV         0.0560
    112 H60        61.8400 -138.0224   42.4551 H         1 3BV         0.0560
    113 H61        62.4635 -139.9959   44.4605 H         1 3BV         0.2094
    114 H62        62.1135 -136.9709   45.0922 H         1 3BV         0.2099
@<TRIPOS>BOND
     1    1    2 2  
     2    3    1 1  
     3    1   10 am 
     4    4    3 1  
     5    6    4 1  
     6    4    7 1  
     7    8    5 1  
     8    5    9 1  
     9    6    8 1  
    10    7    9 1  
    11   10   11 1  
    12   11   12 1  
    13   11   14 1  
    14   12   13 2  
    15   12   22 am 
    16   14   15 1  
    17   15   16 1  
    18   16   17 ar 
    19   16   18 ar 
    20   17   19 ar 
    21   18   20 ar 
    22   19   21 ar 
    23   20   21 ar 
    24   22   23 1  
    25   23   24 1  
    26   23   26 1  
    27   24   25 2  
    28   24   30 am 
    29   26   27 1  
    30   27   28 1  
    31   27   29 1  
    32   30   31 1  
    33   31   32 1  
    34   31   34 1  
    35   32   33 2  
    36   32   41 am 
    37   34   35 1  
    38   35   36 ar 
    39   35   37 ar 
    40   36   38 ar 
    41   37   39 ar 
    42   38   40 ar 
    43   39   40 ar 
    44   41   42 1  
    45   42   43 1  
    46   42   47 1  
    47   43   44 1  
    48   44   45 1  
    49   44   46 1  
    50   47   48 1  
    51   47   52 1  
    52   48   49 1  
    53   48   50 1  
    54   50   51 1  
    55    3   53 1  
    56    3   54 1  
    57    4   55 1  
    58    6   56 1  
    59    6   57 1  
    60    7   58 1  
    61    7   59 1  
    62    8   60 1  
    63    8   61 1  
    64    9   62 1  
    65    9   63 1  
    66   10   64 1  
    67   11   65 1  
    68   14   66 1  
    69   14   67 1  
    70   15   68 1  
    71   15   69 1  
    72   17   70 1  
    73   18   71 1  
    74   19   72 1  
    75   20   73 1  
    76   21   74 1  
    77   22   75 1  
    78   23   76 1  
    79   26   77 1  
    80   26   78 1  
    81   27   79 1  
    82   28   80 1  
    83   28   81 1  
    84   28   82 1  
    85   29   83 1  
    86   29   84 1  
    87   29   85 1  
    88   30   86 1  
    89   31   87 1  
    90   34   88 1  
    91   34   89 1  
    92   36   90 1  
    93   37   91 1  
    94   38   92 1  
    95   39   93 1  
    96   40   94 1  
    97   41   95 1  
    98   42   96 1  
    99   43   97 1  
   100   43   98 1  
   101   44   99 1  
   102   45  100 1  
   103   45  101 1  
   104   45  102 1  
   105   46  103 1  
   106   46  104 1  
   107   46  105 1  
   108   47  106 1  
   109   48  107 1  
   110   49  108 1  
   111   49  109 1  
   112   49  110 1  
   113   50  111 1  
   114   50  112 1  
   115   51  113 1  
   116   52  114 1  
@<TRIPOS>SUBSTRUCTURE
     1 3BV         1

