### 
### Created by X-TOOL on Mon Sep 10 21:12:58 2018
### 

@<TRIPOS>MOLECULE
3buw_ligand
  150   153     1     0     0
SMALL
GAST_HUCK


@<TRIPOS>ATOM
      1 N          12.2130    1.7660   27.1240 N.4       1 SER         0.2396
      2 CA         12.7810    0.4800   27.6260 C.3       1 SER         0.0885
      3 C          12.2400   -0.6910   26.8000 C.2       1 SER         0.2291
      4 O          11.9640   -0.5520   25.6050 O.2       1 SER        -0.3906
      5 CB         12.4150    0.2850   29.1050 C.3       1 SER         0.1041
      6 OG         12.9380   -0.9260   29.5990 O.3       1 SER        -0.3870
      7 N          12.1080   -1.8440   27.4420 N.am      1 PHE        -0.2592
      8 CA         11.5990   -3.0310   26.7880 C.3       1 PHE         0.1406
      9 C          10.9370   -3.9960   27.7680 C.2       1 PHE         0.2061
     10 O          11.1490   -3.9010   28.9840 O.2       1 PHE        -0.3942
     11 CB         12.7280   -3.7710   26.0700 C.3       1 PHE         0.0214
     12 CG         13.6450   -4.5120   26.9970 C.ar      1 PHE        -0.0386
     13 CD1        14.7340   -3.8730   27.5810 C.ar      1 PHE        -0.0601
     14 CD2        13.3720   -5.8280   27.3460 C.ar      1 PHE        -0.0601
     15 CE1        15.5370   -4.5330   28.5050 C.ar      1 PHE        -0.0686
     16 CE2        14.1640   -6.4980   28.2690 C.ar      1 PHE        -0.0686
     17 CZ         15.2470   -5.8530   28.8530 C.ar      1 PHE        -0.0687
     18 N          10.1520   -4.9260   27.2380 N.am      1 ASN        -0.2614
     19 CA          9.4720   -5.9010   28.0580 C.3       1 ASN         0.1478
     20 C          10.2250   -7.2260   28.1670 C.2       1 ASN         0.2088
     21 O          10.7710   -7.7280   27.1810 O.2       1 ASN        -0.3940
     22 CB          8.0690   -6.1470   27.5040 C.3       1 ASN         0.0773
     23 CG          7.2520   -4.8760   27.4250 C.2       1 ASN         0.1780
     24 OD1         7.1730   -4.1210   28.3950 O.2       1 ASN        -0.3970
     25 ND2         6.6320   -4.6350   26.2770 N.am      1 ASN        -0.3007
     26 N          10.2700   -7.8100   29.3740 N.am      1 PRO        -0.2497
     27 CA         10.9800   -9.0770   29.5390 C.3       1 PRO         0.1338
     28 C          10.2500  -10.3170   29.0100 C.2       1 PRO         0.2043
     29 O           9.1540  -10.6590   29.4630 O.2       1 PRO        -0.3944
     30 CB         11.2250   -9.1350   31.0450 C.3       1 PRO        -0.0104
     31 CG         10.0120   -8.4660   31.5980 C.3       1 PRO        -0.0281
     32 CD          9.8330   -7.2770   30.6760 C.3       1 PRO         0.0369
     33 N          10.8710  -10.9670   28.0340 N.am      1 PTR        -0.2607
     34 CA         10.3450  -12.1860   27.4520 C.3       1 PTR         0.1468
     35 C          11.2070  -13.3840   27.8590 C.2       1 PTR         0.2074
     36 O          12.4320  -13.2600   27.9500 O.2       1 PTR        -0.3941
     37 CB         10.3120  -12.0570   25.9260 C.3       1 PTR         0.0400
     38 CG          9.1960  -11.1440   25.4380 C.ar      1 PTR        -0.0004
     39 CD1         7.8400  -11.5660   25.4770 C.ar      1 PTR        -0.0239
     40 CD2         9.5100   -9.8510   24.9340 C.ar      1 PTR        -0.0239
     41 CE1         6.8370  -10.6840   25.0100 C.ar      1 PTR         0.0115
     42 CE2         8.5180   -8.9560   24.4640 C.ar      1 PTR         0.0115
     43 CZ          7.1860   -9.4010   24.5140 C.ar      1 PTR         0.1728
     44 OH          6.1610   -8.4970   24.0400 O.3       1 PTR        -0.2040
     45 P           6.3400   -7.1280   23.1510 P.3       1 PTR         0.1348
     46 O1P         7.0590   -6.1280   23.9660 O.co2     1 PTR        -0.6653
     47 O2P         4.9950   -6.6250   22.8000 O.co2     1 PTR        -0.6653
     48 O3P         7.1290   -7.4040   21.9190 O.co2     1 PTR        -0.6653
     49 N          10.5810  -14.5290   28.1120 N.am      1 GLU        -0.2634
     50 CA         11.3240  -15.7130   28.5250 C.3       1 GLU         0.1327
     51 C          12.0780  -16.4270   27.3980 C.2       1 GLU         0.2065
     52 O          11.6110  -16.4750   26.2590 O.2       1 GLU        -0.3942
     53 CB         10.3860  -16.7130   29.2010 C.3       1 GLU        -0.0008
     54 CG          9.6610  -16.1720   30.4170 C.3       1 GLU         0.0044
     55 CD         10.6090  -15.6030   31.4490 C.2       1 GLU         0.0350
     56 OE1        10.6650  -14.3620   31.5820 O.co2     1 GLU        -0.5690
     57 OE2        11.3020  -16.3980   32.1200 O.co2     1 GLU        -0.5690
     58 N          13.2530  -16.9960   27.7140 N.am      1 PRO        -0.2498
     59 CA         14.1020  -17.7190   26.7610 C.3       1 PRO         0.1338
     60 C          13.5100  -19.0680   26.3170 C.2       1 PRO         0.2041
     61 O          12.3240  -19.3380   26.5280 O.2       1 PRO        -0.3944
     62 CB         15.4070  -17.8860   27.5300 C.3       1 PRO        -0.0104
     63 CG         14.9300  -18.0490   28.9360 C.3       1 PRO        -0.0281
     64 CD         13.8890  -16.9560   29.0440 C.3       1 PRO         0.0369
     65 N          14.3490  -19.9070   25.7140 N.am      1 GLU        -0.2636
     66 CA         13.9220  -21.2130   25.2270 C.3       1 GLU         0.1325
     67 C          13.4770  -22.1890   26.3220 C.2       1 GLU         0.2041
     68 O          12.3210  -22.6240   26.3510 O.2       1 GLU        -0.3944
     69 CB         15.0430  -21.8670   24.4110 C.3       1 GLU        -0.0008
     70 CG         15.8630  -20.9090   23.5570 C.3       1 GLU         0.0044
     71 CD         17.1230  -20.4330   24.2630 C.2       1 GLU         0.0350
     72 OE1        17.9690  -21.2870   24.6100 O.co2     1 GLU        -0.5690
     73 OE2        17.2710  -19.2090   24.4690 O.co2     1 GLU        -0.5690
     74 N          14.4060  -22.5320   27.2110 N.am      1 LEU        -0.2623
     75 CA         14.1370  -23.4540   28.3060 C.3       1 LEU         0.1422
     76 C          13.9030  -24.9030   27.8660 C.2       1 LEU         0.2571
     77 O          14.1070  -25.8410   28.6440 O.2       1 LEU        -0.3680
     78 CB         12.9310  -22.9710   29.1190 C.3       1 LEU        -0.0087
     79 CG         13.0380  -21.5790   29.7500 C.3       1 LEU        -0.0424
     80 CD1        11.7410  -21.2490   30.4700 C.3       1 LEU        -0.0624
     81 CD2        14.2140  -21.5360   30.7170 C.3       1 LEU        -0.0624
     82 H1         12.5745    2.5300   27.6732 H         1 SER         0.2016
     83 H2         11.2083    1.7425   27.2014 H         1 SER         0.2016
     84 H3         12.4728    1.8939   26.1585 H         1 SER         0.2016
     85 H4         13.8763    0.5111   27.5290 H         1 SER         0.1122
     86 H5         11.3197    0.2714   29.2058 H         1 SER         0.0640
     87 H6         12.8268    1.1201   29.6906 H         1 SER         0.0640
     88 H7         12.6988   -1.0234   30.5132 H         1 SER         0.2099
     89 H8         12.3678   -1.8949   28.4063 H         1 PHE         0.1886
     90 H9         10.8497   -2.7180   26.0460 H         1 PHE         0.0823
     91 H10        13.3223   -3.0364   25.5068 H         1 PHE         0.0474
     92 H11        12.2811   -4.4939   25.3717 H         1 PHE         0.0474
     93 H12        14.9596   -2.8473   27.3124 H         1 PHE         0.0557
     94 H13        12.5302   -6.3386   26.8923 H         1 PHE         0.0557
     95 H14        16.3836   -4.0249   28.9525 H         1 PHE         0.0599
     96 H15        13.9372   -7.5244   28.5339 H         1 PHE         0.0599
     97 H16        15.8645   -6.3731   29.5763 H         1 PHE         0.0559
     98 H17        10.0284   -4.9521   26.2460 H         1 ASN         0.1885
     99 H18         9.3790   -5.4830   29.0712 H         1 ASN         0.0826
    100 H19         7.5497   -6.8611   28.1601 H         1 ASN         0.0551
    101 H20         8.1572   -6.5741   26.4942 H         1 ASN         0.0551
    102 H21         6.0786   -3.8088   26.1714 H         1 ASN         0.1814
    103 H22         6.7181   -5.2796   25.5173 H         1 ASN         0.1814
    104 H23        11.9432   -9.0189   29.0109 H         1 PRO         0.0802
    105 H24        12.1396   -8.5891   31.3198 H         1 PRO         0.0313
    106 H25        11.2994  -10.1750   31.3955 H         1 PRO         0.0313
    107 H26        10.1774   -8.1409   32.6358 H         1 PRO         0.0287
    108 H27         9.1385   -9.1334   31.5576 H         1 PRO         0.0287
    109 H28         8.7812   -6.9567   30.6410 H         1 PRO         0.0524
    110 H29        10.4633   -6.4322   30.9908 H         1 PRO         0.0524
    111 H30        11.7348  -10.6020   27.6867 H         1 PTR         0.1886
    112 H31         9.3204  -12.3439   27.8198 H         1 PTR         0.0840
    113 H32        10.1643  -13.0566   25.4914 H         1 PTR         0.0584
    114 H33        11.2750  -11.6481   25.5864 H         1 PTR         0.0584
    115 H34         7.5783  -12.5466   25.8579 H         1 PTR         0.0703
    116 H35        10.5478   -9.5391   24.9088 H         1 PTR         0.0703
    117 H36         5.7972  -10.9897   25.0312 H         1 PTR         0.0736
    118 H37         8.7742   -7.9738   24.0836 H         1 PTR         0.0736
    119 H38         9.5867  -14.5787   28.0177 H         1 GLU         0.1883
    120 H39        12.0706  -15.3855   29.2635 H         1 GLU         0.0801
    121 H40        10.9805  -17.5837   29.5147 H         1 GLU         0.0330
    122 H41         9.6327  -17.0294   28.4645 H         1 GLU         0.0330
    123 H42         9.0864  -16.9889   30.8779 H         1 GLU         0.0433
    124 H43         8.9731  -15.3770   30.0932 H         1 GLU         0.0433
    125 H44        14.2661  -17.1051   25.8632 H         1 PRO         0.0802
    126 H45        16.0465  -16.9970   27.4270 H         1 PRO         0.0313
    127 H46        15.9581  -18.7755   27.1908 H         1 PRO         0.0313
    128 H47        15.7474  -17.8948   29.6558 H         1 PRO         0.0287
    129 H48        14.4845  -19.0422   29.0943 H         1 PRO         0.0287
    130 H49        13.1622  -17.1753   29.8400 H         1 PRO         0.0524
    131 H50        14.3561  -15.9782   29.2331 H         1 PRO         0.0524
    132 H51        15.3028  -19.6327   25.5911 H         1 GLU         0.1883
    133 H52        13.0612  -21.0468   24.5626 H         1 GLU         0.0801
    134 H53        14.5879  -22.6139   23.7439 H         1 GLU         0.0330
    135 H54        15.7263  -22.3691   25.1117 H         1 GLU         0.0330
    136 H55        15.2427  -20.0337   23.3140 H         1 GLU         0.0433
    137 H56        16.1517  -21.4230   22.6283 H         1 GLU         0.0433
    138 H57        15.3228  -22.1423   27.1240 H         1 LEU         0.1885
    139 H58        15.0197  -23.4475   28.9624 H         1 LEU         0.0816
    140 O          13.4752  -25.1540   26.6319 O.3       1 LEU        -0.2910
    141 H59        12.7664  -23.6934   29.9320 H         1 LEU         0.0316
    142 H60        12.0581  -22.9670   28.4497 H         1 LEU         0.0316
    143 H61        13.2042  -20.8363   28.9558 H         1 LEU         0.0298
    144 H62        11.8173  -20.2496   30.9232 H         1 LEU         0.0232
    145 H63        11.5583  -21.9955   31.2570 H         1 LEU         0.0232
    146 H64        10.9087  -21.2629   29.7510 H         1 LEU         0.0232
    147 H65        15.1416  -21.7773   30.1772 H         1 LEU         0.0232
    148 H66        14.0555  -22.2708   31.5201 H         1 LEU         0.0232
    149 H67        14.2944  -20.5289   31.1521 H         1 LEU         0.0232
    150 H68        13.3673  -24.3350   26.1626 H         1 LEU         0.2540
@<TRIPOS>BOND
     1    1    2 1  
     2    2    3 1  
     3    2    5 1  
     4    3    4 2  
     5    3    7 am 
     6    5    6 1  
     7    7    8 1  
     8    8    9 1  
     9    8   11 1  
    10    9   10 2  
    11    9   18 am 
    12   11   12 1  
    13   12   13 ar 
    14   12   14 ar 
    15   13   15 ar 
    16   14   16 ar 
    17   15   17 ar 
    18   16   17 ar 
    19   18   19 1  
    20   19   20 1  
    21   19   22 1  
    22   20   21 2  
    23   20   26 am 
    24   22   23 1  
    25   23   24 2  
    26   23   25 am 
    27   26   27 1  
    28   26   32 1  
    29   27   28 1  
    30   27   30 1  
    31   28   29 2  
    32   28   33 am 
    33   30   31 1  
    34   31   32 1  
    35   33   34 1  
    36   34   35 1  
    37   34   37 1  
    38   35   36 2  
    39   35   49 am 
    40   37   38 1  
    41   38   39 ar 
    42   38   40 ar 
    43   39   41 ar 
    44   40   42 ar 
    45   41   43 ar 
    46   42   43 ar 
    47   43   44 1  
    48   44   45 1  
    49   45   46 ar 
    50   45   47 ar 
    51   45   48 ar 
    52   49   50 1  
    53   50   51 1  
    54   50   53 1  
    55   51   52 2  
    56   51   58 am 
    57   53   54 1  
    58   54   55 1  
    59   55   56 ar 
    60   55   57 ar 
    61   58   59 1  
    62   58   64 1  
    63   59   60 1  
    64   59   62 1  
    65   60   61 2  
    66   60   65 am 
    67   62   63 1  
    68   63   64 1  
    69   65   66 1  
    70   66   67 1  
    71   66   69 1  
    72   67   68 2  
    73   67   74 am 
    74   69   70 1  
    75   70   71 1  
    76   71   72 ar 
    77   71   73 ar 
    78   74   75 1  
    79   75   76 1  
    80   75   78 1  
    81   76   77 2  
    82   78   79 1  
    83   79   80 1  
    84   79   81 1  
    85    1   82 1  
    86    1   83 1  
    87    1   84 1  
    88    2   85 1  
    89    5   86 1  
    90    5   87 1  
    91    6   88 1  
    92    7   89 1  
    93    8   90 1  
    94   11   91 1  
    95   11   92 1  
    96   13   93 1  
    97   14   94 1  
    98   15   95 1  
    99   16   96 1  
   100   17   97 1  
   101   18   98 1  
   102   19   99 1  
   103   22  100 1  
   104   22  101 1  
   105   25  102 1  
   106   25  103 1  
   107   27  104 1  
   108   30  105 1  
   109   30  106 1  
   110   31  107 1  
   111   31  108 1  
   112   32  109 1  
   113   32  110 1  
   114   33  111 1  
   115   34  112 1  
   116   37  113 1  
   117   37  114 1  
   118   39  115 1  
   119   40  116 1  
   120   41  117 1  
   121   42  118 1  
   122   49  119 1  
   123   50  120 1  
   124   53  121 1  
   125   53  122 1  
   126   54  123 1  
   127   54  124 1  
   128   59  125 1  
   129   62  126 1  
   130   62  127 1  
   131   63  128 1  
   132   63  129 1  
   133   64  130 1  
   134   64  131 1  
   135   65  132 1  
   136   66  133 1  
   137   69  134 1  
   138   69  135 1  
   139   70  136 1  
   140   70  137 1  
   141   74  138 1  
   142   75  139 1  
   143   76  140 1  
   144   78  141 1  
   145   78  142 1  
   146   79  143 1  
   147   80  144 1  
   148   80  145 1  
   149   80  146 1  
   150   81  147 1  
   151   81  148 1  
   152   81  149 1  
   153  140  150 1  
@<TRIPOS>SUBSTRUCTURE
     1 SER         1

