3buw_ligand
  -I-interpret- 

154157  0  0  0  0  0  0  0  0999 V2000
   12.2130    1.7660   27.1240 N   0  3  0  0  0
   12.7810    0.4800   27.6260 C   0  0  0  0  0
   12.2400   -0.6910   26.8000 C   0  0  0  0  0
   11.9640   -0.5520   25.6050 O   0  0  0  0  0
   12.4150    0.2850   29.1050 C   0  0  0  0  0
   12.9380   -0.9260   29.5990 O   0  0  0  0  0
   12.1080   -1.8440   27.4420 N   0  0  0  0  0
   11.5990   -3.0310   26.7880 C   0  0  0  0  0
   10.9370   -3.9960   27.7680 C   0  0  0  0  0
   11.1490   -3.9010   28.9840 O   0  0  0  0  0
   12.7280   -3.7710   26.0700 C   0  0  0  0  0
   13.6450   -4.5120   26.9970 C   0  0  0  0  0
   14.7340   -3.8730   27.5810 C   0  0  0  0  0
   13.3720   -5.8280   27.3460 C   0  0  0  0  0
   15.5370   -4.5330   28.5050 C   0  0  0  0  0
   14.1640   -6.4980   28.2690 C   0  0  0  0  0
   15.2470   -5.8530   28.8530 C   0  0  0  0  0
   10.1520   -4.9260   27.2380 N   0  0  0  0  0
    9.4720   -5.9010   28.0580 C   0  0  0  0  0
   10.2250   -7.2260   28.1670 C   0  0  0  0  0
   10.7710   -7.7280   27.1810 O   0  0  0  0  0
    8.0690   -6.1470   27.5040 C   0  0  0  0  0
    7.2520   -4.8760   27.4250 C   0  0  0  0  0
    7.1730   -4.1210   28.3950 O   0  0  0  0  0
    6.6320   -4.6350   26.2770 N   0  0  0  0  0
   10.2700   -7.8100   29.3740 N   0  0  0  0  0
   10.9800   -9.0770   29.5390 C   0  0  0  0  0
   10.2500  -10.3170   29.0100 C   0  0  0  0  0
    9.1540  -10.6590   29.4630 O   0  0  0  0  0
   11.2250   -9.1350   31.0450 C   0  0  0  0  0
   10.0120   -8.4660   31.5980 C   0  0  0  0  0
    9.8330   -7.2770   30.6760 C   0  0  0  0  0
   10.8710  -10.9670   28.0340 N   0  0  0  0  0
   10.3450  -12.1860   27.4520 C   0  0  0  0  0
   11.2070  -13.3840   27.8590 C   0  0  0  0  0
   12.4320  -13.2600   27.9500 O   0  0  0  0  0
   10.3120  -12.0570   25.9260 C   0  0  0  0  0
    9.1960  -11.1440   25.4380 C   0  0  0  0  0
    7.8400  -11.5660   25.4770 C   0  0  0  0  0
    9.5100   -9.8510   24.9340 C   0  0  0  0  0
    6.8370  -10.6840   25.0100 C   0  0  0  0  0
    8.5180   -8.9560   24.4640 C   0  0  0  0  0
    7.1860   -9.4010   24.5140 C   0  0  0  0  0
    6.1610   -8.4970   24.0400 O   0  0  0  0  0
    6.3400   -7.1280   23.1510 P   0  0  0  0  0
    7.0590   -6.1280   23.9660 O   0  0  0  0  0
    4.9950   -6.6250   22.8000 O   0  0  0  0  0
    7.1290   -7.4040   21.9190 O   0  0  0  0  0
   10.5810  -14.5290   28.1120 N   0  0  0  0  0
   11.3240  -15.7130   28.5250 C   0  0  0  0  0
   12.0780  -16.4270   27.3980 C   0  0  0  0  0
   11.6110  -16.4750   26.2590 O   0  0  0  0  0
   10.3860  -16.7130   29.2010 C   0  0  0  0  0
    9.6610  -16.1720   30.4170 C   0  0  0  0  0
   10.6090  -15.6030   31.4490 C   0  0  0  0  0
   10.6650  -14.3620   31.5820 O   0  0  0  0  0
   11.3020  -16.3980   32.1200 O   0  0  0  0  0
   13.2530  -16.9960   27.7140 N   0  0  0  0  0
   14.1020  -17.7190   26.7610 C   0  0  0  0  0
   13.5100  -19.0680   26.3170 C   0  0  0  0  0
   12.3240  -19.3380   26.5280 O   0  0  0  0  0
   15.4070  -17.8860   27.5300 C   0  0  0  0  0
   14.9300  -18.0490   28.9360 C   0  0  0  0  0
   13.8890  -16.9560   29.0440 C   0  0  0  0  0
   14.3490  -19.9070   25.7140 N   0  0  0  0  0
   13.9220  -21.2130   25.2270 C   0  0  0  0  0
   13.4770  -22.1890   26.3220 C   0  0  0  0  0
   12.3210  -22.6240   26.3510 O   0  0  0  0  0
   15.0430  -21.8670   24.4110 C   0  0  0  0  0
   15.8630  -20.9090   23.5570 C   0  0  0  0  0
   17.1230  -20.4330   24.2630 C   0  0  0  0  0
   17.9690  -21.2870   24.6100 O   0  0  0  0  0
   17.2710  -19.2090   24.4690 O   0  0  0  0  0
   14.4060  -22.5320   27.2110 N   0  0  0  0  0
   14.1370  -23.4540   28.3060 C   0  0  0  0  0
   13.9030  -24.9030   27.8660 C   0  0  0  0  0
   14.1070  -25.8410   28.6440 O   0  0  0  0  0
   12.9310  -22.9710   29.1190 C   0  0  0  0  0
   13.0380  -21.5790   29.7500 C   0  0  0  0  0
   11.7410  -21.2490   30.4700 C   0  0  0  0  0
   14.2140  -21.5360   30.7170 C   0  0  0  0  0
   13.4752  -25.1540   26.6319 O   0  0  0  0  0
   12.4615    1.8857   26.1420 H   0  0  0  0  0
   11.1976    1.7480   27.2192 H   0  0  0  0  0
   12.5931    2.5399   27.6690 H   0  0  0  0  0
   13.8661    0.5135   27.5285 H   0  0  0  0  0
   11.3291    0.2600   29.1962 H   0  0  0  0  0
   12.8365    1.1088   29.6811 H   0  0  0  0  0
   12.6962   -1.0245   30.5228 H   0  0  0  0  0
   12.3729   -1.8959   28.4256 H   0  0  0  0  0
   10.8483   -2.6921   26.0740 H   0  0  0  0  0
   13.3259   -3.0255   25.5458 H   0  0  0  0  0
   12.2685   -4.5055   25.4086 H   0  0  0  0  0
   14.9609   -2.8417   27.3109 H   0  0  0  0  0
   12.5256   -6.3414   26.8898 H   0  0  0  0  0
   16.3882   -4.0221   28.9549 H   0  0  0  0  0
   13.9360   -7.5301   28.5353 H   0  0  0  0  0
   15.8679   -6.3760   29.5803 H   0  0  0  0  0
   10.0259   -4.9526   26.2262 H   0  0  0  0  0
    9.4184   -5.4872   29.0650 H   0  0  0  0  0
    7.5568   -6.8372   28.1744 H   0  0  0  0  0
    8.1691   -6.5479   26.4954 H   0  0  0  0  0
    6.0615   -3.7960   26.1718 H   0  0  0  0  0
    6.7259   -5.2887   25.4996 H   0  0  0  0  0
   11.8898   -9.0997   28.9392 H   0  0  0  0  0
   12.1536   -8.6491   31.3447 H   0  0  0  0  0
   11.3578  -10.1512   31.4163 H   0  0  0  0  0
   10.1260   -8.1784   32.6432 H   0  0  0  0  0
    9.1403   -9.1200   31.6202 H   0  0  0  0  0
    8.8102   -6.9006   30.6603 H   0  0  0  0  0
   10.4037   -6.4037   30.9918 H   0  0  0  0  0
   11.7521  -10.5947   27.6798 H   0  0  0  0  0
    9.3317  -12.3458   27.8205 H   0  0  0  0  0
   10.1388  -13.0494   25.5098 H   0  0  0  0  0
   11.2608  -11.6266   25.6058 H   0  0  0  0  0
    7.5769  -12.5520   25.8600 H   0  0  0  0  0
   10.5536   -9.5373   24.9086 H   0  0  0  0  0
    5.7915  -10.9914   25.0313 H   0  0  0  0  0
    8.7756   -7.9684   24.0815 H   0  0  0  0  0
    4.5369   -7.2821   22.2709 H   0  0  0  0  0
    6.6676   -8.0537   21.3837 H   0  0  0  0  0
    9.5668  -14.5797   28.0158 H   0  0  0  0  0
   12.0813  -15.3438   29.2166 H   0  0  0  0  0
   11.0002  -17.5470   29.5407 H   0  0  0  0  0
    9.6244  -16.9812   28.4688 H   0  0  0  0  0
    9.1158  -16.9955   30.8782 H   0  0  0  0  0
    9.0015  -15.3695   30.0866 H   0  0  0  0  0
   11.0998  -17.2985   31.8559 H   0  0  0  0  0
   14.2186  -17.1823   25.8195 H   0  0  0  0  0
   16.0896  -17.0456   27.4036 H   0  0  0  0  0
   16.0060  -18.7269   27.1804 H   0  0  0  0  0
   15.7265  -17.9610   29.6749 H   0  0  0  0  0
   14.5353  -19.0432   29.1453 H   0  0  0  0  0
   13.1850  -17.1132   29.8612 H   0  0  0  0  0
   14.3132  -15.9820   29.2876 H   0  0  0  0  0
   15.3218  -19.6272   25.5886 H   0  0  0  0  0
   13.0456  -21.0130   24.6106 H   0  0  0  0  0
   14.5652  -22.5677   23.7262 H   0  0  0  0  0
   15.7309  -22.3170   25.1268 H   0  0  0  0  0
   15.2462  -20.0358   23.3443 H   0  0  0  0  0
   16.1635  -21.4377   22.6524 H   0  0  0  0  0
   17.6615  -22.1610   24.3586 H   0  0  0  0  0
   15.3411  -22.1345   27.1223 H   0  0  0  0  0
   15.0411  -23.4570   28.9149 H   0  0  0  0  0
   12.8300  -23.6697   29.9495 H   0  0  0  0  0
   12.0981  -22.9191   28.4178 H   0  0  0  0  0
   13.2072  -20.8366   28.9700 H   0  0  0  0  0
   10.9171  -21.2631   29.7565 H   0  0  0  0  0
   11.5611  -21.9894   31.2494 H   0  0  0  0  0
   11.8178  -20.2586   30.9187 H   0  0  0  0  0
   14.0640  -22.2766   31.5026 H   0  0  0  0  0
   15.1347  -21.7582   30.1775 H   0  0  0  0  0
   14.2819  -20.5426   31.1605 H   0  0  0  0  0
   13.3662  -24.3264   26.1577 H   0  0  0  0  0
  1  2  1  0  0  0
  2  3  1  0  0  0
  2  5  1  0  0  0
  3  4  2  0  0  0
  3  7  1  0  0  0
  5  6  1  0  0  0
  7  8  1  0  0  0
  8  9  1  0  0  0
  8 11  1  0  0  0
  9 10  2  0  0  0
  9 18  1  0  0  0
 11 12  1  0  0  0
 12 13  4  0  0  0
 12 14  4  0  0  0
 13 15  4  0  0  0
 14 16  4  0  0  0
 15 17  4  0  0  0
 16 17  4  0  0  0
 18 19  1  0  0  0
 19 20  1  0  0  0
 19 22  1  0  0  0
 20 21  2  0  0  0
 20 26  1  0  0  0
 22 23  1  0  0  0
 23 24  2  0  0  0
 23 25  1  0  0  0
 26 27  1  0  0  0
 26 32  1  0  0  0
 27 28  1  0  0  0
 27 30  1  0  0  0
 28 29  2  0  0  0
 28 33  1  0  0  0
 30 31  1  0  0  0
 31 32  1  0  0  0
 33 34  1  0  0  0
 34 35  1  0  0  0
 34 37  1  0  0  0
 35 36  2  0  0  0
 35 49  1  0  0  0
 37 38  1  0  0  0
 38 39  4  0  0  0
 38 40  4  0  0  0
 39 41  4  0  0  0
 40 42  4  0  0  0
 41 43  4  0  0  0
 42 43  4  0  0  0
 43 44  1  0  0  0
 44 45  1  0  0  0
 45 46  2  0  0  0
 45 47  1  0  0  0
 45 48  1  0  0  0
 49 50  1  0  0  0
 50 51  1  0  0  0
 50 53  1  0  0  0
 51 52  2  0  0  0
 51 58  1  0  0  0
 53 54  1  0  0  0
 54 55  1  0  0  0
 55 56  2  0  0  0
 55 57  1  0  0  0
 58 59  1  0  0  0
 58 64  1  0  0  0
 59 60  1  0  0  0
 59 62  1  0  0  0
 60 61  2  0  0  0
 60 65  1  0  0  0
 62 63  1  0  0  0
 63 64  1  0  0  0
 65 66  1  0  0  0
 66 67  1  0  0  0
 66 69  1  0  0  0
 67 68  2  0  0  0
 67 74  1  0  0  0
 69 70  1  0  0  0
 70 71  1  0  0  0
 71 72  1  0  0  0
 71 73  2  0  0  0
 74 75  1  0  0  0
 75 76  1  0  0  0
 75 78  1  0  0  0
 76 77  2  0  0  0
 78 79  1  0  0  0
 79 80  1  0  0  0
 79 81  1  0  0  0
 76 82  1  0  0  0
  1 83  1  0  0  0
  1 84  1  0  0  0
  1 85  1  0  0  0
  2 86  1  0  0  0
  5 87  1  0  0  0
  5 88  1  0  0  0
  6 89  1  0  0  0
  7 90  1  0  0  0
  8 91  1  0  0  0
 11 92  1  0  0  0
 11 93  1  0  0  0
 13 94  1  0  0  0
 14 95  1  0  0  0
 15 96  1  0  0  0
 16 97  1  0  0  0
 17 98  1  0  0  0
 18 99  1  0  0  0
 19100  1  0  0  0
 22101  1  0  0  0
 22102  1  0  0  0
 25103  1  0  0  0
 25104  1  0  0  0
 27105  1  0  0  0
 30106  1  0  0  0
 30107  1  0  0  0
 31108  1  0  0  0
 31109  1  0  0  0
 32110  1  0  0  0
 32111  1  0  0  0
 33112  1  0  0  0
 34113  1  0  0  0
 37114  1  0  0  0
 37115  1  0  0  0
 39116  1  0  0  0
 40117  1  0  0  0
 41118  1  0  0  0
 42119  1  0  0  0
 47120  1  0  0  0
 48121  1  0  0  0
 49122  1  0  0  0
 50123  1  0  0  0
 53124  1  0  0  0
 53125  1  0  0  0
 54126  1  0  0  0
 54127  1  0  0  0
 57128  1  0  0  0
 59129  1  0  0  0
 62130  1  0  0  0
 62131  1  0  0  0
 63132  1  0  0  0
 63133  1  0  0  0
 64134  1  0  0  0
 64135  1  0  0  0
 65136  1  0  0  0
 66137  1  0  0  0
 69138  1  0  0  0
 69139  1  0  0  0
 70140  1  0  0  0
 70141  1  0  0  0
 72142  1  0  0  0
 74143  1  0  0  0
 75144  1  0  0  0
 78145  1  0  0  0
 78146  1  0  0  0
 79147  1  0  0  0
 80148  1  0  0  0
 80149  1  0  0  0
 80150  1  0  0  0
 81151  1  0  0  0
 81152  1  0  0  0
 81153  1  0  0  0
 82154  1  0  0  0
M  END
$$$$
