4jju_ligand
  -I-interpret- 

 43 46  0  0  0  0  0  0  0  0999 V2000
  -27.7350   49.5020   54.7240 C   0  0  0  0  0
  -28.2620   49.7920   53.4440 C   0  0  0  0  0
  -28.3170   51.1340   53.0090 C   0  0  0  0  0
  -27.8660   52.1880   53.8320 C   0  0  0  0  0
  -27.3460   51.8850   55.1110 C   0  0  0  0  0
  -27.2710   50.5370   55.5940 C   0  0  0  0  0
  -26.6960   50.2500   56.9800 C   0  0  0  0  0
  -24.3510   47.3370   56.9180 N   0  0  0  0  0
  -25.3170   48.1790   57.1920 C   0  0  0  0  0
  -25.3620   49.5530   56.9720 N   0  0  0  0  0
  -24.1860   50.1540   56.3840 C   0  0  0  0  0
  -23.0650   49.3040   56.0460 C   0  0  0  0  0
  -21.8800   49.8200   55.4510 C   0  0  0  0  0
  -21.7860   51.2020   55.1860 C   0  0  0  0  0
  -22.8520   52.0700   55.5040 C   0  0  0  0  0
  -24.0280   51.5490   56.0970 C   0  0  0  0  0
  -23.1870   47.8360   56.3340 C   0  0  0  0  0
  -22.2440   47.0730   56.0550 O   0  0  0  0  0
  -19.4640   52.6360   52.2120 F   0  0  0  0  0
  -20.6450   51.6630   54.6000 O   0  0  0  0  0
  -19.8770   52.6570   55.2010 C   0  0  0  0  0
  -19.5630   52.5540   56.5440 N   0  0  0  0  0
  -18.7950   53.5480   57.1080 C   0  0  0  0  0
  -18.3210   54.6530   56.3800 C   0  0  0  0  0
  -18.6570   54.7400   54.9990 C   0  0  0  0  0
  -19.4560   53.7250   54.3720 C   0  0  0  0  0
  -19.8510   53.7530   52.9010 C   0  0  0  0  0
  -28.8150   51.4050   51.8020 F   0  0  0  0  0
  -19.3090   54.7960   52.1930 F   0  0  0  0  0
  -21.2020   53.8440   52.7030 F   0  0  0  0  0
  -27.6930   48.2250   55.1060 F   0  0  0  0  0
  -28.6215   48.9888   52.8008 H   0  0  0  0  0
  -27.9179   53.2205   53.4865 H   0  0  0  0  0
  -26.9929   52.6971   55.7466 H   0  0  0  0  0
  -27.3985   49.5872   57.4852 H   0  0  0  0  0
  -26.5493   51.2128   57.4695 H   0  0  0  0  0
  -26.2040   47.7456   57.6540 H   0  0  0  0  0
  -21.0535   49.1542   55.2026 H   0  0  0  0  0
  -22.7708   53.1365   55.2943 H   0  0  0  0  0
  -24.8405   52.2325   56.3435 H   0  0  0  0  0
  -18.5434   53.4747   58.1660 H   0  0  0  0  0
  -17.7137   55.4212   56.8588 H   0  0  0  0  0
  -18.3035   55.5870   54.4110 H   0  0  0  0  0
  1  2  4  0  0  0
  6  1  4  0  0  0
  1 31  1  0  0  0
  2  3  4  0  0  0
  4  3  4  0  0  0
  3 28  1  0  0  0
  5  4  4  0  0  0
  6  5  4  0  0  0
  7  6  1  0  0  0
 10  7  1  0  0  0
  8  9  2  0  0  0
 17  8  1  0  0  0
 10  9  1  0  0  0
 11 10  1  0  0  0
 12 11  4  0  0  0
 16 11  4  0  0  0
 13 12  4  0  0  0
 12 17  1  0  0  0
 14 13  4  0  0  0
 14 15  4  0  0  0
 20 14  1  0  0  0
 15 16  4  0  0  0
 17 18  2  0  0  0
 27 19  1  0  0  0
 21 20  1  0  0  0
 21 22  4  0  0  0
 26 21  4  0  0  0
 22 23  4  0  0  0
 24 23  4  0  0  0
 25 24  4  0  0  0
 26 25  4  0  0  0
 26 27  1  0  0  0
 27 29  1  0  0  0
 27 30  1  0  0  0
  2 32  1  0  0  0
  4 33  1  0  0  0
  5 34  1  0  0  0
  7 35  1  0  0  0
  7 36  1  0  0  0
  9 37  1  0  0  0
 13 38  1  0  0  0
 15 39  1  0  0  0
 16 40  1  0  0  0
 23 41  1  0  0  0
 24 42  1  0  0  0
 25 43  1  0  0  0
M  END
$$$$
