1mmq_ligand
  -I-interpret- 

 69 71  0  0  0  0  0  0  0  0999 V2000
   47.9690  -40.9710   50.9150 C   0  0  0  0  0
   46.7560  -40.8270   50.6010 O   0  0  0  0  0
   48.6030  -41.4840   51.9510 N   0  0  0  0  0
   47.7630  -42.0180   52.9250 O   0  0  0  0  0
   48.7780  -40.2470   49.8760 C   0  0  0  0  0
   48.5080  -38.7240   49.9700 C   0  0  0  0  0
   49.3260  -38.1390   48.8410 C   0  0  0  0  0
   50.5570  -38.0660   48.8950 O   0  0  0  0  0
   48.6280  -37.7230   47.8030 N   0  0  0  0  0
   49.2790  -37.1970   46.6100 C   0  0  0  0  0
   49.4630  -35.6890   46.5510 C   0  0  0  0  0
   48.5070  -34.9340   46.7340 O   0  0  0  0  0
   50.6620  -35.2420   46.2130 N   0  0  0  0  0
   50.9740  -33.8060   46.0610 C   0  0  0  0  0
   52.1870  -33.6750   45.1100 C   0  0  0  0  0
   51.9670  -34.3030   43.7170 C   0  0  0  0  0
   51.0420  -33.5000   42.7770 C   0  0  0  0  0
   50.8080  -34.1630   41.3970 C   0  0  0  0  0
   49.5550  -35.0600   41.2300 C   0  0  0  0  0
   49.5110  -36.1720   42.1950 N   0  0  0  0  0
   48.8780  -38.0780   51.3260 C   0  0  0  0  0
   48.3890  -36.6150   51.4910 C   0  0  0  0  0
   46.8610  -36.4940   51.3370 C   0  0  0  0  0
   48.7840  -36.1460   52.8970 C   0  0  0  0  0
   48.4360  -37.7410   45.4080 C   0  0  0  0  0
   49.0240  -37.3630   44.0980 C   0  0  0  0  0
   48.7600  -36.1950   43.3410 C   0  0  0  0  0
   49.9890  -38.0740   43.3560 C   0  0  0  0  0
   50.2680  -37.3070   42.1780 C   0  0  0  0  0
   50.6390  -39.2930   43.5890 C   0  0  0  0  0
   51.1970  -37.7840   41.2510 C   0  0  0  0  0
   51.5690  -39.7590   42.6520 C   0  0  0  0  0
   51.8400  -39.0080   41.4950 C   0  0  0  0  0
   49.6198  -41.4893   52.0320 H   0  0  0  0  0
   48.2923  -42.3708   53.6440 H   0  0  0  0  0
   48.4951  -40.6032   48.8855 H   0  0  0  0  0
   49.8377  -40.4369   50.0468 H   0  0  0  0  0
   47.4392  -38.5243   49.8925 H   0  0  0  0  0
   47.6096  -37.7703   47.8356 H   0  0  0  0  0
   50.3146  -37.5368   46.5955 H   0  0  0  0  0
   51.4056  -35.9209   46.0498 H   0  0  0  0  0
   51.2086  -33.3681   47.0312 H   0  0  0  0  0
   50.1149  -33.2768   45.6488 H   0  0  0  0  0
   53.0192  -34.2041   45.5743 H   0  0  0  0  0
   52.3648  -32.6102   44.9591 H   0  0  0  0  0
   51.4883  -35.2687   43.8795 H   0  0  0  0  0
   52.9434  -34.3476   43.2345 H   0  0  0  0  0
   51.5245  -32.5398   42.5945 H   0  0  0  0  0
   50.0712  -33.4267   43.2671 H   0  0  0  0  0
   51.6614  -34.8234   41.2428 H   0  0  0  0  0
   50.6711  -33.3385   40.6974 H   0  0  0  0  0
   49.5853  -35.4900   40.2288 H   0  0  0  0  0
   48.6761  -34.4380   41.3996 H   0  0  0  0  0
   49.9662  -38.0612   51.3868 H   0  0  0  0  0
   48.3941  -38.6676   52.1047 H   0  0  0  0  0
   48.8476  -36.0036   50.7138 H   0  0  0  0  0
   46.5684  -36.8407   50.3459 H   0  0  0  0  0
   46.3712  -37.1040   52.0960 H   0  0  0  0  0
   46.5660  -35.4520   51.4605 H   0  0  0  0  0
   48.3120  -36.7897   53.6393 H   0  0  0  0  0
   49.8674  -36.1983   53.0051 H   0  0  0  0  0
   48.4523  -35.1179   53.0422 H   0  0  0  0  0
   47.4371  -37.3092   45.4699 H   0  0  0  0  0
   48.4164  -38.8290   45.4709 H   0  0  0  0  0
   48.0532  -35.4177   43.6316 H   0  0  0  0  0
   50.4235  -39.8709   44.4878 H   0  0  0  0  0
   51.4201  -37.2134   40.3495 H   0  0  0  0  0
   52.0835  -40.7052   42.8198 H   0  0  0  0  0
   52.5643  -39.3837   40.7723 H   0  0  0  0  0
  1  5  1  0  0  0
  1  3  1  0  0  0
  1  2  2  0  0  0
  3  4  1  0  0  0
  5  6  1  0  0  0
  6 21  1  0  0  0
  6  7  1  0  0  0
  7  9  1  0  0  0
  7  8  2  0  0  0
  9 10  1  0  0  0
 10 25  1  0  0  0
 10 11  1  0  0  0
 11 13  1  0  0  0
 11 12  2  0  0  0
 13 14  1  0  0  0
 14 15  1  0  0  0
 15 16  1  0  0  0
 16 17  1  0  0  0
 17 18  1  0  0  0
 18 19  1  0  0  0
 19 20  1  0  0  0
 20 29  4  0  0  0
 20 27  4  0  0  0
 27 26  4  0  0  0
 26 28  4  0  0  0
 26 25  1  0  0  0
 28 30  4  0  0  0
 28 29  4  0  0  0
 29 31  4  0  0  0
 31 33  4  0  0  0
 33 32  4  0  0  0
 32 30  4  0  0  0
 21 22  1  0  0  0
 22 24  1  0  0  0
 22 23  1  0  0  0
  3 34  1  0  0  0
  4 35  1  0  0  0
  5 36  1  0  0  0
  5 37  1  0  0  0
  6 38  1  0  0  0
  9 39  1  0  0  0
 10 40  1  0  0  0
 13 41  1  0  0  0
 14 42  1  0  0  0
 14 43  1  0  0  0
 15 44  1  0  0  0
 15 45  1  0  0  0
 16 46  1  0  0  0
 16 47  1  0  0  0
 17 48  1  0  0  0
 17 49  1  0  0  0
 18 50  1  0  0  0
 18 51  1  0  0  0
 19 52  1  0  0  0
 19 53  1  0  0  0
 21 54  1  0  0  0
 21 55  1  0  0  0
 22 56  1  0  0  0
 23 57  1  0  0  0
 23 58  1  0  0  0
 23 59  1  0  0  0
 24 60  1  0  0  0
 24 61  1  0  0  0
 24 62  1  0  0  0
 25 63  1  0  0  0
 25 64  1  0  0  0
 27 65  1  0  0  0
 30 66  1  0  0  0
 31 67  1  0  0  0
 32 68  1  0  0  0
 33 69  1  0  0  0
M  END
$$$$
