2vtq_ligand
  -I-interpret- 

 42 44  0  0  0  0  0  0  0  0999 V2000
   31.8560    9.4090   67.1270 C   0  0  0  0  0
   31.1010    8.0860   67.0230 C   0  0  0  0  0
   30.5150    7.9240   65.6190 C   0  0  0  0  0
   29.7660    6.6740   65.4970 N   0  0  0  0  0
   28.5880    6.6340   64.8530 C   0  0  0  0  0
   28.0860    7.6380   64.3640 O   0  0  0  0  0
   27.9030    5.3150   64.7520 C   0  0  0  0  0
   28.2710    4.2270   65.4540 N   0  0  0  0  0
   27.4230    3.2450   65.0730 N   0  0  0  0  0
   26.5320    3.6940   64.1610 C   0  0  0  0  0
   26.8130    5.0110   63.9350 C   0  0  0  0  0
   26.2120    5.9150   63.0750 N   0  0  0  0  0
   25.2660    5.6240   62.1680 C   0  0  0  0  0
   24.7640    4.4810   62.0410 O   0  0  0  0  0
   24.8600    6.7660   61.2850 C   0  0  0  0  0
   25.7840    7.3770   60.4320 C   0  0  0  0  0
   27.0470    6.9110   60.4250 F   0  0  0  0  0
   25.4330    8.4480   59.6180 C   0  0  0  0  0
   24.1320    8.9190   59.6350 C   0  0  0  0  0
   23.1910    8.3250   60.4710 C   0  0  0  0  0
   23.5690    7.2630   61.2930 C   0  0  0  0  0
   22.6580    6.6780   62.0950 F   0  0  0  0  0
   31.6260    8.0240   64.5650 C   0  0  0  0  0
   32.9580    9.4510   66.1220 N   0  3  0  0  0
   32.4380    9.3220   64.7310 C   0  0  0  0  0
   32.2801    9.5011   68.1269 H   0  0  0  0  0
   31.1658   10.2307   66.9356 H   0  0  0  0  0
   30.2906    8.0783   67.7519 H   0  0  0  0  0
   31.7899    7.2646   67.2201 H   0  0  0  0  0
   29.8089    8.7357   65.4440 H   0  0  0  0  0
   30.1437    5.8198   65.9070 H   0  0  0  0  0
   25.7373    3.1130   63.6931 H   0  0  0  0  0
   26.5147    6.8871   63.1361 H   0  0  0  0  0
   26.1770    8.9131   58.9713 H   0  0  0  0  0
   23.8447    9.7533   58.9951 H   0  0  0  0  0
   22.1633    8.6879   60.4834 H   0  0  0  0  0
   31.1676    8.0251   63.5761 H   0  0  0  0  0
   32.2988    7.1752   64.6878 H   0  0  0  0  0
   33.5893    8.6707   66.3035 H   0  0  0  0  0
   33.4358   10.3483   66.2053 H   0  0  0  0  0
   31.7879   10.1711   64.5200 H   0  0  0  0  0
   33.2825    9.2972   64.0423 H   0  0  0  0  0
  1  2  1  0  0  0
  1 24  1  0  0  0
  2  3  1  0  0  0
  3  4  1  0  0  0
  3 23  1  0  0  0
  4  5  1  0  0  0
  5  6  2  0  0  0
  5  7  1  0  0  0
  7  8  4  0  0  0
  7 11  4  0  0  0
  8  9  4  0  0  0
  9 10  4  0  0  0
 10 11  4  0  0  0
 11 12  1  0  0  0
 12 13  1  0  0  0
 13 14  2  0  0  0
 13 15  1  0  0  0
 15 16  4  0  0  0
 15 21  4  0  0  0
 16 17  1  0  0  0
 16 18  4  0  0  0
 18 19  4  0  0  0
 19 20  4  0  0  0
 20 21  4  0  0  0
 21 22  1  0  0  0
 23 25  1  0  0  0
 24 25  1  0  0  0
  1 26  1  0  0  0
  1 27  1  0  0  0
  2 28  1  0  0  0
  2 29  1  0  0  0
  3 30  1  0  0  0
  4 31  1  0  0  0
 10 32  1  0  0  0
 12 33  1  0  0  0
 18 34  1  0  0  0
 19 35  1  0  0  0
 20 36  1  0  0  0
 23 37  1  0  0  0
 23 38  1  0  0  0
 24 39  1  0  0  0
 24 40  1  0  0  0
 25 41  1  0  0  0
 25 42  1  0  0  0
M  END
$$$$
