2b52_ligand
  -I-interpret- 

 55 59  0  0  0  0  0  0  0  0999 V2000
   75.6190   64.7320   14.8060 C   0  0  0  0  0
   76.3040   63.4150   15.1330 C   0  0  0  0  0
   77.7720   63.5740   15.2490 N   0  3  0  0  0
   78.3910   64.1570   14.0390 C   0  0  0  0  0
   77.7060   65.4640   13.6240 C   0  0  0  0  0
   76.2200   65.3620   13.6070 N   0  3  0  0  0
   75.4370   66.5040   13.1310 C   0  0  0  0  0
   78.4260   62.6350   16.2350 N   0  0  0  0  0
   78.6650   61.3390   16.0070 C   0  0  0  0  0
   79.4940   60.9990   15.0190 N   0  0  0  0  0
   80.0790   59.7270   14.7950 C   0  0  0  0  0
   79.8030   58.5000   15.5770 C   0  0  0  0  0
   80.5270   57.2710   15.2030 C   0  0  0  0  0
   81.4990   57.2740   14.0910 C   0  0  0  0  0
   81.7490   58.5080   13.3400 C   0  0  0  0  0
   81.0380   59.7460   13.6750 C   0  0  0  0  0
   82.5440   58.8350   12.1750 C   0  0  0  0  0
   82.3160   60.2160   11.8070 C   0  0  0  0  0
   81.3720   60.8130   12.7420 C   0  0  0  0  0
   83.4000   58.1540   11.2830 N   0  0  0  0  0
   83.7040   59.2640   10.2960 N   0  0  0  0  0
   83.0550   60.4840   10.5850 C   0  0  0  0  0
   83.0830   61.5800    9.6250 C   0  0  0  0  0
   81.6960   62.7390    9.4520 S   0  0  0  0  0
   82.5480   63.5920    8.0860 C   0  0  0  0  0
   83.8100   63.0100    7.7980 N   0  0  0  0  0
   84.1070   61.9050    8.6340 C   0  0  0  0  0
   85.4030   61.1880    8.3990 C   0  0  0  0  0
   81.9750   64.7820    7.3280 C   0  0  0  0  0
   78.1330   60.4710   16.7090 O   0  0  0  0  0
   80.8540   61.9310   12.7390 O   0  0  0  0  0
   75.7395   65.4077   15.6527 H   0  0  0  0  0
   74.5652   64.5372   14.6068 H   0  0  0  0  0
   76.0978   62.7115   14.3264 H   0  0  0  0  0
   75.9211   63.0571   16.0887 H   0  0  0  0  0
   78.0979   64.3554   15.8179 H   0  0  0  0  0
   78.2886   63.4419   13.2228 H   0  0  0  0  0
   79.4367   64.3724   14.2585 H   0  0  0  0  0
   78.0340   65.7044   12.6127 H   0  0  0  0  0
   77.9782   66.2276   14.3526 H   0  0  0  0  0
   76.1308   64.7020   12.8344 H   0  0  0  0  0
   75.6457   67.3720   13.7565 H   0  0  0  0  0
   75.7091   66.7245   12.0988 H   0  0  0  0  0
   74.3754   66.2627   13.1846 H   0  0  0  0  0
   78.7052   63.0164   17.1389 H   0  0  0  0  0
   79.7329   61.7333   14.3526 H   0  0  0  0  0
   79.0892   58.5052   16.4007 H   0  0  0  0  0
   80.3425   56.3488   15.7541 H   0  0  0  0  0
   82.0303   56.3591   13.8288 H   0  0  0  0  0
   86.0029   61.2170    9.3086 H   0  0  0  0  0
   85.1997   60.1517    8.1292 H   0  0  0  0  0
   85.9451   61.6760    7.5890 H   0  0  0  0  0
   81.0359   64.4927    6.8563 H   0  0  0  0  0
   81.7962   65.6022    8.0233 H   0  0  0  0  0
   82.6841   65.1000    6.5637 H   0  0  0  0  0
  1  2  1  0  0  0
  1  6  1  0  0  0
  2  3  1  0  0  0
  3  4  1  0  0  0
  3  8  1  0  0  0
  4  5  1  0  0  0
  5  6  1  0  0  0
  6  7  1  0  0  0
  8  9  1  0  0  0
  9 10  1  0  0  0
  9 30  2  0  0  0
 10 11  1  0  0  0
 11 12  4  0  0  0
 11 16  4  0  0  0
 12 13  4  0  0  0
 13 14  4  0  0  0
 14 15  4  0  0  0
 15 16  4  0  0  0
 15 17  1  0  0  0
 16 19  1  0  0  0
 17 18  4  0  0  0
 17 20  4  0  0  0
 18 19  1  0  0  0
 18 22  4  0  0  0
 19 31  2  0  0  0
 20 21  4  0  0  0
 21 22  4  0  0  0
 22 23  1  0  0  0
 23 24  4  0  0  0
 23 27  4  0  0  0
 24 25  4  0  0  0
 25 26  4  0  0  0
 25 29  1  0  0  0
 26 27  4  0  0  0
 27 28  1  0  0  0
  1 32  1  0  0  0
  1 33  1  0  0  0
  2 34  1  0  0  0
  2 35  1  0  0  0
  3 36  1  0  0  0
  4 37  1  0  0  0
  4 38  1  0  0  0
  5 39  1  0  0  0
  5 40  1  0  0  0
  6 41  1  0  0  0
  7 42  1  0  0  0
  7 43  1  0  0  0
  7 44  1  0  0  0
  8 45  1  0  0  0
 10 46  1  0  0  0
 12 47  1  0  0  0
 13 48  1  0  0  0
 14 49  1  0  0  0
 28 50  1  0  0  0
 28 51  1  0  0  0
 28 52  1  0  0  0
 29 53  1  0  0  0
 29 54  1  0  0  0
 29 55  1  0  0  0
M  END
$$$$
