3rah_ligand
  -I-interpret- 

 48 51  0  0  0  0  0  0  0  0999 V2000
   94.6170   77.1240  -46.0520 C   0  0  0  0  0
   92.2410   81.0180  -48.5450 S   0  0  0  0  0
   94.3600   76.3890  -47.2640 C   0  0  0  0  0
   91.8650   82.0740  -50.8890 N   0  0  0  0  0
   94.1630   77.0890  -48.5100 C   0  0  0  0  0
   90.5810   83.0760  -49.1280 N   0  0  0  0  0
   94.6080   78.7620  -50.8850 O   0  0  0  0  0
   94.4910   79.2960  -47.3520 C   0  0  0  0  0
   93.2810   80.7850  -52.3010 N   0  0  0  0  0
   94.6870   78.6160  -46.0970 C   0  0  0  0  0
   94.8060   76.4420  -44.7880 C   0  0  0  0  0
   95.0590   77.2070  -43.5860 C   0  0  0  0  0
   95.1290   78.6510  -43.6280 C   0  0  0  0  0
   94.9460   79.3590  -44.8750 C   0  0  0  0  0
   94.2200   78.5460  -48.5900 C   0  0  0  0  0
   94.0010   79.2080  -49.7530 C   0  0  0  0  0
   93.0700   80.3800  -49.8980 C   0  0  0  0  0
   92.7630   81.0710  -51.0710 C   0  0  0  0  0
   91.4960   82.1530  -49.5780 C   0  0  0  0  0
   89.9970   82.9140  -47.7880 C   0  0  0  0  0
   88.9240   81.7720  -47.7610 C   0  0  0  0  0
   88.3210   81.6020  -46.3440 C   0  0  0  0  0
   87.7250   82.9360  -45.8250 C   0  0  0  0  0
   88.7400   84.1050  -45.9040 C   0  0  0  0  0
   89.3600   84.2490  -47.3170 C   0  0  0  0  0
   94.3142   75.3002  -47.2396 H   0  0  0  0  0
   93.9664   76.5152  -49.4156 H   0  0  0  0  0
   90.3106   83.8638  -49.7168 H   0  0  0  0  0
   94.3612   79.3252  -51.6222 H   0  0  0  0  0
   94.5442   80.3842  -47.3857 H   0  0  0  0  0
   92.9953   81.3306  -53.1141 H   0  0  0  0  0
   93.9538   80.0257  -52.4071 H   0  0  0  0  0
   94.7577   75.3540  -44.7424 H   0  0  0  0  0
   95.1985   76.6886  -42.6374 H   0  0  0  0  0
   95.3213   79.2099  -42.7121 H   0  0  0  0  0
   95.0021   80.4473  -44.8987 H   0  0  0  0  0
   94.1514   79.7036  -48.7939 H   0  0  0  0  0
   90.8015   82.6357  -47.1073 H   0  0  0  0  0
   89.4043   80.8368  -48.0489 H   0  0  0  0  0
   88.1216   82.0325  -48.4513 H   0  0  0  0  0
   89.1127   81.2867  -45.6643 H   0  0  0  0  0
   87.5241   80.8599  -46.3916 H   0  0  0  0  0
   87.4487   82.7985  -44.7796 H   0  0  0  0  0
   86.8686   83.1893  -46.4500 H   0  0  0  0  0
   89.5464   83.9016  -45.1994 H   0  0  0  0  0
   88.2112   85.0291  -45.6703 H   0  0  0  0  0
   88.5713   84.5246  -48.0170 H   0  0  0  0  0
   90.1375   85.0120  -47.2801 H   0  0  0  0  0
  3  1  4  0  0  0
 10  1  4  0  0  0
  1 11  4  0  0  0
 17  2  4  0  0  0
  2 19  4  0  0  0
  5  3  4  0  0  0
  4 18  4  0  0  0
 19  4  4  0  0  0
 15  5  4  0  0  0
 19  6  1  0  0  0
  6 20  1  0  0  0
 16  7  1  0  0  0
  8 10  4  0  0  0
 15  8  4  0  0  0
 18  9  1  0  0  0
 10 14  4  0  0  0
 11 12  4  0  0  0
 13 12  4  0  0  0
 14 13  4  0  0  0
 16 15  1  0  0  0
 16 17  1  0  0  0
 17 18  4  0  0  0
 20 21  1  0  0  0
 20 25  1  0  0  0
 21 22  1  0  0  0
 22 23  1  0  0  0
 23 24  1  0  0  0
 24 25  1  0  0  0
  3 26  1  0  0  0
  5 27  1  0  0  0
  6 28  1  0  0  0
  7 29  1  0  0  0
  8 30  1  0  0  0
  9 31  1  0  0  0
  9 32  1  0  0  0
 11 33  1  0  0  0
 12 34  1  0  0  0
 13 35  1  0  0  0
 14 36  1  0  0  0
 16 37  1  0  0  0
 20 38  1  0  0  0
 21 39  1  0  0  0
 21 40  1  0  0  0
 22 41  1  0  0  0
 22 42  1  0  0  0
 23 43  1  0  0  0
 23 44  1  0  0  0
 24 45  1  0  0  0
 24 46  1  0  0  0
 25 47  1  0  0  0
 25 48  1  0  0  0
M  END
$$$$
