5obg_ligand
  -I-interpret- 

 48 54  0  0  0  0  0  0  0  0999 V2000
   33.8590   19.4330   24.8480 C   0  0  0  0  0
   32.8830   18.4170   25.4170 C   0  0  0  0  0
   31.4740   19.0270   25.4150 C   0  0  0  0  0
   31.0700   19.1320   23.9390 C   0  0  0  0  0
   31.9810   20.0880   23.1730 C   0  0  0  0  0
   31.8070   19.7760   21.7350 N   0  0  0  0  0
   32.9920   19.2360   21.2170 C   0  0  0  0  0
   33.1970   18.6790   19.9530 C   0  0  0  0  0
   34.3040   17.8700   19.7770 C   0  0  0  0  0
   35.2030   17.6520   20.8250 C   0  0  0  0  0
   35.0260   18.2730   22.0500 C   0  0  0  0  0
   33.9210   19.0870   22.2420 C   0  0  0  0  0
   33.5080   19.9370   23.4220 C   0  0  0  0  0
   34.1880   21.3170   23.4330 C   0  0  0  0  0
   33.8900   21.8400   24.8300 C   0  0  0  0  0
   33.9140   20.6650   25.7020 N   0  3  0  0  0
   32.8460   20.7130   26.7150 C   0  0  0  0  0
   31.5080   20.3650   26.1240 C   0  0  0  0  0
   30.4690   21.1800   26.1610 C   0  0  0  0  0
   29.1340   20.8320   25.5770 C   0  0  0  0  0
   29.1870   20.7630   24.1370 O   0  0  0  0  0
   29.6130   19.5040   23.6080 C   0  0  0  0  0
   29.3910   19.6030   22.0560 C   0  0  0  0  0
   30.5790   19.7880   21.1360 C   0  0  0  0  0
   30.4400   19.9430   19.9220 O   0  0  0  0  0
   34.8041   18.8907   24.8192 H   0  0  0  0  0
   33.1716   18.1588   26.4359 H   0  0  0  0  0
   32.8945   17.5133   24.8077 H   0  0  0  0  0
   30.7394   18.4251   25.9500 H   0  0  0  0  0
   31.1817   18.0955   23.6206 H   0  0  0  0  0
   31.6943   21.0865   23.5029 H   0  0  0  0  0
   32.5070   18.8756   19.1324 H   0  0  0  0  0
   34.4778   17.3969   18.8105 H   0  0  0  0  0
   36.0528   16.9858   20.6763 H   0  0  0  0  0
   35.7471   18.1234   22.8535 H   0  0  0  0  0
   33.8150   21.9759   22.6489 H   0  0  0  0  0
   35.2563   21.2611   23.2239 H   0  0  0  0  0
   32.9255   22.3462   24.8692 H   0  0  0  0  0
   34.6231   22.5837   25.1424 H   0  0  0  0  0
   34.7834   20.6491   26.2353 H   0  0  0  0  0
   32.7939   21.7263   27.1133 H   0  0  0  0  0
   33.0776   19.9875   27.4948 H   0  0  0  0  0
   30.5887   22.1521   26.6393 H   0  0  0  0  0
   28.4217   21.6074   25.8590 H   0  0  0  0  0
   28.8350   19.8556   25.9581 H   0  0  0  0  0
   29.0341   18.7033   24.0682 H   0  0  0  0  0
   28.7967   20.5068   21.9213 H   0  0  0  0  0
   28.9759   18.6347   21.7762 H   0  0  0  0  0
  1  2  1  0  0  0
  1 13  1  0  0  0
  1 16  1  0  0  0
  2  3  1  0  0  0
  3  4  1  0  0  0
  3 18  1  0  0  0
  4  5  1  0  0  0
  4 22  1  0  0  0
  5  6  1  0  0  0
  5 13  1  0  0  0
  6  7  1  0  0  0
  6 24  1  0  0  0
  7  8  4  0  0  0
  7 12  4  0  0  0
  8  9  4  0  0  0
  9 10  4  0  0  0
 10 11  4  0  0  0
 11 12  4  0  0  0
 12 13  1  0  0  0
 13 14  1  0  0  0
 14 15  1  0  0  0
 15 16  1  0  0  0
 16 17  1  0  0  0
 17 18  1  0  0  0
 18 19  2  0  0  0
 19 20  1  0  0  0
 20 21  1  0  0  0
 21 22  1  0  0  0
 22 23  1  0  0  0
 23 24  1  0  0  0
 24 25  2  0  0  0
  1 26  1  0  0  0
  2 27  1  0  0  0
  2 28  1  0  0  0
  3 29  1  0  0  0
  4 30  1  0  0  0
  5 31  1  0  0  0
  8 32  1  0  0  0
  9 33  1  0  0  0
 10 34  1  0  0  0
 11 35  1  0  0  0
 14 36  1  0  0  0
 14 37  1  0  0  0
 15 38  1  0  0  0
 15 39  1  0  0  0
 16 40  1  0  0  0
 17 41  1  0  0  0
 17 42  1  0  0  0
 19 43  1  0  0  0
 20 44  1  0  0  0
 20 45  1  0  0  0
 22 46  1  0  0  0
 23 47  1  0  0  0
 23 48  1  0  0  0
M  END
$$$$
