6h9v_ligand
  -I-interpret- 

 26 26  0  0  0  0  0  0  0  0999 V2000
    1.4710   -5.3650   32.9370 C   0  0  0  0  0
    0.2280   -5.1250   33.7790 C   0  0  0  0  0
   -1.0140   -5.0720   32.9660 C   0  0  0  0  0
   -1.1620   -6.3030   32.1150 C   0  0  0  0  0
    0.1050   -6.5590   31.3170 C   0  0  0  0  0
   -0.0560   -7.8490   30.5890 C   0  0  0  0  0
    1.6560   -4.3540   32.0380 O   0  0  0  0  0
    0.3960   -3.8820   34.4820 O   0  0  0  0  0
   -2.1820   -4.9370   33.8320 O   0  0  0  0  0
   -1.4430   -7.4540   32.9220 O   0  0  0  0  0
    1.3030   -6.6180   32.1770 O   0  0  0  0  0
    2.6520   -4.6170   31.0730 C   0  0  0  0  0
    2.3300   -5.4177   33.6059 H   0  0  0  0  0
    0.1173   -5.9615   34.4690 H   0  0  0  0  0
   -0.9432   -4.2036   32.3111 H   0  0  0  0  0
   -1.9944   -6.1302   31.4328 H   0  0  0  0  0
    0.2513   -5.7320   30.6222 H   0  0  0  0  0
    0.8240   -8.0284   29.9713 H   0  0  0  0  0
   -0.1675   -8.6596   31.3091 H   0  0  0  0  0
   -0.9419   -7.7993   29.9559 H   0  0  0  0  0
    1.1991   -3.9184   35.0067 H   0  0  0  0  0
   -2.0872   -4.1511   34.3751 H   0  0  0  0  0
   -2.2430   -7.2998   33.4298 H   0  0  0  0  0
    3.6064   -4.7814   31.5732 H   0  0  0  0  0
    2.3800   -5.5067   30.5051 H   0  0  0  0  0
    2.7361   -3.7653   30.3980 H   0  0  0  0  0
  1  2  1  0  0  0
  1  7  1  0  0  0
  1 11  1  0  0  0
  2  3  1  0  0  0
  2  8  1  0  0  0
  3  4  1  0  0  0
  3  9  1  0  0  0
  4  5  1  0  0  0
  4 10  1  0  0  0
  5  6  1  0  0  0
  5 11  1  0  0  0
  7 12  1  0  0  0
  1 13  1  0  0  0
  2 14  1  0  0  0
  3 15  1  0  0  0
  4 16  1  0  0  0
  5 17  1  0  0  0
  6 18  1  0  0  0
  6 19  1  0  0  0
  6 20  1  0  0  0
  8 21  1  0  0  0
  9 22  1  0  0  0
 10 23  1  0  0  0
 12 24  1  0  0  0
 12 25  1  0  0  0
 12 26  1  0  0  0
M  END
$$$$
