### 
### Created by X-TOOL on Mon Sep 10 21:13:08 2018
### 

@<TRIPOS>MOLECULE
2l75_ligand
  194   193     1     0     0
SMALL
GAST_HUCK


@<TRIPOS>ATOM
      1 N          -8.0380   10.2550   -4.9380 N.4       1 ALA         0.2377
      2 CA         -7.5050    9.1780   -4.0810 C.3       1 ALA         0.0621
      3 C          -7.2130    9.7340   -2.6890 C.2       1 ALA         0.2264
      4 O          -6.6080   10.7970   -2.5510 O.2       1 ALA        -0.3907
      5 CB         -6.2670    8.5630   -4.7310 C.3       1 ALA        -0.0040
      6 N          -7.6780    9.0240   -1.6670 N.am      1 ARG        -0.2610
      7 CA         -7.6420    9.5170   -0.2890 C.3       1 ARG         0.1312
      8 C          -6.2900    9.2630    0.3660 C.2       1 ARG         0.2040
      9 O          -5.5600    8.3770   -0.0480 O.2       1 ARG        -0.3944
     10 CB         -8.7180    8.8110    0.5280 C.3       1 ARG        -0.0092
     11 CG         -8.9760    9.4500    1.8830 C.3       1 ARG        -0.0156
     12 CD         -9.9090    8.6100    2.7280 C.3       1 ARG         0.0627
     13 NE        -10.0230    9.1280    4.0930 N.pl3     1 ARG        -0.2723
     14 CZ        -10.6420    8.4900    5.0880 C.cat     1 ARG         0.2882
     15 NH1       -11.2640    7.3360    4.8610 N.pl3     1 ARG        -0.2849
     16 NH2       -10.6590    9.0180    6.3070 N.pl3     1 ARG        -0.2849
     17 N          -5.9770   10.0260    1.3990 N.am      1 THR        -0.2613
     18 CA         -4.7640    9.8160    2.1750 C.3       1 THR         0.1565
     19 C          -5.0060   10.0900    3.6630 C.2       1 THR         0.2065
     20 O          -5.7550   10.9990    4.0250 O.2       1 THR        -0.3943
     21 CB         -3.6250   10.7180    1.6690 C.3       1 THR         0.0924
     22 OG1        -4.1430   11.7460    0.8100 O.3       1 THR        -0.3874
     23 CG2        -2.5720    9.9040    0.9390 C.3       1 THR        -0.0346
     24 N          -4.4020    9.2740    4.5230 N.am      1 LYS        -0.2637
     25 CA         -4.4300    9.5290    5.9600 C.3       1 LYS         0.1310
     26 C          -3.0700   10.0120    6.4040 C.2       1 LYS         0.2039
     27 O          -2.0890    9.8390    5.7010 O.2       1 LYS        -0.3944
     28 CB         -4.8000    8.2730    6.7700 C.3       1 LYS        -0.0122
     29 CG         -4.9910    8.5280    8.2600 C.3       1 LYS        -0.0440
     30 CD         -5.7940    7.4260    8.9380 C.3       1 LYS        -0.0124
     31 CE         -5.0760    6.0870    8.9210 C.3       1 LYS        -0.0354
     32 NZ         -5.8860    5.0200    9.5710 N.4       1 LYS         0.2185
     33 N          -3.0300   10.6090    7.5660 N.am      1 GLN        -0.2636
     34 CA         -1.7810   11.0050    8.1950 C.3       1 GLN         0.1330
     35 C          -1.8840   10.7160    9.6830 C.2       1 GLN         0.2041
     36 O          -2.7020   11.3130   10.3800 O.2       1 GLN        -0.3944
     37 CB         -1.4650   12.4780    7.9530 C.3       1 GLN         0.0045
     38 CG         -1.1550   12.7860    6.4990 C.3       1 GLN         0.0412
     39 CD         -0.2290   13.9720    6.3310 C.2       1 GLN         0.1737
     40 OE1        -0.2340   14.9010    7.1380 O.2       1 GLN        -0.3973
     41 NE2         0.5780   13.9400    5.2830 N.am      1 GLN        -0.3009
     42 N          -1.0860    9.7810   10.1640 N.am      1 THR        -0.2613
     43 CA         -1.2670    9.2730   11.5120 C.3       1 THR         0.1565
     44 C           0.0410    9.2900   12.3270 C.2       1 THR         0.2065
     45 O           0.4140   10.3310   12.8710 O.2       1 THR        -0.3943
     46 CB         -1.9180    7.8610   11.4630 C.3       1 THR         0.0924
     47 OG1        -1.7780    7.1660   12.7080 O.3       1 THR        -0.3874
     48 CG2        -1.3460    7.0300   10.3240 C.3       1 THR        -0.0346
     49 N           0.7500    8.1700   12.3870 N.am      1 ALA        -0.2639
     50 CA          1.9570    8.0760   13.1960 C.3       1 ALA         0.1282
     51 C           3.1360    7.5680   12.3790 C.2       1 ALA         0.2036
     52 O           3.5030    6.3960   12.4560 O.2       1 ALA        -0.3944
     53 CB          1.7190    7.1680   14.3910 C.3       1 ALA        -0.0244
     54 N           3.7260    8.4470   11.5900 N.am      1 ARG        -0.2637
     55 CA          4.8960    8.0860   10.8110 C.3       1 ARG         0.1311
     56 C           6.1350    8.1520   11.6960 C.2       1 ARG         0.2039
     57 O           6.1920    8.9350   12.6510 O.2       1 ARG        -0.3944
     58 CB          5.0540    8.9580    9.5480 C.3       1 ARG        -0.0092
     59 CG          4.9430   10.4400    9.7800 C.3       1 ARG        -0.0156
     60 CD          3.4950   10.8740    9.8860 C.3       1 ARG         0.0627
     61 NE          3.3540   12.3250    9.7860 N.pl3     1 ARG        -0.2723
     62 CZ          2.6690   13.0850   10.6430 C.cat     1 ARG         0.2882
     63 NH1         2.0980   12.5450   11.7170 N.pl3     1 ARG        -0.2849
     64 NH2         2.5630   14.3880   10.4270 N.pl3     1 ARG        -0.2849
     65 N           7.1170    7.3370   11.3570 N.am      1 M3L        -0.2637
     66 CA          8.2650    7.0630   12.2170 C.3       1 M3L         0.1310
     67 CB          8.8800    5.7150   11.8210 C.3       1 M3L        -0.0122
     68 CG          8.0990    4.5020   12.3150 C.3       1 M3L        -0.0440
     69 CD          8.2590    3.3190   11.3730 C.3       1 M3L        -0.0123
     70 CE          8.2180    1.9810   12.1030 C.3       1 M3L        -0.0309
     71 NZ          6.9710    1.7490   12.8480 N.4       1 M3L         0.2369
     72 C           9.3200    8.1680   12.1510 C.2       1 M3L         0.2040
     73 O          10.4970    7.9090   11.8870 O.2       1 M3L        -0.3944
     74 CM1         5.8280    1.7690   11.9130 C.3       1 M3L        -0.0418
     75 CM2         6.7930    2.8010   13.8750 C.3       1 M3L        -0.0418
     76 CM3         7.0440    0.4290   13.5020 C.3       1 M3L        -0.0418
     77 N           8.8950    9.3950   12.3930 N.am      1 SER        -0.2616
     78 CA          9.8140   10.5130   12.4940 C.3       1 SER         0.1539
     79 C          10.3260   10.6230   13.9250 C.2       1 SER         0.2057
     80 O          11.4900   10.9500   14.1640 O.2       1 SER        -0.3943
     81 CB          9.1160   11.8080   12.0730 C.3       1 SER         0.0843
     82 OG          8.5470   11.6780   10.7790 O.3       1 SER        -0.3903
     83 N           9.4450   10.3290   14.8690 N.am      1 THR        -0.2669
     84 CA          9.7880   10.3270   16.2790 C.3       1 THR         0.1198
     85 C           9.7970    8.9000   16.8180 C.2       1 THR         0.0626
     86 O           8.8045    8.1428   16.6471 O.co2     1 THR        -0.5665
     87 CB          8.7900   11.1840   17.0790 C.3       1 THR         0.0869
     88 OG1         7.4570   10.9470   16.6000 O.3       1 THR        -0.3880
     89 CG2         9.1270   12.6630   16.9590 C.3       1 THR        -0.0352
     90 H          -8.8639   10.6607   -4.4980 H         1 ALA         0.2015
     91 H          -7.3265   10.9759   -5.0581 H         1 ALA         0.2015
     92 H          -8.2907    9.8700   -5.8481 H         1 ALA         0.2015
     93 H          -8.2422    8.3825   -3.9721 H         1 ALA         0.1095
     94 H          -5.4924    9.3239   -4.8264 H         1 ALA         0.0310
     95 H          -5.9005    7.7454   -4.1103 H         1 ALA         0.0310
     96 H          -6.5278    8.1824   -5.7185 H         1 ALA         0.0310
     97 H          -8.0745    8.1020   -1.8490 H         1 ARG         0.1884
     98 H          -7.8166   10.5926   -0.3164 H         1 ARG         0.0800
     99 H          -8.3738    7.7927    0.7086 H         1 ARG         0.0313
    100 H          -9.6467    8.8663   -0.0400 H         1 ARG         0.0313
    101 H          -9.4403   10.4229    1.7216 H         1 ARG         0.0301
    102 H          -8.0247    9.5403    2.4073 H         1 ARG         0.0301
    103 H          -9.5072    7.5980    2.7785 H         1 ARG         0.0689
    104 H         -10.8980    8.6314    2.2702 H         1 ARG         0.0689
    105 H          -9.6022   10.0347    4.2961 H         1 ARG         0.2642
    106 H         -11.2691    6.9352    3.9230 H         1 ARG         0.2615
    107 H         -11.7358    6.8520    5.6249 H         1 ARG         0.2615
    108 H         -10.1988    9.9112    6.4824 H         1 ARG         0.2615
    109 H         -11.1323    8.5301    7.0675 H         1 ARG         0.2615
    110 H          -6.6054   10.7858    1.6604 H         1 THR         0.1884
    111 H          -4.4757    8.7723    2.0499 H         1 THR         0.0826
    112 H          -3.1555   11.1870    2.5337 H         1 THR         0.0639
    113 H          -3.4208   12.2992    0.5033 H         1 THR         0.2101
    114 H          -2.1550    9.1598    1.6175 H         1 THR         0.0257
    115 H          -3.0288    9.4036    0.0852 H         1 THR         0.0257
    116 H          -1.7788   10.5662    0.5920 H         1 THR         0.0257
    117 H          -3.9092    8.4533    4.1709 H         1 LYS         0.1883
    118 H          -5.1946   10.2835    6.1449 H         1 LYS         0.0800
    119 H          -3.9753    7.5678    6.6665 H         1 LYS         0.0312
    120 H          -5.7500    7.9066    6.3810 H         1 LYS         0.0312
    121 H          -5.5378    9.4639    8.3751 H         1 LYS         0.0269
    122 H          -4.0060    8.5633    8.7255 H         1 LYS         0.0269
    123 H          -6.7320    7.3111    8.3949 H         1 LYS         0.0317
    124 H          -5.9458    7.7126    9.9786 H         1 LYS         0.0317
    125 H          -4.1408    6.1916    9.4710 H         1 LYS         0.0813
    126 H          -4.9032    5.8029    7.8829 H         1 LYS         0.0813
    127 H          -5.3729    4.1390    9.5403 H         1 LYS         0.1994
    128 H          -6.0669    5.2758   10.5417 H         1 LYS         0.1994
    129 H          -6.7711    4.9168    9.0747 H         1 LYS         0.1994
    130 H          -3.9070   10.8041    8.0489 H         1 GLN         0.1883
    131 H          -0.9635   10.4343    7.7545 H         1 GLN         0.0801
    132 H          -0.5828   12.7298    8.5416 H         1 GLN         0.0337
    133 H          -2.3440   13.0573    8.2354 H         1 GLN         0.0337
    134 H          -2.0952   13.0253    6.0021 H         1 GLN         0.0504
    135 H          -0.6589   11.9140    6.0729 H         1 GLN         0.0504
    136 H           1.2306   14.7064    5.1183 H         1 GLN         0.1814
    137 H           0.5475   13.1490    4.6398 H         1 GLN         0.1814
    138 H          -0.3340    9.4114    9.5823 H         1 THR         0.1884
    139 H          -1.9463    9.9424   12.0398 H         1 THR         0.0826
    140 H          -2.9827    8.0085   11.2817 H         1 THR         0.0639
    141 H          -2.1905    6.3019   12.6390 H         1 THR         0.2101
    142 H          -1.5366    7.5343    9.3767 H         1 THR         0.0257
    143 H          -0.2715    6.9132   10.4651 H         1 THR         0.0257
    144 H          -1.8215    6.0492   10.3171 H         1 THR         0.0257
    145 H           0.4425    7.3563   11.8543 H         1 ALA         0.1883
    146 H           2.2006    9.0778   13.5498 H         1 ALA         0.0797
    147 H           0.9117    7.5750   14.9998 H         1 ALA         0.0277
    148 H           1.4454    6.1728   14.0407 H         1 ALA         0.0277
    149 H           2.6298    7.1072   14.9866 H         1 ALA         0.0277
    150 H           3.3537    9.3945   11.5270 H         1 ARG         0.1883
    151 H           4.7659    7.0641   10.4547 H         1 ARG         0.0800
    152 H           4.2432    8.6838    8.8731 H         1 ARG         0.0313
    153 H           6.0569    8.7743    9.1625 H         1 ARG         0.0313
    154 H           5.3997   10.9583    8.9368 H         1 ARG         0.0301
    155 H           5.4475   10.6835   10.7151 H         1 ARG         0.0301
    156 H           3.1134   10.5591   10.8572 H         1 ARG         0.0689
    157 H           2.9402   10.4188    9.0656 H         1 ARG         0.0689
    158 H           3.8129   12.7914    9.0035 H         1 ARG         0.2642
    159 H           2.1822   11.5433   11.8901 H         1 ARG         0.2615
    160 H           1.5762   13.1328   12.3671 H         1 ARG         0.2615
    161 H           3.0040   14.8068    9.6081 H         1 ARG         0.2615
    162 H           2.0404   14.9723   11.0796 H         1 ARG         0.2615
    163 H           7.0714    6.8755   10.4485 H         1 M3L         0.1883
    164 H           7.9121    7.0268   13.2477 H         1 M3L         0.0800
    165 H           9.8695    5.6672   12.2756 H         1 M3L         0.0312
    166 H           8.8858    5.6718   10.7319 H         1 M3L         0.0312
    167 H           7.0426    4.7662   12.3631 H         1 M3L         0.0269
    168 H           8.4825    4.2187   13.2952 H         1 M3L         0.0269
    169 H           9.2300    3.4064   10.8856 H         1 M3L         0.0317
    170 H           7.4320    3.3402   10.6633 H         1 M3L         0.0317
    171 H           9.0336    1.9802   12.8262 H         1 M3L         0.0815
    172 H           8.2971    1.1972   11.3497 H         1 M3L         0.0815
    173 H           5.7815    2.7394   11.4187 H         1 M3L         0.0778
    174 H           5.9572    0.9853   11.1665 H         1 M3L         0.0778
    175 H           4.9047    1.5970   12.4662 H         1 M3L         0.0778
    176 H           7.6350    2.7778   14.5668 H         1 M3L         0.0778
    177 H           6.7463    3.7761   13.3901 H         1 M3L         0.0778
    178 H           5.8672    2.6207   14.4213 H         1 M3L         0.0778
    179 H           7.1705   -0.3441   12.7441 H         1 M3L         0.0778
    180 H           7.8919    0.4106   14.1867 H         1 M3L         0.0778
    181 H           6.1233    0.2484   14.0569 H         1 M3L         0.0778
    182 H           7.8956    9.5606   12.5118 H         1 SER         0.1884
    183 H          10.6599   10.3470   11.8269 H         1 SER         0.0823
    184 H           9.8511   12.6126   12.0539 H         1 SER         0.0606
    185 H           8.3206   12.0257   12.7858 H         1 SER         0.0606
    186 H           8.1155   12.5005   10.5363 H         1 SER         0.2097
    187 H           8.4906   10.0955   14.5950 H         1 THR         0.1876
    188 H          10.7842   10.7550   16.3909 H         1 THR         0.0752
    189 O          10.8067    8.4744   17.4401 O.co2     1 THR        -0.5665
    190 H           8.8560   10.9018   18.1298 H         1 THR         0.0632
    191 H           7.2393   10.0184   16.7092 H         1 THR         0.2100
    192 H          10.1304   12.8383   17.3470 H         1 THR         0.0256
    193 H           9.0841   12.9602   15.9112 H         1 THR         0.0256
    194 H           8.4070   13.2461   17.5332 H         1 THR         0.0256
@<TRIPOS>BOND
     1    1    2 1  
     2    2    3 1  
     3    2    5 1  
     4    3    4 2  
     5    3    6 am 
     6    6    7 1  
     7    7    8 1  
     8    7   10 1  
     9    8    9 2  
    10    8   17 am 
    11   10   11 1  
    12   11   12 1  
    13   12   13 1  
    14   13   14 ar 
    15   14   15 ar 
    16   14   16 ar 
    17   17   18 1  
    18   18   19 1  
    19   18   21 1  
    20   19   20 2  
    21   19   24 am 
    22   21   22 1  
    23   21   23 1  
    24   24   25 1  
    25   25   26 1  
    26   25   28 1  
    27   26   27 2  
    28   26   33 am 
    29   28   29 1  
    30   29   30 1  
    31   30   31 1  
    32   31   32 1  
    33   33   34 1  
    34   34   35 1  
    35   34   37 1  
    36   35   36 2  
    37   35   42 am 
    38   37   38 1  
    39   38   39 1  
    40   39   40 2  
    41   39   41 am 
    42   42   43 1  
    43   43   44 1  
    44   43   46 1  
    45   44   45 2  
    46   44   49 am 
    47   46   47 1  
    48   46   48 1  
    49   49   50 1  
    50   50   51 1  
    51   50   53 1  
    52   51   52 2  
    53   51   54 am 
    54   54   55 1  
    55   55   56 1  
    56   55   58 1  
    57   56   57 2  
    58   56   65 am 
    59   58   59 1  
    60   59   60 1  
    61   60   61 1  
    62   61   62 ar 
    63   62   63 ar 
    64   62   64 ar 
    65   65   66 1  
    66   66   67 1  
    67   66   72 1  
    68   67   68 1  
    69   68   69 1  
    70   69   70 1  
    71   70   71 1  
    72   71   74 1  
    73   71   75 1  
    74   71   76 1  
    75   72   73 2  
    76   72   77 am 
    77   77   78 1  
    78   78   79 1  
    79   78   81 1  
    80   79   80 2  
    81   79   83 am 
    82   81   82 1  
    83   83   84 1  
    84   84   85 1  
    85   84   87 1  
    86   85   86 ar 
    87   87   88 1  
    88   87   89 1  
    89    1   90 1  
    90    1   91 1  
    91    1   92 1  
    92    2   93 1  
    93    5   94 1  
    94    5   95 1  
    95    5   96 1  
    96    6   97 1  
    97    7   98 1  
    98   10   99 1  
    99   10  100 1  
   100   11  101 1  
   101   11  102 1  
   102   12  103 1  
   103   12  104 1  
   104   13  105 1  
   105   15  106 1  
   106   15  107 1  
   107   16  108 1  
   108   16  109 1  
   109   17  110 1  
   110   18  111 1  
   111   21  112 1  
   112   22  113 1  
   113   23  114 1  
   114   23  115 1  
   115   23  116 1  
   116   24  117 1  
   117   25  118 1  
   118   28  119 1  
   119   28  120 1  
   120   29  121 1  
   121   29  122 1  
   122   30  123 1  
   123   30  124 1  
   124   31  125 1  
   125   31  126 1  
   126   32  127 1  
   127   32  128 1  
   128   32  129 1  
   129   33  130 1  
   130   34  131 1  
   131   37  132 1  
   132   37  133 1  
   133   38  134 1  
   134   38  135 1  
   135   41  136 1  
   136   41  137 1  
   137   42  138 1  
   138   43  139 1  
   139   46  140 1  
   140   47  141 1  
   141   48  142 1  
   142   48  143 1  
   143   48  144 1  
   144   49  145 1  
   145   50  146 1  
   146   53  147 1  
   147   53  148 1  
   148   53  149 1  
   149   54  150 1  
   150   55  151 1  
   151   58  152 1  
   152   58  153 1  
   153   59  154 1  
   154   59  155 1  
   155   60  156 1  
   156   60  157 1  
   157   61  158 1  
   158   63  159 1  
   159   63  160 1  
   160   64  161 1  
   161   64  162 1  
   162   65  163 1  
   163   66  164 1  
   164   67  165 1  
   165   67  166 1  
   166   68  167 1  
   167   68  168 1  
   168   69  169 1  
   169   69  170 1  
   170   70  171 1  
   171   70  172 1  
   172   74  173 1  
   173   74  174 1  
   174   74  175 1  
   175   75  176 1  
   176   75  177 1  
   177   75  178 1  
   178   76  179 1  
   179   76  180 1  
   180   76  181 1  
   181   77  182 1  
   182   78  183 1  
   183   81  184 1  
   184   81  185 1  
   185   82  186 1  
   186   83  187 1  
   187   84  188 1  
   188   85  189 ar 
   189   87  190 1  
   190   88  191 1  
   191   89  192 1  
   192   89  193 1  
   193   89  194 1  
@<TRIPOS>SUBSTRUCTURE
     1 ALA         1

