2l75_ligand
  -I-interpret- 

193192  0  0  0  0  0  0  0  0999 V2000
   -8.0380   10.2550   -4.9380 N   0  3  0  0  0
   -7.5050    9.1780   -4.0810 C   0  0  0  0  0
   -7.2130    9.7340   -2.6890 C   0  0  0  0  0
   -6.6080   10.7970   -2.5510 O   0  0  0  0  0
   -6.2670    8.5630   -4.7310 C   0  0  0  0  0
   -7.6780    9.0240   -1.6670 N   0  0  0  0  0
   -7.6420    9.5170   -0.2890 C   0  0  0  0  0
   -6.2900    9.2630    0.3660 C   0  0  0  0  0
   -5.5600    8.3770   -0.0480 O   0  0  0  0  0
   -8.7180    8.8110    0.5280 C   0  0  0  0  0
   -8.9760    9.4500    1.8830 C   0  0  0  0  0
   -9.9090    8.6100    2.7280 C   0  0  0  0  0
  -10.0230    9.1280    4.0930 N   0  0  0  0  0
  -10.6420    8.4900    5.0880 C   0  0  0  0  0
  -11.2640    7.3360    4.8610 N   0  0  0  0  0
  -10.6590    9.0180    6.3070 N   0  0  0  0  0
   -5.9770   10.0260    1.3990 N   0  0  0  0  0
   -4.7640    9.8160    2.1750 C   0  0  0  0  0
   -5.0060   10.0900    3.6630 C   0  0  0  0  0
   -5.7550   10.9990    4.0250 O   0  0  0  0  0
   -3.6250   10.7180    1.6690 C   0  0  0  0  0
   -4.1430   11.7460    0.8100 O   0  0  0  0  0
   -2.5720    9.9040    0.9390 C   0  0  0  0  0
   -4.4020    9.2740    4.5230 N   0  0  0  0  0
   -4.4300    9.5290    5.9600 C   0  0  0  0  0
   -3.0700   10.0120    6.4040 C   0  0  0  0  0
   -2.0890    9.8390    5.7010 O   0  0  0  0  0
   -4.8000    8.2730    6.7700 C   0  0  0  0  0
   -4.9910    8.5280    8.2600 C   0  0  0  0  0
   -5.7940    7.4260    8.9380 C   0  0  0  0  0
   -5.0760    6.0870    8.9210 C   0  0  0  0  0
   -5.8860    5.0200    9.5710 N   0  3  0  0  0
   -3.0300   10.6090    7.5660 N   0  0  0  0  0
   -1.7810   11.0050    8.1950 C   0  0  0  0  0
   -1.8840   10.7160    9.6830 C   0  0  0  0  0
   -2.7020   11.3130   10.3800 O   0  0  0  0  0
   -1.4650   12.4780    7.9530 C   0  0  0  0  0
   -1.1550   12.7860    6.4990 C   0  0  0  0  0
   -0.2290   13.9720    6.3310 C   0  0  0  0  0
   -0.2340   14.9010    7.1380 O   0  0  0  0  0
    0.5780   13.9400    5.2830 N   0  0  0  0  0
   -1.0860    9.7810   10.1640 N   0  0  0  0  0
   -1.2670    9.2730   11.5120 C   0  0  0  0  0
    0.0410    9.2900   12.3270 C   0  0  0  0  0
    0.4140   10.3310   12.8710 O   0  0  0  0  0
   -1.9180    7.8610   11.4630 C   0  0  0  0  0
   -1.7780    7.1660   12.7080 O   0  0  0  0  0
   -1.3460    7.0300   10.3240 C   0  0  0  0  0
    0.7500    8.1700   12.3870 N   0  0  0  0  0
    1.9570    8.0760   13.1960 C   0  0  0  0  0
    3.1360    7.5680   12.3790 C   0  0  0  0  0
    3.5030    6.3960   12.4560 O   0  0  0  0  0
    1.7190    7.1680   14.3910 C   0  0  0  0  0
    3.7260    8.4470   11.5900 N   0  0  0  0  0
    4.8960    8.0860   10.8110 C   0  0  0  0  0
    6.1350    8.1520   11.6960 C   0  0  0  0  0
    6.1920    8.9350   12.6510 O   0  0  0  0  0
    5.0540    8.9580    9.5480 C   0  0  0  0  0
    4.9430   10.4400    9.7800 C   0  0  0  0  0
    3.4950   10.8740    9.8860 C   0  0  0  0  0
    3.3540   12.3250    9.7860 N   0  0  0  0  0
    2.6690   13.0850   10.6430 C   0  0  0  0  0
    2.0980   12.5450   11.7170 N   0  0  0  0  0
    2.5630   14.3880   10.4270 N   0  0  0  0  0
    7.1170    7.3370   11.3570 N   0  0  0  0  0
    8.2650    7.0630   12.2170 C   0  0  0  0  0
    8.8800    5.7150   11.8210 C   0  0  0  0  0
    8.0990    4.5020   12.3150 C   0  0  0  0  0
    8.2590    3.3190   11.3730 C   0  0  0  0  0
    8.2180    1.9810   12.1030 C   0  0  0  0  0
    6.9710    1.7490   12.8480 N   0  3  0  0  0
    9.3200    8.1680   12.1510 C   0  0  0  0  0
   10.4970    7.9090   11.8870 O   0  0  0  0  0
    5.8280    1.7690   11.9130 C   0  0  0  0  0
    6.7930    2.8010   13.8750 C   0  0  0  0  0
    7.0440    0.4290   13.5020 C   0  0  0  0  0
    8.8950    9.3950   12.3930 N   0  0  0  0  0
    9.8140   10.5130   12.4940 C   0  0  0  0  0
   10.3260   10.6230   13.9250 C   0  0  0  0  0
   11.4900   10.9500   14.1640 O   0  0  0  0  0
    9.1160   11.8080   12.0730 C   0  0  0  0  0
    8.5470   11.6780   10.7790 O   0  0  0  0  0
    9.4450   10.3290   14.8690 N   0  0  0  0  0
    9.7880   10.3270   16.2790 C   0  0  0  0  0
    9.7970    8.9000   16.8180 C   0  0  0  0  0
    8.8045    8.1428   16.6471 O   0  0  0  0  0
    8.7900   11.1840   17.0790 C   0  0  0  0  0
    7.4570   10.9470   16.6000 O   0  0  0  0  0
    9.1270   12.6630   16.9590 C   0  0  0  0  0
   10.8067    8.4744   17.4401 O   0  0  0  0  0
   -8.8639   10.6607   -4.4980 H   0  0  0  0  0
   -7.3265   10.9759   -5.0581 H   0  0  0  0  0
   -8.2907    9.8700   -5.8481 H   0  0  0  0  0
   -8.2422    8.3825   -3.9721 H   0  0  0  0  0
   -5.4924    9.3239   -4.8264 H   0  0  0  0  0
   -5.9005    7.7454   -4.1103 H   0  0  0  0  0
   -6.5278    8.1824   -5.7185 H   0  0  0  0  0
   -8.0745    8.1020   -1.8490 H   0  0  0  0  0
   -7.8166   10.5926   -0.3164 H   0  0  0  0  0
   -8.3738    7.7927    0.7086 H   0  0  0  0  0
   -9.6467    8.8663   -0.0400 H   0  0  0  0  0
   -9.4403   10.4229    1.7216 H   0  0  0  0  0
   -8.0247    9.5403    2.4073 H   0  0  0  0  0
   -9.5072    7.5980    2.7785 H   0  0  0  0  0
  -10.8980    8.6314    2.2702 H   0  0  0  0  0
   -9.6022   10.0347    4.2961 H   0  0  0  0  0
  -11.7509    6.8609    5.6210 H   0  0  0  0  0
  -11.2540    6.9263    3.9269 H   0  0  0  0  0
  -10.1988    9.9112    6.4824 H   0  0  0  0  0
   -6.6054   10.7858    1.6604 H   0  0  0  0  0
   -4.4757    8.7723    2.0499 H   0  0  0  0  0
   -3.1555   11.1870    2.5337 H   0  0  0  0  0
   -3.4208   12.2992    0.5033 H   0  0  0  0  0
   -2.1550    9.1598    1.6175 H   0  0  0  0  0
   -3.0288    9.4036    0.0852 H   0  0  0  0  0
   -1.7788   10.5662    0.5920 H   0  0  0  0  0
   -3.9092    8.4533    4.1709 H   0  0  0  0  0
   -5.1946   10.2835    6.1449 H   0  0  0  0  0
   -3.9753    7.5678    6.6665 H   0  0  0  0  0
   -5.7500    7.9066    6.3810 H   0  0  0  0  0
   -5.5378    9.4639    8.3751 H   0  0  0  0  0
   -4.0060    8.5633    8.7255 H   0  0  0  0  0
   -6.7320    7.3111    8.3949 H   0  0  0  0  0
   -5.9458    7.7126    9.9786 H   0  0  0  0  0
   -4.1408    6.1916    9.4710 H   0  0  0  0  0
   -4.9032    5.8029    7.8829 H   0  0  0  0  0
   -5.3729    4.1390    9.5403 H   0  0  0  0  0
   -6.0669    5.2758   10.5417 H   0  0  0  0  0
   -6.7711    4.9168    9.0747 H   0  0  0  0  0
   -3.9070   10.8041    8.0489 H   0  0  0  0  0
   -0.9635   10.4343    7.7545 H   0  0  0  0  0
   -0.5828   12.7298    8.5416 H   0  0  0  0  0
   -2.3440   13.0573    8.2354 H   0  0  0  0  0
   -2.0952   13.0253    6.0021 H   0  0  0  0  0
   -0.6589   11.9140    6.0729 H   0  0  0  0  0
    1.2306   14.7064    5.1183 H   0  0  0  0  0
    0.5475   13.1490    4.6398 H   0  0  0  0  0
   -0.3340    9.4114    9.5823 H   0  0  0  0  0
   -1.9463    9.9424   12.0398 H   0  0  0  0  0
   -2.9827    8.0085   11.2817 H   0  0  0  0  0
   -2.1905    6.3019   12.6390 H   0  0  0  0  0
   -1.5366    7.5343    9.3767 H   0  0  0  0  0
   -0.2715    6.9132   10.4651 H   0  0  0  0  0
   -1.8215    6.0492   10.3171 H   0  0  0  0  0
    0.4425    7.3563   11.8543 H   0  0  0  0  0
    2.2006    9.0778   13.5498 H   0  0  0  0  0
    0.9117    7.5750   14.9998 H   0  0  0  0  0
    1.4454    6.1728   14.0407 H   0  0  0  0  0
    2.6298    7.1072   14.9866 H   0  0  0  0  0
    3.3537    9.3945   11.5270 H   0  0  0  0  0
    4.7659    7.0641   10.4547 H   0  0  0  0  0
    4.2432    8.6838    8.8731 H   0  0  0  0  0
    6.0569    8.7743    9.1625 H   0  0  0  0  0
    5.3997   10.9583    8.9368 H   0  0  0  0  0
    5.4475   10.6835   10.7151 H   0  0  0  0  0
    3.1134   10.5591   10.8572 H   0  0  0  0  0
    2.9402   10.4188    9.0656 H   0  0  0  0  0
    3.8129   12.7914    9.0035 H   0  0  0  0  0
    1.5812   13.1337   12.3702 H   0  0  0  0  0
    2.1772   11.5424   11.8870 H   0  0  0  0  0
    3.0040   14.8068    9.6081 H   0  0  0  0  0
    7.0714    6.8755   10.4485 H   0  0  0  0  0
    7.9121    7.0268   13.2477 H   0  0  0  0  0
    9.8695    5.6672   12.2756 H   0  0  0  0  0
    8.8858    5.6718   10.7319 H   0  0  0  0  0
    7.0426    4.7662   12.3631 H   0  0  0  0  0
    8.4825    4.2187   13.2952 H   0  0  0  0  0
    9.2300    3.4064   10.8856 H   0  0  0  0  0
    7.4320    3.3402   10.6633 H   0  0  0  0  0
    9.0336    1.9802   12.8262 H   0  0  0  0  0
    8.2971    1.1972   11.3497 H   0  0  0  0  0
    5.7815    2.7394   11.4187 H   0  0  0  0  0
    5.9572    0.9853   11.1665 H   0  0  0  0  0
    4.9047    1.5970   12.4662 H   0  0  0  0  0
    7.6350    2.7778   14.5668 H   0  0  0  0  0
    6.7463    3.7761   13.3901 H   0  0  0  0  0
    5.8672    2.6207   14.4213 H   0  0  0  0  0
    7.1705   -0.3441   12.7441 H   0  0  0  0  0
    7.8919    0.4106   14.1867 H   0  0  0  0  0
    6.1233    0.2484   14.0569 H   0  0  0  0  0
    7.8956    9.5606   12.5118 H   0  0  0  0  0
   10.6599   10.3470   11.8269 H   0  0  0  0  0
    9.8511   12.6126   12.0539 H   0  0  0  0  0
    8.3206   12.0257   12.7858 H   0  0  0  0  0
    8.1155   12.5005   10.5363 H   0  0  0  0  0
    8.4906   10.0955   14.5950 H   0  0  0  0  0
   10.7842   10.7550   16.3909 H   0  0  0  0  0
    8.8560   10.9018   18.1298 H   0  0  0  0  0
    6.8381   11.4830   17.1012 H   0  0  0  0  0
   10.1304   12.8383   17.3470 H   0  0  0  0  0
    9.0841   12.9602   15.9112 H   0  0  0  0  0
    8.4070   13.2461   17.5332 H   0  0  0  0  0
   11.4696    9.1674   17.4841 H   0  0  0  0  0
  1  2  1  0  0  0
  2  3  1  0  0  0
  2  5  1  0  0  0
  3  4  2  0  0  0
  3  6  1  0  0  0
  6  7  1  0  0  0
  7  8  1  0  0  0
  7 10  1  0  0  0
  8  9  2  0  0  0
  8 17  1  0  0  0
 10 11  1  0  0  0
 11 12  1  0  0  0
 12 13  1  0  0  0
 13 14  1  0  0  0
 14 15  1  0  0  0
 14 16  2  0  0  0
 17 18  1  0  0  0
 18 19  1  0  0  0
 18 21  1  0  0  0
 19 20  2  0  0  0
 19 24  1  0  0  0
 21 22  1  0  0  0
 21 23  1  0  0  0
 24 25  1  0  0  0
 25 26  1  0  0  0
 25 28  1  0  0  0
 26 27  2  0  0  0
 26 33  1  0  0  0
 28 29  1  0  0  0
 29 30  1  0  0  0
 30 31  1  0  0  0
 31 32  1  0  0  0
 33 34  1  0  0  0
 34 35  1  0  0  0
 34 37  1  0  0  0
 35 36  2  0  0  0
 35 42  1  0  0  0
 37 38  1  0  0  0
 38 39  1  0  0  0
 39 40  2  0  0  0
 39 41  1  0  0  0
 42 43  1  0  0  0
 43 44  1  0  0  0
 43 46  1  0  0  0
 44 45  2  0  0  0
 44 49  1  0  0  0
 46 47  1  0  0  0
 46 48  1  0  0  0
 49 50  1  0  0  0
 50 51  1  0  0  0
 50 53  1  0  0  0
 51 52  2  0  0  0
 51 54  1  0  0  0
 54 55  1  0  0  0
 55 56  1  0  0  0
 55 58  1  0  0  0
 56 57  2  0  0  0
 56 65  1  0  0  0
 58 59  1  0  0  0
 59 60  1  0  0  0
 60 61  1  0  0  0
 61 62  1  0  0  0
 62 63  1  0  0  0
 62 64  2  0  0  0
 65 66  1  0  0  0
 66 67  1  0  0  0
 66 72  1  0  0  0
 67 68  1  0  0  0
 68 69  1  0  0  0
 69 70  1  0  0  0
 70 71  1  0  0  0
 71 74  1  0  0  0
 71 75  1  0  0  0
 71 76  1  0  0  0
 72 73  2  0  0  0
 72 77  1  0  0  0
 77 78  1  0  0  0
 78 79  1  0  0  0
 78 81  1  0  0  0
 79 80  2  0  0  0
 79 83  1  0  0  0
 81 82  1  0  0  0
 83 84  1  0  0  0
 84 85  1  0  0  0
 84 87  1  0  0  0
 85 86  2  0  0  0
 87 88  1  0  0  0
 87 89  1  0  0  0
 85 90  1  0  0  0
  1 91  1  0  0  0
  1 92  1  0  0  0
  1 93  1  0  0  0
  2 94  1  0  0  0
  5 95  1  0  0  0
  5 96  1  0  0  0
  5 97  1  0  0  0
  6 98  1  0  0  0
  7 99  1  0  0  0
 10100  1  0  0  0
 10101  1  0  0  0
 11102  1  0  0  0
 11103  1  0  0  0
 12104  1  0  0  0
 12105  1  0  0  0
 13106  1  0  0  0
 15107  1  0  0  0
 15108  1  0  0  0
 16109  1  0  0  0
 17110  1  0  0  0
 18111  1  0  0  0
 21112  1  0  0  0
 22113  1  0  0  0
 23114  1  0  0  0
 23115  1  0  0  0
 23116  1  0  0  0
 24117  1  0  0  0
 25118  1  0  0  0
 28119  1  0  0  0
 28120  1  0  0  0
 29121  1  0  0  0
 29122  1  0  0  0
 30123  1  0  0  0
 30124  1  0  0  0
 31125  1  0  0  0
 31126  1  0  0  0
 32127  1  0  0  0
 32128  1  0  0  0
 32129  1  0  0  0
 33130  1  0  0  0
 34131  1  0  0  0
 37132  1  0  0  0
 37133  1  0  0  0
 38134  1  0  0  0
 38135  1  0  0  0
 41136  1  0  0  0
 41137  1  0  0  0
 42138  1  0  0  0
 43139  1  0  0  0
 46140  1  0  0  0
 47141  1  0  0  0
 48142  1  0  0  0
 48143  1  0  0  0
 48144  1  0  0  0
 49145  1  0  0  0
 50146  1  0  0  0
 53147  1  0  0  0
 53148  1  0  0  0
 53149  1  0  0  0
 54150  1  0  0  0
 55151  1  0  0  0
 58152  1  0  0  0
 58153  1  0  0  0
 59154  1  0  0  0
 59155  1  0  0  0
 60156  1  0  0  0
 60157  1  0  0  0
 61158  1  0  0  0
 63159  1  0  0  0
 63160  1  0  0  0
 64161  1  0  0  0
 65162  1  0  0  0
 66163  1  0  0  0
 67164  1  0  0  0
 67165  1  0  0  0
 68166  1  0  0  0
 68167  1  0  0  0
 69168  1  0  0  0
 69169  1  0  0  0
 70170  1  0  0  0
 70171  1  0  0  0
 74172  1  0  0  0
 74173  1  0  0  0
 74174  1  0  0  0
 75175  1  0  0  0
 75176  1  0  0  0
 75177  1  0  0  0
 76178  1  0  0  0
 76179  1  0  0  0
 76180  1  0  0  0
 77181  1  0  0  0
 78182  1  0  0  0
 81183  1  0  0  0
 81184  1  0  0  0
 82185  1  0  0  0
 83186  1  0  0  0
 84187  1  0  0  0
 87188  1  0  0  0
 88189  1  0  0  0
 89190  1  0  0  0
 89191  1  0  0  0
 89192  1  0  0  0
 90193  1  0  0  0
M  END
$$$$
