### 
### Created by X-TOOL on Mon Sep 10 21:12:49 2018
### 

@<TRIPOS>MOLECULE
1jq9_ligand
   96    97     1     0     0
SMALL
GAST_HUCK


@<TRIPOS>ATOM
      1 N           8.5750   15.7090   38.3060 N.4       1 PHE         0.2394
      2 CA          9.6020   15.8610   37.2350 C.3       1 PHE         0.0744
      3 C           9.8300   17.3450   36.9780 C.2       1 PHE         0.2288
      4 O           9.8030   17.7720   35.8240 O.2       1 PHE        -0.3905
      5 CB          9.1170   15.2150   35.9330 C.3       1 PHE         0.0416
      6 CG          8.0920   14.1340   36.1310 C.ar      1 PHE        -0.0353
      7 CD1         8.4280   12.9400   36.7600 C.ar      1 PHE        -0.0600
      8 CD2         6.7800   14.3170   35.7000 C.ar      1 PHE        -0.0600
      9 CE1         7.4730   11.9440   36.9590 C.ar      1 PHE        -0.0686
     10 CE2         5.8180   13.3280   35.8960 C.ar      1 PHE        -0.0686
     11 CZ          6.1640   12.1390   36.5260 C.ar      1 PHE        -0.0687
     12 N          10.1140   17.7640   38.5350 N.am      1 LEU        -0.2609
     13 CA         10.3180   19.2050   38.4100 C.3       1 LEU         0.1313
     14 C          10.7950   20.0580   39.5860 C.2       1 LEU         0.2040
     15 O          10.3390   21.1900   39.7310 O.2       1 LEU        -0.3944
     16 CB          9.0340   19.8430   37.8730 C.3       1 LEU        -0.0101
     17 CG          7.6400   19.5000   38.4290 C.3       1 LEU        -0.0425
     18 CD1         7.2160   18.1030   38.0040 C.3       1 LEU        -0.0625
     19 CD2         7.6400   19.6160   39.9250 C.3       1 LEU        -0.0625
     20 N          11.7100   19.5640   40.4120 N.am      1 SER        -0.2616
     21 CA         12.1740   20.3780   41.5350 C.3       1 SER         0.1539
     22 C          13.6800   20.6050   41.5720 C.2       1 SER         0.2063
     23 O          14.4560   19.6990   41.2890 O.2       1 SER        -0.3943
     24 CB         11.7240   19.7650   42.8580 C.3       1 SER         0.0843
     25 OG         12.1760   20.5610   43.9390 O.3       1 SER        -0.3903
     26 N          14.0810   21.8210   41.9330 N.am      1 TYR        -0.2621
     27 CA         15.4940   22.1830   42.0050 C.3       1 TYR         0.1390
     28 C          15.9400   22.1160   43.4620 C.2       1 TYR         0.2052
     29 O          15.3160   21.4330   44.2750 O.2       1 TYR        -0.3943
     30 CB         15.6850   23.6030   41.4590 C.3       1 TYR         0.0163
     31 CG         17.0160   23.8740   40.7800 C.ar      1 TYR        -0.0493
     32 CD1        18.0890   24.4260   41.4820 C.ar      1 TYR        -0.0685
     33 CD2        17.1870   23.6100   39.4210 C.ar      1 TYR        -0.0685
     34 CE1        19.2980   24.7160   40.8420 C.ar      1 TYR        -0.0398
     35 CE2        18.3870   23.8930   38.7750 C.ar      1 TYR        -0.0398
     36 CZ         19.4360   24.4480   39.4880 C.ar      1 TYR         0.0805
     37 OH         20.6120   24.7520   38.8410 O.3       1 TYR        -0.3376
     38 N          17.0230   22.8160   43.7850 N.am      1 LYS        -0.2694
     39 CA         17.4770   22.8520   45.1510 C.3       1 LYS         0.0944
     40 C          18.0450   21.5090   45.6040 C.2       1 LYS         0.0601
     41 O          17.9440   21.1520   46.7730 O.co2     1 LYS        -0.5666
     42 CB         16.3280   23.2500   46.0730 C.3       1 LYS        -0.0177
     43 CG         16.6650   24.4650   46.8830 C.3       1 LYS        -0.0446
     44 CD         18.0620   24.4670   47.2200 C.3       1 LYS        -0.0125
     45 CE         18.8530   25.1120   46.5700 C.3       1 LYS        -0.0354
     46 NZ         19.9650   25.8140   47.2620 N.4       1 LYS         0.2185
     47 OXT        18.9400   20.9320   44.9460 O.co2     1 LYS        -0.5666
     48 H1          8.4170   14.7294   38.4834 H         1 PHE         0.2017
     49 H2          7.7135   16.1398   38.0090 H         1 PHE         0.2017
     50 H3          8.9004   16.1550   39.1494 H         1 PHE         0.2017
     51 H4         10.5412   15.3867   37.5558 H         1 PHE         0.1122
     52 H5          9.9859   14.7777   35.4194 H         1 PHE         0.0507
     53 H6          8.6745   15.9996   35.3017 H         1 PHE         0.0507
     54 H7          9.4451   12.7818   37.0998 H         1 PHE         0.0557
     55 H8          6.5036   15.2412   35.2055 H         1 PHE         0.0557
     56 H9          7.7493   11.0182   37.4506 H         1 PHE         0.0599
     57 H10         4.8005   13.4862   35.5572 H         1 PHE         0.0599
     58 H11         5.4187   11.3670   36.6797 H         1 PHE         0.0559
     59 H12        10.1407   17.1881   39.3521 H         1 LEU         0.1885
     60 H13        11.0959   19.3149   37.6401 H         1 LEU         0.0800
     61 H14         9.0010   19.6043   36.7997 H         1 LEU         0.0315
     62 H15         9.1554   20.9284   38.0037 H         1 LEU         0.0315
     63 H16         6.9157   20.2210   38.0223 H         1 LEU         0.0298
     64 H17         6.2190   17.8821   38.4129 H         1 LEU         0.0232
     65 H18         7.9399   17.3680   38.3858 H         1 LEU         0.0232
     66 H19         7.1823   18.0482   36.9059 H         1 LEU         0.0232
     67 H20         7.9487   20.6315   40.2140 H         1 LEU         0.0232
     68 H21         8.3431   18.8843   40.3495 H         1 LEU         0.0232
     69 H22         6.6282   19.4174   40.3082 H         1 LEU         0.0232
     70 H23        12.0778   18.6453   40.2677 H         1 SER         0.1884
     71 H24        11.6977   21.3646   41.4364 H         1 SER         0.0823
     72 H25        12.1428   18.7521   42.9514 H         1 SER         0.0606
     73 H26        10.6255   19.7111   42.8797 H         1 SER         0.0606
     74 H27        13.1247   20.6071   43.9218 H         1 SER         0.2097
     75 H28        13.3928   22.5093   42.1624 H         1 TYR         0.1885
     76 H29        16.0884   21.4780   41.4052 H         1 TYR         0.0821
     77 H30        15.5858   24.3047   42.3002 H         1 TYR         0.0453
     78 H31        14.8869   23.7936   40.7264 H         1 TYR         0.0453
     79 H32        17.9832   24.6332   42.5407 H         1 TYR         0.0530
     80 H33        16.3693   23.1760   38.8570 H         1 TYR         0.0530
     81 H34        20.1214   25.1471   41.3999 H         1 TYR         0.0525
     82 H35        18.4997   23.6798   37.7182 H         1 TYR         0.0525
     83 H36        21.3267   24.2730   39.2438 H         1 TYR         0.2458
     84 H37        17.5226   23.3178   43.0789 H         1 LYS         0.1875
     85 H38        18.2719   23.6083   45.2291 H         1 LYS         0.0726
     86 H39        16.1124   22.4147   46.7555 H         1 LYS         0.0305
     87 H40        15.4383   23.4637   45.4625 H         1 LYS         0.0305
     88 H41        16.0686   24.4620   47.8073 H         1 LYS         0.0269
     89 H42        16.4313   25.3672   46.2987 H         1 LYS         0.0269
     90 H43        18.3977   23.4205   47.1750 H         1 LYS         0.0317
     91 H44        18.1350   24.8313   48.2553 H         1 LYS         0.0317
     92 H45        18.2760   25.8784   46.0317 H         1 LYS         0.0813
     93 H46        19.3110   24.4220   45.8460 H         1 LYS         0.0813
     94 H47        20.5288   26.3012   46.5832 H         1 LYS         0.1994
     95 H48        20.5345   25.1412   47.7510 H         1 LYS         0.1994
     96 H49        19.5861   26.4758   47.9212 H         1 LYS         0.1994
@<TRIPOS>BOND
     1    3    2 1  
     2    2    5 1  
     3    2    1 1  
     4    5    6 1  
     5    6    8 ar 
     6    6    7 ar 
     7    7    9 ar 
     8    9   11 ar 
     9   10   11 ar 
    10    8   10 ar 
    11    3    4 2  
    12   14   13 1  
    13   13   16 1  
    14   13   12 1  
    15   16   17 1  
    16   17   19 1  
    17   17   18 1  
    18   14   15 2  
    19   22   21 1  
    20   21   24 1  
    21   21   20 1  
    22   24   25 1  
    23   22   23 2  
    24   28   27 1  
    25   27   30 1  
    26   27   26 1  
    27   30   31 1  
    28   31   33 ar 
    29   31   32 ar 
    30   32   34 ar 
    31   34   36 ar 
    32   36   37 1  
    33   35   36 ar 
    34   33   35 ar 
    35   28   29 2  
    36   39   40 1  
    37   39   42 1  
    38   38   39 1  
    39   42   43 1  
    40   43   44 1  
    41   44   45 1  
    42   45   46 1  
    43   40   47 ar 
    44   40   41 ar 
    45   12    3 am 
    46   20   14 am 
    47   26   22 am 
    48   28   38 am 
    49    1   48 1  
    50    1   49 1  
    51    1   50 1  
    52    2   51 1  
    53    5   52 1  
    54    5   53 1  
    55    7   54 1  
    56    8   55 1  
    57    9   56 1  
    58   10   57 1  
    59   11   58 1  
    60   12   59 1  
    61   13   60 1  
    62   16   61 1  
    63   16   62 1  
    64   17   63 1  
    65   18   64 1  
    66   18   65 1  
    67   18   66 1  
    68   19   67 1  
    69   19   68 1  
    70   19   69 1  
    71   20   70 1  
    72   21   71 1  
    73   24   72 1  
    74   24   73 1  
    75   25   74 1  
    76   26   75 1  
    77   27   76 1  
    78   30   77 1  
    79   30   78 1  
    80   32   79 1  
    81   33   80 1  
    82   34   81 1  
    83   35   82 1  
    84   37   83 1  
    85   38   84 1  
    86   39   85 1  
    87   42   86 1  
    88   42   87 1  
    89   43   88 1  
    90   43   89 1  
    91   44   90 1  
    92   44   91 1  
    93   45   92 1  
    94   45   93 1  
    95   46   94 1  
    96   46   95 1  
    97   46   96 1  
@<TRIPOS>SUBSTRUCTURE
     1 PHE         1

