1jq9_ligand
  -I-interpret- 

 97 98  0  0  0  0  0  0  0  0999 V2000
    8.5750   15.7090   38.3060 N   0  3  0  0  0
    9.6020   15.8610   37.2350 C   0  0  0  0  0
    9.8300   17.3450   36.9780 C   0  0  0  0  0
    9.8030   17.7720   35.8240 O   0  0  0  0  0
    9.1170   15.2150   35.9330 C   0  0  0  0  0
    8.0920   14.1340   36.1310 C   0  0  0  0  0
    8.4280   12.9400   36.7600 C   0  0  0  0  0
    6.7800   14.3170   35.7000 C   0  0  0  0  0
    7.4730   11.9440   36.9590 C   0  0  0  0  0
    5.8180   13.3280   35.8960 C   0  0  0  0  0
    6.1640   12.1390   36.5260 C   0  0  0  0  0
   10.1140   17.7640   38.5350 N   0  0  0  0  0
   10.3180   19.2050   38.4100 C   0  0  0  0  0
   10.7950   20.0580   39.5860 C   0  0  0  0  0
   10.3390   21.1900   39.7310 O   0  0  0  0  0
    9.0340   19.8430   37.8730 C   0  0  0  0  0
    7.6400   19.5000   38.4290 C   0  0  0  0  0
    7.2160   18.1030   38.0040 C   0  0  0  0  0
    7.6400   19.6160   39.9250 C   0  0  0  0  0
   11.7100   19.5640   40.4120 N   0  0  0  0  0
   12.1740   20.3780   41.5350 C   0  0  0  0  0
   13.6800   20.6050   41.5720 C   0  0  0  0  0
   14.4560   19.6990   41.2890 O   0  0  0  0  0
   11.7240   19.7650   42.8580 C   0  0  0  0  0
   12.1760   20.5610   43.9390 O   0  0  0  0  0
   14.0810   21.8210   41.9330 N   0  0  0  0  0
   15.4940   22.1830   42.0050 C   0  0  0  0  0
   15.9400   22.1160   43.4620 C   0  0  0  0  0
   15.3160   21.4330   44.2750 O   0  0  0  0  0
   15.6850   23.6030   41.4590 C   0  0  0  0  0
   17.0160   23.8740   40.7800 C   0  0  0  0  0
   18.0890   24.4260   41.4820 C   0  0  0  0  0
   17.1870   23.6100   39.4210 C   0  0  0  0  0
   19.2980   24.7160   40.8420 C   0  0  0  0  0
   18.3870   23.8930   38.7750 C   0  0  0  0  0
   19.4360   24.4480   39.4880 C   0  0  0  0  0
   20.6120   24.7520   38.8410 O   0  0  0  0  0
   17.0230   22.8160   43.7850 N   0  0  0  0  0
   17.4770   22.8520   45.1510 C   0  0  0  0  0
   18.0450   21.5090   45.6040 C   0  0  0  0  0
   17.9440   21.1520   46.7730 O   0  0  0  0  0
   16.3280   23.2500   46.0730 C   0  0  0  0  0
   16.6650   24.4650   46.8830 C   0  0  0  0  0
   18.0620   24.4670   47.2200 C   0  0  0  0  0
   18.8530   25.1120   46.5700 C   0  0  0  0  0
   19.9650   25.8140   47.2620 N   0  3  0  0  0
   18.9400   20.9320   44.9460 O   0  0  0  0  0
    8.9136   16.1439   39.1643 H   0  0  0  0  0
    7.7096   16.1621   38.0123 H   0  0  0  0  0
    8.4020   14.7175   38.4712 H   0  0  0  0  0
   10.5229   15.3758   37.5584 H   0  0  0  0  0
    9.9837   14.7553   35.4580 H   0  0  0  0  0
    8.6487   15.9992   35.3381 H   0  0  0  0  0
    9.4508   12.7809   37.1017 H   0  0  0  0  0
    6.5021   15.2463   35.2027 H   0  0  0  0  0
    7.7509   11.0131   37.4533 H   0  0  0  0  0
    4.7949   13.4871   35.5553 H   0  0  0  0  0
    5.4146   11.3627   36.6805 H   0  0  0  0  0
   10.1412   17.1766   39.3684 H   0  0  0  0  0
   11.1873   19.2206   37.7526 H   0  0  0  0  0
    8.9882   19.4865   36.8440 H   0  0  0  0  0
    9.1526   20.8966   38.1261 H   0  0  0  0  0
    6.9210   20.2099   38.0201 H   0  0  0  0  0
    7.1830   18.0500   36.9158 H   0  0  0  0  0
    7.9341   17.3757   38.3829 H   0  0  0  0  0
    6.2280   17.8853   38.4098 H   0  0  0  0  0
    8.3725   18.9247   40.3417 H   0  0  0  0  0
    7.8985   20.6361   40.2090 H   0  0  0  0  0
    6.6490   19.3711   40.3071 H   0  0  0  0  0
   12.0851   18.6270   40.2648 H   0  0  0  0  0
   11.7187   21.3570   41.3857 H   0  0  0  0  0
   12.1435   18.7632   42.9502 H   0  0  0  0  0
   10.6353   19.7164   42.8789 H   0  0  0  0  0
   11.8885   20.1681   44.7664 H   0  0  0  0  0
   13.3790   22.5231   42.1670 H   0  0  0  0  0
   16.0918   21.4943   41.4080 H   0  0  0  0  0
   15.6342   24.2731   42.3172 H   0  0  0  0  0
   14.9162   23.7479   40.7000 H   0  0  0  0  0
   17.9826   24.6344   42.5466 H   0  0  0  0  0
   16.3648   23.1736   38.8539 H   0  0  0  0  0
   20.1259   25.1495   41.4030 H   0  0  0  0  0
   18.5004   23.6786   37.7123 H   0  0  0  0  0
   20.5404   24.5044   37.9162 H   0  0  0  0  0
   17.5326   23.3279   43.0648 H   0  0  0  0  0
   18.2763   23.5910   45.2059 H   0  0  0  0  0
   16.1335   22.4237   46.7568 H   0  0  0  0  0
   15.4567   23.4769   45.4587 H   0  0  0  0  0
   16.0772   24.4554   47.8009 H   0  0  0  0  0
   16.4383   25.3568   46.2986 H   0  0  0  0  0
   18.3740   23.4333   47.0709 H   0  0  0  0  0
   18.0970   24.9212   48.2102 H   0  0  0  0  0
   18.2592   25.9080   46.1207 H   0  0  0  0  0
   19.3437   24.3820   45.9262 H   0  0  0  0  0
   20.5348   26.3066   46.5742 H   0  0  0  0  0
   19.5803   26.4833   47.9287 H   0  0  0  0  0
   20.5405   25.1322   47.7564 H   0  0  0  0  0
   18.9458   21.2727   44.0485 H   0  0  0  0  0
  3  2  1  0  0  0
  2  5  1  0  0  0
  2  1  1  0  0  0
  5  6  1  0  0  0
  6  8  4  0  0  0
  6  7  4  0  0  0
  7  9  4  0  0  0
  9 11  4  0  0  0
 10 11  4  0  0  0
  8 10  4  0  0  0
  3  4  2  0  0  0
 14 13  1  0  0  0
 13 16  1  0  0  0
 13 12  1  0  0  0
 16 17  1  0  0  0
 17 19  1  0  0  0
 17 18  1  0  0  0
 14 15  2  0  0  0
 22 21  1  0  0  0
 21 24  1  0  0  0
 21 20  1  0  0  0
 24 25  1  0  0  0
 22 23  2  0  0  0
 28 27  1  0  0  0
 27 30  1  0  0  0
 27 26  1  0  0  0
 30 31  1  0  0  0
 31 33  4  0  0  0
 31 32  4  0  0  0
 32 34  4  0  0  0
 34 36  4  0  0  0
 36 37  1  0  0  0
 35 36  4  0  0  0
 33 35  4  0  0  0
 28 29  2  0  0  0
 39 40  1  0  0  0
 39 42  1  0  0  0
 38 39  1  0  0  0
 42 43  1  0  0  0
 43 44  1  0  0  0
 44 45  1  0  0  0
 45 46  1  0  0  0
 40 47  1  0  0  0
 40 41  2  0  0  0
 12  3  1  0  0  0
 20 14  1  0  0  0
 26 22  1  0  0  0
 28 38  1  0  0  0
  1 48  1  0  0  0
  1 49  1  0  0  0
  1 50  1  0  0  0
  2 51  1  0  0  0
  5 52  1  0  0  0
  5 53  1  0  0  0
  7 54  1  0  0  0
  8 55  1  0  0  0
  9 56  1  0  0  0
 10 57  1  0  0  0
 11 58  1  0  0  0
 12 59  1  0  0  0
 13 60  1  0  0  0
 16 61  1  0  0  0
 16 62  1  0  0  0
 17 63  1  0  0  0
 18 64  1  0  0  0
 18 65  1  0  0  0
 18 66  1  0  0  0
 19 67  1  0  0  0
 19 68  1  0  0  0
 19 69  1  0  0  0
 20 70  1  0  0  0
 21 71  1  0  0  0
 24 72  1  0  0  0
 24 73  1  0  0  0
 25 74  1  0  0  0
 26 75  1  0  0  0
 27 76  1  0  0  0
 30 77  1  0  0  0
 30 78  1  0  0  0
 32 79  1  0  0  0
 33 80  1  0  0  0
 34 81  1  0  0  0
 35 82  1  0  0  0
 37 83  1  0  0  0
 38 84  1  0  0  0
 39 85  1  0  0  0
 42 86  1  0  0  0
 42 87  1  0  0  0
 43 88  1  0  0  0
 43 89  1  0  0  0
 44 90  1  0  0  0
 44 91  1  0  0  0
 45 92  1  0  0  0
 45 93  1  0  0  0
 46 94  1  0  0  0
 46 95  1  0  0  0
 46 96  1  0  0  0
 47 97  1  0  0  0
M  END
$$$$
