4g8r_ligand
  -I-interpret- 

 61 63  0  0  0  0  0  0  0  0999 V2000
  -31.4810  -17.9620   42.3120 F   0  0  0  0  0
  -30.3020  -18.5540   42.4370 C   0  0  0  0  0
  -30.2260  -18.9700   43.6920 F   0  0  0  0  0
  -30.3770  -19.6580   41.6980 F   0  0  0  0  0
  -29.1550  -17.6750   42.0510 C   0  0  0  0  0
  -27.9980  -18.2190   41.5040 C   0  0  0  0  0
  -26.9360  -17.4030   41.1470 C   0  0  0  0  0
  -27.0150  -16.0310   41.3350 C   0  0  0  0  0
  -29.2300  -16.2970   42.2390 C   0  0  0  0  0
  -28.1630  -15.4820   41.8850 C   0  0  0  0  0
  -28.1840  -14.0900   42.1120 O   0  0  0  0  0
  -28.3820  -13.2630   41.0350 C   0  0  0  0  0
  -29.2420  -13.4450   40.2010 O   0  0  0  0  0
  -27.4540  -12.2940   40.9850 N   0  0  0  0  0
  -27.2280  -11.4940   39.7880 C   0  0  0  0  0
  -26.4310  -12.2010   38.7060 C   0  0  0  0  0
  -25.0870  -12.6560   39.0630 O   0  0  0  0  0
  -24.9420  -13.9160   39.5010 C   0  0  0  0  0
  -23.7130  -14.0820   40.3350 C   0  0  0  0  0
  -22.7950  -13.0410   40.4690 C   0  0  0  0  0
  -21.6960  -13.1870   41.3020 C   0  0  0  0  0
  -20.7550  -12.2120   41.4160 O   0  0  0  0  0
  -21.5100  -14.3670   42.0250 C   0  0  0  0  0
  -20.4260  -14.4910   42.8400 O   0  0  0  0  0
  -22.4390  -15.4020   41.8970 C   0  0  0  0  0
  -22.2440  -16.5540   42.5850 O   0  0  0  0  0
  -23.5310  -15.2630   41.0540 C   0  0  0  0  0
  -25.6950  -14.8080   39.2120 O   0  0  0  0  0
  -26.2430  -11.2970   37.5230 C   0  0  0  0  0
  -27.5430  -10.9510   36.9960 O   0  0  0  0  0
  -27.6740  -10.9170   35.6630 C   0  0  0  0  0
  -26.7820  -11.1840   34.8950 O   0  0  0  0  0
  -29.0360  -10.4940   35.2470 C   0  0  0  0  0
  -29.3150  -10.3160   33.8950 C   0  0  0  0  0
  -30.5500   -9.8300   33.5000 C   0  0  0  0  0
  -30.7610   -9.5800   32.1820 O   0  0  0  0  0
  -31.5330   -9.5420   34.4520 C   0  0  0  0  0
  -32.7490   -9.0590   34.0800 O   0  0  0  0  0
  -31.2530   -9.7390   35.8050 C   0  0  0  0  0
  -32.2050   -9.4740   36.7420 O   0  0  0  0  0
  -30.0100  -10.2080   36.2010 C   0  0  0  0  0
  -27.9257  -19.2963   41.3547 H   0  0  0  0  0
  -26.0354  -17.8411   40.7169 H   0  0  0  0  0
  -26.1805  -15.3892   41.0524 H   0  0  0  0  0
  -30.1307  -15.8562   42.6661 H   0  0  0  0  0
  -26.8876  -12.1115   41.8134 H   0  0  0  0  0
  -26.6526  -10.6191   40.0906 H   0  0  0  0  0
  -28.2065  -11.2631   39.3668 H   0  0  0  0  0
  -27.0372  -13.0853   38.5095 H   0  0  0  0  0
  -22.9414  -12.1117   39.9185 H   0  0  0  0  0
  -20.0770  -12.4939   42.0344 H   0  0  0  0  0
  -20.4418  -15.3528   43.2627 H   0  0  0  0  0
  -22.9606  -17.1639   42.3953 H   0  0  0  0  0
  -24.2480  -16.0777   40.9531 H   0  0  0  0  0
  -25.6554  -11.8044   36.7579 H   0  0  0  0  0
  -25.7132  -10.3940   37.8265 H   0  0  0  0  0
  -28.5608  -10.5593   33.1466 H   0  0  0  0  0
  -31.6542   -9.2502   32.0590 H   0  0  0  0  0
  -33.2900   -8.9215   34.8610 H   0  0  0  0  0
  -31.8534   -9.6610   37.6155 H   0  0  0  0  0
  -29.7946  -10.3531   37.2596 H   0  0  0  0  0
  1  2  1  0  0  0
  2  3  1  0  0  0
  2  4  1  0  0  0
  2  5  1  0  0  0
  5  6  4  0  0  0
  5  9  4  0  0  0
  6  7  4  0  0  0
  7  8  4  0  0  0
  8 10  4  0  0  0
  9 10  4  0  0  0
 10 11  1  0  0  0
 11 12  1  0  0  0
 12 13  2  0  0  0
 12 14  1  0  0  0
 14 15  1  0  0  0
 15 16  1  0  0  0
 16 17  1  0  0  0
 16 29  1  0  0  0
 17 18  1  0  0  0
 18 19  1  0  0  0
 18 28  2  0  0  0
 19 20  4  0  0  0
 19 27  4  0  0  0
 20 21  4  0  0  0
 21 22  1  0  0  0
 21 23  4  0  0  0
 23 24  1  0  0  0
 23 25  4  0  0  0
 25 26  1  0  0  0
 25 27  4  0  0  0
 29 30  1  0  0  0
 30 31  1  0  0  0
 31 32  2  0  0  0
 31 33  1  0  0  0
 33 34  4  0  0  0
 33 41  4  0  0  0
 34 35  4  0  0  0
 35 36  1  0  0  0
 35 37  4  0  0  0
 37 38  1  0  0  0
 37 39  4  0  0  0
 39 40  1  0  0  0
 39 41  4  0  0  0
  6 42  1  0  0  0
  7 43  1  0  0  0
  8 44  1  0  0  0
  9 45  1  0  0  0
 14 46  1  0  0  0
 15 47  1  0  0  0
 15 48  1  0  0  0
 16 49  1  0  0  0
 20 50  1  0  0  0
 22 51  1  0  0  0
 24 52  1  0  0  0
 26 53  1  0  0  0
 27 54  1  0  0  0
 29 55  1  0  0  0
 29 56  1  0  0  0
 34 57  1  0  0  0
 36 58  1  0  0  0
 38 59  1  0  0  0
 40 60  1  0  0  0
 41 61  1  0  0  0
M  END
$$$$
