5mwj_ligand
  -I-interpret- 

118124  0  0  0  0  0  0  0  0999 V2000
   54.1150  -14.2210   59.1280 N   0  0  0  0  0
   55.1880  -14.4580   55.8830 N   0  0  0  0  0
   59.0230  -17.1460   58.5920 N   0  0  0  0  0
   59.6930  -19.4910   58.5120 N   0  0  0  0  0
   54.6050  -16.3730   58.6130 O   0  0  0  0  0
   54.5320  -15.4560   59.4360 C   0  0  0  0  0
   54.8970  -15.6930   60.9210 C   0  0  0  0  0
   56.2170  -15.0320   61.2740 C   0  0  0  0  0
   56.5890  -15.1500   62.7300 C   0  0  0  0  0
   57.4540  -16.1490   63.1640 C   0  0  0  0  0
   57.8880  -16.1890   64.4830 C   0  0  0  0  0
   57.4670  -15.2270   65.3830 C   0  0  0  0  0
   56.5860  -14.2430   64.9700 C   0  0  0  0  0
   56.1410  -14.2130   63.6550 C   0  0  0  0  0
   55.0040  -17.1430   61.1840 N   0  3  0  0  0
   53.7470  -13.8590   57.7650 C   0  0  0  0  0
   52.7920  -12.6540   57.7560 C   0  0  0  0  0
   52.5460  -12.0950   56.3870 C   0  0  0  0  0
   53.2320  -11.0020   55.7520 C   0  0  0  0  0
   54.2080  -10.0940   56.1670 C   0  0  0  0  0
   54.7340   -9.1760   55.2610 C   0  0  0  0  0
   54.2890   -9.1490   53.9530 C   0  0  0  0  0
   53.3080  -10.0340   53.5210 C   0  0  0  0  0
   52.7850  -10.9570   54.4290 C   0  0  0  0  0
   51.8440  -11.9630   54.2680 N   0  0  0  0  0
   51.7140  -12.6300   55.4530 C   0  0  0  0  0
   51.0480  -12.2550   53.0730 C   0  0  0  0  0
   51.8620  -12.8540   51.9390 C   0  0  0  0  0
   53.0460  -13.7200   52.3460 C   0  0  0  0  0
   54.0220  -13.9470   51.1880 C   0  0  0  0  0
   55.5320  -13.4290   51.5150 C   0  0  0  0  0
   55.4120  -11.9020   51.3410 C   0  0  0  0  0
   56.6310  -11.3790   52.0730 C   0  0  0  0  0
   56.7510  -12.2730   53.2910 C   0  0  0  0  0
   56.1400  -13.5430   52.8550 N   0  0  0  0  0
   56.0710  -14.6410   53.6630 C   0  0  0  0  0
   55.6460  -15.7080   53.2680 O   0  0  0  0  0
   56.4410  -14.5240   55.1400 C   0  0  0  0  0
   57.2500  -15.7790   55.5010 C   0  0  0  0  0
   57.7400  -15.8520   56.9490 C   0  0  0  0  0
   58.4740  -17.1520   57.2420 C   0  0  0  0  0
   59.6160  -18.2760   59.2550 C   0  0  0  0  0
   60.0470  -18.1120   60.4750 N   0  0  0  0  0
   55.0080  -13.6400   56.9240 C   0  0  0  0  0
   55.8260  -12.7860   57.2510 O   0  0  0  0  0
   56.3980  -14.2150   50.4140 C   0  0  0  0  0
   56.0610  -14.1930   49.2340 O   0  0  0  0  0
   57.5350  -14.7900   50.8140 N   0  0  0  0  0
   58.5940  -15.0910   49.8620 C   0  0  0  0  0
   58.5540  -16.5210   49.3380 C   0  0  0  0  0
   58.2350  -17.4770   50.0200 O   0  0  0  0  0
   58.9180  -16.6010   48.0810 O   0  0  0  0  0
   59.9520  -14.7090   50.4470 C   0  0  0  0  0
   60.3750  -15.4520   51.6800 C   0  0  0  0  0
   60.4470  -14.9270   53.0160 C   0  0  0  0  0
   60.0470  -13.7350   53.6170 C   0  0  0  0  0
   60.3000  -13.5220   54.9670 C   0  0  0  0  0
   60.9480  -14.4870   55.7310 C   0  0  0  0  0
   61.3590  -15.6870   55.1580 C   0  0  0  0  0
   61.0970  -15.8960   53.8060 C   0  0  0  0  0
   61.3820  -16.9670   52.9930 N   0  0  0  0  0
   60.9390  -16.6930   51.7250 C   0  0  0  0  0
   54.0536  -13.5177   59.8642 H   0  0  0  0  0
   54.4171  -15.0612   55.5962 H   0  0  0  0  0
   58.9834  -16.2678   59.1093 H   0  0  0  0  0
   60.1115  -20.3205   58.9329 H   0  0  0  0  0
   59.3296  -19.5304   57.5597 H   0  0  0  0  0
   54.1091  -15.2548   61.5336 H   0  0  0  0  0
   56.1179  -13.9699   61.0498 H   0  0  0  0  0
   56.9950  -15.5341   60.6989 H   0  0  0  0  0
   57.7952  -16.9091   62.4612 H   0  0  0  0  0
   58.5622  -16.9808   64.8095 H   0  0  0  0  0
   57.8270  -15.2438   66.4117 H   0  0  0  0  0
   56.2407  -13.4900   65.6784 H   0  0  0  0  0
   55.4320  -13.4458   63.3439 H   0  0  0  0  0
   54.1207  -17.5960   60.9494 H   0  0  0  0  0
   55.7516  -17.5367   60.6126 H   0  0  0  0  0
   55.2133  -17.2938   62.1708 H   0  0  0  0  0
   53.1967  -14.6798   57.3050 H   0  0  0  0  0
   53.2526  -11.8669   58.3530 H   0  0  0  0  0
   51.8332  -12.9933   58.1481 H   0  0  0  0  0
   54.5581  -10.1035   57.1992 H   0  0  0  0  0
   55.5020   -8.4741   55.5860 H   0  0  0  0  0
   54.7111   -8.4272   53.2537 H   0  0  0  0  0
   52.9530  -10.0079   52.4908 H   0  0  0  0  0
   51.0408  -13.4697   55.6254 H   0  0  0  0  0
   50.6313  -11.3128   52.7169 H   0  0  0  0  0
   50.2884  -12.9846   53.3538 H   0  0  0  0  0
   52.2769  -12.0123   51.3845 H   0  0  0  0  0
   51.1834  -13.5055   51.3883 H   0  0  0  0  0
   52.6635  -14.6904   52.6622 H   0  0  0  0  0
   53.5816  -13.2080   53.1455 H   0  0  0  0  0
   53.6562  -13.3822   50.3305 H   0  0  0  0  0
   54.0725  -15.0199   51.0025 H   0  0  0  0  0
   54.4780  -11.5037   51.7374 H   0  0  0  0  0
   55.3841  -11.5969   50.2950 H   0  0  0  0  0
   56.5264  -10.3286   52.3446 H   0  0  0  0  0
   57.5263  -11.4102   51.4521 H   0  0  0  0  0
   56.2554  -11.8522   54.1658 H   0  0  0  0  0
   57.7844  -12.3984   53.6143 H   0  0  0  0  0
   57.0386  -13.6423   55.3714 H   0  0  0  0  0
   58.1401  -15.7664   54.8720 H   0  0  0  0  0
   56.5849  -16.6301   55.3548 H   0  0  0  0  0
   56.8708  -15.7980   57.6045 H   0  0  0  0  0
   58.4323  -15.0266   57.1149 H   0  0  0  0  0
   57.7703  -17.9797   57.1533 H   0  0  0  0  0
   59.2930  -17.2602   56.5309 H   0  0  0  0  0
   60.4799  -18.8905   60.9719 H   0  0  0  0  0
   57.6629  -15.0212   51.7992 H   0  0  0  0  0
   58.4214  -14.4769   48.9782 H   0  0  0  0  0
   59.1227  -15.7227   47.7518 H   0  0  0  0  0
   59.8753  -13.6605   50.7348 H   0  0  0  0  0
   60.6906  -14.9451   49.6810 H   0  0  0  0  0
   59.5369  -12.9715   53.0297 H   0  0  0  0  0
   59.9869  -12.5875   55.4326 H   0  0  0  0  0
   61.1357  -14.3017   56.7886 H   0  0  0  0  0
   61.8724  -16.4434   55.7517 H   0  0  0  0  0
   61.0251  -17.3697   50.8748 H   0  0  0  0  0
  1  6  1  0  0  0
 16  1  1  0  0  0
 38  2  1  0  0  0
  2 44  1  0  0  0
 41  3  1  0  0  0
  3 42  1  0  0  0
 42  4  1  0  0  0
  6  5  2  0  0  0
  6  7  1  0  0  0
  7  8  1  0  0  0
  7 15  1  0  0  0
  8  9  1  0  0  0
  9 10  4  0  0  0
  9 14  4  0  0  0
 10 11  4  0  0  0
 11 12  4  0  0  0
 13 12  4  0  0  0
 14 13  4  0  0  0
 16 17  1  0  0  0
 44 16  1  0  0  0
 17 18  1  0  0  0
 18 19  4  0  0  0
 18 26  4  0  0  0
 19 20  4  0  0  0
 19 24  4  0  0  0
 20 21  4  0  0  0
 21 22  4  0  0  0
 23 22  4  0  0  0
 24 23  4  0  0  0
 25 24  4  0  0  0
 26 25  4  0  0  0
 27 25  1  0  0  0
 28 27  1  0  0  0
 29 28  1  0  0  0
 30 29  1  0  0  0
 31 30  1  0  0  0
 31 32  1  0  0  0
 35 31  1  0  0  0
 31 46  1  0  0  0
 33 32  1  0  0  0
 34 33  1  0  0  0
 35 34  1  0  0  0
 36 35  1  0  0  0
 36 37  2  0  0  0
 38 36  1  0  0  0
 39 38  1  0  0  0
 40 39  1  0  0  0
 40 41  1  0  0  0
 42 43  2  0  0  0
 44 45  2  0  0  0
 46 47  2  0  0  0
 46 48  1  0  0  0
 48 49  1  0  0  0
 49 50  1  0  0  0
 49 53  1  0  0  0
 50 51  2  0  0  0
 50 52  1  0  0  0
 53 54  1  0  0  0
 54 55  4  0  0  0
 54 62  4  0  0  0
 55 56  4  0  0  0
 55 60  4  0  0  0
 56 57  4  0  0  0
 57 58  4  0  0  0
 58 59  4  0  0  0
 59 60  4  0  0  0
 60 61  4  0  0  0
 61 62  4  0  0  0
  1 63  1  0  0  0
  2 64  1  0  0  0
  3 65  1  0  0  0
  4 66  1  0  0  0
  4 67  1  0  0  0
  7 68  1  0  0  0
  8 69  1  0  0  0
  8 70  1  0  0  0
 10 71  1  0  0  0
 11 72  1  0  0  0
 12 73  1  0  0  0
 13 74  1  0  0  0
 14 75  1  0  0  0
 15 76  1  0  0  0
 15 77  1  0  0  0
 15 78  1  0  0  0
 16 79  1  0  0  0
 17 80  1  0  0  0
 17 81  1  0  0  0
 20 82  1  0  0  0
 21 83  1  0  0  0
 22 84  1  0  0  0
 23 85  1  0  0  0
 26 86  1  0  0  0
 27 87  1  0  0  0
 27 88  1  0  0  0
 28 89  1  0  0  0
 28 90  1  0  0  0
 29 91  1  0  0  0
 29 92  1  0  0  0
 30 93  1  0  0  0
 30 94  1  0  0  0
 32 95  1  0  0  0
 32 96  1  0  0  0
 33 97  1  0  0  0
 33 98  1  0  0  0
 34 99  1  0  0  0
 34100  1  0  0  0
 38101  1  0  0  0
 39102  1  0  0  0
 39103  1  0  0  0
 40104  1  0  0  0
 40105  1  0  0  0
 41106  1  0  0  0
 41107  1  0  0  0
 43108  1  0  0  0
 48109  1  0  0  0
 49110  1  0  0  0
 52111  1  0  0  0
 53112  1  0  0  0
 53113  1  0  0  0
 56114  1  0  0  0
 57115  1  0  0  0
 58116  1  0  0  0
 59117  1  0  0  0
 62118  1  0  0  0
M  END
$$$$
