1klu_ligand
  -I-interpret- 

214214  0  0  0  0  0  0  0  0999 V2000
  122.6220   51.1040  -18.2500 N   0  3  0  0  0
  123.4320   52.2200  -18.8150 C   0  0  0  0  0
  124.8710   51.8070  -19.0430 C   0  0  0  0  0
  125.2960   50.7110  -18.8090 O   0  0  0  0  0
  125.6380   52.7530  -19.5250 N   0  0  0  0  0
  127.0520   52.6360  -19.8320 C   0  0  0  0  0
  127.7800   52.3250  -18.5180 C   0  0  0  0  0
  127.3760   52.7600  -17.4550 O   0  0  0  0  0
  127.5110   53.9710  -20.4280 C   0  0  0  0  0
  126.3560   54.6750  -21.1660 C   0  0  0  0  0
  126.7830   55.8540  -21.9990 C   0  0  0  0  0
  125.9580   56.7700  -22.2310 O   0  0  0  0  0
  127.9510   55.8570  -22.4310 O   0  0  0  0  0
  128.7820   51.4610  -18.5530 N   0  0  0  0  0
  129.4560   51.0330  -17.3150 C   0  0  0  0  0
  130.5360   51.9540  -16.7460 C   0  0  0  0  0
  131.5150   52.2790  -17.4150 O   0  0  0  0  0
  130.0620   49.6340  -17.5280 C   0  0  0  0  0
  130.4850   48.8210  -16.3050 C   0  0  0  0  0
  129.2560   48.3900  -15.5040 C   0  0  0  0  0
  131.2360   47.5940  -16.7870 C   0  0  0  0  0
  130.3570   52.3760  -15.4990 N   0  0  0  0  0
  131.3470   53.2240  -14.8280 C   0  0  0  0  0
  132.4920   52.2830  -14.4460 C   0  0  0  0  0
  132.2570   51.2440  -13.8390 O   0  0  0  0  0
  130.7650   53.8730  -13.5500 C   0  0  0  0  0
  129.7440   54.9470  -13.9440 C   0  0  0  0  0
  131.8940   54.4910  -12.7100 C   0  0  0  0  0
  128.8630   55.4230  -12.8020 C   0  0  0  0  0
  133.7230   52.6390  -14.8040 N   0  0  0  0  0
  134.8490   51.7720  -14.5020 C   0  0  0  0  0
  135.5390   51.9960  -13.1710 C   0  0  0  0  0
  135.5450   53.1080  -12.6310 O   0  0  0  0  0
  136.1380   50.9290  -12.6540 N   0  0  0  0  0
  136.8610   50.9640  -11.3840 C   0  0  0  0  0
  138.3710   50.8140  -11.5830 C   0  0  0  0  0
  138.8210   50.0440  -12.4290 O   0  0  0  0  0
  136.4200   49.8030  -10.4570 C   0  0  0  0  0
  135.0580   49.9930  -10.0600 O   0  0  0  0  0
  137.2980   49.7340   -9.2110 C   0  0  0  0  0
  139.1480   51.5500  -10.7990 N   0  0  0  0  0
  140.5960   51.4250  -10.8630 C   0  0  0  0  0
  140.9110   50.4970   -9.6810 C   0  0  0  0  0
  140.4210   50.7180   -8.5730 O   0  0  0  0  0
  141.2480   52.8020  -10.6870 C   0  0  0  0  0
  142.6570   52.9980  -11.2600 C   0  0  0  0  0
  142.7970   52.2760  -12.5930 C   0  0  0  0  0
  142.9240   54.4940  -11.4370 C   0  0  0  0  0
  141.7000   49.4540   -9.9120 N   0  0  0  0  0
  142.0270   48.4990   -8.8490 C   0  0  0  0  0
  143.0500   48.9840   -7.8260 C   0  0  0  0  0
  144.0300   49.6350   -8.1730 O   0  0  0  0  0
  142.5300   47.1790   -9.4460 C   0  0  0  0  0
  141.5220   46.5320  -10.3850 C   0  0  0  0  0
  140.3140   46.5390  -10.1290 O   0  0  0  0  0
  142.0160   45.9540  -11.4720 N   0  0  0  0  0
  142.8220   48.6260   -6.5640 N   0  0  0  0  0
  143.7130   48.9940   -5.4690 C   0  0  0  0  0
  145.0510   48.2610   -5.5580 C   0  0  0  0  0
  145.0940   47.0590   -5.8170 O   0  0  0  0  0
  143.0470   48.6770   -4.1320 C   0  0  0  0  0
  146.1390   48.9900   -5.3410 N   0  0  0  0  0
  147.4780   48.3980   -5.3740 C   0  0  0  0  0
  147.8050   47.8370   -3.9910 C   0  0  0  0  0
  147.5070   48.4680   -2.9740 O   0  0  0  0  0
  148.5120   49.4620   -5.7640 C   0  0  0  0  0
  148.4070   46.6520   -3.9520 N   0  0  0  0  0
  148.7790   46.0390   -2.6840 C   0  0  0  0  0
  150.1200   46.5960   -2.2100 C   0  0  0  0  0
  151.0840   46.6470   -2.9780 O   0  0  0  0  0
  148.8980   44.5150   -2.8270 C   0  0  0  0  0
  147.6090   43.7990   -3.2170 C   0  0  0  0  0
  147.7370   42.2840   -3.0560 C   0  0  0  0  0
  147.9730   41.8620   -1.5990 C   0  0  0  0  0
  146.7320   41.8230   -0.7540 N   0  3  0  0  0
  150.1780   47.0200   -0.9510 N   0  0  0  0  0
  151.4110   47.5490   -0.3890 C   0  0  0  0  0
  152.3900   46.3900   -0.2200 C   0  0  0  0  0
  151.9780   45.2280   -0.1440 O   0  0  0  0  0
  151.1710   48.1790    1.0040 C   0  0  0  0  0
  150.2170   49.3600    0.8900 C   0  0  0  0  0
  150.6130   47.1320    1.9540 C   0  0  0  0  0
  153.6990   46.6850   -0.1740 N   0  0  0  0  0
  154.6930   45.6190   -0.0040 C   0  0  0  0  0
  154.4340   44.8500    1.3000 C   0  0  0  0  0
  154.0980   45.4460    2.3170 O   0  0  0  0  0
  156.0260   46.3870    0.0060 C   0  0  0  0  0
  155.6340   47.7750    0.4750 C   0  0  0  0  0
  154.3490   48.0040   -0.2710 C   0  0  0  0  0
  154.5900   43.5310    1.2650 N   0  0  0  0  0
  154.3520   42.7060    2.4480 C   0  0  0  0  0
  155.4120   42.8200    3.5610 C   0  0  0  0  0
  156.5620   43.1850    3.3070 O   0  0  0  0  0
  154.2030   41.2480    2.0390 C   0  0  0  0  0
  154.9930   42.4840    4.7870 N   0  0  0  0  0
  155.8180   42.4970    5.9980 C   0  0  0  0  0
  157.0140   41.5530    5.9130 C   0  0  0  0  0
  157.0760   40.6020    6.7220 O   0  0  0  0  0
  154.9770   42.1110    7.2260 C   0  0  0  0  0
  154.2150   43.2900    7.8070 C   0  0  0  0  0
  154.7660   44.4000    7.7700 O   0  0  0  0  0
  153.0860   43.1050    8.3040 O   0  0  0  0  0
  157.8830   41.7720    5.0440 O   0  0  0  0  0
  121.6619   51.4190  -18.1106 H   0  0  0  0  0
  122.6320   50.3163  -18.8979 H   0  0  0  0  0
  123.0196   50.8156  -17.3561 H   0  0  0  0  0
  123.4201   53.0470  -18.1051 H   0  0  0  0  0
  123.0006   52.5065  -19.7741 H   0  0  0  0  0
  125.2004   53.6574  -19.7013 H   0  0  0  0  0
  127.2635   51.8438  -20.5502 H   0  0  0  0  0
  128.3135   53.7778  -21.1398 H   0  0  0  0  0
  127.8520   54.6158  -19.6181 H   0  0  0  0  0
  125.6702   55.0498  -20.4062 H   0  0  0  0  0
  125.9156   53.9446  -21.8447 H   0  0  0  0  0
  125.1238   56.5637  -21.8030 H   0  0  0  0  0
  129.0918   51.0863  -19.4496 H   0  0  0  0  0
  128.6637   51.0527  -16.5667 H   0  0  0  0  0
  130.9831   49.8069  -18.0846 H   0  0  0  0  0
  129.2683   49.0504  -17.9944 H   0  0  0  0  0
  131.1208   49.4275  -15.6600 H   0  0  0  0  0
  128.7110   49.2742  -15.1734 H   0  0  0  0  0
  128.6101   47.7777  -16.1333 H   0  0  0  0  0
  129.5738   47.8120  -14.6363 H   0  0  0  0  0
  130.5841   46.9983  -17.4260 H   0  0  0  0  0
  132.1144   47.9059  -17.3520 H   0  0  0  0  0
  131.5471   46.9993  -15.9281 H   0  0  0  0  0
  129.5117   52.1039  -14.9971 H   0  0  0  0  0
  131.6663   54.0383  -15.4784 H   0  0  0  0  0
  130.2680   53.1101  -12.9507 H   0  0  0  0  0
  129.0867   54.5046  -14.6925 H   0  0  0  0  0
  130.3078   55.8113  -14.2951 H   0  0  0  0  0
  132.6017   53.7122  -12.4258 H   0  0  0  0  0
  132.4066   55.2530  -13.2971 H   0  0  0  0  0
  131.4715   54.9445  -11.8134 H   0  0  0  0  0
  128.3003   54.5791  -12.4029 H   0  0  0  0  0
  129.4872   55.8492  -12.0166 H   0  0  0  0  0
  128.1716   56.1811  -13.1699 H   0  0  0  0  0
  133.8764   53.5219  -15.2912 H   0  0  0  0  0
  135.5983   51.9735  -15.2675 H   0  0  0  0  0
  134.4483   50.7589  -14.4670 H   0  0  0  0  0
  136.0915   50.0475  -13.1651 H   0  0  0  0  0
  136.6305   51.9319  -10.9388 H   0  0  0  0  0
  136.5222   48.8694  -11.0102 H   0  0  0  0  0
  134.7895   49.2717   -9.4862 H   0  0  0  0  0
  138.3344   49.5713   -9.5069 H   0  0  0  0  0
  137.2190   50.6712   -8.6600 H   0  0  0  0  0
  136.9657   48.9104   -8.5791 H   0  0  0  0  0
  138.7262   52.2097  -10.1453 H   0  0  0  0  0
  140.9688   51.0376  -11.8112 H   0  0  0  0  0
  141.3470   52.9439   -9.6108 H   0  0  0  0  0
  140.6109   53.4995  -11.2308 H   0  0  0  0  0
  143.3871   52.5773  -10.5686 H   0  0  0  0  0
  142.6185   51.2105  -12.4481 H   0  0  0  0  0
  142.0688   52.6750  -13.2991 H   0  0  0  0  0
  143.8036   52.4274  -12.9828 H   0  0  0  0  0
  142.1879   54.9146  -12.1221 H   0  0  0  0  0
  142.8488   54.9920  -10.4704 H   0  0  0  0  0
  143.9248   54.6375  -11.8442 H   0  0  0  0  0
  142.0855   49.3149  -10.8461 H   0  0  0  0  0
  141.0880   48.3675   -8.3113 H   0  0  0  0  0
  142.7093   46.4879   -8.6224 H   0  0  0  0  0
  143.4301   47.3953  -10.0214 H   0  0  0  0  0
  141.3910   45.4929  -12.1332 H   0  0  0  0  0
  143.0208   45.9706  -11.6466 H   0  0  0  0  0
  141.9913   48.0724   -6.3545 H   0  0  0  0  0
  143.9081   50.0637   -5.5450 H   0  0  0  0  0
  142.1184   49.2414   -4.0473 H   0  0  0  0  0
  142.8312   47.6099   -4.0790 H   0  0  0  0  0
  143.7177   48.9542   -3.3187 H   0  0  0  0  0
  146.0399   49.9864   -5.1466 H   0  0  0  0  0
  147.5069   47.5968   -6.1125 H   0  0  0  0  0
  148.2697   49.8580   -6.7502 H   0  0  0  0  0
  148.4940   50.2697   -5.0323 H   0  0  0  0  0
  149.5044   49.0117   -5.7857 H   0  0  0  0  0
  148.6116   46.1643   -4.8242 H   0  0  0  0  0
  148.0001   46.2695   -1.9571 H   0  0  0  0  0
  149.1874   44.1298   -1.8493 H   0  0  0  0  0
  149.6143   44.3300   -3.6275 H   0  0  0  0  0
  147.3962   44.0177   -4.2634 H   0  0  0  0  0
  146.8093   44.1487   -2.5641 H   0  0  0  0  0
  148.5949   41.9560   -3.6430 H   0  0  0  0  0
  146.8028   41.8316   -3.3887 H   0  0  0  0  0
  148.6380   42.6031   -1.1556 H   0  0  0  0  0
  148.3762   40.8496   -1.6211 H   0  0  0  0  0
  146.9762   41.5350    0.1935 H   0  0  0  0  0
  146.3090   42.7508   -0.7303 H   0  0  0  0  0
  146.0710   41.1568   -1.1534 H   0  0  0  0  0
  149.3421   46.9734   -0.3683 H   0  0  0  0  0
  151.7986   48.3167   -1.0587 H   0  0  0  0  0
  152.1198   48.5413    1.3999 H   0  0  0  0  0
  150.6479   50.1109    0.2277 H   0  0  0  0  0
  149.2650   49.0185    0.4835 H   0  0  0  0  0
  150.0575   49.7932    1.8774 H   0  0  0  0  0
  149.6691   46.7535    1.5617 H   0  0  0  0  0
  151.3245   46.3115    2.0468 H   0  0  0  0  0
  150.4467   47.5828    2.9324 H   0  0  0  0  0
  154.6715   44.8562   -0.7823 H   0  0  0  0  0
  156.5083   46.3979   -0.9714 H   0  0  0  0  0
  156.7699   45.9227    0.6534 H   0  0  0  0  0
  156.3928   48.5305    0.2711 H   0  0  0  0  0
  155.5252   47.8510    1.5569 H   0  0  0  0  0
  153.7476   48.8131    0.1434 H   0  0  0  0  0
  154.4995   48.3365   -1.2981 H   0  0  0  0  0
  154.8817   43.0851    0.3952 H   0  0  0  0  0
  153.4322   43.0969    2.8830 H   0  0  0  0  0
  153.3608   41.1483    1.3543 H   0  0  0  0  0
  155.1159   40.9154    1.5450 H   0  0  0  0  0
  154.0259   40.6395    2.9258 H   0  0  0  0  0
  154.0198   42.1953    4.8865 H   0  0  0  0  0
  156.1959   43.5148    6.0947 H   0  0  0  0  0
  156.3079   40.6223    7.2974 H   0  0  0  0  0
  155.6557   41.7393    7.9937 H   0  0  0  0  0
  154.2488   41.3632    6.9120 H   0  0  0  0  0
  152.8521   42.1771    8.2276 H   0  0  0  0  0
  1  2  1  0  0  0
  2  3  1  0  0  0
  3  4  2  0  0  0
  3  5  1  0  0  0
  5  6  1  0  0  0
  6  7  1  0  0  0
  6  9  1  0  0  0
  7  8  2  0  0  0
  7 14  1  0  0  0
  9 10  1  0  0  0
 10 11  1  0  0  0
 11 12  1  0  0  0
 11 13  2  0  0  0
 14 15  1  0  0  0
 15 16  1  0  0  0
 15 18  1  0  0  0
 16 17  2  0  0  0
 16 22  1  0  0  0
 18 19  1  0  0  0
 19 20  1  0  0  0
 19 21  1  0  0  0
 22 23  1  0  0  0
 23 24  1  0  0  0
 23 26  1  0  0  0
 24 25  2  0  0  0
 24 30  1  0  0  0
 26 27  1  0  0  0
 26 28  1  0  0  0
 27 29  1  0  0  0
 30 31  1  0  0  0
 31 32  1  0  0  0
 32 33  2  0  0  0
 32 34  1  0  0  0
 34 35  1  0  0  0
 35 36  1  0  0  0
 35 38  1  0  0  0
 36 37  2  0  0  0
 36 41  1  0  0  0
 38 39  1  0  0  0
 38 40  1  0  0  0
 41 42  1  0  0  0
 42 43  1  0  0  0
 42 45  1  0  0  0
 43 44  2  0  0  0
 43 49  1  0  0  0
 45 46  1  0  0  0
 46 47  1  0  0  0
 46 48  1  0  0  0
 49 50  1  0  0  0
 50 51  1  0  0  0
 50 53  1  0  0  0
 51 52  2  0  0  0
 51 57  1  0  0  0
 53 54  1  0  0  0
 54 55  2  0  0  0
 54 56  1  0  0  0
 57 58  1  0  0  0
 58 59  1  0  0  0
 58 61  1  0  0  0
 59 60  2  0  0  0
 59 62  1  0  0  0
 62 63  1  0  0  0
 63 64  1  0  0  0
 63 66  1  0  0  0
 64 65  2  0  0  0
 64 67  1  0  0  0
 67 68  1  0  0  0
 68 69  1  0  0  0
 68 71  1  0  0  0
 69 70  2  0  0  0
 69 76  1  0  0  0
 71 72  1  0  0  0
 72 73  1  0  0  0
 73 74  1  0  0  0
 74 75  1  0  0  0
 76 77  1  0  0  0
 77 78  1  0  0  0
 77 80  1  0  0  0
 78 79  2  0  0  0
 78 83  1  0  0  0
 80 81  1  0  0  0
 80 82  1  0  0  0
 83 84  1  0  0  0
 83 89  1  0  0  0
 84 85  1  0  0  0
 84 87  1  0  0  0
 85 86  2  0  0  0
 85 90  1  0  0  0
 87 88  1  0  0  0
 88 89  1  0  0  0
 90 91  1  0  0  0
 91 92  1  0  0  0
 91 94  1  0  0  0
 92 93  2  0  0  0
 92 95  1  0  0  0
 95 96  1  0  0  0
 96 97  1  0  0  0
 96 99  1  0  0  0
 97 98  1  0  0  0
 97103  2  0  0  0
 99100  1  0  0  0
100101  2  0  0  0
100102  1  0  0  0
  1104  1  0  0  0
  1105  1  0  0  0
  1106  1  0  0  0
  2107  1  0  0  0
  2108  1  0  0  0
  5109  1  0  0  0
  6110  1  0  0  0
  9111  1  0  0  0
  9112  1  0  0  0
 10113  1  0  0  0
 10114  1  0  0  0
 12115  1  0  0  0
 14116  1  0  0  0
 15117  1  0  0  0
 18118  1  0  0  0
 18119  1  0  0  0
 19120  1  0  0  0
 20121  1  0  0  0
 20122  1  0  0  0
 20123  1  0  0  0
 21124  1  0  0  0
 21125  1  0  0  0
 21126  1  0  0  0
 22127  1  0  0  0
 23128  1  0  0  0
 26129  1  0  0  0
 27130  1  0  0  0
 27131  1  0  0  0
 28132  1  0  0  0
 28133  1  0  0  0
 28134  1  0  0  0
 29135  1  0  0  0
 29136  1  0  0  0
 29137  1  0  0  0
 30138  1  0  0  0
 31139  1  0  0  0
 31140  1  0  0  0
 34141  1  0  0  0
 35142  1  0  0  0
 38143  1  0  0  0
 39144  1  0  0  0
 40145  1  0  0  0
 40146  1  0  0  0
 40147  1  0  0  0
 41148  1  0  0  0
 42149  1  0  0  0
 45150  1  0  0  0
 45151  1  0  0  0
 46152  1  0  0  0
 47153  1  0  0  0
 47154  1  0  0  0
 47155  1  0  0  0
 48156  1  0  0  0
 48157  1  0  0  0
 48158  1  0  0  0
 49159  1  0  0  0
 50160  1  0  0  0
 53161  1  0  0  0
 53162  1  0  0  0
 56163  1  0  0  0
 56164  1  0  0  0
 57165  1  0  0  0
 58166  1  0  0  0
 61167  1  0  0  0
 61168  1  0  0  0
 61169  1  0  0  0
 62170  1  0  0  0
 63171  1  0  0  0
 66172  1  0  0  0
 66173  1  0  0  0
 66174  1  0  0  0
 67175  1  0  0  0
 68176  1  0  0  0
 71177  1  0  0  0
 71178  1  0  0  0
 72179  1  0  0  0
 72180  1  0  0  0
 73181  1  0  0  0
 73182  1  0  0  0
 74183  1  0  0  0
 74184  1  0  0  0
 75185  1  0  0  0
 75186  1  0  0  0
 75187  1  0  0  0
 76188  1  0  0  0
 77189  1  0  0  0
 80190  1  0  0  0
 81191  1  0  0  0
 81192  1  0  0  0
 81193  1  0  0  0
 82194  1  0  0  0
 82195  1  0  0  0
 82196  1  0  0  0
 84197  1  0  0  0
 87198  1  0  0  0
 87199  1  0  0  0
 88200  1  0  0  0
 88201  1  0  0  0
 89202  1  0  0  0
 89203  1  0  0  0
 90204  1  0  0  0
 91205  1  0  0  0
 94206  1  0  0  0
 94207  1  0  0  0
 94208  1  0  0  0
 95209  1  0  0  0
 96210  1  0  0  0
 98211  1  0  0  0
 99212  1  0  0  0
 99213  1  0  0  0
102214  1  0  0  0
M  END
$$$$
