### 
### Created by X-TOOL on Mon Sep 10 21:12:49 2018
### 

@<TRIPOS>MOLECULE
1klu_ligand
  211   211     1     0     0
SMALL
GAST_HUCK


@<TRIPOS>ATOM
      1 N         122.6220   51.1040  -18.2500 N.4       1 GLY         0.2357
      2 CA        123.4320   52.2200  -18.8150 C.3       1 GLY         0.0545
      3 C         124.8710   51.8070  -19.0430 C.2       1 GLY         0.2236
      4 O         125.2960   50.7110  -18.8090 O.2       1 GLY        -0.3910
      5 N         125.6380   52.7530  -19.5250 N.am      1 GLU        -0.2612
      6 CA        127.0520   52.6360  -19.8320 C.3       1 GLU         0.1326
      7 C         127.7800   52.3250  -18.5180 C.2       1 GLU         0.2040
      8 O         127.3760   52.7600  -17.4550 O.2       1 GLU        -0.3944
      9 CB        127.5110   53.9710  -20.4280 C.3       1 GLU        -0.0008
     10 CG        126.3560   54.6750  -21.1660 C.3       1 GLU         0.0044
     11 CD        126.7830   55.8540  -21.9990 C.2       1 GLU         0.0350
     12 OE1       125.9580   56.7700  -22.2310 O.co2     1 GLU        -0.5690
     13 OE2       127.9510   55.8570  -22.4310 O.co2     1 GLU        -0.5690
     14 N         128.7820   51.4610  -18.5530 N.am      1 LEU        -0.2637
     15 CA        129.4560   51.0330  -17.3150 C.3       1 LEU         0.1312
     16 C         130.5360   51.9540  -16.7460 C.2       1 LEU         0.2039
     17 O         131.5150   52.2790  -17.4150 O.2       1 LEU        -0.3944
     18 CB        130.0620   49.6340  -17.5280 C.3       1 LEU        -0.0101
     19 CG        130.4850   48.8210  -16.3050 C.3       1 LEU        -0.0425
     20 CD1       129.2560   48.3900  -15.5040 C.3       1 LEU        -0.0625
     21 CD2       131.2360   47.5940  -16.7870 C.3       1 LEU        -0.0625
     22 N         130.3570   52.3760  -15.4990 N.am      1 ILE        -0.2635
     23 CA        131.3470   53.2240  -14.8280 C.3       1 ILE         0.1335
     24 C         132.4920   52.2830  -14.4460 C.2       1 ILE         0.2040
     25 O         132.2570   51.2440  -13.8390 O.2       1 ILE        -0.3944
     26 CB        130.7650   53.8730  -13.5500 C.3       1 ILE        -0.0037
     27 CG1       129.7440   54.9470  -13.9440 C.3       1 ILE        -0.0491
     28 CG2       131.8940   54.4910  -12.7100 C.3       1 ILE        -0.0582
     29 CD1       128.8630   55.4230  -12.8020 C.3       1 ILE        -0.0648
     30 N         133.7230   52.6390  -14.8040 N.am      1 GLY        -0.2664
     31 CA        134.8490   51.7720  -14.5020 C.3       1 GLY         0.1201
     32 C         135.5390   51.9960  -13.1710 C.2       1 GLY         0.2008
     33 O         135.5450   53.1080  -12.6310 O.2       1 GLY        -0.3947
     34 N         136.1380   50.9290  -12.6540 N.am      1 THR        -0.2616
     35 CA        136.8610   50.9640  -11.3840 C.3       1 THR         0.1565
     36 C         138.3710   50.8140  -11.5830 C.2       1 THR         0.2065
     37 O         138.8210   50.0440  -12.4290 O.2       1 THR        -0.3943
     38 CB        136.4200   49.8030  -10.4570 C.3       1 THR         0.0924
     39 OG1       135.0580   49.9930  -10.0600 O.3       1 THR        -0.3874
     40 CG2       137.2980   49.7340   -9.2110 C.3       1 THR        -0.0346
     41 N         139.1480   51.5500  -10.7990 N.am      1 LEU        -0.2636
     42 CA        140.5960   51.4250  -10.8630 C.3       1 LEU         0.1312
     43 C         140.9110   50.4970   -9.6810 C.2       1 LEU         0.2040
     44 O         140.4210   50.7180   -8.5730 O.2       1 LEU        -0.3944
     45 CB        141.2480   52.8020  -10.6870 C.3       1 LEU        -0.0101
     46 CG        142.6570   52.9980  -11.2600 C.3       1 LEU        -0.0425
     47 CD1       142.7970   52.2760  -12.5930 C.3       1 LEU        -0.0625
     48 CD2       142.9240   54.4940  -11.4370 C.3       1 LEU        -0.0625
     49 N         141.7000   49.4540   -9.9120 N.am      1 ASN        -0.2616
     50 CA        142.0270   48.4990   -8.8490 C.3       1 ASN         0.1476
     51 C         143.0500   48.9840   -7.8260 C.2       1 ASN         0.2062
     52 O         144.0300   49.6350   -8.1730 O.2       1 ASN        -0.3942
     53 CB        142.5300   47.1790   -9.4460 C.3       1 ASN         0.0773
     54 CG        141.5220   46.5320  -10.3850 C.2       1 ASN         0.1780
     55 OD1       140.3140   46.5390  -10.1290 O.2       1 ASN        -0.3970
     56 ND2       142.0160   45.9540  -11.4720 N.am      1 ASN        -0.3007
     57 N         142.8220   48.6260   -6.5640 N.am      1 ALA        -0.2639
     58 CA        143.7130   48.9940   -5.4690 C.3       1 ALA         0.1282
     59 C         145.0510   48.2610   -5.5580 C.2       1 ALA         0.2036
     60 O         145.0940   47.0590   -5.8170 O.2       1 ALA        -0.3944
     61 CB        143.0470   48.6770   -4.1320 C.3       1 ALA        -0.0244
     62 N         146.1390   48.9900   -5.3410 N.am      1 ALA        -0.2640
     63 CA        147.4780   48.3980   -5.3740 C.3       1 ALA         0.1282
     64 C         147.8050   47.8370   -3.9910 C.2       1 ALA         0.2036
     65 O         147.5070   48.4680   -2.9740 O.2       1 ALA        -0.3944
     66 CB        148.5120   49.4620   -5.7640 C.3       1 ALA        -0.0244
     67 N         148.4070   46.6520   -3.9520 N.am      1 LYS        -0.2637
     68 CA        148.7790   46.0390   -2.6840 C.3       1 LYS         0.1310
     69 C         150.1200   46.5960   -2.2100 C.2       1 LYS         0.2039
     70 O         151.0840   46.6470   -2.9780 O.2       1 LYS        -0.3944
     71 CB        148.8980   44.5150   -2.8270 C.3       1 LYS        -0.0122
     72 CG        147.6090   43.7990   -3.2170 C.3       1 LYS        -0.0440
     73 CD        147.7370   42.2840   -3.0560 C.3       1 LYS        -0.0124
     74 CE        147.9730   41.8620   -1.5990 C.3       1 LYS        -0.0354
     75 NZ        146.7320   41.8230   -0.7540 N.4       1 LYS         0.2185
     76 N         150.1780   47.0200   -0.9510 N.am      1 VAL        -0.2635
     77 CA        151.4110   47.5490   -0.3890 C.3       1 VAL         0.1334
     78 C         152.3900   46.3900   -0.2200 C.2       1 VAL         0.2066
     79 O         151.9780   45.2280   -0.1440 O.2       1 VAL        -0.3942
     80 CB        151.1710   48.1790    1.0040 C.3       1 VAL        -0.0062
     81 CG1       150.2170   49.3600    0.8900 C.3       1 VAL        -0.0584
     82 CG2       150.6130   47.1320    1.9540 C.3       1 VAL        -0.0584
     83 N         153.6990   46.6850   -0.1740 N.am      1 PRO        -0.2498
     84 CA        154.6930   45.6190   -0.0040 C.3       1 PRO         0.1338
     85 C         154.4340   44.8500    1.3000 C.2       1 PRO         0.2041
     86 O         154.0980   45.4460    2.3170 O.2       1 PRO        -0.3944
     87 CB        156.0260   46.3870    0.0060 C.3       1 PRO        -0.0104
     88 CG        155.6340   47.7750    0.4750 C.3       1 PRO        -0.0281
     89 CD        154.3490   48.0040   -0.2710 C.3       1 PRO         0.0369
     90 N         154.5900   43.5310    1.2650 N.am      1 ALA        -0.2640
     91 CA        154.3520   42.7060    2.4480 C.3       1 ALA         0.1282
     92 C         155.4120   42.8200    3.5610 C.2       1 ALA         0.2031
     93 O         156.5620   43.1850    3.3070 O.2       1 ALA        -0.3944
     94 CB        154.2030   41.2480    2.0390 C.3       1 ALA        -0.0244
     95 N         154.9930   42.4840    4.7870 N.am      1 ASP        -0.2679
     96 CA        155.8180   42.4970    5.9980 C.3       1 ASP         0.1057
     97 C         157.0140   41.5530    5.9130 C.2       1 ASP         0.0618
     98 O         157.0760   40.6020    6.7220 O.co2     1 ASP        -0.5665
     99 CB        154.9770   42.1110    7.2260 C.3       1 ASP         0.0351
    100 CG        154.2150   43.2900    7.8070 C.2       1 ASP         0.0387
    101 OD1       154.7660   44.4000    7.7700 O.co2     1 ASP        -0.5688
    102 OD2       153.0860   43.1050    8.3040 O.co2     1 ASP        -0.5688
    103 OXT       157.8830   41.7720    5.0440 O.co2     1 ASP        -0.5665
    104 H1        121.6729   51.4142  -18.1119 H         1 GLY         0.2012
    105 H2        123.0140   50.8181  -17.3665 H         1 GLY         0.2012
    106 H3        122.6311   50.3249  -18.8895 H         1 GLY         0.2012
    107 H4        123.4110   53.0668  -18.1132 H         1 GLY         0.1061
    108 H5        122.9932   52.5286  -19.7753 H         1 GLY         0.1061
    109 H6        125.2090   53.6396  -19.6978 H         1 GLU         0.1884
    110 H7        127.2258   51.8262  -20.5558 H         1 GLU         0.0801
    111 H8        128.3304   53.7848  -21.1379 H         1 GLU         0.0330
    112 H9        127.8692   54.6223  -19.6171 H         1 GLU         0.0330
    113 H10       125.6314   55.0265  -20.4168 H         1 GLU         0.0433
    114 H11       125.8723   53.9420  -21.8283 H         1 GLU         0.0433
    115 H12       129.0858   51.0936  -19.4321 H         1 LEU         0.1883
    116 H13       128.6739   50.9550  -16.5455 H         1 LEU         0.0800
    117 H14       130.9557   49.7610  -18.1566 H         1 LEU         0.0315
    118 H15       129.3141   49.0368  -18.0703 H         1 LEU         0.0315
    119 H16       131.1408   49.4303  -15.6657 H         1 LEU         0.0298
    120 H17       129.5755   47.8065  -14.6279 H         1 LEU         0.0232
    121 H18       128.6033   47.7719  -16.1380 H         1 LEU         0.0232
    122 H19       128.7051   49.2814  -15.1697 H         1 LEU         0.0232
    123 H20       132.1193   47.9075  -17.3627 H         1 LEU         0.0232
    124 H21       130.5772   46.9887  -17.4269 H         1 LEU         0.0232
    125 H22       131.5561   46.9963  -15.9209 H         1 LEU         0.0232
    126 H23       129.5283   52.1092  -15.0070 H         1 ILE         0.1883
    127 H24       131.7009   54.0108  -15.5104 H         1 ILE         0.0803
    128 H25       130.2595   53.0999  -12.9527 H         1 ILE         0.0345
    129 H26       129.0950   54.5332  -14.7299 H         1 ILE         0.0267
    130 H27       130.2923   55.8144  -14.3402 H         1 ILE         0.0267
    131 H28       132.6172   53.7088  -12.4357 H         1 ILE         0.0235
    132 H29       131.4707   54.9354  -11.7971 H         1 ILE         0.0235
    133 H30       132.4022   55.2710  -13.2959 H         1 ILE         0.0235
    134 H31       128.1647   56.1881  -13.1720 H         1 ILE         0.0230
    135 H32       129.4917   55.8534  -12.0087 H         1 ILE         0.0230
    136 H33       128.2945   54.5723  -12.3983 H         1 ILE         0.0230
    137 H34       133.8734   53.5046  -15.2816 H         1 GLY         0.1881
    138 H35       135.5992   51.9106  -15.2945 H         1 GLY         0.0763
    139 H36       134.4852   50.7340  -14.5190 H         1 GLY         0.0763
    140 H37       136.0924   50.0648  -13.1551 H         1 THR         0.1884
    141 H38       136.6525   51.9254  -10.8918 H         1 THR         0.0826
    142 H39       136.5075   48.8553  -11.0086 H         1 THR         0.0639
    143 H40       134.7923   49.2793   -9.4922 H         1 THR         0.2101
    144 H41       136.9636   48.9031   -8.5724 H         1 THR         0.0257
    145 H42       137.2191   50.6793   -8.6540 H         1 THR         0.0257
    146 H43       138.3442   49.5698   -9.5083 H         1 THR         0.0257
    147 H44       138.7345   52.1967  -10.1581 H         1 LEU         0.1883
    148 H45       140.9202   50.9792  -11.8149 H         1 LEU         0.0800
    149 H46       141.3004   53.0060   -9.6074 H         1 LEU         0.0315
    150 H47       140.5911   53.5413  -11.1684 H         1 LEU         0.0315
    151 H48       143.3915   52.5834  -10.5539 H         1 LEU         0.0298
    152 H49       143.8125   52.4280  -12.9874 H         1 LEU         0.0232
    153 H50       142.0626   52.6778  -13.3066 H         1 LEU         0.0232
    154 H51       142.6172   51.2005  -12.4482 H         1 LEU         0.0232
    155 H52       142.8195   55.0023  -10.4671 H         1 LEU         0.0232
    156 H53       142.2000   54.9138  -12.1508 H         1 LEU         0.0232
    157 H54       143.9445   54.6415  -11.8202 H         1 LEU         0.0232
    158 H55       142.0779   49.3176  -10.8277 H         1 ASN         0.1885
    159 H56       141.0927   48.2962   -8.3050 H         1 ASN         0.0826
    160 H57       142.7425   46.4801   -8.6236 H         1 ASN         0.0551
    161 H58       143.4552   47.3774  -10.0069 H         1 ASN         0.0551
    162 H59       141.4021   45.5123  -12.1263 H         1 ASN         0.1814
    163 H60       143.0023   45.9600  -11.6372 H         1 ASN         0.1814
    164 H61       142.0076   48.0833   -6.3586 H         1 ALA         0.1883
    165 H62       143.9035   50.0760   -5.5241 H         1 ALA         0.0797
    166 H63       143.7229   48.9563   -3.3104 H         1 ALA         0.0277
    167 H64       142.8287   47.6003   -4.0772 H         1 ALA         0.0277
    168 H65       142.1097   49.2461   -4.0452 H         1 ALA         0.0277
    169 H66       146.0419   49.9669   -5.1504 H         1 ALA         0.1883
    170 H67       147.4998   47.5840   -6.1135 H         1 ALA         0.0797
    171 H68       149.5140   49.0087   -5.7862 H         1 ALA         0.0277
    172 H69       148.4949   50.2777   -5.0262 H         1 ALA         0.0277
    173 H70       148.2686   49.8625   -6.7592 H         1 ALA         0.0277
    174 H71       148.6076   46.1739   -4.8071 H         1 LYS         0.1883
    175 H72       148.0055   46.2704   -1.9369 H         1 LYS         0.0800
    176 H73       149.2356   44.1076   -1.8626 H         1 LYS         0.0312
    177 H74       149.6524   44.3031   -3.5990 H         1 LYS         0.0312
    178 H75       147.3770   44.0281   -4.2675 H         1 LYS         0.0269
    179 H76       146.7921   44.1587   -2.5741 H         1 LYS         0.0269
    180 H77       148.5841   41.9355   -3.6651 H         1 LYS         0.0317
    181 H78       146.8098   41.8123   -3.4134 H         1 LYS         0.0317
    182 H79       148.6762   42.5751   -1.1442 H         1 LYS         0.0813
    183 H80       148.4196   40.8568   -1.6003 H         1 LYS         0.0813
    184 H81       146.9722   41.5385    0.1827 H         1 LYS         0.1994
    185 H82       146.0779   41.1648   -1.1477 H         1 LYS         0.1994
    186 H83       146.3130   42.7395   -0.7297 H         1 LYS         0.1994
    187 H84       149.3585   46.9743   -0.3798 H         1 VAL         0.1883
    188 H85       151.8305   48.3056   -1.0683 H         1 VAL         0.0803
    189 H86       152.1316   48.5396    1.4004 H         1 VAL         0.0343
    190 H87       150.0552   49.7981    1.8860 H         1 VAL         0.0234
    191 H88       149.2558   49.0167    0.4799 H         1 VAL         0.0234
    192 H89       150.6507   50.1186    0.2219 H         1 VAL         0.0234
    193 H90       151.3152   46.2881    2.0230 H         1 VAL         0.0234
    194 H91       149.6444   46.7730    1.5760 H         1 VAL         0.0234
    195 H92       150.4756   47.5771    2.9505 H         1 VAL         0.0234
    196 H93       154.6625   44.9138   -0.8477 H         1 PRO         0.0802
    197 H94       156.4664   46.4226   -1.0014 H         1 PRO         0.0313
    198 H95       156.7407   45.9243    0.7025 H         1 PRO         0.0313
    199 H96       156.3948   48.5201    0.1992 H         1 PRO         0.0287
    200 H97       155.4745   47.7993    1.5631 H         1 PRO         0.0287
    201 H98       153.7417   48.7851    0.2096 H         1 PRO         0.0524
    202 H99       154.5389   48.2799   -1.3188 H         1 PRO         0.0524
    203 H100      154.8760   43.0939    0.4123 H         1 ALA         0.1883
    204 H101      153.3967   43.0378    2.8808 H         1 ALA         0.0797
    205 H102      154.0242   40.6328    2.9332 H         1 ALA         0.0277
    206 H103      155.1238   40.9111    1.5403 H         1 ALA         0.0277
    207 H104      153.3533   41.1460    1.3479 H         1 ALA         0.0277
    208 H105      154.0389   42.2009    4.8845 H         1 ASP         0.1876
    209 H106      156.1966   43.5204    6.1370 H         1 ASP         0.0745
    210 H107      155.6475   41.7092    7.9999 H         1 ASP         0.0471
    211 H108      154.2544   41.3367    6.9288 H         1 ASP         0.0471
@<TRIPOS>BOND
     1    1    2 1  
     2    2    3 1  
     3    3    4 2  
     4    3    5 am 
     5    5    6 1  
     6    6    7 1  
     7    6    9 1  
     8    7    8 2  
     9    7   14 am 
    10    9   10 1  
    11   10   11 1  
    12   11   12 ar 
    13   11   13 ar 
    14   14   15 1  
    15   15   16 1  
    16   15   18 1  
    17   16   17 2  
    18   16   22 am 
    19   18   19 1  
    20   19   20 1  
    21   19   21 1  
    22   22   23 1  
    23   23   24 1  
    24   23   26 1  
    25   24   25 2  
    26   24   30 am 
    27   26   27 1  
    28   26   28 1  
    29   27   29 1  
    30   30   31 1  
    31   31   32 1  
    32   32   33 2  
    33   32   34 am 
    34   34   35 1  
    35   35   36 1  
    36   35   38 1  
    37   36   37 2  
    38   36   41 am 
    39   38   39 1  
    40   38   40 1  
    41   41   42 1  
    42   42   43 1  
    43   42   45 1  
    44   43   44 2  
    45   43   49 am 
    46   45   46 1  
    47   46   47 1  
    48   46   48 1  
    49   49   50 1  
    50   50   51 1  
    51   50   53 1  
    52   51   52 2  
    53   51   57 am 
    54   53   54 1  
    55   54   55 2  
    56   54   56 am 
    57   57   58 1  
    58   58   59 1  
    59   58   61 1  
    60   59   60 2  
    61   59   62 am 
    62   62   63 1  
    63   63   64 1  
    64   63   66 1  
    65   64   65 2  
    66   64   67 am 
    67   67   68 1  
    68   68   69 1  
    69   68   71 1  
    70   69   70 2  
    71   69   76 am 
    72   71   72 1  
    73   72   73 1  
    74   73   74 1  
    75   74   75 1  
    76   76   77 1  
    77   77   78 1  
    78   77   80 1  
    79   78   79 2  
    80   78   83 am 
    81   80   81 1  
    82   80   82 1  
    83   83   84 1  
    84   83   89 1  
    85   84   85 1  
    86   84   87 1  
    87   85   86 2  
    88   85   90 am 
    89   87   88 1  
    90   88   89 1  
    91   90   91 1  
    92   91   92 1  
    93   91   94 1  
    94   92   93 2  
    95   92   95 am 
    96   95   96 1  
    97   96   97 1  
    98   96   99 1  
    99   97   98 ar 
   100   97  103 ar 
   101   99  100 1  
   102  100  101 ar 
   103  100  102 ar 
   104    1  104 1  
   105    1  105 1  
   106    1  106 1  
   107    2  107 1  
   108    2  108 1  
   109    5  109 1  
   110    6  110 1  
   111    9  111 1  
   112    9  112 1  
   113   10  113 1  
   114   10  114 1  
   115   14  115 1  
   116   15  116 1  
   117   18  117 1  
   118   18  118 1  
   119   19  119 1  
   120   20  120 1  
   121   20  121 1  
   122   20  122 1  
   123   21  123 1  
   124   21  124 1  
   125   21  125 1  
   126   22  126 1  
   127   23  127 1  
   128   26  128 1  
   129   27  129 1  
   130   27  130 1  
   131   28  131 1  
   132   28  132 1  
   133   28  133 1  
   134   29  134 1  
   135   29  135 1  
   136   29  136 1  
   137   30  137 1  
   138   31  138 1  
   139   31  139 1  
   140   34  140 1  
   141   35  141 1  
   142   38  142 1  
   143   39  143 1  
   144   40  144 1  
   145   40  145 1  
   146   40  146 1  
   147   41  147 1  
   148   42  148 1  
   149   45  149 1  
   150   45  150 1  
   151   46  151 1  
   152   47  152 1  
   153   47  153 1  
   154   47  154 1  
   155   48  155 1  
   156   48  156 1  
   157   48  157 1  
   158   49  158 1  
   159   50  159 1  
   160   53  160 1  
   161   53  161 1  
   162   56  162 1  
   163   56  163 1  
   164   57  164 1  
   165   58  165 1  
   166   61  166 1  
   167   61  167 1  
   168   61  168 1  
   169   62  169 1  
   170   63  170 1  
   171   66  171 1  
   172   66  172 1  
   173   66  173 1  
   174   67  174 1  
   175   68  175 1  
   176   71  176 1  
   177   71  177 1  
   178   72  178 1  
   179   72  179 1  
   180   73  180 1  
   181   73  181 1  
   182   74  182 1  
   183   74  183 1  
   184   75  184 1  
   185   75  185 1  
   186   75  186 1  
   187   76  187 1  
   188   77  188 1  
   189   80  189 1  
   190   81  190 1  
   191   81  191 1  
   192   81  192 1  
   193   82  193 1  
   194   82  194 1  
   195   82  195 1  
   196   84  196 1  
   197   87  197 1  
   198   87  198 1  
   199   88  199 1  
   200   88  200 1  
   201   89  201 1  
   202   89  202 1  
   203   90  203 1  
   204   91  204 1  
   205   94  205 1  
   206   94  206 1  
   207   94  207 1  
   208   95  208 1  
   209   96  209 1  
   210   99  210 1  
   211   99  211 1  
@<TRIPOS>SUBSTRUCTURE
     1 GLY         1

