6gjb_ligand
  -I-interpret- 

 81 85  0  0  0  0  0  0  0  0999 V2000
    3.8450    9.2350   43.0490 C   0  0  0  0  0
    4.2130    8.5230   44.3590 C   0  0  0  0  0
    2.7160    9.0860   46.2950 C   0  0  0  0  0
    2.3500    9.8560   47.3850 C   0  0  0  0  0
    3.1260   10.9400   47.7470 C   0  0  0  0  0
    4.6280   10.4940   45.9310 C   0  0  0  0  0
    6.6250    8.7620   43.6810 C   0  0  0  0  0
    7.9210    8.3230   43.6590 C   0  0  0  0  0
    8.2880    7.1660   44.3420 C   0  0  0  0  0
    7.2990    6.4530   44.9940 C   0  0  0  0  0
    9.6880    6.6710   44.2860 C   0  0  0  0  0
   11.3930    5.0920   44.7390 C   0  0  0  0  0
   11.8150    6.9380   43.4730 C   0  0  0  0  0
   12.5650    8.8260   41.9360 C   0  0  0  0  0
   11.4310    9.2030   41.2190 C   0  0  0  0  0
   11.4740   10.3400   40.4290 C   0  0  0  0  0
   15.8300   12.2190   40.7590 C   0  0  0  0  0
   20.6600   12.1250   40.6220 C   0  0  0  0  0
   22.9860   12.3480   41.2750 C   0  0  0  0  0
   23.6000   13.0540   42.4990 C   0  0  0  0  0
   25.0960   13.3820   42.4630 C   0  0  0  0  0
   25.9530   14.8140   40.5360 C   0  0  0  0  0
   25.2480   14.4920   39.4660 C   0  0  0  0  0
    4.3410    8.5380   41.9120 O   0  0  0  0  0
    3.8660    9.3840   45.5630 C   0  0  0  0  0
    2.6430   11.8980   49.1100 Cl  0  0  0  0  0
    4.2560   11.2490   47.0190 C   0  0  0  0  0
    4.9970   12.3210   47.3930 F   0  0  0  0  0
    5.6430    8.0680   44.3530 N   0  0  0  0  0
    5.9350    6.8690   45.0340 C   0  0  0  0  0
    5.0230    6.2750   45.6390 O   0  0  0  0  0
   10.0870    5.4830   44.8740 C   0  0  0  0  0
   12.2880    5.8090   44.0430 N   0  0  0  0  0
   12.6930    7.6780   42.7510 N   0  0  0  0  0
   12.5720   11.1070   40.3040 N   0  0  0  0  0
   13.6710   10.7310   40.9920 C   0  0  0  0  0
   14.8480   11.5470   40.8630 C   0  0  0  0  0
   17.0360   13.0420   40.6320 C   0  0  0  0  0
   18.2460   12.2310   40.1790 C   0  0  0  0  0
   19.4960   12.7910   40.6690 N   0  0  0  0  0
   20.8110   11.0110   40.1580 O   0  0  0  0  0
   21.6310   12.8850   41.1650 O   0  0  0  0  0
   25.4810   14.7750   41.9580 C   0  0  0  0  0
   23.8290   14.0100   39.4510 C   0  0  0  0  0
   23.6570   12.5600   39.9080 C   0  0  0  0  0
   13.7050    9.6070   41.8040 C   0  0  0  0  0
   10.5540    7.4020   43.5710 N   0  0  0  0  0
    4.2905   10.2297   43.0626 H   0  0  0  0  0
    2.7583    9.2796   42.9766 H   0  0  0  0  0
    3.6096    7.6189   44.4399 H   0  0  0  0  0
    2.0983    8.2362   46.0046 H   0  0  0  0  0
    1.4543    9.6085   47.9548 H   0  0  0  0  0
    5.5155   10.7619   45.3577 H   0  0  0  0  0
    6.3642    9.6806   43.1554 H   0  0  0  0  0
    8.6722    8.8834   43.1024 H   0  0  0  0  0
    7.5747    5.5287   45.5018 H   0  0  0  0  0
   11.7163    4.1657   45.2139 H   0  0  0  0  0
   10.5191    8.6089   41.2793 H   0  0  0  0  0
   10.5755   10.6268   39.8827 H   0  0  0  0  0
   23.0881   11.2793   41.4634 H   0  0  0  0  0
   23.4762   12.3569   43.3277 H   0  0  0  0  0
   23.0938   14.0173   42.5619 H   0  0  0  0  0
   25.5422   12.6747   41.7639 H   0  0  0  0  0
   25.4401   13.3309   43.4960 H   0  0  0  0  0
   26.9794   15.1403   40.3680 H   0  0  0  0  0
   25.7464   14.5860   38.5012 H   0  0  0  0  0
    4.0924    9.0111   41.1145 H   0  0  0  0  0
    9.3776    4.8720   45.4322 H   0  0  0  0  0
   13.6508    7.3321   42.8084 H   0  0  0  0  0
   17.2605   13.4659   41.6108 H   0  0  0  0  0
   16.8439   13.8097   39.8824 H   0  0  0  0  0
   18.2732   12.2415   39.0894 H   0  0  0  0  0
   18.1468   11.2214   40.5778 H   0  0  0  0  0
   19.4873   13.7307   41.0655 H   0  0  0  0  0
   26.3083   15.1209   42.5777 H   0  0  0  0  0
   24.5845   15.3926   42.0129 H   0  0  0  0  0
   23.4800   14.0667   38.4199 H   0  0  0  0  0
   23.2685   14.6357   40.1456 H   0  0  0  0  0
   23.0042   12.0872   39.1742 H   0  0  0  0  0
   24.6630   12.1501   39.9982 H   0  0  0  0  0
   14.6191    9.3392   42.3340 H   0  0  0  0  0
  2  1  1  0  0  0
  1 24  1  0  0  0
  2 25  1  0  0  0
 29  2  1  0  0  0
  3  4  4  0  0  0
 25  3  4  0  0  0
  4  5  4  0  0  0
  5 26  1  0  0  0
 27  5  4  0  0  0
 25  6  4  0  0  0
  6 27  4  0  0  0
  8  7  2  0  0  0
  7 29  1  0  0  0
  9  8  1  0  0  0
  9 10  2  0  0  0
 11  9  1  0  0  0
 10 30  1  0  0  0
 11 32  4  0  0  0
 47 11  4  0  0  0
 12 32  4  0  0  0
 33 12  4  0  0  0
 13 33  4  0  0  0
 34 13  1  0  0  0
 13 47  4  0  0  0
 14 15  4  0  0  0
 14 34  1  0  0  0
 46 14  4  0  0  0
 16 15  4  0  0  0
 35 16  4  0  0  0
 17 37  3  0  0  0
 38 17  1  0  0  0
 40 18  1  0  0  0
 18 41  2  0  0  0
 18 42  1  0  0  0
 19 20  1  0  0  0
 42 19  1  0  0  0
 19 45  1  0  0  0
 20 21  1  0  0  0
 21 43  1  0  0  0
 22 23  2  0  0  0
 43 22  1  0  0  0
 23 44  1  0  0  0
 27 28  1  0  0  0
 30 29  1  0  0  0
 30 31  2  0  0  0
 36 35  4  0  0  0
 37 36  1  0  0  0
 36 46  4  0  0  0
 39 38  1  0  0  0
 39 40  1  0  0  0
 44 45  1  0  0  0
  1 48  1  0  0  0
  1 49  1  0  0  0
  2 50  1  0  0  0
  3 51  1  0  0  0
  4 52  1  0  0  0
  6 53  1  0  0  0
  7 54  1  0  0  0
  8 55  1  0  0  0
 10 56  1  0  0  0
 12 57  1  0  0  0
 15 58  1  0  0  0
 16 59  1  0  0  0
 19 60  1  0  0  0
 20 61  1  0  0  0
 20 62  1  0  0  0
 21 63  1  0  0  0
 21 64  1  0  0  0
 22 65  1  0  0  0
 23 66  1  0  0  0
 24 67  1  0  0  0
 32 68  1  0  0  0
 34 69  1  0  0  0
 38 70  1  0  0  0
 38 71  1  0  0  0
 39 72  1  0  0  0
 39 73  1  0  0  0
 40 74  1  0  0  0
 43 75  1  0  0  0
 43 76  1  0  0  0
 44 77  1  0  0  0
 44 78  1  0  0  0
 45 79  1  0  0  0
 45 80  1  0  0  0
 46 81  1  0  0  0
M  END
$$$$
