5f62_ligand
  -I-interpret- 

 72 75  0  0  0  0  0  0  0  0999 V2000
   15.3120   -8.1160   -3.8980 C   0  0  0  0  0
   12.7310   -3.3270    1.8740 C   0  0  0  0  0
   12.5120   -5.2360    0.1820 C   0  0  0  0  0
    9.1720   -6.6770    0.5200 C   0  0  0  0  0
    8.3620   -7.7530   -1.5080 C   0  0  0  0  0
    9.4800   -7.2930   -2.2300 C   0  0  0  0  0
   11.3810  -13.8810   -7.6920 C   0  0  0  0  0
   12.2890  -12.9980   -6.9140 N   0  3  0  0  0
   12.3290  -11.6210   -7.4780 C   0  0  0  0  0
   13.3970  -10.7730   -6.7490 C   0  0  0  0  0
   11.9860  -12.9990   -5.4560 C   0  0  0  0  0
   13.0610  -12.1790   -4.7070 C   0  0  0  0  0
   13.2690  -10.8770   -5.3130 N   0  0  0  0  0
   13.6760   -9.8210   -4.5170 C   0  0  0  0  0
   12.8490   -9.3590   -3.4710 C   0  0  0  0  0
   11.7120   -9.9500   -3.2510 F   0  0  0  0  0
   13.2390   -8.2850   -2.6380 C   0  0  0  0  0
   14.9130   -9.1800   -4.7320 C   0  0  0  0  0
   14.4770   -7.6490   -2.8480 C   0  0  0  0  0
   14.9600   -6.6140   -2.1010 N   0  0  0  0  0
   14.3900   -5.8410   -1.1350 C   0  0  0  0  0
   15.1410   -4.8820   -0.5430 N   0  0  0  0  0
   14.6210   -4.0850    0.4120 C   0  0  0  0  0
   13.2860   -4.2290    0.8230 C   0  0  0  0  0
   11.2040   -5.4500    0.4980 N   0  0  0  0  0
   10.2880   -6.2070   -0.1740 C   0  0  0  0  0
    8.2100   -7.4630   -0.1470 C   0  0  0  0  0
    7.1760   -8.6910   -2.2730 Cl  0  0  0  0  0
    9.6330   -7.6320   -3.5580 N   0  0  0  0  0
   10.2350   -6.6380   -4.8030 S   0  0  0  0  0
    8.9070   -5.4780   -5.2660 C   0  0  0  0  0
    8.5190   -4.6030   -4.0440 C   0  0  0  0  0
    9.4560   -4.6180   -6.4310 C   0  0  0  0  0
    7.6640   -6.3020   -5.7080 C   0  0  0  0  0
   10.5670   -7.5450   -6.0240 O   0  0  0  0  0
   11.4760   -5.8770   -4.2830 O   0  0  0  0  0
   10.4160   -6.5270   -1.5390 C   0  0  0  0  0
   13.0980   -6.0030   -0.7620 N   0  0  0  0  0
   16.2800   -7.6424   -4.0619 H   0  0  0  0  0
   11.8999   -2.7565    1.4595 H   0  0  0  0  0
   12.3795   -3.9245    2.7152 H   0  0  0  0  0
   13.5096   -2.6434    2.2124 H   0  0  0  0  0
    9.0444   -6.4369    1.5755 H   0  0  0  0  0
   10.3715  -13.4704   -7.6716 H   0  0  0  0  0
   11.7296  -13.9405   -8.7230 H   0  0  0  0  0
   11.3784  -14.8773   -7.2499 H   0  0  0  0  0
   13.2258  -13.3910   -7.0053 H   0  0  0  0  0
   11.3530  -11.1540   -7.3460 H   0  0  0  0  0
   12.5815  -11.6774   -8.5369 H   0  0  0  0  0
   13.2607   -9.7294   -7.0324 H   0  0  0  0  0
   14.3826  -11.1405   -7.0346 H   0  0  0  0  0
   11.9864  -14.0240   -5.0851 H   0  0  0  0  0
   11.0057  -12.5530   -5.2879 H   0  0  0  0  0
   14.0010  -12.7293   -4.7488 H   0  0  0  0  0
   12.7229  -12.0284   -3.6818 H   0  0  0  0  0
   12.5823   -7.9503   -1.8350 H   0  0  0  0  0
   15.5618   -9.5076   -5.5443 H   0  0  0  0  0
   15.9303   -6.3741   -2.3043 H   0  0  0  0  0
   15.2453   -3.3185    0.8713 H   0  0  0  0  0
   10.8672   -4.9868    1.3420 H   0  0  0  0  0
    7.3468   -7.8453    0.3979 H   0  0  0  0  0
    9.3565   -8.5775   -3.8224 H   0  0  0  0  0
    8.1702   -5.2450   -3.2351 H   0  0  0  0  0
    9.3902   -4.0385   -3.7117 H   0  0  0  0  0
    7.7250   -3.9132   -4.3301 H   0  0  0  0  0
   10.3433   -4.0802   -6.0971 H   0  0  0  0  0
    9.7158   -5.2659   -7.2681 H   0  0  0  0  0
    8.6939   -3.9047   -6.7449 H   0  0  0  0  0
    7.9282   -6.9260   -6.5618 H   0  0  0  0  0
    7.3360   -6.9336   -4.8824 H   0  0  0  0  0
    6.8598   -5.6218   -5.9885 H   0  0  0  0  0
   11.2876   -6.1584   -2.0800 H   0  0  0  0  0
  1 18  4  0  0  0
 19  1  4  0  0  0
 24  2  1  0  0  0
  3 24  4  0  0  0
 25  3  1  0  0  0
  3 38  4  0  0  0
 26  4  4  0  0  0
  4 27  4  0  0  0
  5  6  4  0  0  0
 27  5  4  0  0  0
  5 28  1  0  0  0
  6 29  1  0  0  0
  6 37  4  0  0  0
  8  7  1  0  0  0
  9  8  1  0  0  0
 11  8  1  0  0  0
 10  9  1  0  0  0
 13 10  1  0  0  0
 12 11  1  0  0  0
 13 12  1  0  0  0
 14 13  1  0  0  0
 15 14  4  0  0  0
 18 14  4  0  0  0
 15 16  1  0  0  0
 17 15  4  0  0  0
 19 17  4  0  0  0
 20 19  1  0  0  0
 21 20  1  0  0  0
 21 22  4  0  0  0
 38 21  4  0  0  0
 23 22  4  0  0  0
 24 23  4  0  0  0
 25 26  1  0  0  0
 26 37  4  0  0  0
 29 30  1  0  0  0
 30 31  1  0  0  0
 30 35  2  0  0  0
 30 36  2  0  0  0
 31 32  1  0  0  0
 31 33  1  0  0  0
 31 34  1  0  0  0
  1 39  1  0  0  0
  2 40  1  0  0  0
  2 41  1  0  0  0
  2 42  1  0  0  0
  4 43  1  0  0  0
  7 44  1  0  0  0
  7 45  1  0  0  0
  7 46  1  0  0  0
  8 47  1  0  0  0
  9 48  1  0  0  0
  9 49  1  0  0  0
 10 50  1  0  0  0
 10 51  1  0  0  0
 11 52  1  0  0  0
 11 53  1  0  0  0
 12 54  1  0  0  0
 12 55  1  0  0  0
 17 56  1  0  0  0
 18 57  1  0  0  0
 20 58  1  0  0  0
 23 59  1  0  0  0
 25 60  1  0  0  0
 27 61  1  0  0  0
 29 62  1  0  0  0
 32 63  1  0  0  0
 32 64  1  0  0  0
 32 65  1  0  0  0
 33 66  1  0  0  0
 33 67  1  0  0  0
 33 68  1  0  0  0
 34 69  1  0  0  0
 34 70  1  0  0  0
 34 71  1  0  0  0
 37 72  1  0  0  0
M  END
$$$$
