### 
### Created by X-TOOL on Mon Sep 10 21:13:14 2018
### 

@<TRIPOS>MOLECULE
4j24_ligand
  225   227     1     0     0
SMALL
GAST_HUCK


@<TRIPOS>ATOM
      1 N          -1.5760   33.7220  -18.9540 N.4       1 ARG         0.2379
      2 CA         -2.8710   34.4610  -18.8790 C.3       1 ARG         0.0651
      3 C          -3.9480   33.6850  -18.1080 C.2       1 ARG         0.2268
      4 O          -5.1460   33.9760  -18.2360 O.2       1 ARG        -0.3907
      5 CB         -3.3630   34.7730  -20.2880 C.3       1 ARG         0.0110
      6 CG         -3.5730   33.5420  -21.1500 C.3       1 ARG        -0.0125
      7 CD         -4.2860   33.9110  -22.4350 C.3       1 ARG         0.0629
      8 NE         -5.0290   32.7840  -22.9980 N.pl3     1 ARG        -0.2723
      9 CZ         -5.9190   32.8850  -23.9880 C.cat     1 ARG         0.2882
     10 NH1        -6.1870   34.0700  -24.5440 N.pl3     1 ARG        -0.2849
     11 NH2        -6.5520   31.7970  -24.4270 N.pl3     1 ARG        -0.2849
     12 N          -3.5240   32.7050  -17.3110 N.am      1 HIS        -0.2598
     13 CA         -4.4450   31.9240  -16.4950 C.3       1 HIS         0.1372
     14 C          -3.8270   31.5480  -15.1520 C.2       1 HIS         0.2079
     15 O          -3.9300   30.4070  -14.7280 O.2       1 HIS        -0.3940
     16 CB         -4.8860   30.6510  -17.2370 C.3       1 HIS         0.0145
     17 CG         -5.9080   30.8960  -18.3020 C.2       1 HIS        -0.0027
     18 ND1        -7.2210   31.2080  -18.0150 N.2       1 HIS        -0.3252
     19 CD2        -5.8170   30.8610  -19.6520 C.2       1 HIS         0.0291
     20 CE1        -7.8900   31.3700  -19.1430 C.2       1 HIS         0.0907
     21 NE2        -7.0630   31.1640  -20.1510 N.pl3     1 HIS        -0.2752
     22 N          -3.2030   32.5140  -14.4620 N.am      1 PRO        -0.2497
     23 CA         -2.6230   32.1150  -13.1810 C.3       1 PRO         0.1338
     24 C          -3.6340   31.5030  -12.1960 C.2       1 PRO         0.2041
     25 O          -3.3300   30.4910  -11.5710 O.2       1 PRO        -0.3944
     26 CB         -2.0150   33.4140  -12.6250 C.3       1 PRO        -0.0104
     27 CG         -2.5100   34.5160  -13.4910 C.3       1 PRO        -0.0281
     28 CD         -2.9320   33.9230  -14.7970 C.3       1 PRO         0.0369
     29 N          -4.8350   32.0780  -12.0790 N.am      1 LEU        -0.2637
     30 CA         -5.7890   31.5950  -11.0740 C.3       1 LEU         0.1312
     31 C          -6.3840   30.2540  -11.4420 C.2       1 LEU         0.2039
     32 O          -6.5060   29.3810  -10.6060 O.2       1 LEU        -0.3944
     33 CB         -6.8990   32.6300  -10.8200 C.3       1 LEU        -0.0101
     34 CG         -6.3850   33.9160  -10.1540 C.3       1 LEU        -0.0425
     35 CD1        -7.4740   34.9980  -10.1330 C.3       1 LEU        -0.0625
     36 CD2        -5.8620   33.6290   -8.7520 C.3       1 LEU        -0.0625
     37 N          -6.7920   30.1150  -12.6920 N.am      1 LEU        -0.2637
     38 CA         -7.4480   28.9070  -13.1650 C.3       1 LEU         0.1312
     39 C          -6.4800   27.7370  -13.0460 C.2       1 LEU         0.2039
     40 O          -6.8510   26.6820  -12.5370 O.2       1 LEU        -0.3944
     41 CB         -7.9460   29.1110  -14.6130 C.3       1 LEU        -0.0101
     42 CG         -8.4040   27.8890  -15.4110 C.3       1 LEU        -0.0425
     43 CD1        -9.5200   27.1440  -14.7050 C.3       1 LEU        -0.0625
     44 CD2        -8.8730   28.2910  -16.8050 C.3       1 LEU        -0.0625
     45 N          -5.2290   27.9350  -13.4810 N.am      1 LEU        -0.2637
     46 CA         -4.1890   26.9200  -13.3130 C.3       1 LEU         0.1312
     47 C          -3.9890   26.5360  -11.8480 C.2       1 LEU         0.2039
     48 O          -3.8420   25.3500  -11.5140 O.2       1 LEU        -0.3944
     49 CB         -2.8410   27.3880  -13.9030 C.3       1 LEU        -0.0101
     50 CG         -2.6190   26.9720  -15.3570 C.3       1 LEU        -0.0425
     51 CD1        -1.3230   27.5360  -15.9100 C.3       1 LEU        -0.0625
     52 CD2        -2.6240   25.4580  -15.4570 C.3       1 LEU        -0.0625
     53 N          -3.9710   27.5390  -10.9760 N.am      1 ARG        -0.2637
     54 CA         -3.7950   27.2900   -9.5520 C.3       1 ARG         0.1311
     55 C          -4.9630   26.5000   -8.9840 C.2       1 ARG         0.2040
     56 O          -4.7590   25.5910   -8.2110 O.2       1 ARG        -0.3944
     57 CB         -3.5540   28.6110   -8.8130 C.3       1 ARG        -0.0092
     58 CG         -2.1030   29.0840   -8.9710 C.3       1 ARG        -0.0156
     59 CD         -1.8750   30.5780   -8.7050 C.3       1 ARG         0.0627
     60 NE         -0.4680   30.9940   -8.9280 N.pl3     1 ARG        -0.2723
     61 CZ          0.1260   31.1430  -10.1230 C.cat     1 ARG         0.2882
     62 NH1        -0.5260   30.8990  -11.2570 N.pl3     1 ARG        -0.2849
     63 NH2         1.3890   31.5350  -10.1950 N.pl3     1 ARG        -0.2849
     64 N          -6.1950   26.8190   -9.3950 N.am      1 HIS        -0.2625
     65 CA         -7.3420   26.0300   -8.9540 C.3       1 HIS         0.1369
     66 C          -7.2710   24.6080   -9.5240 C.2       1 HIS         0.2054
     67 O          -7.6020   23.6430   -8.8360 O.2       1 HIS        -0.3942
     68 CB         -8.6600   26.6820   -9.3640 C.3       1 HIS         0.0145
     69 CG         -9.1070   27.7790   -8.4520 C.2       1 HIS        -0.0027
     70 ND1        -8.9840   29.1120   -8.7770 N.2       1 HIS        -0.3252
     71 CD2        -9.6830   27.7450   -7.2280 C.2       1 HIS         0.0291
     72 CE1        -9.4700   29.8500   -7.7960 C.2       1 HIS         0.0907
     73 NE2        -9.8990   29.0450   -6.8470 N.pl3     1 HIS        -0.2752
     74 N          -6.8360   24.4840  -10.7800 N.am      1 LEU        -0.2636
     75 CA         -6.7380   23.1550  -11.4150 C.3       1 LEU         0.1312
     76 C          -5.7170   22.3030  -10.6770 C.2       1 LEU         0.2039
     77 O          -5.9280   21.1160  -10.5080 O.2       1 LEU        -0.3944
     78 CB         -6.4050   23.2410  -12.9170 C.3       1 LEU        -0.0101
     79 CG         -7.6000   23.5280  -13.8380 C.3       1 LEU        -0.0425
     80 CD1        -7.1530   23.9690  -15.2280 C.3       1 LEU        -0.0625
     81 CD2        -8.5400   22.3330  -13.9380 C.3       1 LEU        -0.0625
     82 N          -4.6380   22.9150  -10.1980 N.am      1 LEU        -0.2637
     83 CA         -3.5690   22.1490   -9.5730 C.3       1 LEU         0.1312
     84 C          -3.7110   21.9680   -8.0530 C.2       1 LEU         0.2039
     85 O          -3.1030   21.0730   -7.4700 O.2       1 LEU        -0.3944
     86 CB         -2.2220   22.7720   -9.9220 C.3       1 LEU        -0.0101
     87 CG         -1.9180   22.7240  -11.4270 C.3       1 LEU        -0.0425
     88 CD1        -0.7480   23.6230  -11.8010 C.3       1 LEU        -0.0625
     89 CD2        -1.6760   21.2870  -11.8620 C.3       1 LEU        -0.0625
     90 N          -4.5180   22.8090   -7.4160 N.am      1 GLN        -0.2636
     91 CA         -4.7130   22.7540   -5.9660 C.3       1 GLN         0.1330
     92 C          -5.4030   21.4610   -5.5280 C.2       1 GLN         0.2036
     93 O          -6.2700   20.9430   -6.2320 O.2       1 GLN        -0.3944
     94 CB         -5.5700   23.9420   -5.5330 C.3       1 GLN         0.0045
     95 CG         -5.5610   24.2290   -4.0480 C.3       1 GLN         0.0412
     96 CD         -6.4230   25.4300   -3.7070 C.2       1 GLN         0.1737
     97 OE1        -7.5160   25.6000   -4.2570 O.2       1 GLN        -0.3973
     98 NE2        -5.9380   26.2720   -2.8050 N.am      1 GLN        -0.3009
     99 N          -5.0330   20.9710   -4.3540 N.am      1 ASN        -0.2674
    100 CA         -5.6980   19.8260   -3.7310 C.3       1 ASN         0.1110
    101 C          -6.0750   20.1340   -2.2810 C.2       1 ASN         0.0624
    102 O          -7.1031   19.6246   -1.7603 O.co2     1 ASN        -0.5665
    103 CB         -4.7880   18.6000   -3.7720 C.3       1 ASN         0.0718
    104 CG         -4.3520   18.2390   -5.1840 C.2       1 ASN         0.1774
    105 OD1        -5.1570   18.2280   -6.1220 O.2       1 ASN        -0.3971
    106 ND2        -3.0720   17.9330   -5.3390 N.am      1 ASN        -0.3007
    107 O          -5.3492   20.9061   -1.5993 O.co2     1 ASN        -0.5665
    108 H1         -0.9050   34.2713  -19.4679 H         1 ARG         0.2015
    109 H2         -1.7185   32.8410  -19.4227 H         1 ARG         0.2015
    110 H3         -1.2301   33.5548  -18.0221 H         1 ARG         0.2015
    111 H4         -2.6926   35.4097  -18.3517 H         1 ARG         0.1098
    112 H5         -2.6201   35.4181  -20.7799 H         1 ARG         0.0347
    113 H6         -4.3202   35.3093  -20.2103 H         1 ARG         0.0347
    114 H7         -4.1802   32.8110  -20.5959 H         1 ARG         0.0302
    115 H8         -2.5960   33.0985  -21.3924 H         1 ARG         0.0302
    116 H9         -3.5398   34.2461  -23.1705 H         1 ARG         0.0689
    117 H10        -4.9896   34.7305  -22.2270 H         1 ARG         0.0689
    118 H11        -4.8537   31.8487  -22.6038 H         1 ARG         0.2642
    119 H12        -6.8754   34.1369  -25.3072 H         1 ARG         0.2615
    120 H13        -5.7052   34.9166  -24.2094 H         1 ARG         0.2615
    121 H14        -6.3520   30.8792  -24.0045 H         1 ARG         0.2615
    122 H15        -7.2411   31.8742  -25.1887 H         1 ARG         0.2615
    123 H16        -2.5461   32.4996  -17.2716 H         1 HIS         0.1886
    124 H17        -5.3358   32.5402  -16.3032 H         1 HIS         0.0817
    125 H18        -5.3115   29.9513  -16.5026 H         1 HIS         0.0420
    126 H19        -3.9997   30.1976  -17.7047 H         1 HIS         0.0420
    127 H20        -4.9248   30.6353  -20.2342 H         1 HIS         0.0729
    128 H21        -8.9443   31.6294  -19.2268 H         1 HIS         0.1199
    129 H22        -7.3103   31.2209  -21.1493 H         1 HIS         0.2361
    130 H23        -1.8289   31.3741  -13.3554 H         1 PRO         0.0802
    131 H24        -0.9167   33.3658  -12.6619 H         1 PRO         0.0313
    132 H25        -2.3404   33.5717  -11.5861 H         1 PRO         0.0313
    133 H26        -1.7077   35.2501  -13.6562 H         1 PRO         0.0287
    134 H27        -3.3672   35.0113  -13.0116 H         1 PRO         0.0287
    135 H28        -3.8371   34.4176  -15.1794 H         1 PRO         0.0524
    136 H29        -2.1277   34.0023  -15.5432 H         1 PRO         0.0524
    137 H30        -5.0840   32.8392  -12.6778 H         1 LEU         0.1883
    138 H31        -5.2347   31.4623  -10.1332 H         1 LEU         0.0800
    139 H32        -7.6574   32.1761  -10.1653 H         1 LEU         0.0315
    140 H33        -7.3578   32.8947  -11.7841 H         1 LEU         0.0315
    141 H34        -5.5457   34.2955  -10.7552 H         1 LEU         0.0298
    142 H35        -7.0800   35.9054   -9.6520 H         1 LEU         0.0232
    143 H36        -8.3439   34.6318   -9.5681 H         1 LEU         0.0232
    144 H37        -7.7782   35.2321  -11.1638 H         1 LEU         0.0232
    145 H38        -5.0854   32.8516   -8.8024 H         1 LEU         0.0232
    146 H39        -6.6892   33.2803   -8.1163 H         1 LEU         0.0232
    147 H40        -5.4337   34.5479   -8.3251 H         1 LEU         0.0232
    148 H41        -6.6442   30.8670  -13.3344 H         1 LEU         0.1883
    149 H42        -8.3202   28.7024  -12.5268 H         1 LEU         0.0800
    150 H43        -7.1231   29.5756  -15.1760 H         1 LEU         0.0315
    151 H44        -8.7975   29.8059  -14.5677 H         1 LEU         0.0315
    152 H45        -7.5453   27.2094  -15.5144 H         1 LEU         0.0298
    153 H46        -9.8201   26.2750  -15.3090 H         1 LEU         0.0232
    154 H47       -10.3822   27.8142  -14.5732 H         1 LEU         0.0232
    155 H48        -9.1674   26.8022  -13.7207 H         1 LEU         0.0232
    156 H49        -8.0664   28.8320  -17.3214 H         1 LEU         0.0232
    157 H50        -9.7559   28.9417  -16.7214 H         1 LEU         0.0232
    158 H51        -9.1350   27.3893  -17.3780 H         1 LEU         0.0232
    159 H52        -5.0002   28.7978  -13.9317 H         1 LEU         0.1883
    160 H53        -4.5098   26.0214  -13.8602 H         1 LEU         0.0800
    161 H54        -2.0304   26.9614  -13.2939 H         1 LEU         0.0315
    162 H55        -2.8022   28.4859  -13.8479 H         1 LEU         0.0315
    163 H56        -3.4497   27.3661  -15.9608 H         1 LEU         0.0298
    164 H57        -1.2000   27.2153  -16.9550 H         1 LEU         0.0232
    165 H58        -0.4774   27.1668  -15.3112 H         1 LEU         0.0232
    166 H59        -1.3524   28.6347  -15.8647 H         1 LEU         0.0232
    167 H60        -3.5692   25.0670  -15.0523 H         1 LEU         0.0232
    168 H61        -1.7813   25.0496  -14.8799 H         1 LEU         0.0232
    169 H62        -2.5253   25.1598  -16.5112 H         1 LEU         0.0232
    170 H63        -4.0799   28.4779  -11.3024 H         1 ARG         0.1883
    171 H64        -2.8929   26.6730   -9.4276 H         1 ARG         0.0800
    172 H65        -3.7692   28.4675   -7.7439 H         1 ARG         0.0313
    173 H66        -4.2272   29.3784   -9.2228 H         1 ARG         0.0313
    174 H67        -1.7841   28.8684  -10.0015 H         1 ARG         0.0301
    175 H68        -1.4795   28.5132   -8.2672 H         1 ARG         0.0301
    176 H69        -2.1439   30.7940   -7.6605 H         1 ARG         0.0689
    177 H70        -2.5237   31.1578   -9.3781 H         1 ARG         0.0689
    178 H71         0.1032   31.1853   -8.0925 H         1 ARG         0.2642
    179 H72        -0.0489   31.0205  -12.1617 H         1 ARG         0.2615
    180 H73        -1.5078   30.5886  -11.2301 H         1 ARG         0.2615
    181 H74         1.9174   31.7307   -9.3328 H         1 ARG         0.2615
    182 H75         1.8428   31.6441  -11.1132 H         1 ARG         0.2615
    183 H76        -6.3311   27.5993  -10.0055 H         1 HIS         0.1885
    184 H77        -7.3134   25.9680   -7.8561 H         1 HIS         0.0817
    185 H78        -9.4395   25.9060   -9.3791 H         1 HIS         0.0420
    186 H79        -8.5392   27.1002  -10.3742 H         1 HIS         0.0420
    187 H80        -9.9289   26.8532   -6.6534 H         1 HIS         0.0729
    188 H81        -9.5092   30.9381   -7.7755 H         1 HIS         0.1199
    189 H82       -10.3285   29.3436   -5.9597 H         1 HIS         0.2361
    190 H83        -6.5739   25.2996  -11.2959 H         1 LEU         0.1883
    191 H84        -7.7192   22.6666  -11.3218 H         1 LEU         0.0800
    192 H85        -5.9630   22.2813  -13.2228 H         1 LEU         0.0315
    193 H86        -5.6676   24.0453  -13.0563 H         1 LEU         0.0315
    194 H87        -8.1652   24.3591  -13.3911 H         1 LEU         0.0298
    195 H88        -8.0371   24.1635  -15.8529 H         1 LEU         0.0232
    196 H89        -6.5468   23.1744  -15.6875 H         1 LEU         0.0232
    197 H90        -6.5528   24.8872  -15.1461 H         1 LEU         0.0232
    198 H91        -8.8531   22.0273  -12.9288 H         1 LEU         0.0232
    199 H92        -8.0199   21.4975  -14.4293 H         1 LEU         0.0232
    200 H93        -9.4256   22.6115  -14.5280 H         1 LEU         0.0232
    201 H94        -4.5601   23.9095  -10.2676 H         1 LEU         0.1883
    202 H95        -3.5961   21.1420  -10.0148 H         1 LEU         0.0800
    203 H96        -1.4321   22.2254   -9.3860 H         1 LEU         0.0315
    204 H97        -2.2258   23.8230   -9.5973 H         1 LEU         0.0315
    205 H98        -2.8049   23.0948  -11.9616 H         1 LEU         0.0298
    206 H99        -0.5667   23.5573  -12.8840 H         1 LEU         0.0232
    207 H100        0.1520   23.2984  -11.2582 H         1 LEU         0.0232
    208 H101       -0.9838   24.6630  -11.5312 H         1 LEU         0.0232
    209 H102       -2.5389   20.6673  -11.5766 H         1 LEU         0.0232
    210 H103       -0.7701   20.9027  -11.3705 H         1 LEU         0.0232
    211 H104       -1.5441   21.2515  -12.9535 H         1 LEU         0.0232
    212 H105       -5.0084   23.5023   -7.9440 H         1 GLN         0.1883
    213 H106       -3.7306   22.8147   -5.4749 H         1 GLN         0.0801
    214 H107       -6.6085   23.7420   -5.8356 H         1 GLN         0.0337
    215 H108       -5.2017   24.8370   -6.0557 H         1 GLN         0.0337
    216 H109       -4.5274   24.4292   -3.7292 H         1 GLN         0.0504
    217 H110       -5.9462   23.3492   -3.5118 H         1 GLN         0.0504
    218 H111       -6.4641   27.0808   -2.5422 H         1 GLN         0.1814
    219 H112       -5.0461   26.0983   -2.3874 H         1 GLN         0.1814
    220 H113       -4.2683   21.4010   -3.8741 H         1 ASN         0.1877
    221 H114       -6.6164   19.6055   -4.2948 H         1 ASN         0.0752
    222 H115       -5.3300   17.7450   -3.3418 H         1 ASN         0.0544
    223 H116       -3.8915   18.8069   -3.1691 H         1 ASN         0.0544
    224 H117       -2.7227   17.6867   -6.2431 H         1 ASN         0.1814
    225 H118       -2.4554   17.9484   -4.5519 H         1 ASN         0.1814
@<TRIPOS>BOND
     1    1    2 1  
     2    2    3 1  
     3    2    5 1  
     4    3    4 2  
     5    3   12 am 
     6    5    6 1  
     7    6    7 1  
     8    7    8 1  
     9    8    9 ar 
    10    9   10 ar 
    11    9   11 ar 
    12   12   13 1  
    13   13   14 1  
    14   13   16 1  
    15   14   15 2  
    16   14   22 am 
    17   16   17 1  
    18   17   18 1  
    19   17   19 2  
    20   18   20 2  
    21   19   21 1  
    22   20   21 1  
    23   22   23 1  
    24   22   28 1  
    25   23   24 1  
    26   23   26 1  
    27   24   25 2  
    28   24   29 am 
    29   26   27 1  
    30   27   28 1  
    31   29   30 1  
    32   30   31 1  
    33   30   33 1  
    34   31   32 2  
    35   31   37 am 
    36   33   34 1  
    37   34   35 1  
    38   34   36 1  
    39   37   38 1  
    40   38   39 1  
    41   38   41 1  
    42   39   40 2  
    43   39   45 am 
    44   41   42 1  
    45   42   43 1  
    46   42   44 1  
    47   45   46 1  
    48   46   47 1  
    49   46   49 1  
    50   47   48 2  
    51   47   53 am 
    52   49   50 1  
    53   50   51 1  
    54   50   52 1  
    55   53   54 1  
    56   54   55 1  
    57   54   57 1  
    58   55   56 2  
    59   55   64 am 
    60   57   58 1  
    61   58   59 1  
    62   59   60 1  
    63   60   61 ar 
    64   61   62 ar 
    65   61   63 ar 
    66   64   65 1  
    67   65   66 1  
    68   65   68 1  
    69   66   67 2  
    70   66   74 am 
    71   68   69 1  
    72   69   70 1  
    73   69   71 2  
    74   70   72 2  
    75   71   73 1  
    76   72   73 1  
    77   74   75 1  
    78   75   76 1  
    79   75   78 1  
    80   76   77 2  
    81   76   82 am 
    82   78   79 1  
    83   79   80 1  
    84   79   81 1  
    85   82   83 1  
    86   83   84 1  
    87   83   86 1  
    88   84   85 2  
    89   84   90 am 
    90   86   87 1  
    91   87   88 1  
    92   87   89 1  
    93   90   91 1  
    94   91   92 1  
    95   91   94 1  
    96   92   93 2  
    97   92   99 am 
    98   94   95 1  
    99   95   96 1  
   100   96   97 2  
   101   96   98 am 
   102   99  100 1  
   103  100  101 1  
   104  100  103 1  
   105  101  102 ar 
   106  103  104 1  
   107  104  105 2  
   108  104  106 am 
   109  101  107 ar 
   110    1  108 1  
   111    1  109 1  
   112    1  110 1  
   113    2  111 1  
   114    5  112 1  
   115    5  113 1  
   116    6  114 1  
   117    6  115 1  
   118    7  116 1  
   119    7  117 1  
   120    8  118 1  
   121   10  119 1  
   122   10  120 1  
   123   11  121 1  
   124   11  122 1  
   125   12  123 1  
   126   13  124 1  
   127   16  125 1  
   128   16  126 1  
   129   19  127 1  
   130   20  128 1  
   131   21  129 1  
   132   23  130 1  
   133   26  131 1  
   134   26  132 1  
   135   27  133 1  
   136   27  134 1  
   137   28  135 1  
   138   28  136 1  
   139   29  137 1  
   140   30  138 1  
   141   33  139 1  
   142   33  140 1  
   143   34  141 1  
   144   35  142 1  
   145   35  143 1  
   146   35  144 1  
   147   36  145 1  
   148   36  146 1  
   149   36  147 1  
   150   37  148 1  
   151   38  149 1  
   152   41  150 1  
   153   41  151 1  
   154   42  152 1  
   155   43  153 1  
   156   43  154 1  
   157   43  155 1  
   158   44  156 1  
   159   44  157 1  
   160   44  158 1  
   161   45  159 1  
   162   46  160 1  
   163   49  161 1  
   164   49  162 1  
   165   50  163 1  
   166   51  164 1  
   167   51  165 1  
   168   51  166 1  
   169   52  167 1  
   170   52  168 1  
   171   52  169 1  
   172   53  170 1  
   173   54  171 1  
   174   57  172 1  
   175   57  173 1  
   176   58  174 1  
   177   58  175 1  
   178   59  176 1  
   179   59  177 1  
   180   60  178 1  
   181   62  179 1  
   182   62  180 1  
   183   63  181 1  
   184   63  182 1  
   185   64  183 1  
   186   65  184 1  
   187   68  185 1  
   188   68  186 1  
   189   71  187 1  
   190   72  188 1  
   191   73  189 1  
   192   74  190 1  
   193   75  191 1  
   194   78  192 1  
   195   78  193 1  
   196   79  194 1  
   197   80  195 1  
   198   80  196 1  
   199   80  197 1  
   200   81  198 1  
   201   81  199 1  
   202   81  200 1  
   203   82  201 1  
   204   83  202 1  
   205   86  203 1  
   206   86  204 1  
   207   87  205 1  
   208   88  206 1  
   209   88  207 1  
   210   88  208 1  
   211   89  209 1  
   212   89  210 1  
   213   89  211 1  
   214   90  212 1  
   215   91  213 1  
   216   94  214 1  
   217   94  215 1  
   218   95  216 1  
   219   95  217 1  
   220   98  218 1  
   221   98  219 1  
   222   99  220 1  
   223  100  221 1  
   224  103  222 1  
   225  103  223 1  
   226  106  224 1  
   227  106  225 1  
@<TRIPOS>SUBSTRUCTURE
     1 ARG         1

