4j24_ligand
  -I-interpret- 

222224  0  0  0  0  0  0  0  0999 V2000
   -1.5760   33.7220  -18.9540 N   0  3  0  0  0
   -2.8710   34.4610  -18.8790 C   0  0  0  0  0
   -3.9480   33.6850  -18.1080 C   0  0  0  0  0
   -5.1460   33.9760  -18.2360 O   0  0  0  0  0
   -3.3630   34.7730  -20.2880 C   0  0  0  0  0
   -3.5730   33.5420  -21.1500 C   0  0  0  0  0
   -4.2860   33.9110  -22.4350 C   0  0  0  0  0
   -5.0290   32.7840  -22.9980 N   0  0  0  0  0
   -5.9190   32.8850  -23.9880 C   0  0  0  0  0
   -6.1870   34.0700  -24.5440 N   0  0  0  0  0
   -6.5520   31.7970  -24.4270 N   0  0  0  0  0
   -3.5240   32.7050  -17.3110 N   0  0  0  0  0
   -4.4450   31.9240  -16.4950 C   0  0  0  0  0
   -3.8270   31.5480  -15.1520 C   0  0  0  0  0
   -3.9300   30.4070  -14.7280 O   0  0  0  0  0
   -4.8860   30.6510  -17.2370 C   0  0  0  0  0
   -5.9080   30.8960  -18.3020 C   0  0  0  0  0
   -7.2210   31.2080  -18.0150 N   0  0  0  0  0
   -5.8170   30.8610  -19.6520 C   0  0  0  0  0
   -7.8900   31.3700  -19.1430 C   0  0  0  0  0
   -7.0630   31.1640  -20.1510 N   0  0  0  0  0
   -3.2030   32.5140  -14.4620 N   0  0  0  0  0
   -2.6230   32.1150  -13.1810 C   0  0  0  0  0
   -3.6340   31.5030  -12.1960 C   0  0  0  0  0
   -3.3300   30.4910  -11.5710 O   0  0  0  0  0
   -2.0150   33.4140  -12.6250 C   0  0  0  0  0
   -2.5100   34.5160  -13.4910 C   0  0  0  0  0
   -2.9320   33.9230  -14.7970 C   0  0  0  0  0
   -4.8350   32.0780  -12.0790 N   0  0  0  0  0
   -5.7890   31.5950  -11.0740 C   0  0  0  0  0
   -6.3840   30.2540  -11.4420 C   0  0  0  0  0
   -6.5060   29.3810  -10.6060 O   0  0  0  0  0
   -6.8990   32.6300  -10.8200 C   0  0  0  0  0
   -6.3850   33.9160  -10.1540 C   0  0  0  0  0
   -7.4740   34.9980  -10.1330 C   0  0  0  0  0
   -5.8620   33.6290   -8.7520 C   0  0  0  0  0
   -6.7920   30.1150  -12.6920 N   0  0  0  0  0
   -7.4480   28.9070  -13.1650 C   0  0  0  0  0
   -6.4800   27.7370  -13.0460 C   0  0  0  0  0
   -6.8510   26.6820  -12.5370 O   0  0  0  0  0
   -7.9460   29.1110  -14.6130 C   0  0  0  0  0
   -8.4040   27.8890  -15.4110 C   0  0  0  0  0
   -9.5200   27.1440  -14.7050 C   0  0  0  0  0
   -8.8730   28.2910  -16.8050 C   0  0  0  0  0
   -5.2290   27.9350  -13.4810 N   0  0  0  0  0
   -4.1890   26.9200  -13.3130 C   0  0  0  0  0
   -3.9890   26.5360  -11.8480 C   0  0  0  0  0
   -3.8420   25.3500  -11.5140 O   0  0  0  0  0
   -2.8410   27.3880  -13.9030 C   0  0  0  0  0
   -2.6190   26.9720  -15.3570 C   0  0  0  0  0
   -1.3230   27.5360  -15.9100 C   0  0  0  0  0
   -2.6240   25.4580  -15.4570 C   0  0  0  0  0
   -3.9710   27.5390  -10.9760 N   0  0  0  0  0
   -3.7950   27.2900   -9.5520 C   0  0  0  0  0
   -4.9630   26.5000   -8.9840 C   0  0  0  0  0
   -4.7590   25.5910   -8.2110 O   0  0  0  0  0
   -3.5540   28.6110   -8.8130 C   0  0  0  0  0
   -2.1030   29.0840   -8.9710 C   0  0  0  0  0
   -1.8750   30.5780   -8.7050 C   0  0  0  0  0
   -0.4680   30.9940   -8.9280 N   0  0  0  0  0
    0.1260   31.1430  -10.1230 C   0  0  0  0  0
   -0.5260   30.8990  -11.2570 N   0  0  0  0  0
    1.3890   31.5350  -10.1950 N   0  0  0  0  0
   -6.1950   26.8190   -9.3950 N   0  0  0  0  0
   -7.3420   26.0300   -8.9540 C   0  0  0  0  0
   -7.2710   24.6080   -9.5240 C   0  0  0  0  0
   -7.6020   23.6430   -8.8360 O   0  0  0  0  0
   -8.6600   26.6820   -9.3640 C   0  0  0  0  0
   -9.1070   27.7790   -8.4520 C   0  0  0  0  0
   -8.9840   29.1120   -8.7770 N   0  0  0  0  0
   -9.6830   27.7450   -7.2280 C   0  0  0  0  0
   -9.4700   29.8500   -7.7960 C   0  0  0  0  0
   -9.8990   29.0450   -6.8470 N   0  0  0  0  0
   -6.8360   24.4840  -10.7800 N   0  0  0  0  0
   -6.7380   23.1550  -11.4150 C   0  0  0  0  0
   -5.7170   22.3030  -10.6770 C   0  0  0  0  0
   -5.9280   21.1160  -10.5080 O   0  0  0  0  0
   -6.4050   23.2410  -12.9170 C   0  0  0  0  0
   -7.6000   23.5280  -13.8380 C   0  0  0  0  0
   -7.1530   23.9690  -15.2280 C   0  0  0  0  0
   -8.5400   22.3330  -13.9380 C   0  0  0  0  0
   -4.6380   22.9150  -10.1980 N   0  0  0  0  0
   -3.5690   22.1490   -9.5730 C   0  0  0  0  0
   -3.7110   21.9680   -8.0530 C   0  0  0  0  0
   -3.1030   21.0730   -7.4700 O   0  0  0  0  0
   -2.2220   22.7720   -9.9220 C   0  0  0  0  0
   -1.9180   22.7240  -11.4270 C   0  0  0  0  0
   -0.7480   23.6230  -11.8010 C   0  0  0  0  0
   -1.6760   21.2870  -11.8620 C   0  0  0  0  0
   -4.5180   22.8090   -7.4160 N   0  0  0  0  0
   -4.7130   22.7540   -5.9660 C   0  0  0  0  0
   -5.4030   21.4610   -5.5280 C   0  0  0  0  0
   -6.2700   20.9430   -6.2320 O   0  0  0  0  0
   -5.5700   23.9420   -5.5330 C   0  0  0  0  0
   -5.5610   24.2290   -4.0480 C   0  0  0  0  0
   -6.4230   25.4300   -3.7070 C   0  0  0  0  0
   -7.5160   25.6000   -4.2570 O   0  0  0  0  0
   -5.9380   26.2720   -2.8050 N   0  0  0  0  0
   -5.0330   20.9710   -4.3540 N   0  0  0  0  0
   -5.6980   19.8260   -3.7310 C   0  0  0  0  0
   -6.0750   20.1340   -2.2810 C   0  0  0  0  0
   -7.1031   19.6246   -1.7603 O   0  0  0  0  0
   -4.7880   18.6000   -3.7720 C   0  0  0  0  0
   -4.3520   18.2390   -5.1840 C   0  0  0  0  0
   -5.1570   18.2280   -6.1220 O   0  0  0  0  0
   -3.0720   17.9330   -5.3390 N   0  0  0  0  0
   -5.3492   20.9061   -1.5993 O   0  0  0  0  0
   -1.2491   33.5146  -18.0103 H   0  0  0  0  0
   -1.7122   32.8510  -19.4671 H   0  0  0  0  0
   -0.8850   34.2973  -19.4357 H   0  0  0  0  0
   -2.6889   35.3853  -18.3307 H   0  0  0  0  0
   -2.5992   35.3820  -20.7716 H   0  0  0  0  0
   -4.3277   35.2713  -20.1925 H   0  0  0  0  0
   -4.1816   32.8239  -20.6004 H   0  0  0  0  0
   -2.6024   33.1104  -21.3944 H   0  0  0  0  0
   -3.5354   34.2197  -23.1626 H   0  0  0  0  0
   -4.9958   34.7077  -22.2122 H   0  0  0  0  0
   -4.8554   31.8578  -22.6077 H   0  0  0  0  0
   -6.8710   34.1367  -25.2978 H   0  0  0  0  0
   -5.7076   34.9080  -24.2147 H   0  0  0  0  0
   -6.3562   30.8885  -24.0066 H   0  0  0  0  0
   -2.5266   32.4955  -17.2708 H   0  0  0  0  0
   -5.3174   32.5498  -16.3067 H   0  0  0  0  0
   -5.3369   29.9855  -16.5009 H   0  0  0  0  0
   -4.0031   30.2359  -17.7231 H   0  0  0  0  0
   -4.9240   30.6351  -20.2347 H   0  0  0  0  0
   -8.9453   31.6296  -19.2268 H   0  0  0  0  0
   -1.8931   31.3175  -13.3199 H   0  0  0  0  0
   -0.9259   33.3701  -12.6335 H   0  0  0  0  0
   -2.3103   33.5703  -11.5875 H   0  0  0  0  0
   -1.7230   35.2535  -13.6489 H   0  0  0  0  0
   -3.3523   35.0190  -13.0160 H   0  0  0  0  0
   -3.7999   34.4258  -15.2237 H   0  0  0  0  0
   -2.1713   34.0302  -15.5703 H   0  0  0  0  0
   -5.0890   32.8544  -12.6898 H   0  0  0  0  0
   -5.2268   31.4557  -10.1506 H   0  0  0  0  0
   -7.6262   32.1766  -10.1464 H   0  0  0  0  0
   -7.3227   32.9044  -11.7861 H   0  0  0  0  0
   -5.5538   34.2962  -10.7478 H   0  0  0  0  0
   -7.7746   35.2290  -11.1549 H   0  0  0  0  0
   -8.3354   34.6339   -9.5730 H   0  0  0  0  0
   -7.0824   35.8966   -9.6562 H   0  0  0  0  0
   -6.6659   33.2151   -8.1434 H   0  0  0  0  0
   -5.0431   32.9121   -8.8108 H   0  0  0  0  0
   -5.5042   34.5552   -8.3024 H   0  0  0  0  0
   -6.6412   30.8821  -13.3472 H   0  0  0  0  0
   -8.3227   28.6840  -12.5541 H   0  0  0  0  0
   -7.0845   29.4981  -15.1571 H   0  0  0  0  0
   -8.8325   29.7386  -14.5220 H   0  0  0  0  0
   -7.5419   27.2274  -15.4956 H   0  0  0  0  0
   -9.1693   26.8059  -13.7299 H   0  0  0  0  0
  -10.3737   27.8092  -14.5750 H   0  0  0  0  0
   -9.8165   26.2832  -15.3044 H   0  0  0  0  0
   -9.7080   28.9864  -16.7195 H   0  0  0  0  0
   -8.0524   28.7704  -17.3388 H   0  0  0  0  0
   -9.1927   27.4026  -17.3496 H   0  0  0  0  0
   -4.9956   28.8151  -13.9407 H   0  0  0  0  0
   -4.5344   26.0412  -13.8576 H   0  0  0  0  0
   -2.0515   26.9254  -13.3108 H   0  0  0  0  0
   -2.8373   28.4776  -13.8749 H   0  0  0  0  0
   -3.4320   27.3801  -15.9575 H   0  0  0  0  0
   -1.3534   28.6246  -15.8646 H   0  0  0  0  0
   -0.4859   27.1695  -15.3158 H   0  0  0  0  0
   -1.2022   27.2175  -16.9454 H   0  0  0  0  0
   -1.8254   25.0515  -14.8364 H   0  0  0  0  0
   -3.5846   25.0755  -15.1119 H   0  0  0  0  0
   -2.4656   25.1631  -16.4943 H   0  0  0  0  0
   -4.0820   28.4967  -11.3090 H   0  0  0  0  0
   -2.9107   26.6700   -9.4046 H   0  0  0  0  0
   -3.7542   28.4561   -7.7528 H   0  0  0  0  0
   -4.2133   29.3693   -9.2354 H   0  0  0  0  0
   -1.8245   28.9032  -10.0092 H   0  0  0  0  0
   -1.5126   28.5396   -8.2340 H   0  0  0  0  0
   -2.1188   30.7720   -7.6605 H   0  0  0  0  0
   -2.5027   31.1397   -9.3968 H   0  0  0  0  0
    0.0977   31.1834   -8.1006 H   0  0  0  0  0
   -0.0523   31.0151  -12.1528 H   0  0  0  0  0
   -1.4995   30.5958  -11.2305 H   0  0  0  0  0
    1.9136   31.7247   -9.3411 H   0  0  0  0  0
   -6.3338   27.6149  -10.0177 H   0  0  0  0  0
   -7.3054   25.9836   -7.8656 H   0  0  0  0  0
   -9.4259   25.9069   -9.3363 H   0  0  0  0  0
   -8.5093   27.1228  -10.3494 H   0  0  0  0  0
   -9.9291   26.8524   -6.6529 H   0  0  0  0  0
   -9.5093   30.9391   -7.7755 H   0  0  0  0  0
   -6.5687   25.3159  -11.3062 H   0  0  0  0  0
   -7.7177   22.6826  -11.3442 H   0  0  0  0  0
   -6.0145   22.2655  -13.2067 H   0  0  0  0  0
   -5.7118   24.0737  -13.0361 H   0  0  0  0  0
   -8.1488   24.3521  -13.3822 H   0  0  0  0  0
   -6.5584   24.8788  -15.1454 H   0  0  0  0  0
   -6.5524   23.1809  -15.6822 H   0  0  0  0  0
   -8.0299   24.1614  -15.8462 H   0  0  0  0  0
   -7.9966   21.4775  -14.3393 H   0  0  0  0  0
   -8.9228   22.0895  -12.9469 H   0  0  0  0  0
   -9.3707   22.5801  -14.5991 H   0  0  0  0  0
   -4.5585   23.9294  -10.2690 H   0  0  0  0  0
   -3.6393   21.1407   -9.9810 H   0  0  0  0  0
   -1.4474   22.2046   -9.4061 H   0  0  0  0  0
   -2.2493   23.8188   -9.6195 H   0  0  0  0  0
   -2.7872   23.1087  -11.9605 H   0  0  0  0  0
   -0.9829   24.6531  -11.5331 H   0  0  0  0  0
    0.1431   23.3003  -11.2625 H   0  0  0  0  0
   -0.5693   23.5570  -12.8742 H   0  0  0  0  0
   -0.8285   20.8797  -11.3107 H   0  0  0  0  0
   -2.5654   20.6916  -11.6556 H   0  0  0  0  0
   -1.4613   21.2634  -12.9304 H   0  0  0  0  0
   -5.0182   23.5162   -7.9546 H   0  0  0  0  0
   -3.7302   22.7875   -5.4958 H   0  0  0  0  0
   -6.5989   23.7020   -5.8009 H   0  0  0  0  0
   -5.1591   24.8229   -6.0263 H   0  0  0  0  0
   -4.5362   24.4429   -3.7445 H   0  0  0  0  0
   -5.9600   23.3591   -3.5264 H   0  0  0  0  0
   -6.4726   27.0994   -2.5403 H   0  0  0  0  0
   -5.0303   26.0924   -2.3758 H   0  0  0  0  0
   -4.2530   21.4096   -3.8646 H   0  0  0  0  0
   -6.6093   19.6206   -4.2927 H   0  0  0  0  0
   -5.3462   17.7554   -3.3680 H   0  0  0  0  0
   -3.8928   18.8283   -3.1935 H   0  0  0  0  0
   -2.7171   17.6756   -6.2600 H   0  0  0  0  0
   -2.4417   17.9548   -4.5373 H   0  0  0  0  0
   -4.6121   21.2072   -2.1357 H   0  0  0  0  0
  1  2  1  0  0  0
  2  3  1  0  0  0
  2  5  1  0  0  0
  3  4  2  0  0  0
  3 12  1  0  0  0
  5  6  1  0  0  0
  6  7  1  0  0  0
  7  8  1  0  0  0
  8  9  1  0  0  0
  9 10  1  0  0  0
  9 11  2  0  0  0
 12 13  1  0  0  0
 13 14  1  0  0  0
 13 16  1  0  0  0
 14 15  2  0  0  0
 14 22  1  0  0  0
 16 17  1  0  0  0
 17 18  4  0  0  0
 17 19  4  0  0  0
 18 20  4  0  0  0
 19 21  4  0  0  0
 20 21  4  0  0  0
 22 23  1  0  0  0
 22 28  1  0  0  0
 23 24  1  0  0  0
 23 26  1  0  0  0
 24 25  2  0  0  0
 24 29  1  0  0  0
 26 27  1  0  0  0
 27 28  1  0  0  0
 29 30  1  0  0  0
 30 31  1  0  0  0
 30 33  1  0  0  0
 31 32  2  0  0  0
 31 37  1  0  0  0
 33 34  1  0  0  0
 34 35  1  0  0  0
 34 36  1  0  0  0
 37 38  1  0  0  0
 38 39  1  0  0  0
 38 41  1  0  0  0
 39 40  2  0  0  0
 39 45  1  0  0  0
 41 42  1  0  0  0
 42 43  1  0  0  0
 42 44  1  0  0  0
 45 46  1  0  0  0
 46 47  1  0  0  0
 46 49  1  0  0  0
 47 48  2  0  0  0
 47 53  1  0  0  0
 49 50  1  0  0  0
 50 51  1  0  0  0
 50 52  1  0  0  0
 53 54  1  0  0  0
 54 55  1  0  0  0
 54 57  1  0  0  0
 55 56  2  0  0  0
 55 64  1  0  0  0
 57 58  1  0  0  0
 58 59  1  0  0  0
 59 60  1  0  0  0
 60 61  1  0  0  0
 61 62  1  0  0  0
 61 63  2  0  0  0
 64 65  1  0  0  0
 65 66  1  0  0  0
 65 68  1  0  0  0
 66 67  2  0  0  0
 66 74  1  0  0  0
 68 69  1  0  0  0
 69 70  4  0  0  0
 69 71  4  0  0  0
 70 72  4  0  0  0
 71 73  4  0  0  0
 72 73  4  0  0  0
 74 75  1  0  0  0
 75 76  1  0  0  0
 75 78  1  0  0  0
 76 77  2  0  0  0
 76 82  1  0  0  0
 78 79  1  0  0  0
 79 80  1  0  0  0
 79 81  1  0  0  0
 82 83  1  0  0  0
 83 84  1  0  0  0
 83 86  1  0  0  0
 84 85  2  0  0  0
 84 90  1  0  0  0
 86 87  1  0  0  0
 87 88  1  0  0  0
 87 89  1  0  0  0
 90 91  1  0  0  0
 91 92  1  0  0  0
 91 94  1  0  0  0
 92 93  2  0  0  0
 92 99  1  0  0  0
 94 95  1  0  0  0
 95 96  1  0  0  0
 96 97  2  0  0  0
 96 98  1  0  0  0
 99100  1  0  0  0
100101  1  0  0  0
100103  1  0  0  0
101102  2  0  0  0
103104  1  0  0  0
104105  2  0  0  0
104106  1  0  0  0
101107  1  0  0  0
  1108  1  0  0  0
  1109  1  0  0  0
  1110  1  0  0  0
  2111  1  0  0  0
  5112  1  0  0  0
  5113  1  0  0  0
  6114  1  0  0  0
  6115  1  0  0  0
  7116  1  0  0  0
  7117  1  0  0  0
  8118  1  0  0  0
 10119  1  0  0  0
 10120  1  0  0  0
 11121  1  0  0  0
 12122  1  0  0  0
 13123  1  0  0  0
 16124  1  0  0  0
 16125  1  0  0  0
 19126  1  0  0  0
 20127  1  0  0  0
 23128  1  0  0  0
 26129  1  0  0  0
 26130  1  0  0  0
 27131  1  0  0  0
 27132  1  0  0  0
 28133  1  0  0  0
 28134  1  0  0  0
 29135  1  0  0  0
 30136  1  0  0  0
 33137  1  0  0  0
 33138  1  0  0  0
 34139  1  0  0  0
 35140  1  0  0  0
 35141  1  0  0  0
 35142  1  0  0  0
 36143  1  0  0  0
 36144  1  0  0  0
 36145  1  0  0  0
 37146  1  0  0  0
 38147  1  0  0  0
 41148  1  0  0  0
 41149  1  0  0  0
 42150  1  0  0  0
 43151  1  0  0  0
 43152  1  0  0  0
 43153  1  0  0  0
 44154  1  0  0  0
 44155  1  0  0  0
 44156  1  0  0  0
 45157  1  0  0  0
 46158  1  0  0  0
 49159  1  0  0  0
 49160  1  0  0  0
 50161  1  0  0  0
 51162  1  0  0  0
 51163  1  0  0  0
 51164  1  0  0  0
 52165  1  0  0  0
 52166  1  0  0  0
 52167  1  0  0  0
 53168  1  0  0  0
 54169  1  0  0  0
 57170  1  0  0  0
 57171  1  0  0  0
 58172  1  0  0  0
 58173  1  0  0  0
 59174  1  0  0  0
 59175  1  0  0  0
 60176  1  0  0  0
 62177  1  0  0  0
 62178  1  0  0  0
 63179  1  0  0  0
 64180  1  0  0  0
 65181  1  0  0  0
 68182  1  0  0  0
 68183  1  0  0  0
 71184  1  0  0  0
 72185  1  0  0  0
 74186  1  0  0  0
 75187  1  0  0  0
 78188  1  0  0  0
 78189  1  0  0  0
 79190  1  0  0  0
 80191  1  0  0  0
 80192  1  0  0  0
 80193  1  0  0  0
 81194  1  0  0  0
 81195  1  0  0  0
 81196  1  0  0  0
 82197  1  0  0  0
 83198  1  0  0  0
 86199  1  0  0  0
 86200  1  0  0  0
 87201  1  0  0  0
 88202  1  0  0  0
 88203  1  0  0  0
 88204  1  0  0  0
 89205  1  0  0  0
 89206  1  0  0  0
 89207  1  0  0  0
 90208  1  0  0  0
 91209  1  0  0  0
 94210  1  0  0  0
 94211  1  0  0  0
 95212  1  0  0  0
 95213  1  0  0  0
 98214  1  0  0  0
 98215  1  0  0  0
 99216  1  0  0  0
100217  1  0  0  0
103218  1  0  0  0
103219  1  0  0  0
106220  1  0  0  0
106221  1  0  0  0
107222  1  0  0  0
M  END
$$$$
