6aqq_ligand
  -I-interpret- 

 51 54  0  0  0  0  0  0  0  0999 V2000
   13.9190  -49.3250   25.5470 C   0  0  0  0  0
   14.4280  -47.0910   24.8540 C   0  0  0  0  0
   15.7260  -46.3100   25.1810 C   0  0  0  0  0
   15.8610  -47.6280   23.1330 C   0  0  0  0  0
   16.3330  -48.8020   22.2870 C   0  0  0  0  0
   17.8240  -48.6810   21.8520 C   0  0  0  0  0
   18.1660  -49.8670   20.9230 C   0  0  0  0  0
   19.6480  -49.7530   20.4870 C   0  0  0  0  0
   20.4960  -50.8210   21.2210 C   0  0  0  0  0
   20.3070  -52.1630   20.5390 C   0  0  0  0  0
   21.0980  -52.6880   19.5310 C   0  0  0  0  0
   21.1680  -54.7460   18.1880 C   0  0  0  0  0
   20.8180  -56.2550   18.2940 C   0  0  0  0  0
   20.6970  -56.9080   19.5260 C   0  0  0  0  0
   20.3890  -58.2720   19.5700 C   0  0  0  0  0
   20.2140  -58.9930   18.3790 C   0  0  0  0  0
   20.3450  -58.3490   17.1560 C   0  0  0  0  0
   20.6510  -56.9810   17.1160 C   0  0  0  0  0
   14.6040  -48.0280   23.8580 C   0  0  0  0  0
   20.1770  -59.0390   16.0000 F   0  0  0  0  0
   13.9880  -47.8410   26.0390 N   0  0  0  0  0
   20.6110  -53.9020   19.1960 N   0  0  0  0  0
   19.5130  -54.1360   19.9740 N   0  0  0  0  0
   19.3350  -53.0540   20.8050 N   0  0  0  0  0
   14.3280  -49.2850   24.1050 N   0  0  0  0  0
   13.5940  -50.3070   26.1920 O   0  0  0  0  0
   17.0540  -47.2660   24.3850 S   0  0  0  0  0
   13.7025  -46.3436   24.5327 H   0  0  0  0  0
   15.8825  -46.2134   26.2554 H   0  0  0  0  0
   15.6869  -45.2846   24.8134 H   0  0  0  0  0
   15.7061  -46.7700   22.4788 H   0  0  0  0  0
   15.7248  -48.8244   21.3827 H   0  0  0  0  0
   16.2360  -49.7049   22.8898 H   0  0  0  0  0
   18.4690  -48.7005   22.7305 H   0  0  0  0  0
   17.9809  -47.7401   21.3246 H   0  0  0  0  0
   17.5211  -49.8444   20.0446 H   0  0  0  0  0
   18.0094  -50.8066   21.4528 H   0  0  0  0  0
   20.0220  -48.7608   20.7393 H   0  0  0  0  0
   19.7200  -49.9133   19.4113 H   0  0  0  0  0
   20.1763  -50.8908   22.2607 H   0  0  0  0  0
   21.5483  -50.5388   21.1878 H   0  0  0  0  0
   21.9661  -52.2036   19.0840 H   0  0  0  0  0
   20.7563  -54.4022   17.2391 H   0  0  0  0  0
   22.2506  -54.6748   18.2930 H   0  0  0  0  0
   20.8430  -56.3530   20.4527 H   0  0  0  0  0
   20.2848  -58.7755   20.5311 H   0  0  0  0  0
   19.9758  -60.0561   18.4139 H   0  0  0  0  0
   20.7593  -56.4804   16.1538 H   0  0  0  0  0
   13.7794  -48.0050   23.1456 H   0  0  0  0  0
   13.7763  -47.4778   26.9683 H   0  0  0  0  0
   14.3803  -50.0692   23.4548 H   0  0  0  0  0
 21  1  1  0  0  0
  1 25  1  0  0  0
  1 26  2  0  0  0
  3  2  1  0  0  0
 19  2  1  0  0  0
  2 21  1  0  0  0
 27  3  1  0  0  0
  5  4  1  0  0  0
  4 19  1  0  0  0
  4 27  1  0  0  0
  6  5  1  0  0  0
  7  6  1  0  0  0
  8  7  1  0  0  0
  9  8  1  0  0  0
 10  9  1  0  0  0
 11 10  4  0  0  0
 10 24  4  0  0  0
 22 11  4  0  0  0
 12 13  1  0  0  0
 12 22  1  0  0  0
 13 14  4  0  0  0
 13 18  4  0  0  0
 14 15  4  0  0  0
 15 16  4  0  0  0
 16 17  4  0  0  0
 17 18  4  0  0  0
 17 20  1  0  0  0
 19 25  1  0  0  0
 22 23  4  0  0  0
 23 24  4  0  0  0
  2 28  1  0  0  0
  3 29  1  0  0  0
  3 30  1  0  0  0
  4 31  1  0  0  0
  5 32  1  0  0  0
  5 33  1  0  0  0
  6 34  1  0  0  0
  6 35  1  0  0  0
  7 36  1  0  0  0
  7 37  1  0  0  0
  8 38  1  0  0  0
  8 39  1  0  0  0
  9 40  1  0  0  0
  9 41  1  0  0  0
 11 42  1  0  0  0
 12 43  1  0  0  0
 12 44  1  0  0  0
 14 45  1  0  0  0
 15 46  1  0  0  0
 16 47  1  0  0  0
 18 48  1  0  0  0
 19 49  1  0  0  0
 21 50  1  0  0  0
 25 51  1  0  0  0
M  END
$$$$
