5vsk_ligand
  -I-interpret- 

 58 61  0  0  0  0  0  0  0  0999 V2000
   77.9440  -57.2150  181.2090 C   0  0  0  0  0
   74.7520  -58.6580  180.2300 C   0  0  0  0  0
   76.0560  -58.3260  180.2390 N   0  0  0  0  0
   74.3030  -57.4350  182.2410 C   0  0  0  0  0
   69.8700  -56.4500  178.5730 N   0  0  0  0  0
   72.1080  -57.0440  179.1620 C   0  0  0  0  0
   76.2720  -56.2530  183.2890 C   0  0  0  0  0
   78.4500  -56.4140  182.2290 C   0  0  0  0  0
   73.8820  -58.2500  181.1700 N   0  3  0  0  0
   71.6140  -57.5260  180.5220 C   0  0  0  0  0
   71.6450  -56.4250  181.4370 O   0  0  0  0  0
   72.4780  -58.6620  181.0690 C   0  0  0  0  0
   71.2240  -55.9200  178.6360 C   0  0  0  0  0
   69.2030  -56.5460  177.4250 C   0  0  0  0  0
   68.8520  -57.9450  176.9890 C   0  0  0  0  0
   69.9110  -58.4250  175.9900 C   0  0  0  0  0
   69.3270  -58.5280  174.5830 C   0  0  0  0  0
   70.5620  -59.7220  176.3320 C   0  0  0  0  0
   69.9650  -60.7120  177.1130 C   0  0  0  0  0
   70.6440  -61.8950  177.3800 C   0  0  0  0  0
   71.9150  -62.1030  176.8620 C   0  0  0  0  0
   72.5090  -61.1240  176.0770 C   0  0  0  0  0
   71.8330  -59.9400  175.8130 C   0  0  0  0  0
   69.2900  -56.8730  179.8410 C   0  0  0  0  0
   70.1720  -57.9920  180.3810 C   0  0  0  0  0
   75.7320  -57.0490  182.2900 C   0  0  0  0  0
   77.6280  -55.9400  183.2530 C   0  0  0  0  0
   76.5980  -57.5530  181.2050 C   0  0  0  0  0
   73.5030  -57.0530  183.1200 O   0  0  0  0  0
   68.8890  -55.5850  176.7430 O   0  0  0  0  0
   80.1910  -55.9840  182.2250 Cl  0  0  0  0  0
   78.6016  -57.5748  180.4176 H   0  0  0  0  0
   74.3832  -59.2885  179.4210 H   0  0  0  0  0
   76.6564  -58.6703  179.4898 H   0  0  0  0  0
   72.0749  -57.8767  178.4595 H   0  0  0  0  0
   73.1266  -56.6709  179.2688 H   0  0  0  0  0
   75.6412  -55.8763  184.0941 H   0  0  0  0  0
   71.1027  -55.7106  181.0948 H   0  0  0  0  0
   72.1185  -58.9283  182.0630 H   0  0  0  0  0
   72.4102  -59.5120  180.3901 H   0  0  0  0  0
   71.2710  -55.0494  179.2902 H   0  0  0  0  0
   71.5586  -55.5895  177.6527 H   0  0  0  0  0
   67.8683  -57.9520  176.5196 H   0  0  0  0  0
   68.8288  -58.6087  177.8533 H   0  0  0  0  0
   70.6885  -57.6627  176.0394 H   0  0  0  0  0
   68.4999  -59.2379  174.5854 H   0  0  0  0  0
   68.9662  -57.5488  174.2682 H   0  0  0  0  0
   70.0995  -58.8706  173.8945 H   0  0  0  0  0
   68.9636  -60.5573  177.5148 H   0  0  0  0  0
   70.1770  -62.6618  177.9981 H   0  0  0  0  0
   72.4451  -63.0322  177.0710 H   0  0  0  0  0
   73.5064  -61.2848  175.6677 H   0  0  0  0  0
   72.3027  -59.1756  175.1940 H   0  0  0  0  0
   68.2667  -57.2213  179.7007 H   0  0  0  0  0
   69.2485  -56.0407  180.5436 H   0  0  0  0  0
   69.8015  -58.2880  181.3624 H   0  0  0  0  0
   70.1407  -58.8302  179.6849 H   0  0  0  0  0
   78.0549  -55.3147  184.0371 H   0  0  0  0  0
  1  8  4  0  0  0
 28  1  4  0  0  0
  2  3  1  0  0  0
  9  2  2  0  0  0
  3 28  1  0  0  0
  9  4  1  0  0  0
  4 26  1  0  0  0
  4 29  2  0  0  0
 13  5  1  0  0  0
  5 14  1  0  0  0
  5 24  1  0  0  0
 10  6  1  0  0  0
  6 13  1  0  0  0
 26  7  4  0  0  0
  7 27  4  0  0  0
 27  8  4  0  0  0
  8 31  1  0  0  0
 12  9  1  0  0  0
 10 11  1  0  0  0
 10 12  1  0  0  0
 10 25  1  0  0  0
 14 15  1  0  0  0
 14 30  2  0  0  0
 15 16  1  0  0  0
 16 17  1  0  0  0
 16 18  1  0  0  0
 18 19  4  0  0  0
 18 23  4  0  0  0
 19 20  4  0  0  0
 20 21  4  0  0  0
 21 22  4  0  0  0
 22 23  4  0  0  0
 24 25  1  0  0  0
 26 28  4  0  0  0
  1 32  1  0  0  0
  2 33  1  0  0  0
  3 34  1  0  0  0
  6 35  1  0  0  0
  6 36  1  0  0  0
  7 37  1  0  0  0
 11 38  1  0  0  0
 12 39  1  0  0  0
 12 40  1  0  0  0
 13 41  1  0  0  0
 13 42  1  0  0  0
 15 43  1  0  0  0
 15 44  1  0  0  0
 16 45  1  0  0  0
 17 46  1  0  0  0
 17 47  1  0  0  0
 17 48  1  0  0  0
 19 49  1  0  0  0
 20 50  1  0  0  0
 21 51  1  0  0  0
 22 52  1  0  0  0
 23 53  1  0  0  0
 24 54  1  0  0  0
 24 55  1  0  0  0
 25 56  1  0  0  0
 25 57  1  0  0  0
 27 58  1  0  0  0
M  END
$$$$
