1g7v_ligand
  -I-interpret- 

 47 46  0  0  0  0  0  0  0  0999 V2000
    7.5020  101.7470   79.8450 P   0  0  0  0  0
    6.3700  101.5580   81.0220 O   0  0  0  0  0
    7.5090  100.4130   78.9330 O   0  0  0  0  0
    7.1910  103.1300   78.8710 O   0  0  0  0  0
    8.9520  101.9100   80.5560 O   0  0  0  0  0
    7.1240  104.5570   79.3780 C   0  0  0  0  0
    6.5590  105.7140   78.3910 C   0  0  0  0  0
    6.7970  106.9620   79.0640 O   0  0  0  0  0
    7.2140  105.7910   76.9190 C   0  0  0  0  0
    6.9200  104.5030   76.3320 O   0  0  0  0  0
    6.7040  106.9460   75.8260 C   0  0  0  0  0
    7.0740  106.3710   74.5370 O   0  0  0  0  0
    7.4580  108.3790   75.8270 C   0  0  0  0  0
    7.1800  109.1160   77.0050 O   0  0  0  0  0
    7.1410  109.4070   74.6570 C   0  0  0  0  0
    5.7140  109.7020   74.2780 N   0  3  0  0  0
    5.4600  110.1480   72.8380 C   0  0  0  0  0
    5.1740  109.0060   71.8210 C   0  0  0  0  0
    4.1300  108.2600   71.9520 O   0  0  0  0  0
    5.9590  108.8750   70.8640 O   0  0  0  0  0
    5.0530  110.6530   75.2690 C   0  0  0  0  0
    5.5890  112.3360   75.0920 P   0  0  0  0  0
    4.5340  112.9810   74.0490 O   0  0  0  0  0
    5.5880  113.1960   76.4670 O   0  0  0  0  0
    7.0600  112.2980   74.4760 O   0  0  0  0  0
    6.3512  102.3424   81.5752 H   0  0  0  0  0
    8.9535  102.7014   81.0994 H   0  0  0  0  0
    8.1595  104.8351   79.5741 H   0  0  0  0  0
    6.4199  104.5277   80.2096 H   0  0  0  0  0
    5.5103  105.4830   78.2042 H   0  0  0  0  0
    6.4115  106.9291   79.9426 H   0  0  0  0  0
    8.2537  106.0718   77.0872 H   0  0  0  0  0
    7.2811  104.4677   75.4432 H   0  0  0  0  0
    5.6590  107.1507   76.0588 H   0  0  0  0  0
    6.8170  106.9722   73.8341 H   0  0  0  0  0
    8.4883  108.0418   75.7139 H   0  0  0  0  0
    7.6418  109.9570   76.9714 H   0  0  0  0  0
    7.5691  108.9462   73.7668 H   0  0  0  0  0
    7.5286  110.3592   75.0192 H   0  0  0  0  0
    5.2706  108.7848   74.3291 H   0  0  0  0  0
    6.3719  110.6410   72.5013 H   0  0  0  0  0
    4.5673  110.7731   72.8605 H   0  0  0  0  0
    3.6549  108.5131   72.7469 H   0  0  0  0  0
    5.3250  110.3245   76.2721 H   0  0  0  0  0
    3.9792  110.6281   75.0832 H   0  0  0  0  0
    3.6596  112.9911   74.4451 H   0  0  0  0  0
    4.6999  113.2141   76.8311 H   0  0  0  0  0
  1  5  1  0  0  0
  1  4  1  0  0  0
  1  3  2  0  0  0
  1  2  1  0  0  0
  4  6  1  0  0  0
  6  7  1  0  0  0
  7  9  1  0  0  0
  7  8  1  0  0  0
  9 11  1  0  0  0
  9 10  1  0  0  0
 11 13  1  0  0  0
 11 12  1  0  0  0
 13 15  1  0  0  0
 13 14  1  0  0  0
 15 16  1  0  0  0
 16 21  1  0  0  0
 16 17  1  0  0  0
 17 18  1  0  0  0
 18 20  2  0  0  0
 18 19  1  0  0  0
 21 22  1  0  0  0
 22 25  2  0  0  0
 22 24  1  0  0  0
 22 23  1  0  0  0
  2 26  1  0  0  0
  5 27  1  0  0  0
  6 28  1  0  0  0
  6 29  1  0  0  0
  7 30  1  0  0  0
  8 31  1  0  0  0
  9 32  1  0  0  0
 10 33  1  0  0  0
 11 34  1  0  0  0
 12 35  1  0  0  0
 13 36  1  0  0  0
 14 37  1  0  0  0
 15 38  1  0  0  0
 15 39  1  0  0  0
 16 40  1  0  0  0
 17 41  1  0  0  0
 17 42  1  0  0  0
 19 43  1  0  0  0
 21 44  1  0  0  0
 21 45  1  0  0  0
 23 46  1  0  0  0
 24 47  1  0  0  0
M  END
$$$$
