4nwc_ligand
  -I-interpret- 

 32 31  0  0  0  0  0  0  0  0999 V2000
    2.7780   31.4260   12.7840 O   0  0  0  0  0
    2.4440   30.3670   13.3500 C   0  0  0  0  0
    1.2890   30.0580   13.7150 O   0  0  0  0  0
    3.5460   29.3370   13.5820 C   0  0  0  0  0
    4.8450   29.9350   13.2040 N   0  3  0  0  0
    3.5420   28.8160   15.0230 C   0  0  0  0  0
    4.3430   27.5110   15.2150 C   0  0  0  0  0
    3.5920   26.3490   14.5510 C   0  0  0  0  0
    2.3900   26.5100   14.2570 O   0  0  0  0  0
    4.2540   25.3020   14.3330 O   0  0  0  0  0
    4.5980   27.2410   16.7080 C   0  0  0  0  0
    5.6510   28.1730   17.3430 C   0  0  0  0  0
    7.0140   28.0070   16.6440 C   0  0  0  0  0
    7.5450   26.8870   16.5860 O   0  0  0  0  0
    7.5390   29.1580   16.1450 O   0  0  0  0  0
    8.6430   28.9910   15.2590 C   0  0  0  0  0
    1.3055   29.1897   14.1242 H   0  0  0  0  0
    3.3649   28.4651   12.9535 H   0  0  0  0  0
    4.7981   30.2658   12.2403 H   0  0  0  0  0
    5.0506   30.7184   13.8240 H   0  0  0  0  0
    5.5790   29.2317   13.2880 H   0  0  0  0  0
    2.5065   28.6043   15.2894 H   0  0  0  0  0
    4.0089   29.5789   15.6460 H   0  0  0  0  0
    5.3174   27.6116   14.7370 H   0  0  0  0  0
    5.1529   25.4217   14.6480 H   0  0  0  0  0
    4.9751   26.2218   16.7926 H   0  0  0  0  0
    3.6577   27.4105   17.2326 H   0  0  0  0  0
    5.7607   27.9159   18.3965 H   0  0  0  0  0
    5.3209   29.2059   17.2325 H   0  0  0  0  0
    9.4530   28.4823   15.7817 H   0  0  0  0  0
    8.3317   28.3951   14.4010 H   0  0  0  0  0
    8.9855   29.9684   14.9191 H   0  0  0  0  0
  1  2  2  0  0  0
  2  3  1  0  0  0
  2  4  1  0  0  0
  4  5  1  0  0  0
  4  6  1  0  0  0
  6  7  1  0  0  0
  7  8  1  0  0  0
  7 11  1  0  0  0
  8  9  2  0  0  0
  8 10  1  0  0  0
 11 12  1  0  0  0
 12 13  1  0  0  0
 13 14  2  0  0  0
 13 15  1  0  0  0
 15 16  1  0  0  0
  3 17  1  0  0  0
  4 18  1  0  0  0
  5 19  1  0  0  0
  5 20  1  0  0  0
  5 21  1  0  0  0
  6 22  1  0  0  0
  6 23  1  0  0  0
  7 24  1  0  0  0
 10 25  1  0  0  0
 11 26  1  0  0  0
 11 27  1  0  0  0
 12 28  1  0  0  0
 12 29  1  0  0  0
 16 30  1  0  0  0
 16 31  1  0  0  0
 16 32  1  0  0  0
M  END
$$$$
