### 
### Created by X-TOOL on Mon Sep 10 21:12:46 2018
### 

@<TRIPOS>MOLECULE
1d4w_ligand
  172   172     1     0     0
SMALL
GAST_HUCK


@<TRIPOS>ATOM
      1 N          -0.1040  -11.0540    8.3520 N.4       1 SER         0.2396
      2 CA          1.1030  -10.2200    8.3250 C.3       1 SER         0.0885
      3 C           1.6930  -10.0910    9.7260 C.2       1 SER         0.2290
      4 O           0.9590   -9.6650   10.6300 O.2       1 SER        -0.3906
      5 CB          0.7940   -8.8410    7.7400 C.3       1 SER         0.1041
      6 OG          0.8050   -7.8220    8.7210 O.3       1 SER        -0.3870
      7 N           2.9650  -10.4570    9.8620 N.am      1 LEU        -0.2609
      8 CA          3.6820  -10.3930   11.1250 C.3       1 LEU         0.1313
      9 C           4.4040   -9.0640   11.3030 C.2       1 LEU         0.2040
     10 O           4.7760   -8.7690   12.4440 O.2       1 LEU        -0.3944
     11 CB          4.6980  -11.5340   11.2530 C.3       1 LEU        -0.0101
     12 CG          4.0740  -12.9350   11.2930 C.3       1 LEU        -0.0425
     13 CD1         5.1040  -13.9860   11.6670 C.3       1 LEU        -0.0625
     14 CD2         2.9030  -12.9730   12.2580 C.3       1 LEU        -0.0625
     15 N           4.5860   -8.2820   10.2510 N.am      1 THR        -0.2613
     16 CA          5.1580   -6.9400   10.3820 C.3       1 THR         0.1565
     17 C           4.0960   -5.9050   10.7190 C.2       1 THR         0.2065
     18 O           3.0440   -5.8090   10.0590 O.2       1 THR        -0.3943
     19 CB          5.8930   -6.5710    9.0730 C.3       1 THR         0.0924
     20 OG1         7.1740   -7.2290    9.0390 O.3       1 THR        -0.3874
     21 CG2         6.1760   -5.0700    8.9700 C.3       1 THR        -0.0346
     22 N           4.3600   -5.1010   11.7550 N.am      1 ILE        -0.2634
     23 CA          3.5030   -3.9540   12.0900 C.3       1 ILE         0.1335
     24 C           4.3350   -2.6750   12.0190 C.2       1 ILE         0.2044
     25 O           5.3370   -2.6000   12.7190 O.2       1 ILE        -0.3944
     26 CB          2.8220   -4.1280   13.4550 C.3       1 ILE        -0.0037
     27 CG1         1.6860   -5.1740   13.4230 C.3       1 ILE        -0.0491
     28 CG2         2.2540   -2.8300   14.0120 C.3       1 ILE        -0.0582
     29 CD1         1.3040   -5.6470   14.8090 C.3       1 ILE        -0.0648
     30 N           3.9870   -1.7400   11.1600 N.am      1 PTR        -0.2607
     31 CA          4.6520   -0.4490   11.0650 C.3       1 PTR         0.1468
     32 C           4.1870    0.5470   12.1310 C.2       1 PTR         0.2074
     33 O           3.1170    1.1510   12.0290 O.2       1 PTR        -0.3941
     34 CB          4.4820    0.1310    9.6660 C.3       1 PTR         0.0400
     35 CG          5.4660   -0.4630    8.6770 C.ar      1 PTR        -0.0004
     36 CD1         5.0990   -1.5540    7.9130 C.ar      1 PTR        -0.0239
     37 CD2         6.7830    0.0140    8.6030 C.ar      1 PTR        -0.0239
     38 CE1         5.9880   -2.2150    7.0720 C.ar      1 PTR         0.0115
     39 CE2         7.6810   -0.6440    7.7640 C.ar      1 PTR         0.0115
     40 CZ          7.2950   -1.7430    7.0120 C.ar      1 PTR         0.1728
     41 OH          8.2580   -2.4170    6.1650 O.3       1 PTR        -0.2040
     42 P           8.5440   -1.8860    4.6560 P.3       1 PTR         0.1348
     43 O1P         7.2720   -2.2290    3.9480 O.co2     1 PTR        -0.6653
     44 O2P         9.6700   -2.7210    4.1670 O.co2     1 PTR        -0.6653
     45 O3P         8.7830   -0.4500    4.6480 O.co2     1 PTR        -0.6653
     46 N           5.0480    0.7270   13.1660 N.am      1 ALA        -0.2638
     47 CA          4.6480    1.5280   14.3290 C.3       1 ALA         0.1282
     48 C           5.3790    2.8580   14.2330 C.2       1 ALA         0.2036
     49 O           6.1760    3.0100   13.3040 O.2       1 ALA        -0.3944
     50 CB          4.9590    0.7610   15.5960 C.3       1 ALA        -0.0244
     51 N           5.1370    3.7860   15.1170 N.am      1 GLN        -0.2636
     52 CA          5.6930    5.1280   15.1510 C.3       1 GLN         0.1330
     53 C           6.2030    5.4160   16.5580 C.2       1 GLN         0.2041
     54 O           5.6170    4.9120   17.5230 O.2       1 GLN        -0.3944
     55 CB          4.6190    6.1460   14.7540 C.3       1 GLN         0.0045
     56 CG          4.1100    5.9510   13.3300 C.3       1 GLN         0.0412
     57 CD          3.1330    7.0620   12.9700 C.2       1 GLN         0.1737
     58 OE1         2.2350    7.3580   13.7610 O.2       1 GLN        -0.3973
     59 NE2         3.3200    7.6330   11.7960 N.am      1 GLN        -0.3009
     60 N           7.2840    6.1920   16.6390 N.am      1 VAL        -0.2635
     61 CA          7.8160    6.5690   17.9460 C.3       1 VAL         0.1332
     62 C           6.7500    7.3680   18.6940 C.2       1 VAL         0.2042
     63 O           6.2420    8.3360   18.1040 O.2       1 VAL        -0.3944
     64 CB          9.1180    7.3890   17.8160 C.3       1 VAL        -0.0063
     65 CG1         9.6100    7.8340   19.1770 C.3       1 VAL        -0.0584
     66 CG2        10.2000    6.5950   17.0890 C.3       1 VAL        -0.0584
     67 N           6.4010    7.0070   19.9260 N.am      1 GLN        -0.2636
     68 CA          5.2470    7.6120   20.6010 C.3       1 GLN         0.1330
     69 C           5.6110    8.6690   21.6360 C.2       1 GLN         0.2035
     70 O           4.6690    9.2550   22.2030 O.2       1 GLN        -0.3944
     71 CB          4.4220    6.5310   21.3130 C.3       1 GLN         0.0045
     72 CG          3.8390    5.4390   20.4170 C.3       1 GLN         0.0412
     73 CD          2.6560    5.9390   19.6100 C.2       1 GLN         0.1737
     74 OE1         1.9160    6.7770   20.1280 O.2       1 GLN        -0.3973
     75 NE2         2.4660    5.4620   18.3860 N.am      1 GLN        -0.3009
     76 N           6.8820    8.9160   21.9000 N.am      1 LYS        -0.2695
     77 CA          7.4060    9.8930   22.8380 C.3       1 LYS         0.0944
     78 C           8.6760   10.5710   22.3230 C.2       1 LYS         0.0601
     79 O           9.2380   10.1170   21.3090 O.co2     1 LYS        -0.5666
     80 CB          7.7600    9.2940   24.2050 C.3       1 LYS        -0.0177
     81 CG          6.7140    8.3730   24.8030 C.3       1 LYS        -0.0446
     82 CD          6.9220    8.1540   26.3050 C.3       1 LYS        -0.0125
     83 CE          5.6550    7.5460   26.8920 C.3       1 LYS        -0.0354
     84 NZ          5.8940    6.7120   28.1010 N.4       1 LYS         0.2185
     85 OXT         9.1030   11.5600   22.9640 O.co2     1 LYS        -0.5666
     86 H1         -0.4812  -11.1294    7.4203 H         1 SER         0.2016
     87 H2         -0.7898  -10.6330    8.9591 H         1 SER         0.2016
     88 H3          0.1298  -11.9725    8.6951 H         1 SER         0.2016
     89 H4          1.8474  -10.7095    7.6799 H         1 SER         0.1122
     90 H5         -0.2016   -8.8707    7.2733 H         1 SER         0.0640
     91 H6          1.5498   -8.6041    6.9767 H         1 SER         0.0640
     92 H7          0.1502   -8.0134    9.3822 H         1 SER         0.2099
     93 H8          3.4518  -10.7927    9.0556 H         1 LEU         0.1884
     94 H9          2.9443  -10.4948   11.9345 H         1 LEU         0.0800
     95 H10         5.2684  -11.3846   12.1816 H         1 LEU         0.0315
     96 H11         5.3804  -11.4856   10.3917 H         1 LEU         0.0315
     97 H12         3.6973  -13.1690   10.2864 H         1 LEU         0.0298
     98 H13         4.6263  -14.9767   11.6869 H         1 LEU         0.0232
     99 H14         5.5165  -13.7578   12.6609 H         1 LEU         0.0232
    100 H15         5.9153  -13.9850   10.9242 H         1 LEU         0.0232
    101 H16         2.1677  -12.2063   11.9726 H         1 LEU         0.0232
    102 H17         3.2623  -12.7745   13.2785 H         1 LEU         0.0232
    103 H18         2.4304  -13.9656   12.2222 H         1 LEU         0.0232
    104 H19         4.3267   -8.6154    9.3446 H         1 THR         0.1884
    105 H20         5.8910   -6.9545   11.2020 H         1 THR         0.0826
    106 H21         5.2804   -6.8901    8.2169 H         1 THR         0.0639
    107 H22         7.0467   -8.1696    9.0767 H         1 THR         0.2101
    108 H23         6.6981   -4.8593    8.0250 H         1 THR         0.0257
    109 H24         6.8068   -4.7569    9.8150 H         1 THR         0.0257
    110 H25         5.2265   -4.5152    8.9959 H         1 THR         0.0257
    111 H26         5.1649   -5.2857   12.3190 H         1 ILE         0.1883
    112 H27         2.7095   -3.8869   11.3312 H         1 ILE         0.0803
    113 H28         3.5922   -4.4857   14.1541 H         1 ILE         0.0345
    114 H29         2.0189   -6.0403   12.8325 H         1 ILE         0.0267
    115 H30         0.8028   -4.7232   12.9469 H         1 ILE         0.0267
    116 H31         3.0461   -2.0674   14.0448 H         1 ILE         0.0235
    117 H32         1.8702   -3.0039   15.0281 H         1 ILE         0.0235
    118 H33         1.4354   -2.4808   13.3656 H         1 ILE         0.0235
    119 H34         0.4944   -6.3879   14.7334 H         1 ILE         0.0230
    120 H35         0.9619   -4.7899   15.4076 H         1 ILE         0.0230
    121 H36         2.1779   -6.1071   15.2933 H         1 ILE         0.0230
    122 H37         3.2252   -1.9268   10.5398 H         1 PTR         0.1886
    123 H38         5.7261   -0.6214   11.2280 H         1 PTR         0.0840
    124 H39         4.6388    1.2188    9.7119 H         1 PTR         0.0584
    125 H40         3.4598   -0.0778    9.3176 H         1 PTR         0.0584
    126 H41         4.0766   -1.9093    7.9714 H         1 PTR         0.0703
    127 H42         7.0951    0.8740    9.1845 H         1 PTR         0.0703
    128 H43         5.6730   -3.0690    6.4833 H         1 PTR         0.0736
    129 H44         8.7030   -0.2888    7.6981 H         1 PTR         0.0736
    130 H45         5.9575    0.3124   13.1355 H         1 ALA         0.1883
    131 H46         3.5647    1.7155   14.2938 H         1 ALA         0.0797
    132 H47         4.6601    1.3592   16.4694 H         1 ALA         0.0277
    133 H48         6.0385    0.5553   15.6445 H         1 ALA         0.0277
    134 H49         4.4044   -0.1889   15.5951 H         1 ALA         0.0277
    135 H50         4.5002    3.5483   15.8504 H         1 GLN         0.1883
    136 H51         6.5306    5.1939   14.4410 H         1 GLN         0.0801
    137 H52         5.0456    7.1564   14.8383 H         1 GLN         0.0337
    138 H53         3.7698    6.0475   15.4462 H         1 GLN         0.0337
    139 H54         3.6002    4.9792   13.2551 H         1 GLN         0.0504
    140 H55         4.9605    5.9737   12.6327 H         1 GLN         0.0504
    141 H56         2.7142    8.3701   11.4963 H         1 GLN         0.1814
    142 H57         4.0676    7.3289   11.2055 H         1 GLN         0.1814
    143 H58         7.7306    6.5160   15.8050 H         1 VAL         0.1883
    144 H59         8.0393    5.6536   18.5135 H         1 VAL         0.0802
    145 H60         8.8964    8.2873   17.2211 H         1 VAL         0.0343
    146 H61        10.5366    8.4152   19.0599 H         1 VAL         0.0234
    147 H62         9.8077    6.9508   19.8022 H         1 VAL         0.0234
    148 H63         8.8433    8.4593   19.6577 H         1 VAL         0.0234
    149 H64         9.8247    6.2808   16.1039 H         1 VAL         0.0234
    150 H65        10.4633    5.7064   17.6815 H         1 VAL         0.0234
    151 H66        11.0917    7.2255   16.9576 H         1 VAL         0.0234
    152 H67         6.9361    6.3090   20.4019 H         1 GLN         0.1883
    153 H68         4.6226    8.0881   19.8306 H         1 GLN         0.0801
    154 H69         3.5856    7.0284   21.8260 H         1 GLN         0.0337
    155 H70         5.0717    6.0459   22.0563 H         1 GLN         0.0337
    156 H71         3.5097    4.6001   21.0477 H         1 GLN         0.0504
    157 H72         4.6204    5.0926   19.7246 H         1 GLN         0.0504
    158 H73         1.6912    5.7805   17.8399 H         1 GLN         0.1814
    159 H74         3.0977    4.7841   18.0099 H         1 GLN         0.1814
    160 H75         7.5555    8.3715   21.4001 H         1 LYS         0.1875
    161 H76         6.6299   10.6591   22.9822 H         1 LYS         0.0726
    162 H77         7.9221   10.1246   24.9077 H         1 LYS         0.0305
    163 H78         8.6923    8.7210   24.0932 H         1 LYS         0.0305
    164 H79         6.7666    7.3998   24.2931 H         1 LYS         0.0269
    165 H80         5.7200    8.8167   24.6446 H         1 LYS         0.0269
    166 H81         7.1307    9.1171   26.7937 H         1 LYS         0.0317
    167 H82         7.7687    7.4704   26.4653 H         1 LYS         0.0317
    168 H83         5.1843    6.9156   26.1232 H         1 LYS         0.0813
    169 H84         4.9717    8.3639   27.1643 H         1 LYS         0.0813
    170 H85         5.0167    6.3438   28.4340 H         1 LYS         0.1994
    171 H86         6.3161    7.2772   28.8210 H         1 LYS         0.1994
    172 H87         6.5110    5.9500   27.8670 H         1 LYS         0.1994
@<TRIPOS>BOND
     1    1    2 1  
     2    2    3 1  
     3    2    5 1  
     4    3    4 2  
     5    3    7 am 
     6    5    6 1  
     7    7    8 1  
     8    8    9 1  
     9    8   11 1  
    10    9   10 2  
    11    9   15 am 
    12   11   12 1  
    13   12   13 1  
    14   12   14 1  
    15   15   16 1  
    16   16   17 1  
    17   16   19 1  
    18   17   18 2  
    19   17   22 am 
    20   19   20 1  
    21   19   21 1  
    22   22   23 1  
    23   23   24 1  
    24   23   26 1  
    25   24   25 2  
    26   24   30 am 
    27   26   27 1  
    28   26   28 1  
    29   27   29 1  
    30   30   31 1  
    31   31   32 1  
    32   31   34 1  
    33   32   33 2  
    34   32   46 am 
    35   34   35 1  
    36   35   36 ar 
    37   35   37 ar 
    38   36   38 ar 
    39   37   39 ar 
    40   38   40 ar 
    41   39   40 ar 
    42   40   41 1  
    43   41   42 1  
    44   42   43 ar 
    45   42   44 ar 
    46   42   45 ar 
    47   46   47 1  
    48   47   48 1  
    49   47   50 1  
    50   48   49 2  
    51   48   51 am 
    52   51   52 1  
    53   52   53 1  
    54   52   55 1  
    55   53   54 2  
    56   53   60 am 
    57   55   56 1  
    58   56   57 1  
    59   57   58 2  
    60   57   59 am 
    61   60   61 1  
    62   61   62 1  
    63   61   64 1  
    64   62   63 2  
    65   62   67 am 
    66   64   65 1  
    67   64   66 1  
    68   67   68 1  
    69   68   69 1  
    70   68   71 1  
    71   69   70 2  
    72   69   76 am 
    73   71   72 1  
    74   72   73 1  
    75   73   74 2  
    76   73   75 am 
    77   76   77 1  
    78   77   78 1  
    79   77   80 1  
    80   78   79 ar 
    81   78   85 ar 
    82   80   81 1  
    83   81   82 1  
    84   82   83 1  
    85   83   84 1  
    86    1   86 1  
    87    1   87 1  
    88    1   88 1  
    89    2   89 1  
    90    5   90 1  
    91    5   91 1  
    92    6   92 1  
    93    7   93 1  
    94    8   94 1  
    95   11   95 1  
    96   11   96 1  
    97   12   97 1  
    98   13   98 1  
    99   13   99 1  
   100   13  100 1  
   101   14  101 1  
   102   14  102 1  
   103   14  103 1  
   104   15  104 1  
   105   16  105 1  
   106   19  106 1  
   107   20  107 1  
   108   21  108 1  
   109   21  109 1  
   110   21  110 1  
   111   22  111 1  
   112   23  112 1  
   113   26  113 1  
   114   27  114 1  
   115   27  115 1  
   116   28  116 1  
   117   28  117 1  
   118   28  118 1  
   119   29  119 1  
   120   29  120 1  
   121   29  121 1  
   122   30  122 1  
   123   31  123 1  
   124   34  124 1  
   125   34  125 1  
   126   36  126 1  
   127   37  127 1  
   128   38  128 1  
   129   39  129 1  
   130   46  130 1  
   131   47  131 1  
   132   50  132 1  
   133   50  133 1  
   134   50  134 1  
   135   51  135 1  
   136   52  136 1  
   137   55  137 1  
   138   55  138 1  
   139   56  139 1  
   140   56  140 1  
   141   59  141 1  
   142   59  142 1  
   143   60  143 1  
   144   61  144 1  
   145   64  145 1  
   146   65  146 1  
   147   65  147 1  
   148   65  148 1  
   149   66  149 1  
   150   66  150 1  
   151   66  151 1  
   152   67  152 1  
   153   68  153 1  
   154   71  154 1  
   155   71  155 1  
   156   72  156 1  
   157   72  157 1  
   158   75  158 1  
   159   75  159 1  
   160   76  160 1  
   161   77  161 1  
   162   80  162 1  
   163   80  163 1  
   164   81  164 1  
   165   81  165 1  
   166   82  166 1  
   167   82  167 1  
   168   83  168 1  
   169   83  169 1  
   170   84  170 1  
   171   84  171 1  
   172   84  172 1  
@<TRIPOS>SUBSTRUCTURE
     1 SER         1

