1d4w_ligand
  -I-interpret- 

175175  0  0  0  0  0  0  0  0999 V2000
   -0.1040  -11.0540    8.3520 N   0  3  0  0  0
    1.1030  -10.2200    8.3250 C   0  0  0  0  0
    1.6930  -10.0910    9.7260 C   0  0  0  0  0
    0.9590   -9.6650   10.6300 O   0  0  0  0  0
    0.7940   -8.8410    7.7400 C   0  0  0  0  0
    0.8050   -7.8220    8.7210 O   0  0  0  0  0
    2.9650  -10.4570    9.8620 N   0  0  0  0  0
    3.6820  -10.3930   11.1250 C   0  0  0  0  0
    4.4040   -9.0640   11.3030 C   0  0  0  0  0
    4.7760   -8.7690   12.4440 O   0  0  0  0  0
    4.6980  -11.5340   11.2530 C   0  0  0  0  0
    4.0740  -12.9350   11.2930 C   0  0  0  0  0
    5.1040  -13.9860   11.6670 C   0  0  0  0  0
    2.9030  -12.9730   12.2580 C   0  0  0  0  0
    4.5860   -8.2820   10.2510 N   0  0  0  0  0
    5.1580   -6.9400   10.3820 C   0  0  0  0  0
    4.0960   -5.9050   10.7190 C   0  0  0  0  0
    3.0440   -5.8090   10.0590 O   0  0  0  0  0
    5.8930   -6.5710    9.0730 C   0  0  0  0  0
    7.1740   -7.2290    9.0390 O   0  0  0  0  0
    6.1760   -5.0700    8.9700 C   0  0  0  0  0
    4.3600   -5.1010   11.7550 N   0  0  0  0  0
    3.5030   -3.9540   12.0900 C   0  0  0  0  0
    4.3350   -2.6750   12.0190 C   0  0  0  0  0
    5.3370   -2.6000   12.7190 O   0  0  0  0  0
    2.8220   -4.1280   13.4550 C   0  0  0  0  0
    1.6860   -5.1740   13.4230 C   0  0  0  0  0
    2.2540   -2.8300   14.0120 C   0  0  0  0  0
    1.3040   -5.6470   14.8090 C   0  0  0  0  0
    3.9870   -1.7400   11.1600 N   0  0  0  0  0
    4.6520   -0.4490   11.0650 C   0  0  0  0  0
    4.1870    0.5470   12.1310 C   0  0  0  0  0
    3.1170    1.1510   12.0290 O   0  0  0  0  0
    4.4820    0.1310    9.6660 C   0  0  0  0  0
    5.4660   -0.4630    8.6770 C   0  0  0  0  0
    5.0990   -1.5540    7.9130 C   0  0  0  0  0
    6.7830    0.0140    8.6030 C   0  0  0  0  0
    5.9880   -2.2150    7.0720 C   0  0  0  0  0
    7.6810   -0.6440    7.7640 C   0  0  0  0  0
    7.2950   -1.7430    7.0120 C   0  0  0  0  0
    8.2580   -2.4170    6.1650 O   0  0  0  0  0
    8.5440   -1.8860    4.6560 P   0  0  0  0  0
    7.2720   -2.2290    3.9480 O   0  0  0  0  0
    9.6700   -2.7210    4.1670 O   0  0  0  0  0
    8.7830   -0.4500    4.6480 O   0  0  0  0  0
    5.0480    0.7270   13.1660 N   0  0  0  0  0
    4.6480    1.5280   14.3290 C   0  0  0  0  0
    5.3790    2.8580   14.2330 C   0  0  0  0  0
    6.1760    3.0100   13.3040 O   0  0  0  0  0
    4.9590    0.7610   15.5960 C   0  0  0  0  0
    5.1370    3.7860   15.1170 N   0  0  0  0  0
    5.6930    5.1280   15.1510 C   0  0  0  0  0
    6.2030    5.4160   16.5580 C   0  0  0  0  0
    5.6170    4.9120   17.5230 O   0  0  0  0  0
    4.6190    6.1460   14.7540 C   0  0  0  0  0
    4.1100    5.9510   13.3300 C   0  0  0  0  0
    3.1330    7.0620   12.9700 C   0  0  0  0  0
    2.2350    7.3580   13.7610 O   0  0  0  0  0
    3.3200    7.6330   11.7960 N   0  0  0  0  0
    7.2840    6.1920   16.6390 N   0  0  0  0  0
    7.8160    6.5690   17.9460 C   0  0  0  0  0
    6.7500    7.3680   18.6940 C   0  0  0  0  0
    6.2420    8.3360   18.1040 O   0  0  0  0  0
    9.1180    7.3890   17.8160 C   0  0  0  0  0
    9.6100    7.8340   19.1770 C   0  0  0  0  0
   10.2000    6.5950   17.0890 C   0  0  0  0  0
    6.4010    7.0070   19.9260 N   0  0  0  0  0
    5.2470    7.6120   20.6010 C   0  0  0  0  0
    5.6110    8.6690   21.6360 C   0  0  0  0  0
    4.6690    9.2550   22.2030 O   0  0  0  0  0
    4.4220    6.5310   21.3130 C   0  0  0  0  0
    3.8390    5.4390   20.4170 C   0  0  0  0  0
    2.6560    5.9390   19.6100 C   0  0  0  0  0
    1.9160    6.7770   20.1280 O   0  0  0  0  0
    2.4660    5.4620   18.3860 N   0  0  0  0  0
    6.8820    8.9160   21.9000 N   0  0  0  0  0
    7.4060    9.8930   22.8380 C   0  0  0  0  0
    8.6760   10.5710   22.3230 C   0  0  0  0  0
    9.2380   10.1170   21.3090 O   0  0  0  0  0
    7.7600    9.2940   24.2050 C   0  0  0  0  0
    6.7140    8.3730   24.8030 C   0  0  0  0  0
    6.9220    8.1540   26.3050 C   0  0  0  0  0
    5.6550    7.5460   26.8920 C   0  0  0  0  0
    5.8940    6.7120   28.1010 N   0  3  0  0  0
    9.1030   11.5600   22.9640 O   0  0  0  0  0
    0.1239  -11.9673    8.7449 H   0  0  0  0  0
   -0.8148  -10.6027    8.9277 H   0  0  0  0  0
   -0.4572  -11.1697    7.4021 H   0  0  0  0  0
    1.8406  -10.7031    7.6841 H   0  0  0  0  0
   -0.2040   -8.8768    7.3032 H   0  0  0  0  0
    1.5633   -8.6077    7.0039 H   0  0  0  0  0
    0.6066   -6.9788    8.3072 H   0  0  0  0  0
    3.4616  -10.7994    9.0394 H   0  0  0  0  0
    2.9291  -10.4918   11.9070 H   0  0  0  0  0
    5.2237  -11.3904   12.1970 H   0  0  0  0  0
    5.3380  -11.4934   10.3716 H   0  0  0  0  0
    3.7074  -13.1640   10.2924 H   0  0  0  0  0
    5.9073  -13.9840   10.9302 H   0  0  0  0  0
    5.5120  -13.7587   12.6519 H   0  0  0  0  0
    4.6295  -14.9671   11.6864 H   0  0  0  0  0
    3.2493  -12.7121   13.2580 H   0  0  0  0  0
    2.1455  -12.2582   11.9365 H   0  0  0  0  0
    2.4762  -13.9759   12.2701 H   0  0  0  0  0
    4.3215   -8.6221    9.3265 H   0  0  0  0  0
    5.8680   -6.9435   11.2091 H   0  0  0  0  0
    5.2440   -6.8799    8.2536 H   0  0  0  0  0
    7.6292   -6.9989    8.2257 H   0  0  0  0  0
    5.2345   -4.5214    8.9958 H   0  0  0  0  0
    6.8010   -4.7611    9.8079 H   0  0  0  0  0
    6.6933   -4.8625    8.0333 H   0  0  0  0  0
    5.1810   -5.2893   12.3303 H   0  0  0  0  0
    2.6938   -3.8877   11.3627 H   0  0  0  0  0
    3.6218   -4.4752   14.1091 H   0  0  0  0  0
    2.0353   -6.0363   12.8550 H   0  0  0  0  0
    0.8102   -4.7093   12.9702 H   0  0  0  0  0
    3.0593   -2.1058   14.1352 H   0  0  0  0  0
    1.5102   -2.4341   13.3205 H   0  0  0  0  0
    1.7872   -3.0240   14.9777 H   0  0  0  0  0
    2.1708   -6.1026   15.2878 H   0  0  0  0  0
    0.9653   -4.7969   15.4011 H   0  0  0  0  0
    0.5018   -6.3810   14.7328 H   0  0  0  0  0
    3.2099   -1.9306   10.5274 H   0  0  0  0  0
    5.7110   -0.6238   11.2551 H   0  0  0  0  0
    4.6612    1.2048    9.7197 H   0  0  0  0  0
    3.4738   -0.1010    9.3226 H   0  0  0  0  0
    4.0709   -1.9113    7.9717 H   0  0  0  0  0
    7.0968    0.8787    9.1877 H   0  0  0  0  0
    5.6712   -3.0737    6.4801 H   0  0  0  0  0
    8.7087   -0.2868    7.6978 H   0  0  0  0  0
    7.1415   -3.1798    3.9695 H   0  0  0  0  0
    9.4217   -3.6474    4.2089 H   0  0  0  0  0
    5.9757    0.3041   13.1349 H   0  0  0  0  0
    3.5765    1.7269   14.3495 H   0  0  0  0  0
    4.4089   -0.1800   15.5938 H   0  0  0  0  0
    6.0289    0.5578   15.6428 H   0  0  0  0  0
    4.6624    1.3547   16.4607 H   0  0  0  0  0
    4.4874    3.5435   15.8651 H   0  0  0  0  0
    6.5192    5.2054   14.4443 H   0  0  0  0  0
    5.0645    7.1390   14.8142 H   0  0  0  0  0
    3.7733    6.0167   15.4294 H   0  0  0  0  0
    3.6017    4.9894   13.2592 H   0  0  0  0  0
    4.9538    5.9779   12.6405 H   0  0  0  0  0
    2.6958    8.3777   11.4859 H   0  0  0  0  0
    4.0888    7.3299   11.1981 H   0  0  0  0  0
    7.7395    6.5224   15.7883 H   0  0  0  0  0
    8.0645    5.6650   18.5019 H   0  0  0  0  0
    8.8948    8.2757   17.2227 H   0  0  0  0  0
    8.8494    8.4535   19.6522 H   0  0  0  0  0
    9.8055    6.9580   19.7955 H   0  0  0  0  0
   10.5281    8.4097   19.0596 H   0  0  0  0  0
   10.4165    5.6836   17.6464 H   0  0  0  0  0
    9.8497    6.3367   16.0897 H   0  0  0  0  0
   11.1038    7.1996   17.0136 H   0  0  0  0  0
    6.9468    6.2950   20.4114 H   0  0  0  0  0
    4.6813    8.1022   19.8087 H   0  0  0  0  0
    3.5728    7.0418   21.7669 H   0  0  0  0  0
    5.1012    6.0314   22.0038 H   0  0  0  0  0
    3.4975    4.6222   21.0528 H   0  0  0  0  0
    4.6148    5.1176   19.7220 H   0  0  0  0  0
    1.6773    5.7889   17.8280 H   0  0  0  0  0
    3.1087    4.7685   18.0034 H   0  0  0  0  0
    7.5690    8.3607   21.3901 H   0  0  0  0  0
    6.5935   10.6118   22.9441 H   0  0  0  0  0
    7.8666   10.1322   24.8936 H   0  0  0  0  0
    8.6568    8.6921   24.0580 H   0  0  0  0  0
    6.7916    7.4058   24.3064 H   0  0  0  0  0
    5.7366    8.8341   24.6608 H   0  0  0  0  0
    7.1346    9.1061   26.7913 H   0  0  0  0  0
    7.7642    7.4813   26.4672 H   0  0  0  0  0
    5.2222    6.8977   26.1301 H   0  0  0  0  0
    5.0060    8.3700   27.1884 H   0  0  0  0  0
    5.0057    6.3400   28.4370 H   0  0  0  0  0
    6.5184    5.9414   27.8630 H   0  0  0  0  0
    6.3211    7.2849   28.8288 H   0  0  0  0  0
    8.5187   11.7361   23.7051 H   0  0  0  0  0
  1  2  1  0  0  0
  2  3  1  0  0  0
  2  5  1  0  0  0
  3  4  2  0  0  0
  3  7  1  0  0  0
  5  6  1  0  0  0
  7  8  1  0  0  0
  8  9  1  0  0  0
  8 11  1  0  0  0
  9 10  2  0  0  0
  9 15  1  0  0  0
 11 12  1  0  0  0
 12 13  1  0  0  0
 12 14  1  0  0  0
 15 16  1  0  0  0
 16 17  1  0  0  0
 16 19  1  0  0  0
 17 18  2  0  0  0
 17 22  1  0  0  0
 19 20  1  0  0  0
 19 21  1  0  0  0
 22 23  1  0  0  0
 23 24  1  0  0  0
 23 26  1  0  0  0
 24 25  2  0  0  0
 24 30  1  0  0  0
 26 27  1  0  0  0
 26 28  1  0  0  0
 27 29  1  0  0  0
 30 31  1  0  0  0
 31 32  1  0  0  0
 31 34  1  0  0  0
 32 33  2  0  0  0
 32 46  1  0  0  0
 34 35  1  0  0  0
 35 36  4  0  0  0
 35 37  4  0  0  0
 36 38  4  0  0  0
 37 39  4  0  0  0
 38 40  4  0  0  0
 39 40  4  0  0  0
 40 41  1  0  0  0
 41 42  1  0  0  0
 42 43  1  0  0  0
 42 44  1  0  0  0
 42 45  2  0  0  0
 46 47  1  0  0  0
 47 48  1  0  0  0
 47 50  1  0  0  0
 48 49  2  0  0  0
 48 51  1  0  0  0
 51 52  1  0  0  0
 52 53  1  0  0  0
 52 55  1  0  0  0
 53 54  2  0  0  0
 53 60  1  0  0  0
 55 56  1  0  0  0
 56 57  1  0  0  0
 57 58  2  0  0  0
 57 59  1  0  0  0
 60 61  1  0  0  0
 61 62  1  0  0  0
 61 64  1  0  0  0
 62 63  2  0  0  0
 62 67  1  0  0  0
 64 65  1  0  0  0
 64 66  1  0  0  0
 67 68  1  0  0  0
 68 69  1  0  0  0
 68 71  1  0  0  0
 69 70  2  0  0  0
 69 76  1  0  0  0
 71 72  1  0  0  0
 72 73  1  0  0  0
 73 74  2  0  0  0
 73 75  1  0  0  0
 76 77  1  0  0  0
 77 78  1  0  0  0
 77 80  1  0  0  0
 78 79  2  0  0  0
 78 85  1  0  0  0
 80 81  1  0  0  0
 81 82  1  0  0  0
 82 83  1  0  0  0
 83 84  1  0  0  0
  1 86  1  0  0  0
  1 87  1  0  0  0
  1 88  1  0  0  0
  2 89  1  0  0  0
  5 90  1  0  0  0
  5 91  1  0  0  0
  6 92  1  0  0  0
  7 93  1  0  0  0
  8 94  1  0  0  0
 11 95  1  0  0  0
 11 96  1  0  0  0
 12 97  1  0  0  0
 13 98  1  0  0  0
 13 99  1  0  0  0
 13100  1  0  0  0
 14101  1  0  0  0
 14102  1  0  0  0
 14103  1  0  0  0
 15104  1  0  0  0
 16105  1  0  0  0
 19106  1  0  0  0
 20107  1  0  0  0
 21108  1  0  0  0
 21109  1  0  0  0
 21110  1  0  0  0
 22111  1  0  0  0
 23112  1  0  0  0
 26113  1  0  0  0
 27114  1  0  0  0
 27115  1  0  0  0
 28116  1  0  0  0
 28117  1  0  0  0
 28118  1  0  0  0
 29119  1  0  0  0
 29120  1  0  0  0
 29121  1  0  0  0
 30122  1  0  0  0
 31123  1  0  0  0
 34124  1  0  0  0
 34125  1  0  0  0
 36126  1  0  0  0
 37127  1  0  0  0
 38128  1  0  0  0
 39129  1  0  0  0
 43130  1  0  0  0
 44131  1  0  0  0
 46132  1  0  0  0
 47133  1  0  0  0
 50134  1  0  0  0
 50135  1  0  0  0
 50136  1  0  0  0
 51137  1  0  0  0
 52138  1  0  0  0
 55139  1  0  0  0
 55140  1  0  0  0
 56141  1  0  0  0
 56142  1  0  0  0
 59143  1  0  0  0
 59144  1  0  0  0
 60145  1  0  0  0
 61146  1  0  0  0
 64147  1  0  0  0
 65148  1  0  0  0
 65149  1  0  0  0
 65150  1  0  0  0
 66151  1  0  0  0
 66152  1  0  0  0
 66153  1  0  0  0
 67154  1  0  0  0
 68155  1  0  0  0
 71156  1  0  0  0
 71157  1  0  0  0
 72158  1  0  0  0
 72159  1  0  0  0
 75160  1  0  0  0
 75161  1  0  0  0
 76162  1  0  0  0
 77163  1  0  0  0
 80164  1  0  0  0
 80165  1  0  0  0
 81166  1  0  0  0
 81167  1  0  0  0
 82168  1  0  0  0
 82169  1  0  0  0
 83170  1  0  0  0
 83171  1  0  0  0
 84172  1  0  0  0
 84173  1  0  0  0
 84174  1  0  0  0
 85175  1  0  0  0
M  END
$$$$
