1pb9_ligand
  -I-interpret- 

 14 14  0  0  0  0  0  0  0  0999 V2000
   23.4730   41.0430   39.0280 O   0  0  0  0  0
   21.9920   38.2960   40.5140 O   0  0  0  0  0
   21.3880   41.8590   40.7910 N   0  3  0  0  0
   23.0850   38.9310   39.7790 N   0  0  0  0  0
   21.4040   40.4890   40.2300 C   0  0  0  0  0
   21.3000   39.3640   41.2040 C   0  0  0  0  0
   22.7620   40.1770   39.6190 C   0  0  0  0  0
   20.4710   42.0489   41.1952 H   0  0  0  0  0
   22.1026   41.9372   41.5146 H   0  0  0  0  0
   21.5794   42.5315   40.0484 H   0  0  0  0  0
   23.9398   38.4795   39.4536 H   0  0  0  0  0
   20.5434   40.5249   39.5620 H   0  0  0  0  0
   21.7318   39.5972   42.1773 H   0  0  0  0  0
   20.2712   39.1129   41.4620 H   0  0  0  0  0
  7  1  2  0  0  0
  4  2  1  0  0  0
  2  6  1  0  0  0
  7  4  1  0  0  0
  7  5  1  0  0  0
  6  5  1  0  0  0
  5  3  1  0  0  0
  3  8  1  0  0  0
  3  9  1  0  0  0
  3 10  1  0  0  0
  4 11  1  0  0  0
  5 12  1  0  0  0
  6 13  1  0  0  0
  6 14  1  0  0  0
M  END
$$$$
