1rgl_ligand
  -I-interpret- 

 38 40  0  0  0  0  0  0  0  0999 V2000
   19.9730   13.7230    1.2210 P   0  0  0  0  0
   21.0390   14.4190    2.0320 O   0  0  0  0  0
   19.7390   12.3150    1.6690 O   0  0  0  0  0
   18.7110   14.5160    1.0680 O   0  0  0  0  0
   25.9810   11.8310   -1.7380 O   0  0  0  0  0
   24.9080   12.2890   -0.8550 C   0  0  0  0  0
   23.8590   13.1470   -1.5770 C   0  0  0  0  0
   22.9950   12.2990   -2.3790 O   0  0  0  0  0
   22.9060   13.9170   -0.6690 C   0  0  0  0  0
   22.5150   15.1310   -1.3260 O   0  0  0  0  0
   21.7510   12.9170   -0.4870 C   0  0  0  0  0
   20.5270   13.5590   -0.2440 O   0  0  0  0  0
   21.6750   12.3280   -1.8910 C   0  0  0  0  0
   21.1660   10.9690   -1.9760 N   0  0  0  0  0
   20.2250   10.4820   -2.8690 C   0  0  0  0  0
   20.0050    9.1960   -2.7140 N   0  0  0  0  0
   20.8660    8.8110   -1.6670 C   0  0  0  0  0
   21.0770    7.5400   -1.0480 C   0  0  0  0  0
   20.5250    6.4590   -1.2980 O   0  0  0  0  0
   22.0420    7.5970   -0.0320 N   0  0  0  0  0
   22.7150    8.7360    0.3410 C   0  0  0  0  0
   23.6110    8.6010    1.3260 N   0  0  0  0  0
   22.5300    9.9260   -0.2180 N   0  0  0  0  0
   21.5890    9.8940   -1.2050 C   0  0  0  0  0
   21.1520   15.3155    1.7077 H   0  0  0  0  0
   18.9266   15.4060    0.7800 H   0  0  0  0  0
   26.6042   11.3020   -1.2347 H   0  0  0  0  0
   25.3595   12.9035   -0.0761 H   0  0  0  0  0
   24.4018   11.4066   -0.4635 H   0  0  0  0  0
   24.4566   13.8571   -2.1486 H   0  0  0  0  0
   23.3147   14.2338    0.2905 H   0  0  0  0  0
   21.9145   15.6210   -0.7595 H   0  0  0  0  0
   21.9148   12.2275    0.3412 H   0  0  0  0  0
   20.9789   12.9495   -2.4543 H   0  0  0  0  0
   19.7235   11.0969   -3.6163 H   0  0  0  0  0
   22.2596    6.7331    0.4647 H   0  0  0  0  0
   24.1465    9.4093    1.6426 H   0  0  0  0  0
   23.7584    7.6898    1.7600 H   0  0  0  0  0
  1  2  1  0  0  0
  1  3  2  0  0  0
  1  4  1  0  0  0
 12  1  1  0  0  0
  6  5  1  0  0  0
  7  6  1  0  0  0
  7  8  1  0  0  0
  9  7  1  0  0  0
  8 13  1  0  0  0
  9 10  1  0  0  0
 11  9  1  0  0  0
 11 12  1  0  0  0
 11 13  1  0  0  0
 13 14  1  0  0  0
 14 15  4  0  0  0
 14 24  4  0  0  0
 15 16  4  0  0  0
 16 17  4  0  0  0
 17 18  1  0  0  0
 17 24  4  0  0  0
 18 19  2  0  0  0
 18 20  1  0  0  0
 20 21  1  0  0  0
 21 22  1  0  0  0
 21 23  2  0  0  0
 23 24  1  0  0  0
  2 25  1  0  0  0
  4 26  1  0  0  0
  5 27  1  0  0  0
  6 28  1  0  0  0
  6 29  1  0  0  0
  7 30  1  0  0  0
  9 31  1  0  0  0
 10 32  1  0  0  0
 11 33  1  0  0  0
 13 34  1  0  0  0
 15 35  1  0  0  0
 20 36  1  0  0  0
 22 37  1  0  0  0
 22 38  1  0  0  0
M  END
$$$$
