### 
### Created by X-TOOL on Mon Sep 10 21:12:44 2018
### 

@<TRIPOS>MOLECULE
1rgl_ligand
   36    38     1     0     0
SMALL
GAST_HUCK


@<TRIPOS>ATOM
      1 P          19.9730   13.7230    1.2210 P.3       1 2GP         0.2015
      2 O1P        21.0390   14.4190    2.0320 O.co2     1 2GP        -0.5537
      3 O2P        19.7390   12.3150    1.6690 O.co2     1 2GP        -0.5537
      4 O3P        18.7110   14.5160    1.0680 O.co2     1 2GP        -0.5537
      5 O5         25.9810   11.8310   -1.7380 O.3       1 2GP        -0.3924
      6 C5         24.9080   12.2890   -0.8550 C.3       1 2GP         0.0730
      7 C4         23.8590   13.1470   -1.5770 C.3       1 2GP         0.1139
      8 O4         22.9950   12.2990   -2.3790 O.3       1 2GP        -0.3364
      9 C3         22.9060   13.9170   -0.6690 C.3       1 2GP         0.1193
     10 O3         22.5150   15.1310   -1.3260 O.3       1 2GP        -0.3860
     11 C2         21.7510   12.9170   -0.4870 C.3       1 2GP         0.1723
     12 O2         20.5270   13.5590   -0.2440 O.3       1 2GP        -0.2646
     13 C1         21.6750   12.3280   -1.8910 C.3       1 2GP         0.2039
     14 N9         21.1660   10.9690   -1.9760 N.pl3     1 2GP        -0.2098
     15 C8         20.2250   10.4820   -2.8690 C.2       1 2GP         0.0957
     16 N7         20.0050    9.1960   -2.7140 N.2       1 2GP        -0.3235
     17 C5         20.8660    8.8110   -1.6670 C.2       1 2GP         0.0926
     18 C6         21.0770    7.5400   -1.0480 C.2       1 2GP         0.2135
     19 O6         20.5250    6.4590   -1.2980 O.2       1 2GP        -0.4091
     20 N1         22.0420    7.5970   -0.0320 N.am      1 2GP        -0.1839
     21 C2         22.7150    8.7360    0.3410 C.2       1 2GP         0.2340
     22 N2         23.6110    8.6010    1.3260 N.pl3     1 2GP        -0.2807
     23 N3         22.5300    9.9260   -0.2180 N.2       1 2GP        -0.2765
     24 C4         21.5890    9.8940   -1.2050 C.2       1 2GP         0.1159
     25 H1         26.5977   11.3075   -1.2399 H         1 2GP         0.2095
     26 H2         25.3520   12.8867   -0.0453 H         1 2GP         0.0584
     27 H3         24.4061   11.4083   -0.4279 H         1 2GP         0.0584
     28 H4         24.3918   13.8609   -2.2223 H         1 2GP         0.0647
     29 H5         23.3702   14.1571    0.2989 H         1 2GP         0.0651
     30 H6         21.9208   15.6159   -0.7654 H         1 2GP         0.2100
     31 H7         21.9650   12.1686    0.2902 H         1 2GP         0.0733
     32 H8         21.0459   12.9797   -2.5151 H         1 2GP         0.1002
     33 H9         19.7240   11.0963   -3.6156 H         1 2GP         0.1179
     34 H10        22.2553    6.7501    0.4550 H         1 2GP         0.2515
     35 H11        24.1473    9.4185    1.6499 H         1 2GP         0.1897
     36 H12        23.7642    7.6796    1.7601 H         1 2GP         0.1897
@<TRIPOS>BOND
     1    1    2 ar 
     2    1    3 ar 
     3    1    4 ar 
     4   12    1 1  
     5    6    5 1  
     6    7    6 1  
     7    7    8 1  
     8    9    7 1  
     9    8   13 1  
    10    9   10 1  
    11   11    9 1  
    12   11   12 1  
    13   11   13 1  
    14   13   14 1  
    15   14   15 1  
    16   14   24 1  
    17   15   16 2  
    18   16   17 1  
    19   17   18 1  
    20   17   24 2  
    21   18   19 2  
    22   18   20 am 
    23   20   21 am 
    24   21   22 1  
    25   21   23 2  
    26   23   24 1  
    27    5   25 1  
    28    6   26 1  
    29    6   27 1  
    30    7   28 1  
    31    9   29 1  
    32   10   30 1  
    33   11   31 1  
    34   13   32 1  
    35   15   33 1  
    36   20   34 1  
    37   22   35 1  
    38   22   36 1  
@<TRIPOS>SUBSTRUCTURE
     1 2GP         1

