4kn1_ligand
  -I-interpret- 

 52 54  0  0  0  0  0  0  0  0999 V2000
   19.8560  -36.7780    4.3790 C   0  0  0  0  0
   20.5710  -35.7250    4.0080 N   0  0  0  0  0
   20.4610  -37.8390    5.0780 O   0  0  0  0  0
   14.0760  -35.7080   -3.0120 N   0  0  0  0  0
   23.5810  -33.9760    4.8250 O   0  0  0  0  0
   13.0130  -35.2780   -3.7760 C   0  0  0  0  0
   21.6030  -33.7570    5.6390 O   0  0  0  0  0
   11.7990  -34.9990   -3.1840 N   0  0  0  0  0
   11.6300  -35.1490   -1.8210 C   0  0  0  0  0
   12.5430  -35.7180    0.3200 N   0  0  0  0  0
   13.6070  -36.1460    1.0920 C   0  0  0  0  0
   14.8250  -36.4300    0.4860 C   0  0  0  0  0
   14.9780  -36.2800   -0.8790 N   0  0  0  0  0
   13.4360  -36.3020    2.5870 C   0  0  0  0  0
   21.9940  -35.6970    4.2890 C   0  0  0  0  0
   22.7840  -35.9300    3.0010 C   0  0  0  0  0
   23.2950  -38.3760    2.8690 C   0  0  0  0  0
   23.8480  -37.0080    3.1930 C   0  0  0  0  0
   22.4160  -34.4120    4.9510 C   0  0  0  0  0
   14.3090  -37.3320    3.1210 N   0  0  0  0  0
   18.3940  -36.8660    4.0450 C   0  0  0  0  0
   17.8150  -38.1270    3.9670 C   0  0  0  0  0
   16.4660  -38.2600    3.6630 C   0  0  0  0  0
   15.6840  -37.1350    3.4270 C   0  0  0  0  0
   16.2580  -35.8670    3.5100 C   0  0  0  0  0
   17.6140  -35.7300    3.8170 C   0  0  0  0  0
   12.6980  -35.5750   -1.0450 C   0  0  0  0  0
   13.9180  -35.8550   -1.6490 C   0  0  0  0  0
   13.1530  -35.1350   -5.0890 N   0  0  0  0  0
   10.4560  -34.8800   -1.2520 N   0  0  0  0  0
   22.9820  -38.6680    1.6950 O   0  0  0  0  0
   23.1410  -39.2300    3.7690 O   0  0  0  0  0
   20.1250  -34.9422    3.5297 H   0  0  0  0  0
   20.7557  -34.2082    5.6468 H   0  0  0  0  0
   15.6643  -36.7730    1.0909 H   0  0  0  0  0
   12.4035  -36.5883    2.7872 H   0  0  0  0  0
   13.6899  -35.3549    3.0631 H   0  0  0  0  0
   22.2109  -36.5008    4.9925 H   0  0  0  0  0
   23.2782  -34.9991    2.7228 H   0  0  0  0  0
   22.0934  -36.2574    2.2238 H   0  0  0  0  0
   24.1722  -36.9987    4.2336 H   0  0  0  0  0
   24.6824  -36.7998    2.5232 H   0  0  0  0  0
   13.9107  -38.2562    3.2874 H   0  0  0  0  0
   18.4216  -39.0150    4.1450 H   0  0  0  0  0
   16.0180  -39.2522    3.6092 H   0  0  0  0  0
   15.6476  -34.9810    3.3350 H   0  0  0  0  0
   18.0624  -34.7384    3.8785 H   0  0  0  0  0
   14.0477  -35.3435   -5.5322 H   0  0  0  0  0
   12.3658  -34.8167   -5.6542 H   0  0  0  0  0
    9.6736  -34.5607   -1.8233 H   0  0  0  0  0
   10.3394  -34.9933   -0.2450 H   0  0  0  0  0
   23.4232  -38.8619    4.6095 H   0  0  0  0  0
  1  2  1  0  0  0
  1  3  2  0  0  0
 21  1  1  0  0  0
  2 15  1  0  0  0
  4  6  4  0  0  0
 28  4  4  0  0  0
 19  5  2  0  0  0
  8  6  4  0  0  0
  6 29  1  0  0  0
 19  7  1  0  0  0
  9  8  4  0  0  0
 27  9  4  0  0  0
  9 30  1  0  0  0
 11 10  4  0  0  0
 10 27  4  0  0  0
 11 12  4  0  0  0
 14 11  1  0  0  0
 12 13  4  0  0  0
 13 28  4  0  0  0
 20 14  1  0  0  0
 15 16  1  0  0  0
 15 19  1  0  0  0
 16 18  1  0  0  0
 18 17  1  0  0  0
 17 31  2  0  0  0
 17 32  1  0  0  0
 24 20  1  0  0  0
 22 21  4  0  0  0
 21 26  4  0  0  0
 23 22  4  0  0  0
 23 24  4  0  0  0
 24 25  4  0  0  0
 25 26  4  0  0  0
 27 28  4  0  0  0
  2 33  1  0  0  0
  7 34  1  0  0  0
 12 35  1  0  0  0
 14 36  1  0  0  0
 14 37  1  0  0  0
 15 38  1  0  0  0
 16 39  1  0  0  0
 16 40  1  0  0  0
 18 41  1  0  0  0
 18 42  1  0  0  0
 20 43  1  0  0  0
 22 44  1  0  0  0
 23 45  1  0  0  0
 25 46  1  0  0  0
 26 47  1  0  0  0
 29 48  1  0  0  0
 29 49  1  0  0  0
 30 50  1  0  0  0
 30 51  1  0  0  0
 32 52  1  0  0  0
M  END
$$$$
