5yp5_ligand
  -I-interpret- 

 68 71  0  0  0  0  0  0  0  0999 V2000
  -27.3930   -3.2670  -26.5690 N   0  0  0  0  0
  -25.0790    1.7090  -26.4950 C   0  0  0  0  0
  -25.6230    0.7680  -27.3780 C   0  0  0  0  0
  -26.5040   -0.2100  -26.8990 C   0  0  0  0  0
  -27.0520   -1.1760  -27.7550 C   0  0  0  0  0
  -26.5210   -2.5500  -27.2980 C   0  0  0  0  0
  -27.2140   -6.2790  -24.7360 C   0  0  0  0  0
  -24.6880   -7.8140  -23.8530 C   0  0  0  0  0
  -24.0880   -6.9400  -21.6480 C   0  0  0  0  0
  -23.8030   -9.2910  -22.1450 C   0  0  0  0  0
  -24.4630  -11.5680  -23.5900 C   0  0  0  0  0
  -23.7320  -12.6330  -24.4160 C   0  0  0  0  0
  -25.9290  -11.9660  -23.4150 C   0  0  0  0  0
  -27.8260   -8.4520  -23.9080 C   0  0  0  0  0
  -29.0720   -8.6160  -21.8370 C   0  0  0  0  0
  -28.4320   -6.4590  -22.7200 C   0  0  0  0  0
  -24.3780  -10.2140  -24.3140 C   0  0  0  0  0
  -24.2970   -9.1090  -23.4430 C   0  0  0  0  0
  -23.7050   -8.2200  -21.2550 C   0  0  0  0  0
  -24.5710   -6.7540  -22.9420 C   0  0  0  0  0
  -25.1720   -7.5390  -25.1470 C   0  0  0  0  0
  -24.7540   -8.1360  -26.1370 O   0  0  0  0  0
  -26.0090   -6.5070  -25.3070 C   0  0  0  0  0
  -25.6720   -5.2670  -26.3350 S   0  0  0  0  0
  -27.8130   -7.0590  -23.8180 C   0  0  0  0  0
  -29.0630   -7.2260  -21.7360 C   0  0  0  0  0
  -28.4490   -9.2250  -22.9270 C   0  0  0  0  0
  -27.7710   -5.1120  -25.1450 N   0  0  0  0  0
  -27.0380   -4.4420  -26.0460 C   0  0  0  0  0
  -25.3770   -2.9070  -27.5830 O   0  0  0  0  0
  -26.8260   -0.2450  -25.5400 C   0  0  0  0  0
  -26.2820    0.6920  -24.6650 C   0  0  0  0  0
  -25.4140    1.6770  -25.1330 C   0  0  0  0  0
  -24.7220    2.8740  -23.9420 S   0  0  0  0  0
  -24.5910    4.2660  -24.5840 O   0  0  0  0  0
  -25.6090    2.9290  -22.6990 O   0  0  0  0  0
  -23.0600    2.2880  -23.4450 C   0  0  0  0  0
  -23.1610    0.8250  -23.0090 C   0  0  0  0  0
  -28.3356   -2.9094  -26.4140 H   0  0  0  0  0
  -24.3925    2.4694  -26.8674 H   0  0  0  0  0
  -25.3614    0.7965  -28.4358 H   0  0  0  0  0
  -26.7644   -0.9791  -28.7878 H   0  0  0  0  0
  -28.1408   -1.1528  -27.7106 H   0  0  0  0  0
  -24.0115   -6.1003  -20.9572 H   0  0  0  0  0
  -23.4901  -10.2848  -21.8247 H   0  0  0  0  0
  -23.9953  -11.4865  -22.6088 H   0  0  0  0  0
  -23.7872  -13.5919  -23.9006 H   0  0  0  0  0
  -24.2029  -12.7179  -25.3954 H   0  0  0  0  0
  -22.6881  -12.3437  -24.5372 H   0  0  0  0  0
  -26.4005  -12.0507  -24.3941 H   0  0  0  0  0
  -25.9848  -12.9247  -22.8993 H   0  0  0  0  0
  -26.4430  -11.2054  -22.8273 H   0  0  0  0  0
  -27.3440   -8.9417  -24.7542 H   0  0  0  0  0
  -29.5604   -9.2208  -21.0729 H   0  0  0  0  0
  -28.4232   -5.3729  -22.6282 H   0  0  0  0  0
  -25.2899  -10.1004  -24.9002 H   0  0  0  0  0
  -23.4685  -10.2225  -24.9147 H   0  0  0  0  0
  -23.3265   -8.3865  -20.2465 H   0  0  0  0  0
  -24.8672   -5.7531  -23.2560 H   0  0  0  0  0
  -29.5474   -6.7373  -20.8907 H   0  0  0  0  0
  -28.4489  -10.3116  -23.0129 H   0  0  0  0  0
  -27.5059   -1.0089  -25.1629 H   0  0  0  0  0
  -26.5370    0.6548  -23.6059 H   0  0  0  0  0
  -22.6871    2.8939  -22.6192 H   0  0  0  0  0
  -22.3716    2.3756  -24.2855 H   0  0  0  0  0
  -23.8480    0.7449  -22.1666 H   0  0  0  0  0
  -23.5312    0.2243  -23.8398 H   0  0  0  0  0
  -22.1755    0.4671  -22.7111 H   0  0  0  0  0
  1  6  1  0  0  0
 29  1  1  0  0  0
  3  2  4  0  0  0
  2 33  4  0  0  0
  4  3  4  0  0  0
  5  4  1  0  0  0
  4 31  4  0  0  0
  6  5  1  0  0  0
  6 30  2  0  0  0
 23  7  4  0  0  0
  7 25  1  0  0  0
  7 28  4  0  0  0
  8 18  4  0  0  0
  8 20  4  0  0  0
 21  8  1  0  0  0
  9 19  4  0  0  0
 20  9  4  0  0  0
 18 10  4  0  0  0
 10 19  4  0  0  0
 11 12  1  0  0  0
 11 13  1  0  0  0
 17 11  1  0  0  0
 25 14  4  0  0  0
 14 27  4  0  0  0
 26 15  4  0  0  0
 27 15  4  0  0  0
 25 16  4  0  0  0
 16 26  4  0  0  0
 18 17  1  0  0  0
 21 22  2  0  0  0
 23 21  1  0  0  0
 24 23  4  0  0  0
 24 29  4  0  0  0
 28 29  4  0  0  0
 31 32  4  0  0  0
 32 33  4  0  0  0
 33 34  1  0  0  0
 34 35  2  0  0  0
 34 36  2  0  0  0
 34 37  1  0  0  0
 37 38  1  0  0  0
  1 39  1  0  0  0
  2 40  1  0  0  0
  3 41  1  0  0  0
  5 42  1  0  0  0
  5 43  1  0  0  0
  9 44  1  0  0  0
 10 45  1  0  0  0
 11 46  1  0  0  0
 12 47  1  0  0  0
 12 48  1  0  0  0
 12 49  1  0  0  0
 13 50  1  0  0  0
 13 51  1  0  0  0
 13 52  1  0  0  0
 14 53  1  0  0  0
 15 54  1  0  0  0
 16 55  1  0  0  0
 17 56  1  0  0  0
 17 57  1  0  0  0
 19 58  1  0  0  0
 20 59  1  0  0  0
 26 60  1  0  0  0
 27 61  1  0  0  0
 31 62  1  0  0  0
 32 63  1  0  0  0
 37 64  1  0  0  0
 37 65  1  0  0  0
 38 66  1  0  0  0
 38 67  1  0  0  0
 38 68  1  0  0  0
M  END
$$$$
