1db1_ligand
  -I-interpret- 

 74 76  0  0  0  0  0  0  0  0999 V2000
   17.0290   18.0710   34.8190 O   0  0  0  0  0
    4.4890   26.9460   35.0540 O   0  0  0  0  0
   14.1390   17.9530   35.7550 C   0  0  0  0  0
   14.8790   16.8930   34.8950 C   0  0  0  0  0
   15.9920   17.5340   33.9620 C   0  0  0  0  0
   15.3680   18.6720   33.0490 C   0  0  0  0  0
   14.6220   19.7240   33.8640 C   0  0  0  0  0
   14.7970   21.1200   33.7920 C   0  0  0  0  0
   14.1740   22.2860   34.5140 C   0  0  0  0  0
   13.9660   23.4880   34.0420 C   0  0  0  0  0
   14.3540   23.9270   32.5440 C   0  0  0  0  0
   13.6020   19.0750   34.8280 C   0  0  0  0  0
   13.0880   24.4900   31.6710 C   0  0  0  0  0
   12.1470   25.4430   32.5640 C   0  0  0  0  0
   11.7530   24.8970   34.0700 C   0  0  0  0  0
   13.1480   24.5380   34.7770 C   0  0  0  0  0
   12.6610   24.2660   36.3500 C   0  0  0  0  0
   11.4290   25.2310   36.4970 C   0  0  0  0  0
   11.2760   25.9340   35.1060 C   0  0  0  0  0
   10.7690   23.5700   33.7790 C   0  0  0  0  0
   12.2910   19.4550   34.8520 C   0  0  0  0  0
    9.8490   26.5460   34.7260 C   0  0  0  0  0
    9.8040   27.9560   35.4820 C   0  0  0  0  0
    8.5750   25.8240   35.2680 C   0  0  0  0  0
    7.3310   26.0600   34.4050 C   0  0  0  0  0
    6.1520   25.2660   34.6720 C   0  0  0  0  0
    4.7750   25.7760   34.3360 C   0  0  0  0  0
    4.7010   26.0100   32.8420 C   0  0  0  0  0
    3.6680   24.7300   34.7230 C   0  0  0  0  0
   13.1190   17.3590   36.6200 O   0  0  0  0  0
   17.3913   17.3664   35.3611 H   0  0  0  0  0
    3.6087   27.2533   34.8253 H   0  0  0  0  0
   14.8435   18.4073   36.4517 H   0  0  0  0  0
   14.1430   16.4072   34.2544 H   0  0  0  0  0
   15.3703   16.1946   35.5725 H   0  0  0  0  0
   16.4095   16.7792   33.2956 H   0  0  0  0  0
   14.6571   18.2062   32.3665 H   0  0  0  0  0
   16.1832   19.1679   32.5221 H   0  0  0  0  0
   15.5429   21.4208   33.0563 H   0  0  0  0  0
   13.8621   22.1085   35.5432 H   0  0  0  0  0
   14.7324   23.0414   32.0336 H   0  0  0  0  0
   15.0812   24.7354   32.6204 H   0  0  0  0  0
   12.4976   23.6414   31.3254 H   0  0  0  0  0
   13.4730   25.0680   30.8309 H   0  0  0  0  0
   11.2060   25.5291   32.0207 H   0  0  0  0  0
   12.7112   26.3630   32.7169 H   0  0  0  0  0
   13.9145   25.3126   34.7543 H   0  0  0  0  0
   13.4463   24.4622   37.0800 H   0  0  0  0  0
   12.4119   23.2230   36.5454 H   0  0  0  0  0
   11.5845   25.9568   37.2952 H   0  0  0  0  0
   10.5256   24.6851   36.7689 H   0  0  0  0  0
   11.8745   26.8446   35.1326 H   0  0  0  0  0
    9.8918   23.8865   33.2147 H   0  0  0  0  0
   11.3232   22.8272   33.2052 H   0  0  0  0  0
   10.4549   23.1370   34.7287 H   0  0  0  0  0
   11.9376   20.2363   34.1791 H   0  0  0  0  0
   11.5976   18.9771   35.5441 H   0  0  0  0  0
    9.7989   26.5092   33.6378 H   0  0  0  0  0
    9.9052   27.7948   36.5553 H   0  0  0  0  0
   10.6229   28.5826   35.1286 H   0  0  0  0  0
    8.8534   28.4475   35.2752 H   0  0  0  0  0
    8.3676   26.2231   36.2609 H   0  0  0  0  0
    8.7780   24.7531   35.2673 H   0  0  0  0  0
    7.6310   25.7964   33.3908 H   0  0  0  0  0
    7.0347   27.0899   34.6041 H   0  0  0  0  0
    6.1394   25.1715   35.7578 H   0  0  0  0  0
    6.2725   24.3930   34.0305 H   0  0  0  0  0
    5.4517   26.7456   32.5531 H   0  0  0  0  0
    4.8891   25.0724   32.3189 H   0  0  0  0  0
    3.7091   26.3799   32.5821 H   0  0  0  0  0
    3.8382   23.8032   34.1751 H   0  0  0  0  0
    3.7138   24.5339   35.7942 H   0  0  0  0  0
    2.6868   25.1298   34.4671 H   0  0  0  0  0
   13.5196   16.6762   37.1630 H   0  0  0  0  0
  5  1  1  0  0  0
  4  3  1  0  0  0
  5  4  1  0  0  0
  5  6  1  0  0  0
  6  7  1  0  0  0
  7  8  2  0  0  0
  7 12  1  0  0  0
  8  9  1  0  0  0
  9 10  2  0  0  0
 10 11  1  0  0  0
 10 16  1  0  0  0
 11 13  1  0  0  0
 12  3  1  0  0  0
 12 21  2  0  0  0
 13 14  1  0  0  0
 14 15  1  0  0  0
 15 16  1  0  0  0
 15 19  1  0  0  0
 15 20  1  0  0  0
 16 17  1  0  0  0
 17 18  1  0  0  0
 18 19  1  0  0  0
 19 22  1  0  0  0
 22 23  1  0  0  0
 22 24  1  0  0  0
 24 25  1  0  0  0
 25 26  1  0  0  0
 26 27  1  0  0  0
 27 28  1  0  0  0
 27 29  1  0  0  0
  3 30  1  0  0  0
 27  2  1  0  0  0
  1 31  1  0  0  0
  2 32  1  0  0  0
  3 33  1  0  0  0
  4 34  1  0  0  0
  4 35  1  0  0  0
  5 36  1  0  0  0
  6 37  1  0  0  0
  6 38  1  0  0  0
  8 39  1  0  0  0
  9 40  1  0  0  0
 11 41  1  0  0  0
 11 42  1  0  0  0
 13 43  1  0  0  0
 13 44  1  0  0  0
 14 45  1  0  0  0
 14 46  1  0  0  0
 16 47  1  0  0  0
 17 48  1  0  0  0
 17 49  1  0  0  0
 18 50  1  0  0  0
 18 51  1  0  0  0
 19 52  1  0  0  0
 20 53  1  0  0  0
 20 54  1  0  0  0
 20 55  1  0  0  0
 21 56  1  0  0  0
 21 57  1  0  0  0
 22 58  1  0  0  0
 23 59  1  0  0  0
 23 60  1  0  0  0
 23 61  1  0  0  0
 24 62  1  0  0  0
 24 63  1  0  0  0
 25 64  1  0  0  0
 25 65  1  0  0  0
 26 66  1  0  0  0
 26 67  1  0  0  0
 28 68  1  0  0  0
 28 69  1  0  0  0
 28 70  1  0  0  0
 29 71  1  0  0  0
 29 72  1  0  0  0
 29 73  1  0  0  0
 30 74  1  0  0  0
M  END
$$$$
