6mlf_ligand
  -I-interpret- 

 28 28  0  0  0  0  0  0  0  0999 V2000
   27.1870   53.2420   16.4190 C   0  0  0  0  0
   28.2840   52.3830   16.8830 C   0  0  0  0  0
   28.4100   51.2020   15.9240 C   0  0  0  0  0
   29.5270   50.3200   16.3570 C   0  0  0  0  0
   25.9770   51.2870   15.5140 C   0  0  0  0  0
   25.9130   52.4720   16.4920 C   0  0  0  0  0
   29.1760   49.6240   17.4740 F   0  0  0  0  0
   27.1140   50.4330   15.8290 O   0  0  0  0  0
   26.1590   51.7880   14.2150 O   0  0  0  0  0
   23.8870   52.9730   13.7550 O   0  0  0  0  0
   24.8170   53.3110   16.1630 O   0  0  0  0  0
   25.4540   52.5250   11.8220 O   0  0  0  0  0
   27.1050   54.4680   17.2190 O   0  0  0  0  0
   24.2330   50.6680   12.8910 O   0  0  0  0  0
   29.5510   53.1280   16.9690 O   0  0  0  0  0
   24.9150   51.9930   13.1490 P   0  0  0  0  0
   27.3724   53.5426   15.3878 H   0  0  0  0  0
   28.0616   52.0231   17.8876 H   0  0  0  0  0
   28.6311   51.5843   14.9275 H   0  0  0  0  0
   30.3988   50.9348   16.5808 H   0  0  0  0  0
   29.7545   49.6160   15.5566 H   0  0  0  0  0
   25.0541   50.7122   15.5914 H   0  0  0  0  0
   25.7757   52.0986   17.5068 H   0  0  0  0  0
   24.3117   53.8176   13.9222 H   0  0  0  0  0
   24.7838   54.0478   16.7775 H   0  0  0  0  0
   25.8905   53.3672   11.9698 H   0  0  0  0  0
   27.9353   54.9457   17.1564 H   0  0  0  0  0
   29.4475   53.8642   17.5764 H   0  0  0  0  0
  1  2  1  0  0  0
  1  6  1  0  0  0
  1 13  1  0  0  0
  2  3  1  0  0  0
  2 15  1  0  0  0
  3  4  1  0  0  0
  3  8  1  0  0  0
  4  7  1  0  0  0
  6  5  1  0  0  0
  5  8  1  0  0  0
  5  9  1  0  0  0
  6 11  1  0  0  0
  9 16  1  0  0  0
 16 10  1  0  0  0
 16 12  1  0  0  0
 16 14  2  0  0  0
  1 17  1  0  0  0
  2 18  1  0  0  0
  3 19  1  0  0  0
  4 20  1  0  0  0
  4 21  1  0  0  0
  5 22  1  0  0  0
  6 23  1  0  0  0
 10 24  1  0  0  0
 11 25  1  0  0  0
 12 26  1  0  0  0
 13 27  1  0  0  0
 15 28  1  0  0  0
M  END
$$$$
