### 
### Created by X-TOOL on Mon Aug  2 16:14:55 2021
### 

@<TRIPOS>MOLECULE
6mlf_ligand
   26    26     1     0     0
SMALL
GAST_HUCK


@<TRIPOS>ATOM
      1 C02        27.1870   53.2420   16.4190 C.3       1 JV4         0.1144
      2 C03        28.2840   52.3830   16.8830 C.3       1 JV4         0.1122
      3 C05        28.4100   51.2020   15.9240 C.3       1 JV4         0.1184
      4 C06        29.5270   50.3200   16.3570 C.3       1 JV4         0.1189
      5 C09        25.9770   51.2870   15.5140 C.3       1 JV4         0.2169
      6 C15        25.9130   52.4720   16.4920 C.3       1 JV4         0.1384
      7 F07        29.1760   49.6240   17.4740 F         1 JV4        -0.2463
      8 O08        27.1140   50.4330   15.8290 O.3       1 JV4        -0.3367
      9 O10        26.1590   51.7880   14.2150 O.3       1 JV4        -0.2426
     10 O1P        23.8870   52.9730   13.7550 O.co2     1 JV4        -0.5536
     11 O2         24.8170   53.3110   16.1630 O.3       1 JV4        -0.3838
     12 O2P        25.4540   52.5250   11.8220 O.co2     1 JV4        -0.5536
     13 O3         27.1050   54.4680   17.2190 O.3       1 JV4        -0.3864
     14 O3P        24.2330   50.6680   12.8910 O.co2     1 JV4        -0.5536
     15 O4         29.5510   53.1280   16.9690 O.3       1 JV4        -0.3865
     16 P11        24.9150   51.9930   13.1490 P.3       1 JV4         0.2046
     17 H1         27.3736   53.5224   15.3718 H         1 JV4         0.0648
     18 H2         28.0376   52.0034   17.8856 H         1 JV4         0.0647
     19 H3         28.6469   51.5936   14.9237 H         1 JV4         0.0650
     20 H4         30.4113   50.9362   16.5768 H         1 JV4         0.0642
     21 H5         29.7646   49.6126   15.5488 H         1 JV4         0.0642
     22 H6         25.0447   50.7061   15.5711 H         1 JV4         0.0990
     23 H7         25.7793   52.0905   17.5150 H         1 JV4         0.0674
     24 H8         24.9256   53.6397   15.2783 H         1 JV4         0.2101
     25 H9         27.9267   54.9408   17.1570 H         1 JV4         0.2100
     26 H10        29.4485   53.8565   17.5701 H         1 JV4         0.2100
@<TRIPOS>BOND
     1    1    2 1  
     2    1    6 1  
     3    1   13 1  
     4    2    3 1  
     5    2   15 1  
     6    3    4 1  
     7    3    8 1  
     8    4    7 1  
     9    6    5 1  
    10    5    8 1  
    11    5    9 1  
    12    6   11 1  
    13    9   16 1  
    14   16   10 ar 
    15   16   12 ar 
    16   16   14 ar 
    17    1   17 1  
    18    2   18 1  
    19    3   19 1  
    20    4   20 1  
    21    4   21 1  
    22    5   22 1  
    23    6   23 1  
    24   11   24 1  
    25   13   25 1  
    26   15   26 1  
@<TRIPOS>SUBSTRUCTURE
     1 JV4         1

