### 
### Created by X-TOOL on Mon Sep 10 21:12:57 2018
### 

@<TRIPOS>MOLECULE
3d9l_ligand
  151   155     1     0     0
SMALL
GAST_HUCK


@<TRIPOS>ATOM
      1 N          31.2670    4.4640   11.5340 N.4       1 TYR         0.2392
      2 CA         32.1520    3.4510   12.1590 C.3       1 TYR         0.0730
      3 C          31.6770    3.0750   13.5490 C.2       1 TYR         0.2286
      4 O          31.2120    3.9220   14.3280 O.2       1 TYR        -0.3905
      5 CB         33.6050    3.9140   12.2160 C.3       1 TYR         0.0365
      6 CG         34.5570    2.8400   12.7240 C.ar      1 TYR        -0.0460
      7 CD1        35.0760    1.8580   11.8630 C.ar      1 TYR        -0.0684
      8 CD2        34.9340    2.8030   14.0600 C.ar      1 TYR        -0.0684
      9 CE1        35.9490    0.8670   12.3450 C.ar      1 TYR        -0.0398
     10 CE2        35.7960    1.8440   14.5400 C.ar      1 TYR        -0.0398
     11 CZ         36.2980    0.8830   13.6880 C.ar      1 TYR         0.0805
     12 OH         37.1510   -0.0460   14.1990 O.3       1 TYR        -0.3376
     13 N          31.7740    1.7810   13.8190 N.am      1 SEP        -0.2584
     14 CA         31.4980    1.2100   15.1080 C.3       1 SEP         0.1589
     15 CB         30.2530    0.3440   15.0570 C.3       1 SEP         0.1184
     16 OG         30.2010   -0.4730   16.2050 O.3       1 SEP        -0.2714
     17 C          32.6920    0.3550   15.4960 C.2       1 SEP         0.2090
     18 O          33.2020   -0.4130   14.6670 O.2       1 SEP        -0.3941
     19 P          28.8770   -0.1990   17.1060 P.3       1 SEP         0.2010
     20 O1P        28.9290   -1.2840   18.2960 O.co2     1 SEP        -0.5537
     21 O2P        28.8820    1.2780   17.7130 O.co2     1 SEP        -0.5537
     22 O3P        27.5470   -0.4270   16.2210 O.co2     1 SEP        -0.5537
     23 N          33.1430    0.4860   16.7590 N.am      1 PRO        -0.2498
     24 CA         34.2660   -0.2930   17.2780 C.3       1 PRO         0.1338
     25 C          33.9660   -1.7900   17.4760 C.2       1 PRO         0.2042
     26 O          34.8460   -2.5470   17.8950 O.2       1 PRO        -0.3944
     27 CB         34.5860    0.4090   18.6020 C.3       1 PRO        -0.0104
     28 CG         33.2600    0.9850   19.0390 C.3       1 PRO        -0.0281
     29 CD         32.6090    1.4260   17.7630 C.3       1 PRO         0.0369
     30 N          32.7420   -2.2120   17.1650 N.am      1 THR        -0.2613
     31 CA         32.4060   -3.6350   17.1590 C.3       1 THR         0.1565
     32 C          32.2140   -4.1850   15.7500 C.2       1 THR         0.2065
     33 O          31.9050   -5.3600   15.5940 O.2       1 THR        -0.3943
     34 CB         31.1360   -3.9630   17.9680 C.3       1 THR         0.0924
     35 OG1        30.0120   -3.2620   17.4180 O.3       1 THR        -0.3874
     36 CG2        31.3160   -3.6240   19.4450 C.3       1 THR        -0.0346
     37 N          32.3940   -3.3490   14.7290 N.am      1 SER        -0.2615
     38 CA         32.1260   -3.7740   13.3570 C.3       1 SER         0.1541
     39 C          33.0930   -4.8800   12.9460 C.2       1 SER         0.2087
     40 O          34.2620   -4.8490   13.3370 O.2       1 SER        -0.3941
     41 CB         32.2390   -2.6000   12.3990 C.3       1 SER         0.0843
     42 OG         33.5650   -2.1340   12.3720 O.3       1 SER        -0.3903
     43 N          32.6080   -5.8730   12.1700 N.am      1 PRO        -0.2498
     44 CA         33.5020   -6.9590   11.7520 C.3       1 PRO         0.1338
     45 C          34.7050   -6.4750   10.9320 C.2       1 PRO         0.2042
     46 O          34.5880   -5.5260   10.1370 O.2       1 PRO        -0.3944
     47 CB         32.5980   -7.8650   10.9140 C.3       1 PRO        -0.0104
     48 CG         31.4020   -7.0320   10.5640 C.3       1 PRO        -0.0281
     49 CD         31.2310   -6.0660   11.6820 C.3       1 PRO         0.0369
     50 N          35.8570   -7.1050   11.1570 N.am      1 SER        -0.2616
     51 CA         37.0490   -6.8530   10.3420 C.3       1 SER         0.1539
     52 C          36.8920   -7.4730    8.9450 C.2       1 SER         0.2063
     53 O          36.1420   -8.4510    8.7870 O.2       1 SER        -0.3943
     54 CB         38.2910   -7.4000   11.0430 C.3       1 SER         0.0843
     55 OG         38.7120   -6.5120   12.0640 O.3       1 SER        -0.3903
     56 N          37.5600   -6.9040    7.9360 N.am      1 TYR        -0.2621
     57 CA         37.4520   -7.4510    6.5710 C.3       1 TYR         0.1390
     58 C          38.3540   -8.6770    6.3610 C.2       1 TYR         0.2058
     59 O          39.4220   -8.7760    6.9490 O.2       1 TYR        -0.3942
     60 CB         37.6230   -6.3780    5.4630 C.3       1 TYR         0.0163
     61 CG         38.9890   -5.7050    5.3860 C.ar      1 TYR        -0.0493
     62 CD1        40.0660   -6.3420    4.7620 C.ar      1 TYR        -0.0685
     63 CD2        39.1940   -4.4180    5.9080 C.ar      1 TYR        -0.0685
     64 CE1        41.3180   -5.7340    4.6800 C.ar      1 TYR        -0.0398
     65 CE2        40.4550   -3.7990    5.8390 C.ar      1 TYR        -0.0398
     66 CZ         41.5130   -4.4770    5.2250 C.ar      1 TYR         0.0805
     67 OH         42.7700   -3.9160    5.1320 O.3       1 TYR        -0.3376
     68 N          37.8870   -9.6250    5.5520 N.am      1 SEP        -0.2611
     69 CA         38.6480  -10.8440    5.2420 C.3       1 SEP         0.1588
     70 CB         38.5110  -11.8980    6.3600 C.3       1 SEP         0.1184
     71 OG         37.3360  -12.6760    6.2230 O.3       1 SEP        -0.2714
     72 C          38.1930  -11.3850    3.8890 C.2       1 SEP         0.2091
     73 O          37.1840  -10.9160    3.3620 O.2       1 SEP        -0.3941
     74 P          37.3590  -13.9640    7.2050 P.3       1 SEP         0.2010
     75 O1P        36.8440  -13.4830    8.6470 O.co2     1 SEP        -0.5537
     76 O2P        36.4060  -15.1300    6.6250 O.co2     1 SEP        -0.5537
     77 O3P        38.8600  -14.5600    7.3240 O.co2     1 SEP        -0.5537
     78 N          38.9420  -12.3550    3.3120 N.am      1 PRO        -0.2510
     79 CA         38.5730  -12.9380    2.0250 C.3       1 PRO         0.1156
     80 C          37.3780  -13.8750    2.1480 C.2       1 PRO         0.1247
     81 O          36.2900  -13.5490    1.6810 O.2       1 PRO        -0.3725
     82 CB         39.8180  -13.7450    1.6340 C.3       1 PRO        -0.0117
     83 CG         40.8980  -13.2930    2.5480 C.3       1 PRO        -0.0281
     84 CD         40.1930  -12.9440    3.8120 C.3       1 PRO         0.0370
     85 H1         31.6118    4.6895   10.6140 H         1 TYR         0.2017
     86 H2         31.2558    5.2966   12.1020 H         1 TYR         0.2017
     87 H3         30.3321    4.0943   11.4611 H         1 TYR         0.2017
     88 H4         32.1119    2.5476   11.5328 H         1 TYR         0.1120
     89 H5         33.6689    4.7835   12.8868 H         1 TYR         0.0486
     90 H6         33.9182    4.2082   11.2034 H         1 TYR         0.0486
     91 H7         34.7999    1.8647   10.8148 H         1 TYR         0.0530
     92 H8         34.5395    3.5480   14.7415 H         1 TYR         0.0530
     93 H9         36.3417    0.1056   11.6808 H         1 TYR         0.0525
     94 H10        36.0800    1.8439   15.5861 H         1 TYR         0.0525
     95 H11        36.7125   -0.5323   14.8874 H         1 TYR         0.2458
     96 H12        32.0558    1.1662   13.0823 H         1 SEP         0.1885
     97 H13        31.3541    2.0124   15.8465 H         1 SEP         0.0827
     98 H14        30.2832   -0.2888   14.1578 H         1 SEP         0.0662
     99 H15        29.3607    0.9864   15.0235 H         1 SEP         0.0662
    100 H16        35.1207   -0.2096   16.5906 H         1 PRO         0.0802
    101 H17        35.3286    1.2066   18.4524 H         1 PRO         0.0313
    102 H18        34.9640   -0.3094   19.3443 H         1 PRO         0.0313
    103 H19        33.4102    1.8394   19.7153 H         1 PRO         0.0287
    104 H20        32.6505    0.2208   19.5435 H         1 PRO         0.0287
    105 H21        31.5141    1.3463   17.8326 H         1 PRO         0.0524
    106 H22        32.8864    2.4619   17.5181 H         1 PRO         0.0524
    107 H23        32.0379   -1.5417   16.9306 H         1 THR         0.1884
    108 H24        33.2501   -4.1673   17.6217 H         1 THR         0.0826
    109 H25        30.9446   -5.0431   17.8864 H         1 THR         0.0639
    110 H26        30.1746   -2.3268   17.4547 H         1 THR         0.2101
    111 H27        30.3940   -3.8694   19.9925 H         1 THR         0.0257
    112 H28        31.5308   -2.5504   19.5513 H         1 THR         0.0257
    113 H29        32.1528   -4.2078   19.8559 H         1 THR         0.0257
    114 H30        32.7166   -2.4187   14.9036 H         1 SER         0.1884
    115 H31        31.1002   -4.1681   13.3079 H         1 SER         0.0823
    116 H32        31.5740   -1.7902   12.7336 H         1 SER         0.0606
    117 H33        31.9447   -2.9227   11.3894 H         1 SER         0.0606
    118 H34        33.8191   -1.8546   13.2437 H         1 SER         0.2097
    119 H35        33.8753   -7.4988   12.6348 H         1 PRO         0.0802
    120 H36        32.2938   -8.7475   11.4959 H         1 PRO         0.0313
    121 H37        33.1197   -8.1894   10.0016 H         1 PRO         0.0313
    122 H38        30.5090   -7.6672   10.4684 H         1 PRO         0.0287
    123 H39        31.5735   -6.4958    9.6190 H         1 PRO         0.0287
    124 H40        30.8027   -5.1185   11.3232 H         1 PRO         0.0524
    125 H41        30.5876   -6.4841   12.4702 H         1 PRO         0.0524
    126 H42        35.9101   -7.7687   11.9031 H         1 SER         0.1884
    127 H43        37.1670   -5.7656   10.2256 H         1 SER         0.0823
    128 H44        39.1006   -7.5170   10.3076 H         1 SER         0.0606
    129 H45        38.0553   -8.3781   11.4876 H         1 SER         0.0606
    130 H46        38.9181   -5.6670   11.6820 H         1 SER         0.2097
    131 H47        38.1352   -6.1042    8.1079 H         1 TYR         0.1885
    132 H48        36.4189   -7.8164    6.4749 H         1 TYR         0.0821
    133 H49        36.8713   -5.5937    5.6357 H         1 TYR         0.0453
    134 H50        37.4318   -6.8621    4.4939 H         1 TYR         0.0453
    135 H51        39.9248   -7.3277    4.3337 H         1 TYR         0.0530
    136 H52        38.3669   -3.8928    6.3718 H         1 TYR         0.0530
    137 H53        42.1382   -6.2456    4.1896 H         1 TYR         0.0525
    138 H54        40.6049   -2.8097    6.2561 H         1 TYR         0.0525
    139 H55        43.3528   -4.5197    4.6866 H         1 TYR         0.2458
    140 H56        36.9842   -9.5035    5.1394 H         1 SEP         0.1884
    141 H57        39.7119  -10.5757    5.1642 H         1 SEP         0.0827
    142 H58        38.4826  -11.3822    7.3311 H         1 SEP         0.0662
    143 H59        39.3840  -12.5664    6.3252 H         1 SEP         0.0662
    144 H60        38.3545  -12.1530    1.2861 H         1 PRO         0.0792
    145 H61        37.4887  -14.8348    2.6505 H         1 PRO         0.1373
    146 H62        40.0922  -13.5431    0.5880 H         1 PRO         0.0314
    147 H63        39.6327  -14.8215    1.7633 H         1 PRO         0.0314
    148 H64        41.4145  -12.4139    2.1352 H         1 PRO         0.0287
    149 H65        41.6262  -14.0996    2.7187 H         1 PRO         0.0287
    150 H66        39.9979  -13.8390    4.4210 H         1 PRO         0.0524
    151 H67        40.7689  -12.2167    4.4030 H         1 PRO         0.0524
@<TRIPOS>BOND
     1    1    2 1  
     2    2    3 1  
     3    2    5 1  
     4    3    4 2  
     5    3   13 am 
     6    5    6 1  
     7    6    7 ar 
     8    6    8 ar 
     9    7    9 ar 
    10    8   10 ar 
    11    9   11 ar 
    12   10   11 ar 
    13   11   12 1  
    14   13   14 1  
    15   14   15 1  
    16   14   17 1  
    17   15   16 1  
    18   16   19 1  
    19   17   18 2  
    20   17   23 am 
    21   19   20 ar 
    22   19   21 ar 
    23   19   22 ar 
    24   23   24 1  
    25   23   29 1  
    26   24   25 1  
    27   24   27 1  
    28   25   26 2  
    29   25   30 am 
    30   27   28 1  
    31   28   29 1  
    32   30   31 1  
    33   31   32 1  
    34   31   34 1  
    35   32   33 2  
    36   32   37 am 
    37   34   35 1  
    38   34   36 1  
    39   37   38 1  
    40   38   39 1  
    41   38   41 1  
    42   39   40 2  
    43   39   43 am 
    44   41   42 1  
    45   43   44 1  
    46   43   49 1  
    47   44   45 1  
    48   44   47 1  
    49   45   46 2  
    50   45   50 am 
    51   47   48 1  
    52   48   49 1  
    53   50   51 1  
    54   51   52 1  
    55   51   54 1  
    56   52   53 2  
    57   52   56 am 
    58   54   55 1  
    59   56   57 1  
    60   57   58 1  
    61   57   60 1  
    62   58   59 2  
    63   58   68 am 
    64   60   61 1  
    65   61   62 ar 
    66   61   63 ar 
    67   62   64 ar 
    68   63   65 ar 
    69   64   66 ar 
    70   65   66 ar 
    71   66   67 1  
    72   68   69 1  
    73   69   70 1  
    74   69   72 1  
    75   70   71 1  
    76   71   74 1  
    77   72   73 2  
    78   72   78 am 
    79   74   75 ar 
    80   74   76 ar 
    81   74   77 ar 
    82   78   79 1  
    83   78   84 1  
    84   79   80 1  
    85   79   82 1  
    86   80   81 2  
    87   82   83 1  
    88   83   84 1  
    89    1   85 1  
    90    1   86 1  
    91    1   87 1  
    92    2   88 1  
    93    5   89 1  
    94    5   90 1  
    95    7   91 1  
    96    8   92 1  
    97    9   93 1  
    98   10   94 1  
    99   12   95 1  
   100   13   96 1  
   101   14   97 1  
   102   15   98 1  
   103   15   99 1  
   104   24  100 1  
   105   27  101 1  
   106   27  102 1  
   107   28  103 1  
   108   28  104 1  
   109   29  105 1  
   110   29  106 1  
   111   30  107 1  
   112   31  108 1  
   113   34  109 1  
   114   35  110 1  
   115   36  111 1  
   116   36  112 1  
   117   36  113 1  
   118   37  114 1  
   119   38  115 1  
   120   41  116 1  
   121   41  117 1  
   122   42  118 1  
   123   44  119 1  
   124   47  120 1  
   125   47  121 1  
   126   48  122 1  
   127   48  123 1  
   128   49  124 1  
   129   49  125 1  
   130   50  126 1  
   131   51  127 1  
   132   54  128 1  
   133   54  129 1  
   134   55  130 1  
   135   56  131 1  
   136   57  132 1  
   137   60  133 1  
   138   60  134 1  
   139   62  135 1  
   140   63  136 1  
   141   64  137 1  
   142   65  138 1  
   143   67  139 1  
   144   68  140 1  
   145   69  141 1  
   146   70  142 1  
   147   70  143 1  
   148   79  144 1  
   149   80  145 1  
   150   82  146 1  
   151   82  147 1  
   152   83  148 1  
   153   83  149 1  
   154   84  150 1  
   155   84  151 1  
@<TRIPOS>SUBSTRUCTURE
     1 TYR         1

