1di9_ligand
  -I-interpret- 

 40 42  0  0  0  0  0  0  0  0999 V2000
   43.0150   32.0510   32.3060 N   0  0  0  0  0
   43.5280   33.3560   32.3740 C   0  0  0  0  0
   44.6160   33.7610   31.5820 N   0  0  0  0  0
   45.3250   32.8150   30.7600 C   0  0  0  0  0
   44.8050   31.3540   30.6580 C   0  0  0  0  0
   43.6190   31.0220   31.4970 C   0  0  0  0  0
   46.5880   33.1820   30.0880 C   0  0  0  0  0
   47.4330   32.1490   29.4040 C   0  0  0  0  0
   46.8980   30.7430   29.2390 C   0  0  0  0  0
   45.5660   30.3730   29.8290 C   0  0  0  0  0
   43.0870   29.7090   31.5300 N   0  0  0  0  0
   41.8510   29.2210   31.9100 C   0  0  0  0  0
   40.6150   29.7090   31.2620 C   0  0  0  0  0
   39.3000   29.4010   31.8370 C   0  0  0  0  0
   39.1800   28.4200   32.9280 C   0  0  0  0  0
   40.4100   27.8220   33.5040 C   0  0  0  0  0
   41.7550   28.2320   33.0070 C   0  0  0  0  0
   37.8780   30.2090   31.2290 S   0  0  0  0  0
   38.3800   31.9360   30.9080 C   0  0  0  0  0
   48.7700   32.3890   28.9470 O   0  0  0  0  0
   49.3270   33.6180   28.8460 C   0  0  0  0  0
   47.7520   29.8330   28.5470 O   0  0  0  0  0
   47.3320   28.5320   28.0930 C   0  0  0  0  0
   43.0716   34.0722   33.0573 H   0  0  0  0  0
   46.9119   34.2228   30.0892 H   0  0  0  0  0
   45.1524   29.3805   29.6502 H   0  0  0  0  0
   43.7377   28.9898   31.2144 H   0  0  0  0  0
   40.6807   30.3023   30.3500 H   0  0  0  0  0
   38.1988   28.1361   33.3085 H   0  0  0  0  0
   40.3298   27.0776   34.2962 H   0  0  0  0  0
   42.6576   27.8079   33.4469 H   0  0  0  0  0
   38.7259   32.3910   31.8361 H   0  0  0  0  0
   39.1853   31.9484   30.1736 H   0  0  0  0  0
   37.5272   32.4954   30.5234 H   0  0  0  0  0
   48.7424   34.2247   28.1544 H   0  0  0  0  0
   49.3381   34.0923   29.8274 H   0  0  0  0  0
   50.3476   33.5236   28.4752 H   0  0  0  0  0
   47.0105   27.9367   28.9476 H   0  0  0  0  0
   46.5035   28.6427   27.3934 H   0  0  0  0  0
   48.1653   28.0357   27.5957 H   0  0  0  0  0
  1  2  4  0  0  0
  1  6  4  0  0  0
  2  3  4  0  0  0
  3  4  4  0  0  0
  4  5  4  0  0  0
  4  7  4  0  0  0
  5  6  4  0  0  0
  5 10  4  0  0  0
  6 11  1  0  0  0
  7  8  4  0  0  0
  8  9  4  0  0  0
  8 20  1  0  0  0
  9 10  4  0  0  0
  9 22  1  0  0  0
 11 12  1  0  0  0
 12 13  4  0  0  0
 12 17  4  0  0  0
 13 14  4  0  0  0
 14 15  4  0  0  0
 14 18  1  0  0  0
 15 16  4  0  0  0
 16 17  4  0  0  0
 18 19  1  0  0  0
 20 21  1  0  0  0
 22 23  1  0  0  0
  2 24  1  0  0  0
  7 25  1  0  0  0
 10 26  1  0  0  0
 11 27  1  0  0  0
 13 28  1  0  0  0
 15 29  1  0  0  0
 16 30  1  0  0  0
 17 31  1  0  0  0
 19 32  1  0  0  0
 19 33  1  0  0  0
 19 34  1  0  0  0
 21 35  1  0  0  0
 21 36  1  0  0  0
 21 37  1  0  0  0
 23 38  1  0  0  0
 23 39  1  0  0  0
 23 40  1  0  0  0
M  END
$$$$
