2w0x_ligand
  -I-interpret- 

 17 17  0  0  0  0  0  0  0  0999 V2000
   16.4820   25.7290   29.3780 O   0  0  0  0  0
   17.4950   25.1540   28.6100 C   0  0  0  0  0
   17.1600   24.4080   27.4740 O   0  0  0  0  0
   18.8860   25.7720   28.7470 C   0  0  0  0  0
   18.9930   26.9360   29.3280 C   0  0  0  0  0
   20.3620   27.5850   29.5190 C   0  0  0  0  0
   20.1170   25.0760   28.2330 C   0  0  0  0  0
   21.2850   25.6790   28.4120 C   0  0  0  0  0
   21.4020   26.9880   29.0930 N   0  0  0  0  0
   22.5390   25.0780   27.8310 C   0  0  0  0  0
   23.6750   25.8740   27.7280 O   0  0  0  0  0
   22.4720   23.8360   27.1880 O   0  0  0  0  0
   17.9618   24.0824   27.0585 H   0  0  0  0  0
   18.0978   27.4489   29.6797 H   0  0  0  0  0
   20.4477   28.5513   30.0160 H   0  0  0  0  0
   20.0514   24.1105   27.7313 H   0  0  0  0  0
   21.6213   23.4292   27.3680 H   0  0  0  0  0
  1  2  2  0  0  0
  2  3  1  0  0  0
  2  4  1  0  0  0
  4  5  4  0  0  0
  4  7  4  0  0  0
  5  6  4  0  0  0
  6  9  4  0  0  0
  7  8  4  0  0  0
  8  9  4  0  0  0
  8 10  1  0  0  0
 10 11  2  0  0  0
 10 12  1  0  0  0
  3 13  1  0  0  0
  5 14  1  0  0  0
  6 15  1  0  0  0
  7 16  1  0  0  0
 12 17  1  0  0  0
M  END
$$$$
