### 
### Created by X-TOOL on Mon Sep 10 21:13:13 2018
### 

@<TRIPOS>MOLECULE
4fmn_ligand
  143   144     1     0     0
SMALL
GAST_HUCK


@<TRIPOS>ATOM
      1 C          65.5640  -18.5420   31.8950 C.2       1 ACE         0.1751
      2 O          65.7470  -18.5340   33.1200 O.2       1 ACE        -0.3972
      3 CH3        65.4090  -19.8750   31.1520 C.3       1 ACE         0.0258
      4 N          65.4710  -17.4390   31.1430 N.am      1 VAL        -0.2656
      5 CA         65.6490  -16.0680   31.6700 C.3       1 VAL         0.1332
      6 C          64.3960  -15.2320   31.9990 C.2       1 VAL         0.2041
      7 O          63.5550  -14.9660   31.1240 O.2       1 VAL        -0.3944
      8 CB         66.6700  -15.2480   30.8640 C.3       1 VAL        -0.0063
      9 CG1        67.4640  -14.3500   31.7860 C.3       1 VAL        -0.0584
     10 CG2        67.6030  -16.1600   30.0860 C.3       1 VAL        -0.0584
     11 N          64.3220  -14.7780   33.2700 N.am      1 ARG        -0.2637
     12 CA         63.2560  -13.8990   33.7700 C.3       1 ARG         0.1311
     13 C          63.7340  -12.4220   33.7270 C.2       1 ARG         0.2040
     14 O          64.9430  -12.1530   33.6450 O.2       1 ARG        -0.3944
     15 CB         62.7590  -14.3050   35.1800 C.3       1 ARG        -0.0092
     16 CG         62.3230  -15.7660   35.3580 C.3       1 ARG        -0.0156
     17 CD         61.0320  -16.1380   34.6480 C.3       1 ARG         0.0627
     18 NE         59.8310  -15.9360   35.4700 N.pl3     1 ARG        -0.2723
     19 CZ         59.1370  -16.9140   36.0530 C.cat     1 ARG         0.2882
     20 NH1        59.5360  -18.1790   35.9490 N.pl3     1 ARG        -0.2849
     21 NH2        58.0400  -16.6350   36.7480 N.pl3     1 ARG        -0.2849
     22 N          62.7700  -11.4780   33.7160 N.am      1 SER        -0.2616
     23 CA         63.0080  -10.0250   33.6170 C.3       1 SER         0.1539
     24 C          63.3020   -9.4100   34.9730 C.2       1 SER         0.2062
     25 O          62.5000   -9.5970   35.9180 O.2       1 SER        -0.3943
     26 CB         61.8180   -9.3200   32.9510 C.3       1 SER         0.0843
     27 OG         61.7310   -7.9140   33.1310 O.3       1 SER        -0.3903
     28 N          64.4180   -8.6020   35.0410 N.am      1 LYS        -0.2637
     29 CA         64.7930   -7.8840   36.2720 C.3       1 LYS         0.1310
     30 C          63.6170   -7.1190   36.8920 C.2       1 LYS         0.2040
     31 O          63.5420   -7.0180   38.1070 O.2       1 LYS        -0.3944
     32 CB         66.0250   -6.9690   36.0780 C.3       1 LYS        -0.0122
     33 CG         65.8310   -5.6840   35.2660 C.3       1 LYS        -0.0440
     34 CD         67.1910   -5.2080   34.7390 C.3       1 LYS        -0.0124
     35 CE         67.1210   -3.9690   33.8790 C.3       1 LYS        -0.0354
     36 NZ         68.4500   -3.6230   33.3120 N.4       1 LYS         0.2185
     37 N          62.6770   -6.6470   36.0560 N.am      1 TYR        -0.2621
     38 CA         61.5160   -5.8700   36.4630 C.3       1 TYR         0.1390
     39 C          60.4440   -6.6560   37.1400 C.2       1 TYR         0.2059
     40 O          59.4630   -6.0730   37.6000 O.2       1 TYR        -0.3942
     41 CB         60.9520   -5.1200   35.2690 C.3       1 TYR         0.0163
     42 CG         61.9560   -4.1610   34.6600 C.ar      1 TYR        -0.0493
     43 CD1        62.3280   -2.9970   35.3260 C.ar      1 TYR        -0.0685
     44 CD2        62.5190   -4.4080   33.4030 C.ar      1 TYR        -0.0685
     45 CE1        63.2450   -2.1140   34.7710 C.ar      1 TYR        -0.0398
     46 CE2        63.4250   -3.5180   32.8290 C.ar      1 TYR        -0.0398
     47 CZ         63.7910   -2.3780   33.5240 C.ar      1 TYR         0.0805
     48 OH         64.7180   -1.5130   33.0090 O.3       1 TYR        -0.3376
     49 N          60.6080   -7.9770   37.2010 N.am      1 PHE        -0.2618
     50 CA         59.6140   -8.8280   37.8370 C.3       1 PHE         0.1404
     51 C          60.2840   -9.6540   38.9400 C.2       1 PHE         0.2054
     52 O          61.2670  -10.3710   38.6720 O.2       1 PHE        -0.3942
     53 CB         58.8800   -9.6790   36.7790 C.3       1 PHE         0.0214
     54 CG         58.0870   -8.8440   35.7990 C.ar      1 PHE        -0.0386
     55 CD1        56.7530   -8.5260   36.0480 C.ar      1 PHE        -0.0601
     56 CD2        58.6870   -8.3260   34.6540 C.ar      1 PHE        -0.0601
     57 CE1        56.0320   -7.7060   35.1690 C.ar      1 PHE        -0.0686
     58 CE2        57.9690   -7.5060   33.7870 C.ar      1 PHE        -0.0686
     59 CZ         56.6410   -7.2160   34.0440 C.ar      1 PHE        -0.0687
     60 N          59.8310   -9.4570   40.2020 N.am      1 LYS        -0.2693
     61 CA         60.3740  -10.1390   41.3930 C.3       1 LYS         0.0944
     62 C          59.2570  -10.4720   42.3900 C.2       1 LYS         0.0601
     63 O          58.2867   -9.6856   42.5565 O.co2     1 LYS        -0.5666
     64 CB         61.4740   -9.2980   42.0890 C.3       1 LYS        -0.0177
     65 CG         62.7150   -8.9370   41.2430 C.3       1 LYS        -0.0446
     66 CD         63.7080  -10.0840   41.0720 C.3       1 LYS        -0.0125
     67 CE         64.7040   -9.8060   39.9740 C.3       1 LYS        -0.0354
     68 NZ         64.9230  -10.9980   39.1080 N.4       1 LYS         0.2185
     69 O          59.3103  -11.5440   43.0499 O.co2     1 LYS        -0.5666
     70 H1         65.2555  -19.6816   30.0801 H         1 ACE         0.0467
     71 H2         64.5423  -20.4202   31.5539 H         1 ACE         0.0467
     72 H3         66.3180  -20.4791   31.2891 H         1 ACE         0.0467
     73 H4         65.2698  -17.5476   30.1695 H         1 VAL         0.1883
     74 H5         66.1227  -16.2283   32.6498 H         1 VAL         0.0802
     75 H6         66.1224  -14.6179   30.1477 H         1 VAL         0.0343
     76 H7         68.1898  -13.7698   31.1972 H         1 VAL         0.0234
     77 H8         67.9991  -14.9644   32.5251 H         1 VAL         0.0234
     78 H9         66.7808  -13.6626   32.3063 H         1 VAL         0.0234
     79 H10        67.0126  -16.8067   29.4203 H         1 VAL         0.0234
     80 H11        68.1767  -16.7828   30.7881 H         1 VAL         0.0234
     81 H12        68.2952  -15.5509   29.4862 H         1 VAL         0.0234
     82 H13        65.0375  -15.0579   33.9101 H         1 ARG         0.1883
     83 H14        62.4000  -13.9935   33.0857 H         1 ARG         0.0800
     84 H15        61.8980  -13.6668   35.4275 H         1 ARG         0.0313
     85 H16        63.5756  -14.1110   35.8909 H         1 ARG         0.0313
     86 H17        62.1882  -15.9541   36.4334 H         1 ARG         0.0301
     87 H18        63.1247  -16.4118   34.9704 H         1 ARG         0.0301
     88 H19        61.0845  -17.1993   34.3636 H         1 ARG         0.0689
     89 H20        60.9421  -15.5197   33.7427 H         1 ARG         0.0689
     90 H21        59.5015  -14.9696   35.6056 H         1 ARG         0.2642
     91 H22        58.9944  -18.9288   36.4023 H         1 ARG         0.2615
     92 H23        60.3865  -18.4085   35.4152 H         1 ARG         0.2615
     93 H24        57.7203  -15.6598   36.8362 H         1 ARG         0.2615
     94 H25        57.5090  -17.3938   37.1987 H         1 ARG         0.2615
     95 H26        61.8210  -11.7868   33.7799 H         1 SER         0.1884
     96 H27        63.8920   -9.8729   32.9802 H         1 SER         0.0823
     97 H28        60.8971   -9.7659   33.3548 H         1 SER         0.0606
     98 H29        61.8766   -9.5152   31.8701 H         1 SER         0.0606
     99 H30        62.5094   -7.5015   32.7753 H         1 SER         0.2097
    100 H31        64.9914   -8.5001   34.2281 H         1 LYS         0.1883
    101 H32        65.0860   -8.6534   37.0015 H         1 LYS         0.0800
    102 H33        66.8008   -7.5635   35.5735 H         1 LYS         0.0312
    103 H34        66.3791   -6.6768   37.0776 H         1 LYS         0.0312
    104 H35        65.3929   -4.9059   35.9083 H         1 LYS         0.0269
    105 H36        65.1576   -5.8824   34.4191 H         1 LYS         0.0269
    106 H37        67.6325   -6.0188   34.1409 H         1 LYS         0.0317
    107 H38        67.8395   -4.9935   35.6012 H         1 LYS         0.0317
    108 H39        66.7643   -3.1282   34.4920 H         1 LYS         0.0813
    109 H40        66.4157   -4.1463   33.0537 H         1 LYS         0.0813
    110 H41        68.3678   -2.7937   32.7449 H         1 LYS         0.1994
    111 H42        68.7822   -4.3867   32.7441 H         1 LYS         0.1994
    112 H43        69.1017   -3.4538   34.0622 H         1 LYS         0.1994
    113 H44        62.7832   -6.8444   35.0814 H         1 TYR         0.1885
    114 H45        61.8698   -5.1243   37.1902 H         1 TYR         0.0821
    115 H46        60.0709   -4.5481   35.5955 H         1 TYR         0.0453
    116 H47        60.6520   -5.8503   34.5030 H         1 TYR         0.0453
    117 H48        61.8945   -2.7758   36.2946 H         1 TYR         0.0530
    118 H49        62.2453   -5.3087   32.8655 H         1 TYR         0.0530
    119 H50        63.5335   -1.2199   35.3117 H         1 TYR         0.0525
    120 H51        63.8394   -3.7166   31.8472 H         1 TYR         0.0525
    121 H52        64.8468   -0.7918   33.6137 H         1 TYR         0.2458
    122 H53        61.4273   -8.3900   36.8033 H         1 PHE         0.1885
    123 H54        58.8637   -8.1820   38.3162 H         1 PHE         0.0823
    124 H55        58.1906  -10.3631   37.2955 H         1 PHE         0.0474
    125 H56        59.6255  -10.2631   36.2195 H         1 PHE         0.0474
    126 H57        56.2663   -8.9182   36.9337 H         1 PHE         0.0557
    127 H58        59.7220   -8.5631   34.4356 H         1 PHE         0.0557
    128 H59        54.9971   -7.4607   35.3785 H         1 PHE         0.0599
    129 H60        58.4521   -7.0939   32.9084 H         1 PHE         0.0599
    130 H61        56.0798   -6.5983   33.3522 H         1 PHE         0.0559
    131 H62        59.0814   -8.8085   40.3347 H         1 LYS         0.1875
    132 H63        60.8292  -11.0836   41.0607 H         1 LYS         0.0726
    133 H64        61.8220   -9.8650   42.9650 H         1 LYS         0.0305
    134 H65        61.0126   -8.3564   42.4213 H         1 LYS         0.0305
    135 H66        63.2349   -8.1001   41.7321 H         1 LYS         0.0269
    136 H67        62.3738   -8.6239   40.2452 H         1 LYS         0.0269
    137 H68        63.1531  -11.0011   40.8250 H         1 LYS         0.0317
    138 H69        64.2517  -10.2277   42.0174 H         1 LYS         0.0317
    139 H70        65.6627   -9.5158   40.4286 H         1 LYS         0.0813
    140 H71        64.3275   -8.9797   39.3531 H         1 LYS         0.0813
    141 H72        65.5926  -10.7725   38.3891 H         1 LYS         0.1994
    142 H73        64.0506  -11.2685   38.6817 H         1 LYS         0.1994
    143 H74        65.2741  -11.7596   39.6672 H         1 LYS         0.1994
@<TRIPOS>BOND
     1    1    2 2  
     2    1    3 1  
     3    1    4 am 
     4    4    5 1  
     5    5    6 1  
     6    5    8 1  
     7    6    7 2  
     8    6   11 am 
     9    8    9 1  
    10    8   10 1  
    11   11   12 1  
    12   12   13 1  
    13   12   15 1  
    14   13   14 2  
    15   13   22 am 
    16   15   16 1  
    17   16   17 1  
    18   17   18 1  
    19   18   19 ar 
    20   19   20 ar 
    21   19   21 ar 
    22   22   23 1  
    23   23   24 1  
    24   23   26 1  
    25   24   25 2  
    26   24   28 am 
    27   26   27 1  
    28   28   29 1  
    29   29   30 1  
    30   29   32 1  
    31   30   31 2  
    32   30   37 am 
    33   32   33 1  
    34   33   34 1  
    35   34   35 1  
    36   35   36 1  
    37   37   38 1  
    38   38   39 1  
    39   38   41 1  
    40   39   40 2  
    41   39   49 am 
    42   41   42 1  
    43   42   43 ar 
    44   42   44 ar 
    45   43   45 ar 
    46   44   46 ar 
    47   45   47 ar 
    48   46   47 ar 
    49   47   48 1  
    50   49   50 1  
    51   50   51 1  
    52   50   53 1  
    53   51   52 2  
    54   51   60 am 
    55   53   54 1  
    56   54   55 ar 
    57   54   56 ar 
    58   55   57 ar 
    59   56   58 ar 
    60   57   59 ar 
    61   58   59 ar 
    62   60   61 1  
    63   61   62 1  
    64   61   64 1  
    65   62   63 ar 
    66   64   65 1  
    67   65   66 1  
    68   66   67 1  
    69   67   68 1  
    70   62   69 ar 
    71    3   70 1  
    72    3   71 1  
    73    3   72 1  
    74    4   73 1  
    75    5   74 1  
    76    8   75 1  
    77    9   76 1  
    78    9   77 1  
    79    9   78 1  
    80   10   79 1  
    81   10   80 1  
    82   10   81 1  
    83   11   82 1  
    84   12   83 1  
    85   15   84 1  
    86   15   85 1  
    87   16   86 1  
    88   16   87 1  
    89   17   88 1  
    90   17   89 1  
    91   18   90 1  
    92   20   91 1  
    93   20   92 1  
    94   21   93 1  
    95   21   94 1  
    96   22   95 1  
    97   23   96 1  
    98   26   97 1  
    99   26   98 1  
   100   27   99 1  
   101   28  100 1  
   102   29  101 1  
   103   32  102 1  
   104   32  103 1  
   105   33  104 1  
   106   33  105 1  
   107   34  106 1  
   108   34  107 1  
   109   35  108 1  
   110   35  109 1  
   111   36  110 1  
   112   36  111 1  
   113   36  112 1  
   114   37  113 1  
   115   38  114 1  
   116   41  115 1  
   117   41  116 1  
   118   43  117 1  
   119   44  118 1  
   120   45  119 1  
   121   46  120 1  
   122   48  121 1  
   123   49  122 1  
   124   50  123 1  
   125   53  124 1  
   126   53  125 1  
   127   55  126 1  
   128   56  127 1  
   129   57  128 1  
   130   58  129 1  
   131   59  130 1  
   132   60  131 1  
   133   61  132 1  
   134   64  133 1  
   135   64  134 1  
   136   65  135 1  
   137   65  136 1  
   138   66  137 1  
   139   66  138 1  
   140   67  139 1  
   141   67  140 1  
   142   68  141 1  
   143   68  142 1  
   144   68  143 1  
@<TRIPOS>SUBSTRUCTURE
     1 ACE         1

