4fmn_ligand
  -I-interpret- 

143144  0  0  0  0  0  0  0  0999 V2000
   65.5640  -18.5420   31.8950 C   0  0  0  0  0
   65.7470  -18.5340   33.1200 O   0  0  0  0  0
   65.4090  -19.8750   31.1520 C   0  0  0  0  0
   65.4710  -17.4390   31.1430 N   0  0  0  0  0
   65.6490  -16.0680   31.6700 C   0  0  0  0  0
   64.3960  -15.2320   31.9990 C   0  0  0  0  0
   63.5550  -14.9660   31.1240 O   0  0  0  0  0
   66.6700  -15.2480   30.8640 C   0  0  0  0  0
   67.4640  -14.3500   31.7860 C   0  0  0  0  0
   67.6030  -16.1600   30.0860 C   0  0  0  0  0
   64.3220  -14.7780   33.2700 N   0  0  0  0  0
   63.2560  -13.8990   33.7700 C   0  0  0  0  0
   63.7340  -12.4220   33.7270 C   0  0  0  0  0
   64.9430  -12.1530   33.6450 O   0  0  0  0  0
   62.7590  -14.3050   35.1800 C   0  0  0  0  0
   62.3230  -15.7660   35.3580 C   0  0  0  0  0
   61.0320  -16.1380   34.6480 C   0  0  0  0  0
   59.8310  -15.9360   35.4700 N   0  0  0  0  0
   59.1370  -16.9140   36.0530 C   0  0  0  0  0
   59.5360  -18.1790   35.9490 N   0  0  0  0  0
   58.0400  -16.6350   36.7480 N   0  0  0  0  0
   62.7700  -11.4780   33.7160 N   0  0  0  0  0
   63.0080  -10.0250   33.6170 C   0  0  0  0  0
   63.3020   -9.4100   34.9730 C   0  0  0  0  0
   62.5000   -9.5970   35.9180 O   0  0  0  0  0
   61.8180   -9.3200   32.9510 C   0  0  0  0  0
   61.7310   -7.9140   33.1310 O   0  0  0  0  0
   64.4180   -8.6020   35.0410 N   0  0  0  0  0
   64.7930   -7.8840   36.2720 C   0  0  0  0  0
   63.6170   -7.1190   36.8920 C   0  0  0  0  0
   63.5420   -7.0180   38.1070 O   0  0  0  0  0
   66.0250   -6.9690   36.0780 C   0  0  0  0  0
   65.8310   -5.6840   35.2660 C   0  0  0  0  0
   67.1910   -5.2080   34.7390 C   0  0  0  0  0
   67.1210   -3.9690   33.8790 C   0  0  0  0  0
   68.4500   -3.6230   33.3120 N   0  3  0  0  0
   62.6770   -6.6470   36.0560 N   0  0  0  0  0
   61.5160   -5.8700   36.4630 C   0  0  0  0  0
   60.4440   -6.6560   37.1400 C   0  0  0  0  0
   59.4630   -6.0730   37.6000 O   0  0  0  0  0
   60.9520   -5.1200   35.2690 C   0  0  0  0  0
   61.9560   -4.1610   34.6600 C   0  0  0  0  0
   62.3280   -2.9970   35.3260 C   0  0  0  0  0
   62.5190   -4.4080   33.4030 C   0  0  0  0  0
   63.2450   -2.1140   34.7710 C   0  0  0  0  0
   63.4250   -3.5180   32.8290 C   0  0  0  0  0
   63.7910   -2.3780   33.5240 C   0  0  0  0  0
   64.7180   -1.5130   33.0090 O   0  0  0  0  0
   60.6080   -7.9770   37.2010 N   0  0  0  0  0
   59.6140   -8.8280   37.8370 C   0  0  0  0  0
   60.2840   -9.6540   38.9400 C   0  0  0  0  0
   61.2670  -10.3710   38.6720 O   0  0  0  0  0
   58.8800   -9.6790   36.7790 C   0  0  0  0  0
   58.0870   -8.8440   35.7990 C   0  0  0  0  0
   56.7530   -8.5260   36.0480 C   0  0  0  0  0
   58.6870   -8.3260   34.6540 C   0  0  0  0  0
   56.0320   -7.7060   35.1690 C   0  0  0  0  0
   57.9690   -7.5060   33.7870 C   0  0  0  0  0
   56.6410   -7.2160   34.0440 C   0  0  0  0  0
   59.8310   -9.4570   40.2020 N   0  0  0  0  0
   60.3740  -10.1390   41.3930 C   0  0  0  0  0
   59.2570  -10.4720   42.3900 C   0  0  0  0  0
   58.2867   -9.6856   42.5565 O   0  0  0  0  0
   61.4740   -9.2980   42.0890 C   0  0  0  0  0
   62.7150   -8.9370   41.2430 C   0  0  0  0  0
   63.7080  -10.0840   41.0720 C   0  0  0  0  0
   64.7040   -9.8060   39.9740 C   0  0  0  0  0
   64.9230  -10.9980   39.1080 N   0  3  0  0  0
   59.3103  -11.5440   43.0499 O   0  0  0  0  0
   66.3103  -20.4726   31.2886 H   0  0  0  0  0
   64.5500  -20.4143   31.5512 H   0  0  0  0  0
   65.2570  -19.6820   30.0900 H   0  0  0  0  0
   65.2657  -17.5497   30.1500 H   0  0  0  0  0
   66.0483  -16.2889   32.6599 H   0  0  0  0  0
   66.1251  -14.6291   30.1512 H   0  0  0  0  0
   68.0315  -14.9619   32.4871 H   0  0  0  0  0
   68.1490  -13.7407   31.1965 H   0  0  0  0  0
   66.7817  -13.7024   32.3367 H   0  0  0  0  0
   68.2884  -15.5553   29.4921 H   0  0  0  0  0
   68.1709  -16.7765   30.7828 H   0  0  0  0  0
   67.0169  -16.8003   29.4268 H   0  0  0  0  0
   65.0518  -15.0635   33.9229 H   0  0  0  0  0
   62.3930  -14.0089   33.1133 H   0  0  0  0  0
   61.8733  -13.6999   35.3737 H   0  0  0  0  0
   63.6046  -14.1583   35.8520 H   0  0  0  0  0
   62.1524  -15.9173   36.4239 H   0  0  0  0  0
   63.1100  -16.3853   34.9278 H   0  0  0  0  0
   61.0868  -17.1988   34.4036 H   0  0  0  0  0
   60.9421  -15.4938   33.7733 H   0  0  0  0  0
   59.5047  -14.9790   35.6043 H   0  0  0  0  0
   59.0012  -18.9212   36.4001 H   0  0  0  0  0
   60.3767  -18.4066   35.4181 H   0  0  0  0  0
   57.7249  -15.6690   36.8376 H   0  0  0  0  0
   61.8020  -11.7930   33.7811 H   0  0  0  0  0
   63.8895   -9.8824   32.9919 H   0  0  0  0  0
   60.9233   -9.7387   33.4119 H   0  0  0  0  0
   61.9345   -9.4799   31.8791 H   0  0  0  0  0
   60.9545   -7.5816   32.6748 H   0  0  0  0  0
   65.0029   -8.4981   34.2119 H   0  0  0  0  0
   65.0809   -8.6566   36.9850 H   0  0  0  0  0
   66.7469   -7.5637   35.5182 H   0  0  0  0  0
   66.3093   -6.6436   37.0787 H   0  0  0  0  0
   65.3953   -4.9128   35.9013 H   0  0  0  0  0
   65.1625   -5.8793   34.4275 H   0  0  0  0  0
   67.5939   -6.0084   34.1184 H   0  0  0  0  0
   67.8048   -4.9639   35.6060 H   0  0  0  0  0
   66.7831   -3.1380   34.4981 H   0  0  0  0  0
   66.4334   -4.1594   33.0550 H   0  0  0  0  0
   68.3656   -2.7838   32.7385 H   0  0  0  0  0
   69.1085   -3.4521   34.0720 H   0  0  0  0  0
   68.7851   -4.3965   32.7377 H   0  0  0  0  0
   62.7853   -6.8484   35.0620 H   0  0  0  0  0
   61.8762   -5.1709   37.2177 H   0  0  0  0  0
   60.0955   -4.5387   35.6105 H   0  0  0  0  0
   60.6818   -5.8525   34.5083 H   0  0  0  0  0
   61.8921   -2.7746   36.3000 H   0  0  0  0  0
   62.2438   -5.3137   32.8625 H   0  0  0  0  0
   63.5351   -1.2149   35.3147 H   0  0  0  0  0
   63.8417   -3.7177   31.8418 H   0  0  0  0  0
   65.0017   -1.8258   32.1469 H   0  0  0  0  0
   61.4437   -8.3983   36.7954 H   0  0  0  0  0
   58.8441   -8.2245   38.3178 H   0  0  0  0  0
   58.1810  -10.3310   37.3028 H   0  0  0  0  0
   59.6323  -10.2299   36.2145 H   0  0  0  0  0
   56.2637   -8.9204   36.9386 H   0  0  0  0  0
   59.7277   -8.5644   34.4344 H   0  0  0  0  0
   54.9914   -7.4593   35.3797 H   0  0  0  0  0
   58.4547   -7.0916   32.9036 H   0  0  0  0  0
   56.0767   -6.5949   33.3483 H   0  0  0  0  0
   59.0664   -8.7956   40.3373 H   0  0  0  0  0
   60.8294  -11.0675   41.0486 H   0  0  0  0  0
   58.3937   -8.9217   41.9850 H   0  0  0  0  0
   61.8414   -9.9094   42.9132 H   0  0  0  0  0
   61.0046   -8.3498   42.3513 H   0  0  0  0  0
   63.2369   -8.1334   41.7626 H   0  0  0  0  0
   62.3599   -8.6669   40.2485 H   0  0  0  0  0
   63.1503  -10.9827   40.8083 H   0  0  0  0  0
   64.2548  -10.2051   42.0071 H   0  0  0  0  0
   65.6550   -9.5389   40.4348 H   0  0  0  0  0
   64.3125   -8.9999   39.3534 H   0  0  0  0  0
   65.6007  -10.7687   38.3810 H   0  0  0  0  0
   65.2782  -11.7680   39.6749 H   0  0  0  0  0
   64.0396  -11.2707   38.6772 H   0  0  0  0  0
  1  2  2  0  0  0
  1  3  1  0  0  0
  1  4  1  0  0  0
  4  5  1  0  0  0
  5  6  1  0  0  0
  5  8  1  0  0  0
  6  7  2  0  0  0
  6 11  1  0  0  0
  8  9  1  0  0  0
  8 10  1  0  0  0
 11 12  1  0  0  0
 12 13  1  0  0  0
 12 15  1  0  0  0
 13 14  2  0  0  0
 13 22  1  0  0  0
 15 16  1  0  0  0
 16 17  1  0  0  0
 17 18  1  0  0  0
 18 19  1  0  0  0
 19 20  1  0  0  0
 19 21  2  0  0  0
 22 23  1  0  0  0
 23 24  1  0  0  0
 23 26  1  0  0  0
 24 25  2  0  0  0
 24 28  1  0  0  0
 26 27  1  0  0  0
 28 29  1  0  0  0
 29 30  1  0  0  0
 29 32  1  0  0  0
 30 31  2  0  0  0
 30 37  1  0  0  0
 32 33  1  0  0  0
 33 34  1  0  0  0
 34 35  1  0  0  0
 35 36  1  0  0  0
 37 38  1  0  0  0
 38 39  1  0  0  0
 38 41  1  0  0  0
 39 40  2  0  0  0
 39 49  1  0  0  0
 41 42  1  0  0  0
 42 43  4  0  0  0
 42 44  4  0  0  0
 43 45  4  0  0  0
 44 46  4  0  0  0
 45 47  4  0  0  0
 46 47  4  0  0  0
 47 48  1  0  0  0
 49 50  1  0  0  0
 50 51  1  0  0  0
 50 53  1  0  0  0
 51 52  2  0  0  0
 51 60  1  0  0  0
 53 54  1  0  0  0
 54 55  4  0  0  0
 54 56  4  0  0  0
 55 57  4  0  0  0
 56 58  4  0  0  0
 57 59  4  0  0  0
 58 59  4  0  0  0
 60 61  1  0  0  0
 61 62  1  0  0  0
 61 64  1  0  0  0
 62 63  1  0  0  0
 64 65  1  0  0  0
 65 66  1  0  0  0
 66 67  1  0  0  0
 67 68  1  0  0  0
 62 69  2  0  0  0
  3 70  1  0  0  0
  3 71  1  0  0  0
  3 72  1  0  0  0
  4 73  1  0  0  0
  5 74  1  0  0  0
  8 75  1  0  0  0
  9 76  1  0  0  0
  9 77  1  0  0  0
  9 78  1  0  0  0
 10 79  1  0  0  0
 10 80  1  0  0  0
 10 81  1  0  0  0
 11 82  1  0  0  0
 12 83  1  0  0  0
 15 84  1  0  0  0
 15 85  1  0  0  0
 16 86  1  0  0  0
 16 87  1  0  0  0
 17 88  1  0  0  0
 17 89  1  0  0  0
 18 90  1  0  0  0
 20 91  1  0  0  0
 20 92  1  0  0  0
 21 93  1  0  0  0
 22 94  1  0  0  0
 23 95  1  0  0  0
 26 96  1  0  0  0
 26 97  1  0  0  0
 27 98  1  0  0  0
 28 99  1  0  0  0
 29100  1  0  0  0
 32101  1  0  0  0
 32102  1  0  0  0
 33103  1  0  0  0
 33104  1  0  0  0
 34105  1  0  0  0
 34106  1  0  0  0
 35107  1  0  0  0
 35108  1  0  0  0
 36109  1  0  0  0
 36110  1  0  0  0
 36111  1  0  0  0
 37112  1  0  0  0
 38113  1  0  0  0
 41114  1  0  0  0
 41115  1  0  0  0
 43116  1  0  0  0
 44117  1  0  0  0
 45118  1  0  0  0
 46119  1  0  0  0
 48120  1  0  0  0
 49121  1  0  0  0
 50122  1  0  0  0
 53123  1  0  0  0
 53124  1  0  0  0
 55125  1  0  0  0
 56126  1  0  0  0
 57127  1  0  0  0
 58128  1  0  0  0
 59129  1  0  0  0
 60130  1  0  0  0
 61131  1  0  0  0
 63132  1  0  0  0
 64133  1  0  0  0
 64134  1  0  0  0
 65135  1  0  0  0
 65136  1  0  0  0
 66137  1  0  0  0
 66138  1  0  0  0
 67139  1  0  0  0
 67140  1  0  0  0
 68141  1  0  0  0
 68142  1  0  0  0
 68143  1  0  0  0
M  END
$$$$
