5c85_ligand
  -I-interpret- 

 19 20  0  0  0  0  0  0  0  0999 V2000
   14.6990    0.5980   -8.4520 O   0  0  0  0  0
   14.6870    1.2550   -7.4130 C   0  0  0  0  0
   15.7980    2.0230   -7.0480 C   0  0  0  0  0
   15.7660    2.4950   -5.6410 N   0  0  0  0  0
   14.5680    2.5590   -4.9240 C   0  0  0  0  0
   14.5080    3.2420   -3.7170 C   0  0  0  0  0
   13.3050    3.2910   -3.0320 C   0  0  0  0  0
   13.1970    4.2100   -1.3930 Br  0  0  0  0  0
   12.1760    2.6640   -3.5470 C   0  0  0  0  0
   12.2380    1.9840   -4.7530 C   0  0  0  0  0
   13.4370    1.9410   -5.4420 C   0  0  0  0  0
   13.5260    1.2480   -6.6510 N   0  0  0  0  0
   15.8056    2.9064   -7.6865 H   0  0  0  0  0
   16.6794    1.3913   -7.1583 H   0  0  0  0  0
   16.6353    2.7781   -5.1886 H   0  0  0  0  0
   15.3942    3.7324   -3.3143 H   0  0  0  0  0
   11.2352    2.7076   -2.9982 H   0  0  0  0  0
   11.3532    1.4893   -5.1537 H   0  0  0  0  0
   12.7171    0.7229   -6.9832 H   0  0  0  0  0
  1  2  2  0  0  0
  2  3  1  0  0  0
  2 12  1  0  0  0
  3  4  1  0  0  0
  4  5  1  0  0  0
  5  6  4  0  0  0
  5 11  4  0  0  0
  6  7  4  0  0  0
  7  8  1  0  0  0
  7  9  4  0  0  0
  9 10  4  0  0  0
 10 11  4  0  0  0
 11 12  1  0  0  0
  3 13  1  0  0  0
  3 14  1  0  0  0
  4 15  1  0  0  0
  6 16  1  0  0  0
  9 17  1  0  0  0
 10 18  1  0  0  0
 12 19  1  0  0  0
M  END
$$$$
