6hkj_ligand
  -I-interpret- 

 51 51  0  0  0  0  0  0  0  0999 V2000
   13.8700   49.1660   40.7150 O   0  0  0  0  0
   13.9440   47.9180   40.4530 C   0  0  0  0  0
   13.1700   47.2850   39.6600 O   0  0  0  0  0
   15.1300   47.1810   41.1010 C   0  0  0  0  0
   14.8590   45.6880   41.2680 C   0  0  0  0  0
   16.1820   44.8980   41.6150 C   0  0  0  0  0
   17.1900   45.0370   40.4250 C   0  0  0  0  0
   17.0790   44.2430   39.4360 O   0  0  0  0  0
   18.0500   45.9680   40.5380 O   0  0  0  0  0
   16.9020   45.4250   42.7510 N   0  0  0  0  0
   18.1310   44.9760   43.1380 C   0  0  0  0  0
   18.5750   43.8890   42.7360 O   0  0  0  0  0
   18.7980   45.7720   44.0270 N   0  0  0  0  0
   20.1170   45.4310   44.6100 C   0  0  0  0  0
   20.3130   46.1320   45.9570 C   0  0  0  0  0
   19.8640   47.3130   46.0700 O   0  0  0  0  0
   20.9970   45.5120   46.8180 O   0  0  0  0  0
   21.1830   45.9200   43.5720 C   0  0  0  0  0
   22.4990   45.3650   44.0510 C   0  0  0  0  0
   23.5870   45.3400   42.9360 C   0  0  0  0  0
   24.1250   46.7420   42.6120 C   0  0  0  0  0
   24.2460   47.5130   43.5390 O   0  0  0  0  0
   24.6120   46.9820   41.3650 N   0  0  0  0  0
   25.0640   48.2040   40.9860 C   0  0  0  0  0
   25.7220   48.3320   39.7550 C   0  0  0  0  0
   26.1590   49.5830   39.3110 C   0  0  0  0  0
   25.9110   50.7420   40.0870 C   0  0  0  0  0
   26.3380   52.0810   39.6320 F   0  0  0  0  0
   25.2540   50.6520   41.2720 N   0  0  0  0  0
   24.8130   49.3870   41.7260 C   0  0  0  0  0
   14.5609   49.4025   41.3381 H   0  0  0  0  0
   15.2956   47.6084   42.0899 H   0  0  0  0  0
   15.9977   47.2978   40.4517 H   0  0  0  0  0
   14.4606   45.3013   40.3300 H   0  0  0  0  0
   14.1509   45.5539   42.0858 H   0  0  0  0  0
   15.8564   43.8785   41.8216 H   0  0  0  0  0
   16.3540   43.6343   39.5955 H   0  0  0  0  0
   16.4686   46.1727   43.2928 H   0  0  0  0  0
   18.3626   46.6515   44.3051 H   0  0  0  0  0
   20.2041   44.3610   44.7987 H   0  0  0  0  0
   19.3776   47.5465   45.2760 H   0  0  0  0  0
   21.2084   47.0079   43.5094 H   0  0  0  0  0
   20.9472   45.5740   42.5656 H   0  0  0  0  0
   22.3297   44.3380   44.3746 H   0  0  0  0  0
   22.8594   46.0079   44.8540 H   0  0  0  0  0
   23.1337   44.9351   42.0312 H   0  0  0  0  0
   24.4197   44.7327   43.2907 H   0  0  0  0  0
   24.6384   46.2167   40.6912 H   0  0  0  0  0
   25.8942   47.4491   39.1394 H   0  0  0  0  0
   26.6926   49.6673   38.3643 H   0  0  0  0  0
   24.2672   49.3201   42.6671 H   0  0  0  0  0
  1  2  1  0  0  0
  2  3  2  0  0  0
  2  4  1  0  0  0
  4  5  1  0  0  0
  5  6  1  0  0  0
  6  7  1  0  0  0
  6 10  1  0  0  0
  7  8  1  0  0  0
  7  9  2  0  0  0
 10 11  1  0  0  0
 11 12  2  0  0  0
 11 13  1  0  0  0
 13 14  1  0  0  0
 14 15  1  0  0  0
 14 18  1  0  0  0
 15 16  1  0  0  0
 15 17  2  0  0  0
 18 19  1  0  0  0
 19 20  1  0  0  0
 20 21  1  0  0  0
 21 22  2  0  0  0
 21 23  1  0  0  0
 23 24  1  0  0  0
 24 25  4  0  0  0
 24 30  4  0  0  0
 25 26  4  0  0  0
 26 27  4  0  0  0
 27 28  1  0  0  0
 27 29  4  0  0  0
 29 30  4  0  0  0
  1 31  1  0  0  0
  4 32  1  0  0  0
  4 33  1  0  0  0
  5 34  1  0  0  0
  5 35  1  0  0  0
  6 36  1  0  0  0
  8 37  1  0  0  0
 10 38  1  0  0  0
 13 39  1  0  0  0
 14 40  1  0  0  0
 16 41  1  0  0  0
 18 42  1  0  0  0
 18 43  1  0  0  0
 19 44  1  0  0  0
 19 45  1  0  0  0
 20 46  1  0  0  0
 20 47  1  0  0  0
 23 48  1  0  0  0
 25 49  1  0  0  0
 26 50  1  0  0  0
 30 51  1  0  0  0
M  END
$$$$
