4trz_ligand
  -I-interpret- 

 95 96  0  0  0  0  0  0  0  0999 V2000
   24.0890    9.6680   21.9410 N   0  3  0  0  0
   24.9000    8.4760   21.7200 C   0  0  0  0  0
   26.1690    8.8080   20.9410 C   0  0  0  0  0
   26.4870    9.9780   20.7240 O   0  0  0  0  0
   24.0920    7.4090   20.9790 C   0  0  0  0  0
   22.8430    6.9540   21.7160 C   0  0  0  0  0
   22.0680    5.8980   20.9520 C   0  0  0  0  0
   22.5100    5.5170   19.8460 O   0  0  0  0  0
   21.0180    5.4480   21.4560 O   0  0  0  0  0
   26.9590    7.8280   20.5430 N   0  0  0  0  0
   27.9360    8.1040   19.4900 C   0  0  0  0  0
   27.8790    6.9840   18.4840 C   0  0  0  0  0
   27.8000    5.8230   18.8890 O   0  0  0  0  0
   29.3640    8.2090   20.0550 C   0  0  0  0  0
   29.7150    6.9530   20.8530 C   0  0  0  0  0
   29.5040    9.4530   20.9200 C   0  0  0  0  0
   30.9500    7.1030   21.7160 C   0  0  0  0  0
   27.9130    7.2620   17.1830 N   0  0  0  0  0
   27.7590    6.0750   16.3550 C   0  0  0  0  0
   28.9690    5.6420   15.5970 C   0  0  0  0  0
   29.2020    4.4300   15.4310 O   0  0  0  0  0
   26.5620    6.2580   15.4600 C   0  0  0  0  0
   25.2570    6.1240   16.2070 C   0  0  0  0  0
   24.6210    6.7810   17.2160 C   0  0  0  0  0
   23.3920    6.2510   17.5170 C   0  0  0  0  0
   23.0100    5.1620   16.7940 C   0  0  0  0  0
   24.2780    4.8610   15.7020 S   0  0  0  0  0
   32.4420    6.8900   15.4940 C   0  0  0  0  0
   31.9550    8.2450   15.9510 C   0  0  0  0  0
   30.7640    8.7220   16.4820 C   0  0  0  0  0
   30.8000   10.0990   16.7530 C   0  0  0  0  0
   30.0840    6.2460   15.6520 N   0  0  0  0  0
   31.2990    6.1390   14.8220 C   0  0  0  0  0
   33.0740    9.5500   15.8150 S   0  0  0  0  0
   31.9980   10.7490   16.4520 C   0  0  0  0  0
   31.6510    4.6710   14.6240 C   0  0  0  0  0
   33.0590    4.5450   14.3880 O   0  0  0  0  0
   30.8860    4.0780   13.4500 C   0  0  0  0  0
   31.0710    3.3550   12.2250 N   0  3  0  0  0
   30.7550    2.2190   11.3820 C   0  0  0  0  0
   31.8750    2.0120   10.3690 C   0  0  0  0  0
   32.1410    3.2870    9.5800 C   0  0  0  0  0
   33.6000    3.6830    9.6610 C   0  0  0  0  0
   30.6120    0.9900   12.2290 C   0  0  0  0  0
   29.4770    0.4840   12.3590 O   0  0  0  0  0
   31.6330    0.5180   12.7730 O   0  0  0  0  0
   24.6427   10.3676   22.4353 H   0  0  0  0  0
   23.7876   10.0442   21.0421 H   0  0  0  0  0
   23.2715    9.4228   22.4996 H   0  0  0  0  0
   25.1918    8.0859   22.6951 H   0  0  0  0  0
   24.7360    6.5368   20.8665 H   0  0  0  0  0
   23.7680    7.8473   20.0350 H   0  0  0  0  0
   22.1939    7.8204   21.8431 H   0  0  0  0  0
   23.1535    6.5204   22.6666 H   0  0  0  0  0
   23.3228    5.9880   19.6480 H   0  0  0  0  0
   26.8897    6.8998   20.9602 H   0  0  0  0  0
   27.6906    9.0595   19.0264 H   0  0  0  0  0
   30.0620    8.2921   19.2220 H   0  0  0  0  0
   29.9144    6.1570   20.1355 H   0  0  0  0  0
   28.8768    6.7455   21.5181 H   0  0  0  0  0
   29.2943   10.3376   20.3187 H   0  0  0  0  0
   28.7976    9.3994   21.7484 H   0  0  0  0  0
   30.5201    9.5100   21.3104 H   0  0  0  0  0
   31.8071    7.3359   21.0842 H   0  0  0  0  0
   30.7952    7.9098   22.4324 H   0  0  0  0  0
   31.1336    6.1709   22.2505 H   0  0  0  0  0
   28.0336    8.2027   16.8077 H   0  0  0  0  0
   27.6023    5.2428   17.0413 H   0  0  0  0  0
   26.5926    5.4830   14.6942 H   0  0  0  0  0
   26.6071    7.2622   15.0386 H   0  0  0  0  0
   25.0458    7.6417   17.7327 H   0  0  0  0  0
   22.7561    6.6781   18.2924 H   0  0  0  0  0
   22.0821    4.5990   16.8947 H   0  0  0  0  0
   32.7938    6.3213   16.3547 H   0  0  0  0  0
   33.2592    7.0182   14.7842 H   0  0  0  0  0
   29.8931    8.0937   16.6687 H   0  0  0  0  0
   29.9446   10.6283   17.1729 H   0  0  0  0  0
   30.1524    6.9289   16.4066 H   0  0  0  0  0
   31.1223    6.5857   13.8436 H   0  0  0  0  0
   32.2150   11.8081   16.5911 H   0  0  0  0  0
   31.3729    4.1264   15.5263 H   0  0  0  0  0
   33.2798    3.6191   14.2633 H   0  0  0  0  0
   30.6361    5.0309   12.9835 H   0  0  0  0  0
   30.4473    3.2497   14.0063 H   0  0  0  0  0
   31.9825    2.9876   12.4980 H   0  0  0  0  0
   30.5134    4.0077   11.6741 H   0  0  0  0  0
   29.8189    2.4065   10.8559 H   0  0  0  0  0
   31.5769    1.2269    9.6741 H   0  0  0  0  0
   32.7837    1.7364   10.9043 H   0  0  0  0  0
   31.5373    4.0907   10.0016 H   0  0  0  0  0
   31.8847    3.1108    8.5353 H   0  0  0  0  0
   33.8715    3.8536   10.7028 H   0  0  0  0  0
   34.2157    2.8829    9.2501 H   0  0  0  0  0
   33.7595    4.5966    9.0883 H   0  0  0  0  0
   32.3941    1.0563   12.5440 H   0  0  0  0  0
  2  1  1  0  0  0
  3  2  1  0  0  0
  2  5  1  0  0  0
  3  4  2  0  0  0
 10  3  1  0  0  0
  5  6  1  0  0  0
  6  7  1  0  0  0
  7  8  1  0  0  0
  7  9  2  0  0  0
 11 10  1  0  0  0
 12 11  1  0  0  0
 11 14  1  0  0  0
 12 13  2  0  0  0
 18 12  1  0  0  0
 14 15  1  0  0  0
 14 16  1  0  0  0
 15 17  1  0  0  0
 19 18  1  0  0  0
 20 19  1  0  0  0
 19 22  1  0  0  0
 20 21  2  0  0  0
 32 20  1  0  0  0
 22 23  1  0  0  0
 23 24  4  0  0  0
 23 27  4  0  0  0
 24 25  4  0  0  0
 26 25  4  0  0  0
 27 26  4  0  0  0
 28 29  1  0  0  0
 33 28  1  0  0  0
 29 30  4  0  0  0
 29 34  4  0  0  0
 30 31  4  0  0  0
 31 35  4  0  0  0
 32 33  1  0  0  0
 33 36  1  0  0  0
 34 35  4  0  0  0
 36 37  1  0  0  0
 36 38  1  0  0  0
 38 39  1  0  0  0
 39 40  1  0  0  0
 40 41  1  0  0  0
 40 44  1  0  0  0
 41 42  1  0  0  0
 42 43  1  0  0  0
 44 45  2  0  0  0
 44 46  1  0  0  0
  1 47  1  0  0  0
  1 48  1  0  0  0
  1 49  1  0  0  0
  2 50  1  0  0  0
  5 51  1  0  0  0
  5 52  1  0  0  0
  6 53  1  0  0  0
  6 54  1  0  0  0
  8 55  1  0  0  0
 10 56  1  0  0  0
 11 57  1  0  0  0
 14 58  1  0  0  0
 15 59  1  0  0  0
 15 60  1  0  0  0
 16 61  1  0  0  0
 16 62  1  0  0  0
 16 63  1  0  0  0
 17 64  1  0  0  0
 17 65  1  0  0  0
 17 66  1  0  0  0
 18 67  1  0  0  0
 19 68  1  0  0  0
 22 69  1  0  0  0
 22 70  1  0  0  0
 24 71  1  0  0  0
 25 72  1  0  0  0
 26 73  1  0  0  0
 28 74  1  0  0  0
 28 75  1  0  0  0
 30 76  1  0  0  0
 31 77  1  0  0  0
 32 78  1  0  0  0
 33 79  1  0  0  0
 35 80  1  0  0  0
 36 81  1  0  0  0
 37 82  1  0  0  0
 38 83  1  0  0  0
 38 84  1  0  0  0
 39 85  1  0  0  0
 39 86  1  0  0  0
 40 87  1  0  0  0
 41 88  1  0  0  0
 41 89  1  0  0  0
 42 90  1  0  0  0
 42 91  1  0  0  0
 43 92  1  0  0  0
 43 93  1  0  0  0
 43 94  1  0  0  0
 46 95  1  0  0  0
M  END
$$$$
