### 
### Created by X-TOOL on Mon Sep 10 21:13:25 2018
### 

@<TRIPOS>MOLECULE
4trz_ligand
   93    94     1     0     0
SMALL
GAST_HUCK


@<TRIPOS>ATOM
      1 N          24.0890    9.6680   21.9410 N.4       1 GLU         0.2380
      2 CA         24.9000    8.4760   21.7200 C.3       1 GLU         0.0665
      3 C          26.1690    8.8080   20.9410 C.2       1 GLU         0.2268
      4 O          26.4870    9.9780   20.7240 O.2       1 GLU        -0.3907
      5 CB         24.0920    7.4090   20.9790 C.3       1 GLU         0.0194
      6 CG         22.8430    6.9540   21.7160 C.3       1 GLU         0.0075
      7 CD         22.0680    5.8980   20.9520 C.2       1 GLU         0.0351
      8 OE1        22.5100    5.5170   19.8460 O.co2     1 GLU        -0.5690
      9 OE2        21.0180    5.4480   21.4560 O.co2     1 GLU        -0.5690
     10 N          26.9590    7.8280   20.5430 N.am      1 ILE        -0.2607
     11 CA         27.9360    8.1040   19.4900 C.3       1 ILE         0.1336
     12 C          27.8790    6.9840   18.4840 C.2       1 ILE         0.2043
     13 O          27.8000    5.8230   18.8890 O.2       1 ILE        -0.3944
     14 CB         29.3640    8.2090   20.0550 C.3       1 ILE        -0.0037
     15 CG1        29.7150    6.9530   20.8530 C.3       1 ILE        -0.0491
     16 CG2        29.5040    9.4530   20.9200 C.3       1 ILE        -0.0582
     17 CD1        30.9500    7.1030   21.7160 C.3       1 ILE        -0.0648
     18 N          27.9130    7.2620   17.1830 N.am      1 TIH        -0.2617
     19 CA         27.7590    6.0750   16.3550 C.3       1 TIH         0.1420
     20 C          28.9690    5.6420   15.5970 C.2       1 TIH         0.2045
     21 O          29.2020    4.4300   15.4310 O.2       1 TIH        -0.3943
     22 CB         26.5620    6.2580   15.4600 C.3       1 TIH         0.0330
     23 CG         25.2570    6.1240   16.2070 C.2       1 TIH         0.0166
     24 CD         24.6210    6.7810   17.2160 C.2       1 TIH        -0.0815
     25 CE1        23.3920    6.2510   17.5170 C.2       1 TIH        -0.0932
     26 CE2        23.0100    5.1620   16.7940 C.2       1 TIH        -0.0196
     27 SD         24.2780    4.8610   15.7020 S.3       1 TIH        -0.0442
     28 C19        32.4420    6.8900   15.4940 C.3       1 TVA         0.0182
     29 C20        31.9550    8.2450   15.9510 C.2       1 TVA         0.0144
     30 C21        30.7640    8.7220   16.4820 C.2       1 TVA        -0.0817
     31 C22        30.8000   10.0990   16.7530 C.2       1 TVA        -0.0932
     32 N4         30.0840    6.2460   15.6520 N.am      1 TVA        -0.2769
     33 C23        31.2990    6.1390   14.8220 C.3       1 TVA         0.0841
     34 S2         33.0740    9.5500   15.8150 S.3       1 TVA        -0.0443
     35 C24        31.9980   10.7490   16.4520 C.2       1 TVA        -0.0196
     36 C25        31.6510    4.6710   14.6240 C.3       1 TVA         0.1195
     37 O6         33.0590    4.5450   14.3880 O.3       1 TVA        -0.3840
     38 C26        30.8860    4.0780   13.4500 C.3       1 TVA        -0.0031
     39 N5         31.0710    3.3550   12.2250 N.4       1 TVA         0.2428
     40 C27        30.7550    2.2190   11.3820 C.3       1 TVA         0.0302
     41 C28        31.8750    2.0120   10.3690 C.3       1 TVA         0.0022
     42 C29        32.1410    3.2870    9.5800 C.3       1 TVA        -0.0492
     43 C30        33.6000    3.6830    9.6610 C.3       1 TVA        -0.0650
     44 C31        30.6120    0.9900   12.2290 C.2       1 TVA         0.0845
     45 O7         29.4770    0.4840   12.3590 O.co2     1 TVA        -0.5643
     46 O8         31.6330    0.5180   12.7730 O.co2     1 TVA        -0.5643
     47 H1         23.2594    9.4191   22.4566 H         1 GLU         0.2015
     48 H2         23.8260   10.0649   21.0526 H         1 GLU         0.2015
     49 H3         24.6211   10.3437   22.4666 H         1 GLU         0.2015
     50 H4         25.1925    8.0724   22.7006 H         1 GLU         0.1099
     51 H5         24.7386    6.5332   20.8216 H         1 GLU         0.0363
     52 H6         23.7880    7.8201   20.0051 H         1 GLU         0.0363
     53 H7         22.1900    7.8250   21.8739 H         1 GLU         0.0434
     54 H8         23.1404    6.5373   22.6896 H         1 GLU         0.0434
     55 H9         26.8910    6.9180   20.9520 H         1 ILE         0.1885
     56 H10        27.6767    9.0534   18.9987 H         1 ILE         0.0803
     57 H11        30.0662    8.2921   19.2124 H         1 ILE         0.0345
     58 H12        29.8846    6.1284   20.1451 H         1 ILE         0.0267
     59 H13        28.8639    6.7072   21.5051 H         1 ILE         0.0267
     60 H14        29.2471   10.3429   20.3267 H         1 ILE         0.0235
     61 H15        30.5412    9.5369   21.2765 H         1 ILE         0.0235
     62 H16        28.8249    9.3785   21.7821 H         1 ILE         0.0235
     63 H17        31.1363    6.1629   22.2560 H         1 ILE         0.0230
     64 H18        30.7951    7.9169   22.4396 H         1 ILE         0.0230
     65 H19        31.8158    7.3380   21.0795 H         1 ILE         0.0230
     66 H20        28.0313    8.1843   16.8151 H         1 TIH         0.1885
     67 H21        27.5262    5.2475   17.0412 H         1 TIH         0.0827
     68 H22        26.5945    5.4964   14.6670 H         1 TIH         0.0500
     69 H23        26.6088    7.2599   15.0084 H         1 TIH         0.0500
     70 H24        25.0454    7.6409   17.7322 H         1 TIH         0.0277
     71 H25        22.7566    6.6777   18.2917 H         1 TIH         0.0371
     72 H26        22.0829    4.5996   16.8946 H         1 TIH         0.0598
     73 H27        32.7971    6.3160   16.3625 H         1 TVA         0.0476
     74 H28        33.2668    7.0193   14.7778 H         1 TVA         0.0476
     75 H29        29.8939    8.0943   16.6685 H         1 TVA         0.0276
     76 H30        29.9454   10.6278   17.1725 H         1 TVA         0.0371
     77 H31        30.1510    6.9155   16.3918 H         1 TVA         0.1858
     78 H32        31.1053    6.5932   13.8391 H         1 TVA         0.0610
     79 H33        32.2148   11.8071   16.5910 H         1 TVA         0.0598
     80 H34        31.3868    4.1164   15.5365 H         1 TVA         0.0672
     81 H35        33.5360    4.8877   15.1347 H         1 TVA         0.2101
     82 H36        30.3484    4.9657   13.0855 H         1 TVA         0.0840
     83 H37        30.1839    3.4145   13.9762 H         1 TVA         0.0840
     84 H38        32.0716    3.2402   12.2658 H         1 TVA         0.2031
     85 H39        30.8436    4.0929   11.5771 H         1 TVA         0.2031
     86 H40        29.8108    2.4088   10.8505 H         1 TVA         0.1025
     87 H41        31.5860    1.2116    9.6720 H         1 TVA         0.0338
     88 H42        32.7923    1.7209   10.9017 H         1 TVA         0.0338
     89 H43        31.5247    4.0997    9.9919 H         1 TVA         0.0266
     90 H44        31.8718    3.1205    8.5265 H         1 TVA         0.0266
     91 H45        33.7623    4.6049    9.0834 H         1 TVA         0.0230
     92 H46        34.2225    2.8763    9.2465 H         1 TVA         0.0230
     93 H47        33.8753    3.8556   10.7119 H         1 TVA         0.0230
@<TRIPOS>BOND
     1    2    1 1  
     2    3    2 1  
     3    2    5 1  
     4    3    4 2  
     5   10    3 am 
     6    5    6 1  
     7    6    7 1  
     8    7    8 ar 
     9    7    9 ar 
    10   11   10 1  
    11   12   11 1  
    12   11   14 1  
    13   12   13 2  
    14   18   12 am 
    15   14   15 1  
    16   14   16 1  
    17   15   17 1  
    18   19   18 1  
    19   20   19 1  
    20   19   22 1  
    21   20   21 2  
    22   32   20 am 
    23   22   23 1  
    24   23   24 2  
    25   23   27 1  
    26   24   25 1  
    27   26   25 2  
    28   27   26 1  
    29   28   29 1  
    30   33   28 1  
    31   29   30 2  
    32   29   34 1  
    33   30   31 1  
    34   31   35 2  
    35   32   33 1  
    36   33   36 1  
    37   34   35 1  
    38   36   37 1  
    39   36   38 1  
    40   38   39 1  
    41   39   40 1  
    42   40   41 1  
    43   40   44 1  
    44   41   42 1  
    45   42   43 1  
    46   44   45 ar 
    47   44   46 ar 
    48    1   47 1  
    49    1   48 1  
    50    1   49 1  
    51    2   50 1  
    52    5   51 1  
    53    5   52 1  
    54    6   53 1  
    55    6   54 1  
    56   10   55 1  
    57   11   56 1  
    58   14   57 1  
    59   15   58 1  
    60   15   59 1  
    61   16   60 1  
    62   16   61 1  
    63   16   62 1  
    64   17   63 1  
    65   17   64 1  
    66   17   65 1  
    67   18   66 1  
    68   19   67 1  
    69   22   68 1  
    70   22   69 1  
    71   24   70 1  
    72   25   71 1  
    73   26   72 1  
    74   28   73 1  
    75   28   74 1  
    76   30   75 1  
    77   31   76 1  
    78   32   77 1  
    79   33   78 1  
    80   35   79 1  
    81   36   80 1  
    82   37   81 1  
    83   38   82 1  
    84   38   83 1  
    85   39   84 1  
    86   39   85 1  
    87   40   86 1  
    88   41   87 1  
    89   41   88 1  
    90   42   89 1  
    91   42   90 1  
    92   43   91 1  
    93   43   92 1  
    94   43   93 1  
@<TRIPOS>SUBSTRUCTURE
     1 GLU         1

