### 
### Created by X-TOOL on Mon Sep 10 21:12:59 2018
### 

@<TRIPOS>MOLECULE
3cf1_ligand
   39    41     1     0     0
SMALL
GAST_HUCK


@<TRIPOS>ATOM
      1 PB         86.2440  121.1250  264.4960 P.3       1 ADP         0.2069
      2 O1B        87.1950  120.7300  263.4410 O.co2     1 ADP        -0.5891
      3 O2B        86.9700  121.1260  265.9160 O.co2     1 ADP        -0.5891
      4 O3B        85.1070  120.1900  264.5230 O.co2     1 ADP        -0.5891
      5 PA         85.7210  123.3580  262.8480 P.3       1 ADP         0.3276
      6 O1A        87.0890  123.6220  262.4480 O.co2     1 ADP        -0.5556
      7 O2A        85.0520  122.6060  261.8070 O.co2     1 ADP        -0.5556
      8 O3A        85.7180  122.5530  264.1730 O.3       1 ADP        -0.1548
      9 O5'        84.9240  124.7010  263.0530 O.3       1 ADP        -0.2436
     10 C5'        84.2840  125.1830  264.2250 C.3       1 ADP         0.1132
     11 C4'        83.6570  126.5390  263.8140 C.3       1 ADP         0.1189
     12 O4'        83.4500  127.2690  265.0100 O.3       1 ADP        -0.3364
     13 C3'        84.5370  127.4340  262.9570 C.3       1 ADP         0.1149
     14 O3'        84.1370  127.3850  261.6000 O.3       1 ADP        -0.3864
     15 C2'        84.4010  128.8130  263.5290 C.3       1 ADP         0.1385
     16 O2'        83.4250  129.5960  262.8550 O.3       1 ADP        -0.3836
     17 C1'        84.1000  128.5460  264.9680 C.3       1 ADP         0.2010
     18 N9         85.3110  128.5040  265.8530 N.pl3     1 ADP        -0.1919
     19 C8         85.7810  127.4180  266.4930 C.2       1 ADP         0.1123
     20 N7         86.8430  127.7330  267.1860 N.2       1 ADP        -0.2958
     21 C5         87.0860  128.9880  267.0240 C.ar      1 ADP         0.1045
     22 C6         88.0460  129.8750  267.4890 C.ar      1 ADP         0.1298
     23 N6         88.9960  129.4510  268.3080 N.pl3     1 ADP        -0.3152
     24 N1         88.0220  131.2000  267.1080 N.ar      1 ADP        -0.2698
     25 C2         87.0680  131.6810  266.2720 C.ar      1 ADP         0.0533
     26 N3         86.1160  130.8190  265.8080 N.ar      1 ADP        -0.2714
     27 C4         86.0960  129.5010  266.1540 C.ar      1 ADP         0.1613
     28 H1         85.0158  125.3253  265.0339 H         1 ADP         0.0648
     29 H2         83.5040  124.4813  264.5554 H         1 ADP         0.0648
     30 H3         82.7071  126.3523  263.2916 H         1 ADP         0.0651
     31 H4         85.5845  127.1059  263.0275 H         1 ADP         0.0648
     32 H5         83.2368  127.6791  261.5256 H         1 ADP         0.2100
     33 H6         85.3610  129.3441  263.4500 H         1 ADP         0.0676
     34 H7         83.3793  130.4563  263.2553 H         1 ADP         0.2101
     35 H8         83.4221  129.3271  265.3425 H         1 ADP         0.0996
     36 H9         85.3412  126.4231  266.4411 H         1 ADP         0.1349
     37 H10        89.7092  130.1088  268.6538 H         1 ADP         0.1820
     38 H11        89.0218  128.4634  268.5993 H         1 ADP         0.1820
     39 H12        87.0616  132.7247  265.9793 H         1 ADP         0.0996
@<TRIPOS>BOND
     1    1    2 ar 
     2    1    3 ar 
     3    1    4 ar 
     4    8    1 1  
     5    5    6 ar 
     6    5    7 ar 
     7    5    8 1  
     8    5    9 1  
     9    9   10 1  
    10   10   11 1  
    11   11   12 1  
    12   11   13 1  
    13   12   17 1  
    14   13   14 1  
    15   13   15 1  
    16   15   16 1  
    17   15   17 1  
    18   17   18 1  
    19   18   19 1  
    20   18   27 1  
    21   19   20 2  
    22   20   21 1  
    23   21   22 ar 
    24   21   27 ar 
    25   22   23 1  
    26   22   24 ar 
    27   24   25 ar 
    28   25   26 ar 
    29   26   27 ar 
    30   10   28 1  
    31   10   29 1  
    32   11   30 1  
    33   13   31 1  
    34   14   32 1  
    35   15   33 1  
    36   16   34 1  
    37   17   35 1  
    38   19   36 1  
    39   23   37 1  
    40   23   38 1  
    41   25   39 1  
@<TRIPOS>SUBSTRUCTURE
     1 ADP         1

