3cf1_ligand
  -I-interpret- 

 42 44  0  0  0  0  0  0  0  0999 V2000
   86.2440  121.1250  264.4960 P   0  0  0  0  0
   87.1950  120.7300  263.4410 O   0  0  0  0  0
   86.9700  121.1260  265.9160 O   0  0  0  0  0
   85.1070  120.1900  264.5230 O   0  0  0  0  0
   85.7210  123.3580  262.8480 P   0  0  0  0  0
   87.0890  123.6220  262.4480 O   0  0  0  0  0
   85.0520  122.6060  261.8070 O   0  0  0  0  0
   85.7180  122.5530  264.1730 O   0  0  0  0  0
   84.9240  124.7010  263.0530 O   0  0  0  0  0
   84.2840  125.1830  264.2250 C   0  0  0  0  0
   83.6570  126.5390  263.8140 C   0  0  0  0  0
   83.4500  127.2690  265.0100 O   0  0  0  0  0
   84.5370  127.4340  262.9570 C   0  0  0  0  0
   84.1370  127.3850  261.6000 O   0  0  0  0  0
   84.4010  128.8130  263.5290 C   0  0  0  0  0
   83.4250  129.5960  262.8550 O   0  0  0  0  0
   84.1000  128.5460  264.9680 C   0  0  0  0  0
   85.3110  128.5040  265.8530 N   0  0  0  0  0
   85.7810  127.4180  266.4930 C   0  0  0  0  0
   86.8430  127.7330  267.1860 N   0  0  0  0  0
   87.0860  128.9880  267.0240 C   0  0  0  0  0
   88.0460  129.8750  267.4890 C   0  0  0  0  0
   88.9960  129.4510  268.3080 N   0  0  0  0  0
   88.0220  131.2000  267.1080 N   0  0  0  0  0
   87.0680  131.6810  266.2720 C   0  0  0  0  0
   86.1160  130.8190  265.8080 N   0  0  0  0  0
   86.0960  129.5010  266.1540 C   0  0  0  0  0
   87.9326  121.3443  263.4303 H   0  0  0  0  0
   87.7106  121.7364  265.8950 H   0  0  0  0  0
   87.5325  124.1206  263.1382 H   0  0  0  0  0
   84.9871  125.2977  265.0500 H   0  0  0  0  0
   83.5306  124.4845  264.5890 H   0  0  0  0  0
   82.7669  126.2955  263.2339 H   0  0  0  0  0
   85.5777  127.1101  262.9714 H   0  0  0  0  0
   84.7057  127.9567  261.0791 H   0  0  0  0  0
   85.2940  129.4263  263.4089 H   0  0  0  0  0
   83.3788  130.4654  263.2595 H   0  0  0  0  0
   83.4870  129.3633  265.3479 H   0  0  0  0  0
   85.3408  126.4222  266.4411 H   0  0  0  0  0
   89.0216  128.4730  268.5965 H   0  0  0  0  0
   89.7023  130.1024  268.6504 H   0  0  0  0  0
   87.0616  132.7305  265.9777 H   0  0  0  0  0
  1  2  1  0  0  0
  1  3  1  0  0  0
  1  4  2  0  0  0
  8  1  1  0  0  0
  5  6  1  0  0  0
  5  7  2  0  0  0
  5  8  1  0  0  0
  5  9  1  0  0  0
  9 10  1  0  0  0
 10 11  1  0  0  0
 11 12  1  0  0  0
 11 13  1  0  0  0
 12 17  1  0  0  0
 13 14  1  0  0  0
 13 15  1  0  0  0
 15 16  1  0  0  0
 15 17  1  0  0  0
 17 18  1  0  0  0
 18 19  4  0  0  0
 18 27  4  0  0  0
 19 20  4  0  0  0
 20 21  4  0  0  0
 21 22  4  0  0  0
 21 27  4  0  0  0
 22 23  1  0  0  0
 22 24  4  0  0  0
 24 25  4  0  0  0
 25 26  4  0  0  0
 26 27  4  0  0  0
  2 28  1  0  0  0
  3 29  1  0  0  0
  6 30  1  0  0  0
 10 31  1  0  0  0
 10 32  1  0  0  0
 11 33  1  0  0  0
 13 34  1  0  0  0
 14 35  1  0  0  0
 15 36  1  0  0  0
 16 37  1  0  0  0
 17 38  1  0  0  0
 19 39  1  0  0  0
 23 40  1  0  0  0
 23 41  1  0  0  0
 25 42  1  0  0  0
M  END
$$$$
