2qe2_ligand
  -I-interpret- 

 39 40  0  0  0  0  0  0  0  0999 V2000
  -21.4520   -1.9140   11.4110 C   0  0  0  0  0
  -20.0180   -1.7770   10.9480 C   0  0  0  0  0
  -19.3240   -0.7910   11.3020 O   0  0  0  0  0
  -19.4170   -2.8700   10.0660 C   0  0  0  0  0
  -20.2920   -3.8840    9.5080 C   0  0  0  0  0
  -19.7590   -4.9380    8.6800 C   0  0  0  0  0
  -18.3590   -4.9810    8.4010 C   0  0  0  0  0
  -17.5190   -3.9830    8.9350 C   0  0  0  0  0
  -17.9970   -2.8980    9.7800 C   0  0  0  0  0
  -17.1370   -1.8910   10.3240 N   0  0  0  0  0
  -15.6860   -1.7200   10.1180 C   0  0  0  0  0
  -14.8480   -2.6840   10.9710 C   0  0  0  0  0
  -13.6350   -2.6810   10.8640 O   0  0  0  0  0
  -15.6210   -3.4730   11.8330 N   0  0  0  0  0
  -15.2180   -4.5090   12.7690 C   0  0  0  0  0
  -13.9460   -5.1950   12.6800 C   0  0  0  0  0
  -13.5770   -6.2010   13.5970 C   0  0  0  0  0
  -14.4540   -6.5730   14.6300 C   0  0  0  0  0
  -15.7120   -5.9430   14.7540 C   0  0  0  0  0
  -16.1300   -4.9100   13.8420 C   0  0  0  0  0
  -17.5100   -4.3020   14.0580 C   0  0  0  0  0
  -18.1400   -4.6540   15.1100 O   0  0  0  0  0
  -17.9400   -3.4950   13.1760 O   0  0  0  0  0
  -17.6590   -6.2270    7.4400 Cl  0  0  0  0  0
  -20.6130   -5.8790    8.1670 F   0  0  0  0  0
  -21.4784   -1.9566   12.4998 H   0  0  0  0  0
  -22.0276   -1.0552   11.0657 H   0  0  0  0  0
  -21.8794   -2.8285   10.9998 H   0  0  0  0  0
  -21.3613   -3.8490    9.7163 H   0  0  0  0  0
  -16.4548   -4.0258    8.7030 H   0  0  0  0  0
  -17.5843   -1.2043   10.9313 H   0  0  0  0  0
  -15.4245   -0.7025   10.4087 H   0  0  0  0  0
  -15.4703   -1.9270    9.0698 H   0  0  0  0  0
  -16.6242   -3.2918   11.7981 H   0  0  0  0  0
  -13.2541   -4.9263   11.8818 H   0  0  0  0  0
  -12.6081   -6.6917   13.5041 H   0  0  0  0  0
  -14.1627   -7.3496   15.3372 H   0  0  0  0  0
  -16.3820   -6.2458   15.5587 H   0  0  0  0  0
  -17.6022   -5.2703   15.6126 H   0  0  0  0  0
  1  2  1  0  0  0
  2  3  2  0  0  0
  2  4  1  0  0  0
  4  5  4  0  0  0
  4  9  4  0  0  0
  5  6  4  0  0  0
  6  7  4  0  0  0
  6 25  1  0  0  0
  7  8  4  0  0  0
  7 24  1  0  0  0
  8  9  4  0  0  0
  9 10  1  0  0  0
 10 11  1  0  0  0
 11 12  1  0  0  0
 12 13  2  0  0  0
 12 14  1  0  0  0
 14 15  1  0  0  0
 15 16  4  0  0  0
 15 20  4  0  0  0
 16 17  4  0  0  0
 17 18  4  0  0  0
 18 19  4  0  0  0
 19 20  4  0  0  0
 20 21  1  0  0  0
 21 22  1  0  0  0
 21 23  2  0  0  0
  1 26  1  0  0  0
  1 27  1  0  0  0
  1 28  1  0  0  0
  5 29  1  0  0  0
  8 30  1  0  0  0
 10 31  1  0  0  0
 11 32  1  0  0  0
 11 33  1  0  0  0
 14 34  1  0  0  0
 16 35  1  0  0  0
 17 36  1  0  0  0
 18 37  1  0  0  0
 19 38  1  0  0  0
 22 39  1  0  0  0
M  END
$$$$
