3fjg_ligand
  -I-interpret- 

 18 17  0  0  0  0  0  0  0  0999 V2000
   -9.6890    8.6110   12.9780 C   0  0  0  0  0
  -10.7370    8.0590   13.3780 O   0  0  0  0  0
   -9.5990    9.1720   11.8630 O   0  0  0  0  0
   -8.4870    8.5990   13.8780 C   0  0  0  0  0
   -7.6090    9.6730   13.5240 O   0  0  0  0  0
   -7.7400    7.2820   13.7220 C   0  0  0  0  0
   -6.7330    7.2120   14.7300 O   0  0  0  0  0
   -5.3330    6.4580   14.4690 P   0  0  0  0  0
   -4.5940    6.6590   15.7680 O   0  0  0  0  0
   -5.7250    5.0280   14.1930 O   0  0  0  0  0
   -4.7350    7.1750   13.2830 O   0  0  0  0  0
   -8.7141    9.5285   11.7559 H   0  0  0  0  0
   -8.8172    8.7155   14.9102 H   0  0  0  0  0
   -8.0723   10.5083   13.6196 H   0  0  0  0  0
   -7.2826    7.2279   12.7341 H   0  0  0  0  0
   -8.4319    6.4465   13.8280 H   0  0  0  0  0
   -6.1885    4.9807   13.3536 H   0  0  0  0  0
   -5.2632    6.9948   12.5019 H   0  0  0  0  0
  1  2  2  0  0  0
  1  3  1  0  0  0
  1  4  1  0  0  0
  4  5  1  0  0  0
  4  6  1  0  0  0
  6  7  1  0  0  0
  7  8  1  0  0  0
  8  9  2  0  0  0
  8 10  1  0  0  0
  8 11  1  0  0  0
  3 12  1  0  0  0
  4 13  1  0  0  0
  5 14  1  0  0  0
  6 15  1  0  0  0
  6 16  1  0  0  0
 10 17  1  0  0  0
 11 18  1  0  0  0
M  END
$$$$
