2ha0_ligand
  -I-interpret- 

 30 29  0  0  0  0  0  0  0  0999 V2000
   26.8280   19.2820   14.8480 N   0  3  0  0  0
   27.5840   18.6770   13.7260 C   0  0  0  0  0
   27.6420   17.1440   13.6630 C   0  0  0  0  0
   28.8620   15.2690   12.3190 C   0  0  0  0  0
   29.5670   14.9070   13.4990 O   0  0  0  0  0
   29.7540   14.9890   11.1030 C   0  0  0  0  0
   26.9340   20.7490   14.6940 C   0  0  0  0  0
   27.4140   18.9470   16.1360 C   0  0  0  0  0
   25.4030   18.8860   14.8240 C   0  0  0  0  0
   28.3850   16.7400   12.3830 C   0  0  0  0  0
   28.6152   19.0067   13.8528 H   0  0  0  0  0
   27.0677   18.9906   12.8187 H   0  0  0  0  0
   26.6327   16.7325   13.6542 H   0  0  0  0  0
   28.1646   16.7542   14.5365 H   0  0  0  0  0
   27.9585   14.6663   12.2265 H   0  0  0  0  0
   29.8507   13.9923   13.4330 H   0  0  0  0  0
   29.1980   15.2006   10.1897 H   0  0  0  0  0
   30.6375   15.6258   11.1478 H   0  0  0  0  0
   30.0582   13.9423   11.1104 H   0  0  0  0  0
   26.3922   21.2381   15.5035 H   0  0  0  0  0
   27.9834   21.0418   14.7285 H   0  0  0  0  0
   26.5043   21.0446   13.7369 H   0  0  0  0  0
   28.4572   19.2624   16.1522 H   0  0  0  0  0
   26.8660   19.4588   16.9272 H   0  0  0  0  0
   27.3564   17.8696   16.2907 H   0  0  0  0  0
   24.8769   19.3771   15.6426 H   0  0  0  0  0
   24.9600   19.1854   13.8742 H   0  0  0  0  0
   25.3258   17.8047   14.9376 H   0  0  0  0  0
   29.2822   17.3574   12.3393 H   0  0  0  0  0
   27.6797   16.8715   11.5624 H   0  0  0  0  0
  2  1  1  0  0  0
  1  7  1  0  0  0
  1  8  1  0  0  0
  1  9  1  0  0  0
  3  2  1  0  0  0
 10  3  1  0  0  0
  4  5  1  0  0  0
  4  6  1  0  0  0
  4 10  1  0  0  0
  2 11  1  0  0  0
  2 12  1  0  0  0
  3 13  1  0  0  0
  3 14  1  0  0  0
  4 15  1  0  0  0
  5 16  1  0  0  0
  6 17  1  0  0  0
  6 18  1  0  0  0
  6 19  1  0  0  0
  7 20  1  0  0  0
  7 21  1  0  0  0
  7 22  1  0  0  0
  8 23  1  0  0  0
  8 24  1  0  0  0
  8 25  1  0  0  0
  9 26  1  0  0  0
  9 27  1  0  0  0
  9 28  1  0  0  0
 10 29  1  0  0  0
 10 30  1  0  0  0
M  END
$$$$
