5tza_ligand
  -I-interpret- 

 49 53  0  0  0  0  0  0  0  0999 V2000
    8.5440    5.8970    8.7990 C   0  0  0  0  0
   10.3740    6.8310    9.2520 C   0  0  0  0  0
    9.8850    5.6490    5.3420 C   0  0  0  0  0
   10.8490    7.1670    3.7650 N   0  0  0  0  0
    9.8690    7.0740    4.8140 C   0  0  0  0  0
   10.6890    4.7770    3.1490 C   0  0  0  0  0
   12.6350    9.6870    6.9540 C   0  0  0  0  0
   12.5000   11.0180    6.6250 C   0  0  0  0  0
   12.1390   11.3880    5.3480 C   0  0  0  0  0
    5.5330    4.2490    7.5780 C   0  0  0  0  0
   13.2130   10.2960    9.1940 C   0  0  0  0  0
   12.7210   11.9800    7.5900 C   0  0  0  0  0
   13.0790   11.6270    8.8710 C   0  0  0  0  0
   12.9890    9.3360    8.2350 C   0  0  0  0  0
   11.9160   10.4430    4.3760 C   0  0  0  0  0
   12.4060    8.7260    5.9910 C   0  0  0  0  0
   12.0490    9.1150    4.7200 C   0  0  0  0  0
    7.6800    4.9300    6.3850 C   0  0  0  0  0
    8.8980    5.4930    6.4650 C   0  0  0  0  0
    6.8970    4.8760    7.6340 C   0  0  0  0  0
   11.8120    8.1470    3.6360 C   0  0  0  0  0
    9.6640    4.6260    4.2390 C   0  0  0  0  0
   10.7250    6.2170    2.6790 C   0  0  0  0  0
    9.1930    6.4380    9.8120 N   0  0  0  0  0
   10.4900    6.5650    7.9500 N   0  0  0  0  0
    7.3180    5.3380    8.7690 N   0  0  0  0  0
    9.3130    5.9740    7.6750 N   0  0  0  0  0
   12.5410    8.2740    2.6580 O   0  0  0  0  0
   11.1606    7.3235    9.8237 H   0  0  0  0  0
   10.8800    5.4517    5.7410 H   0  0  0  0  0
   10.1041    7.7760    5.6140 H   0  0  0  0  0
    8.8798    7.3236    4.4301 H   0  0  0  0  0
   10.4252    4.1300    2.3124 H   0  0  0  0  0
   11.6698    4.4975    3.5337 H   0  0  0  0  0
   12.0288   12.4449    5.1055 H   0  0  0  0  0
    4.9101    4.7996    6.8731 H   0  0  0  0  0
    5.6239    3.2129    7.2520 H   0  0  0  0  0
    5.0788    4.2812    8.5683 H   0  0  0  0  0
   13.4954   10.0039   10.2054 H   0  0  0  0  0
   12.6104   13.0337    7.3338 H   0  0  0  0  0
   13.2550   12.3954    9.6238 H   0  0  0  0  0
   13.0936    8.2825    8.4943 H   0  0  0  0  0
   11.6419   10.7350    3.3623 H   0  0  0  0  0
   12.5069    7.6684    6.2345 H   0  0  0  0  0
    7.2914    4.5342    5.4467 H   0  0  0  0  0
    8.6737    4.7821    3.8112 H   0  0  0  0  0
    9.7530    3.6271    4.6661 H   0  0  0  0  0
   11.5975    6.3335    2.0362 H   0  0  0  0  0
    9.7850    6.4213    2.1663 H   0  0  0  0  0
  1 24  4  0  0  0
  1 26  4  0  0  0
 27  1  4  0  0  0
 24  2  4  0  0  0
  2 25  4  0  0  0
  3  5  1  0  0  0
 19  3  1  0  0  0
  3 22  1  0  0  0
  5  4  1  0  0  0
  4 21  1  0  0  0
  4 23  1  0  0  0
 22  6  1  0  0  0
  6 23  1  0  0  0
  7  8  4  0  0  0
  7 14  4  0  0  0
 16  7  4  0  0  0
  9  8  4  0  0  0
  8 12  4  0  0  0
 15  9  4  0  0  0
 20 10  1  0  0  0
 11 13  4  0  0  0
 14 11  4  0  0  0
 12 13  4  0  0  0
 17 15  4  0  0  0
 17 16  4  0  0  0
 21 17  1  0  0  0
 19 18  4  0  0  0
 18 20  4  0  0  0
 19 27  4  0  0  0
 20 26  4  0  0  0
 21 28  2  0  0  0
 25 27  4  0  0  0
  2 29  1  0  0  0
  3 30  1  0  0  0
  5 31  1  0  0  0
  5 32  1  0  0  0
  6 33  1  0  0  0
  6 34  1  0  0  0
  9 35  1  0  0  0
 10 36  1  0  0  0
 10 37  1  0  0  0
 10 38  1  0  0  0
 11 39  1  0  0  0
 12 40  1  0  0  0
 13 41  1  0  0  0
 14 42  1  0  0  0
 15 43  1  0  0  0
 16 44  1  0  0  0
 18 45  1  0  0  0
 22 46  1  0  0  0
 22 47  1  0  0  0
 23 48  1  0  0  0
 23 49  1  0  0  0
M  END
$$$$
