4m5i_ligand
  -I-interpret- 

 34 36  0  0  0  0  0  0  0  0999 V2000
   55.4230    6.6660   33.4580 O   0  0  0  0  0
   54.9500    7.6420   32.6410 C   0  0  0  0  0
   53.9080    7.4080   31.8400 N   0  0  0  0  0
   53.4090    8.3400   31.0100 C   0  0  0  0  0
   52.3170    7.9840   30.2080 N   0  0  0  0  0
   53.8930    9.5660   30.9200 N   0  0  0  0  0
   54.9460    9.8640   31.7260 C   0  0  0  0  0
   55.5020    8.9360   32.5990 C   0  0  0  0  0
   56.5400    9.5470   33.2620 N   0  0  0  0  0
   55.6340   11.0230   31.8660 N   0  0  0  0  0
   56.5810   10.7980   32.7830 C   0  0  0  0  0
   57.6620   12.0380   33.3290 S   0  0  0  0  0
   56.7280   12.6700   34.7110 C   0  0  0  0  0
   55.2270   12.7230   34.6430 C   0  0  0  0  0
   54.5800   11.6940   34.7640 O   0  0  0  0  0
   54.4770   14.0090   34.4500 C   0  0  0  0  0
   53.1150   14.0200   34.7230 C   0  0  0  0  0
   52.3710   15.1790   34.5660 C   0  0  0  0  0
   52.9870   16.3400   34.1270 C   0  0  0  0  0
   52.1820   17.5840   33.9570 C   0  0  0  0  0
   54.3490   16.3340   33.8480 C   0  0  0  0  0
   55.0970   15.1720   34.0090 C   0  0  0  0  0
   53.4733    6.4854   31.8586 H   0  0  0  0  0
   51.9097    8.6666   29.5688 H   0  0  0  0  0
   51.9292    7.0422   30.2632 H   0  0  0  0  0
   57.0340   13.7130   34.7924 H   0  0  0  0  0
   56.9395   11.9748   35.5234 H   0  0  0  0  0
   52.6261   13.1075   35.0643 H   0  0  0  0  0
   51.3037   15.1771   34.7874 H   0  0  0  0  0
   51.3926   17.4074   33.2264 H   0  0  0  0  0
   51.7384   17.8617   34.9132 H   0  0  0  0  0
   52.8287   18.3888   33.6076 H   0  0  0  0  0
   54.8342   17.2461   33.5007 H   0  0  0  0  0
   56.1648   15.1738   33.7902 H   0  0  0  0  0
  1  2  2  0  0  0
  2  3  1  0  0  0
  2  8  1  0  0  0
  3  4  1  0  0  0
  4  5  1  0  0  0
  4  6  2  0  0  0
  6  7  1  0  0  0
  7  8  4  0  0  0
  7 10  4  0  0  0
  8  9  4  0  0  0
  9 11  4  0  0  0
 10 11  4  0  0  0
 11 12  1  0  0  0
 12 13  1  0  0  0
 13 14  1  0  0  0
 14 15  2  0  0  0
 14 16  1  0  0  0
 16 17  4  0  0  0
 16 22  4  0  0  0
 17 18  4  0  0  0
 18 19  4  0  0  0
 19 20  1  0  0  0
 19 21  4  0  0  0
 21 22  4  0  0  0
  3 23  1  0  0  0
  5 24  1  0  0  0
  5 25  1  0  0  0
 13 26  1  0  0  0
 13 27  1  0  0  0
 17 28  1  0  0  0
 18 29  1  0  0  0
 20 30  1  0  0  0
 20 31  1  0  0  0
 20 32  1  0  0  0
 21 33  1  0  0  0
 22 34  1  0  0  0
M  END
$$$$
