2bak_ligand
  -I-interpret- 

 81 86  0  0  0  0  0  0  0  0999 V2000
   -3.9910   -1.7880   26.9670 C   0  0  0  0  0
   -3.8760   -0.5170   26.3300 O   0  0  0  0  0
   -3.9240   -0.4240   24.9350 C   0  0  0  0  0
   -3.8950   -1.4880   24.0170 C   0  0  0  0  0
   -3.9490   -1.2820   22.6480 C   0  0  0  0  0
   -3.9180   -2.3630   21.8790 N   0  0  0  0  0
   -3.9760   -2.1700   20.5700 C   0  0  0  0  0
   -4.0660   -0.9810   19.9650 N   0  0  0  0  0
   -4.0760    0.1020   20.7500 C   0  0  0  0  0
   -4.1350    1.3720   20.1410 N   0  0  0  0  0
   -4.4030    1.6230   18.7890 C   0  0  0  0  0
   -3.4230    2.2170   17.9790 C   0  0  0  0  0
   -3.7160    2.5190   16.6400 C   0  0  0  0  0
   -2.7210    3.1140   15.8370 N   0  0  0  0  0
   -1.3610    2.8650   15.9100 C   0  0  0  0  0
   -0.8250    2.0720   16.7100 O   0  0  0  0  0
   -0.4980    3.5800   14.8970 C   0  0  0  0  0
   -0.7710    4.8250   14.2880 C   0  0  0  0  0
    0.1480    5.2990   13.3450 C   0  0  0  0  0
    1.2830    4.6040   12.9770 N   0  0  0  0  0
    1.5260    3.4010   13.5310 C   0  0  0  0  0
    0.6350    2.8700   14.4870 C   0  0  0  0  0
    2.6750    2.6730   13.1370 N   0  0  0  0  0
    3.8810    3.3910   12.6360 C   0  0  0  0  0
    4.9340    2.4080   12.0260 C   0  0  0  0  0
    5.0310    1.2170   12.8090 O   0  0  0  0  0
    3.7180    0.6310   12.8450 C   0  0  0  0  0
    2.9320    1.4260   13.8580 C   0  0  0  0  0
   -4.9690    2.1930   16.1300 C   0  0  0  0  0
   -5.9360    1.6210   16.9270 C   0  0  0  0  0
   -5.6920    1.3110   18.2530 C   0  0  0  0  0
   -6.8440    0.6870   19.0230 C   0  0  0  0  0
   -4.0350    0.0250   22.1370 C   0  0  0  0  0
   -4.0460    1.1320   23.0200 C   0  0  0  0  0
   -3.9960    0.8840   24.4260 C   0  0  0  0  0
   -4.0130    1.8410   25.3990 O   0  0  0  0  0
   -3.8520    3.1850   24.9290 C   0  0  0  0  0
   -3.8090    4.1810   26.1220 C   0  0  0  0  0
   -2.9750    3.7180   27.2460 N   0  3  0  0  0
   -3.1890    4.3090   28.5760 C   0  0  0  0  0
   -2.2410    3.4330   29.3810 C   0  0  0  0  0
   -1.0010    3.4880   28.4930 C   0  0  0  0  0
   -1.5130    3.7320   27.0630 C   0  0  0  0  0
   -4.9488   -2.2383   26.7062 H   0  0  0  0  0
   -3.1805   -2.4354   26.6323 H   0  0  0  0  0
   -3.9313   -1.6581   28.0476 H   0  0  0  0  0
   -3.8278   -2.5084   24.3944 H   0  0  0  0  0
   -3.9480   -3.0540   19.9329 H   0  0  0  0  0
   -3.9674    2.1813   20.7387 H   0  0  0  0  0
   -2.4383    2.4429   18.3881 H   0  0  0  0  0
   -3.0316    3.7895   15.1387 H   0  0  0  0  0
   -1.6642    5.3953   14.5431 H   0  0  0  0  0
   -0.0417    6.2653   12.8776 H   0  0  0  0  0
    0.8334    1.8872   14.9145 H   0  0  0  0  0
    4.3437    3.9091   13.4760 H   0  0  0  0  0
    3.5667    4.0829   11.8546 H   0  0  0  0  0
    5.9068    2.8996   12.0127 H   0  0  0  0  0
    4.6209    2.1402   11.0169 H   0  0  0  0  0
    3.7645   -0.4223   13.1215 H   0  0  0  0  0
    3.2444    0.6658   11.8639 H   0  0  0  0  0
    2.0225    0.9239   14.1878 H   0  0  0  0  0
    3.4651    1.5736   14.7972 H   0  0  0  0  0
   -5.1892    2.3938   15.0815 H   0  0  0  0  0
   -6.9171    1.4075   16.5027 H   0  0  0  0  0
   -6.5382   -0.2866   19.4060 H   0  0  0  0  0
   -7.1176    1.3364   19.8546 H   0  0  0  0  0
   -7.6996    0.5651   18.3588 H   0  0  0  0  0
   -4.0916    2.1509   22.6354 H   0  0  0  0  0
   -4.6964    3.4383   24.2879 H   0  0  0  0  0
   -2.9153    3.2558   24.3761 H   0  0  0  0  0
   -4.8278    4.2905   26.4938 H   0  0  0  0  0
   -3.3767    5.1121   25.7556 H   0  0  0  0  0
   -3.3434    2.7671   27.2231 H   0  0  0  0  0
   -4.2232    4.3044   28.9201 H   0  0  0  0  0
   -2.9926    5.3792   28.6405 H   0  0  0  0  0
   -2.6127    2.4259   29.5698 H   0  0  0  0  0
   -2.0756    3.7731   30.4033 H   0  0  0  0  0
   -0.4301    2.5616   28.5549 H   0  0  0  0  0
   -0.3235    4.2808   28.8101 H   0  0  0  0  0
   -1.1442    4.6610   26.6282 H   0  0  0  0  0
   -1.1631    2.9862   26.3492 H   0  0  0  0  0
  1  2  1  0  0  0
  2  3  1  0  0  0
  3  4  4  0  0  0
  3 35  4  0  0  0
  4  5  4  0  0  0
  5  6  4  0  0  0
  5 33  4  0  0  0
  6  7  4  0  0  0
  7  8  4  0  0  0
  8  9  4  0  0  0
  9 10  1  0  0  0
  9 33  4  0  0  0
 10 11  1  0  0  0
 11 12  4  0  0  0
 11 31  4  0  0  0
 12 13  4  0  0  0
 13 14  1  0  0  0
 13 29  4  0  0  0
 14 15  1  0  0  0
 15 16  2  0  0  0
 15 17  1  0  0  0
 17 18  4  0  0  0
 17 22  4  0  0  0
 18 19  4  0  0  0
 19 20  4  0  0  0
 20 21  4  0  0  0
 21 22  4  0  0  0
 21 23  1  0  0  0
 23 24  1  0  0  0
 23 28  1  0  0  0
 24 25  1  0  0  0
 25 26  1  0  0  0
 26 27  1  0  0  0
 27 28  1  0  0  0
 29 30  4  0  0  0
 30 31  4  0  0  0
 31 32  1  0  0  0
 33 34  4  0  0  0
 34 35  4  0  0  0
 35 36  1  0  0  0
 36 37  1  0  0  0
 37 38  1  0  0  0
 38 39  1  0  0  0
 39 40  1  0  0  0
 39 43  1  0  0  0
 40 41  1  0  0  0
 41 42  1  0  0  0
 42 43  1  0  0  0
  1 44  1  0  0  0
  1 45  1  0  0  0
  1 46  1  0  0  0
  4 47  1  0  0  0
  7 48  1  0  0  0
 10 49  1  0  0  0
 12 50  1  0  0  0
 14 51  1  0  0  0
 18 52  1  0  0  0
 19 53  1  0  0  0
 22 54  1  0  0  0
 24 55  1  0  0  0
 24 56  1  0  0  0
 25 57  1  0  0  0
 25 58  1  0  0  0
 27 59  1  0  0  0
 27 60  1  0  0  0
 28 61  1  0  0  0
 28 62  1  0  0  0
 29 63  1  0  0  0
 30 64  1  0  0  0
 32 65  1  0  0  0
 32 66  1  0  0  0
 32 67  1  0  0  0
 34 68  1  0  0  0
 37 69  1  0  0  0
 37 70  1  0  0  0
 38 71  1  0  0  0
 38 72  1  0  0  0
 39 73  1  0  0  0
 40 74  1  0  0  0
 40 75  1  0  0  0
 41 76  1  0  0  0
 41 77  1  0  0  0
 42 78  1  0  0  0
 42 79  1  0  0  0
 43 80  1  0  0  0
 43 81  1  0  0  0
M  END
$$$$
