5wtt_ligand
  -I-interpret- 

107108  0  0  0  0  0  0  0  0999 V2000
    1.1030   -3.5280   -0.5430 N   0  3  0  0  0
    0.6370   -3.6550    0.8630 C   0  0  0  0  0
   -0.8260   -4.0790    0.9670 C   0  0  0  0  0
   -1.1490   -4.9380    1.7860 O   0  0  0  0  0
    0.9070   -2.3590    1.6410 C   0  0  0  0  0
   -0.0740   -2.1840    3.1600 S   0  0  0  0  0
   -1.7000   -3.4780    0.1600 N   0  0  0  0  0
   -3.1050   -3.8610    0.1250 C   0  0  0  0  0
   -3.9290   -3.4470    1.3400 C   0  0  0  0  0
   -3.7510   -2.3690    1.8820 O   0  0  0  0  0
   -4.8090   -4.3460    1.7780 N   0  0  0  0  0
   -5.8750   -4.0830    2.7590 C   0  0  0  0  0
   -5.4800   -3.2970    4.0160 C   0  0  0  0  0
   -6.2560   -2.4530    4.4810 O   0  0  0  0  0
   -6.5190   -5.3950    3.1980 C   0  0  0  0  0
   -7.8460   -5.4160    3.9800 C   0  0  0  0  0
   -9.0380   -5.0390    3.1060 C   0  0  0  0  0
   -8.0580   -6.7930    4.6050 C   0  0  0  0  0
   -4.2910   -3.5770    4.5680 N   0  0  0  0  0
   -3.8300   -2.8990    5.7820 C   0  0  0  0  0
   -3.5330   -1.4090    5.5600 C   0  0  0  0  0
   -3.8150   -0.5730    6.4180 O   0  0  0  0  0
   -2.6010   -3.5610    6.3660 C   0  0  0  0  0
   -2.7750   -4.9990    6.8160 C   0  0  0  0  0
   -1.4830   -5.5680    7.4090 C   0  0  0  0  0
   -0.3960   -5.3480    6.8020 O   0  0  0  0  0
   -1.5420   -6.2250    8.4830 O   0  0  0  0  0
   -2.9640   -1.0800    4.4020 N   0  0  0  0  0
   -2.6950    0.3040    4.0520 C   0  0  0  0  0
   -3.9530    1.0170    3.5990 C   0  0  0  0  0
   -3.9270    2.2120    3.3030 O   0  0  0  0  0
   -1.6040    0.3820    2.9790 C   0  0  0  0  0
   -0.0060   -0.1910    3.5540 S   0  0  0  0  0
   -5.0460    0.2660    3.5480 N   0  0  0  0  0
   -6.3610    0.8060    3.1970 C   0  0  0  0  0
   -7.2360    1.0590    4.4060 C   0  0  0  0  0
   -8.0450    1.9700    4.3710 O   0  0  0  0  0
   -7.0790   -0.1280    2.2320 C   0  0  0  0  0
   -6.7740    0.1700    0.7790 C   0  0  0  0  0
   -6.1780    1.2030    0.4450 O   0  0  0  0  0
   -7.2150   -0.7320   -0.0960 N   0  0  0  0  0
   -7.0900    0.2380    5.4420 N   0  0  0  0  0
   -7.9450    0.3300    6.6310 C   0  0  0  0  0
   -7.2100    0.1130    7.9540 C   0  0  0  0  0
   -7.6740    0.5440    9.0070 O   0  0  0  0  0
   -9.1020   -0.6700    6.5290 C   0  0  0  0  0
  -10.0080   -0.4470    5.3510 C   0  0  0  0  0
  -11.0130    0.5100    5.4000 C   0  0  0  0  0
   -9.8680   -1.2060    4.1970 C   0  0  0  0  0
  -11.8540    0.7020    4.3110 C   0  0  0  0  0
  -10.6920   -1.0150    3.1080 C   0  0  0  0  0
  -11.6990   -0.0620    3.1670 C   0  0  0  0  0
   -6.0720   -0.5720    7.9050 N   0  0  0  0  0
   -5.3160   -0.9250    9.1120 C   0  0  0  0  0
   -4.5830    0.2390    9.7250 C   0  0  0  0  0
   -4.0480    0.1160   10.8250 O   0  0  0  0  0
   -4.5210    1.3100    9.1240 O   0  0  0  0  0
    0.9151   -4.3975   -1.0421 H   0  0  0  0  0
    0.6072   -2.7604   -0.9962 H   0  0  0  0  0
    2.1053   -3.3392   -0.5520 H   0  0  0  0  0
    1.2149   -4.4582    1.3202 H   0  0  0  0  0
    0.6380   -1.5294    0.9871 H   0  0  0  0  0
    1.9563   -2.3736    1.9358 H   0  0  0  0  0
   -1.3757   -2.7282   -0.4508 H   0  0  0  0  0
   -3.1290   -4.9502    0.0902 H   0  0  0  0  0
   -3.5435   -3.3543   -0.7347 H   0  0  0  0  0
   -4.7387   -5.2923    1.4039 H   0  0  0  0  0
   -6.5637   -3.4354    2.2165 H   0  0  0  0  0
   -5.7977   -5.8187    3.8967 H   0  0  0  0  0
   -6.7613   -5.8935    2.2595 H   0  0  0  0  0
   -7.7771   -4.6648    4.7668 H   0  0  0  0  0
   -8.8937   -4.0334    2.7111 H   0  0  0  0  0
   -9.1201   -5.7465    2.2809 H   0  0  0  0  0
   -9.9490   -5.0687    3.7037 H   0  0  0  0  0
   -8.0913   -7.5465    3.8181 H   0  0  0  0  0
   -7.2351   -7.0124    5.2853 H   0  0  0  0  0
   -8.9984   -6.7996    5.1561 H   0  0  0  0  0
   -3.6929   -4.2790    4.1323 H   0  0  0  0  0
   -4.6580   -2.9830    6.4859 H   0  0  0  0  0
   -2.3382   -2.9900    7.2565 H   0  0  0  0  0
   -1.8535   -3.5755    5.5728 H   0  0  0  0  0
   -3.0478   -5.5995    5.9482 H   0  0  0  0  0
   -3.5469   -5.0269    7.5851 H   0  0  0  0  0
   -0.5710   -4.8328    6.0111 H   0  0  0  0  0
   -2.7108   -1.8177    3.7447 H   0  0  0  0  0
   -2.3370    0.8130    4.9469 H   0  0  0  0  0
   -1.4964    1.4282    2.6928 H   0  0  0  0  0
   -1.9073   -0.2603    2.1522 H   0  0  0  0  0
   -4.9668   -0.7281    3.7621 H   0  0  0  0  0
   -6.1820    1.7690    2.7188 H   0  0  0  0  0
   -8.1509    0.0040    2.3792 H   0  0  0  0  0
   -6.7405   -1.1430    2.4400 H   0  0  0  0  0
   -7.0672   -0.5882   -1.0949 H   0  0  0  0  0
   -7.7005   -1.5666    0.2328 H   0  0  0  0  0
   -6.3626   -0.4763    5.4091 H   0  0  0  0  0
   -8.3141    1.3555    6.6448 H   0  0  0  0  0
   -9.7082   -0.5527    7.4273 H   0  0  0  0  0
   -8.6615   -1.6602    6.4126 H   0  0  0  0  0
  -11.1428    1.1140    6.2980 H   0  0  0  0  0
   -9.0906   -1.9687    4.1508 H   0  0  0  0  0
  -12.6388    1.4570    4.3575 H   0  0  0  0  0
  -10.5531   -1.6097    2.2052 H   0  0  0  0  0
  -12.3649    0.0843    2.3165 H   0  0  0  0  0
   -5.7115   -0.8626    6.9962 H   0  0  0  0  0
   -4.5706   -1.6670    8.8259 H   0  0  0  0  0
   -6.0303   -1.2877    9.8511 H   0  0  0  0  0
   -4.9872    1.2341    8.2883 H   0  0  0  0  0
  1  2  1  0  0  0
  2  3  1  0  0  0
  2  5  1  0  0  0
  3  4  2  0  0  0
  3  7  1  0  0  0
  5  6  1  0  0  0
  6 33  1  0  0  0
  7  8  1  0  0  0
  8  9  1  0  0  0
  9 10  2  0  0  0
  9 11  1  0  0  0
 11 12  1  0  0  0
 12 13  1  0  0  0
 12 15  1  0  0  0
 13 14  2  0  0  0
 13 19  1  0  0  0
 15 16  1  0  0  0
 16 17  1  0  0  0
 16 18  1  0  0  0
 19 20  1  0  0  0
 20 21  1  0  0  0
 20 23  1  0  0  0
 21 22  2  0  0  0
 21 28  1  0  0  0
 23 24  1  0  0  0
 24 25  1  0  0  0
 25 26  1  0  0  0
 25 27  2  0  0  0
 28 29  1  0  0  0
 29 30  1  0  0  0
 29 32  1  0  0  0
 30 31  2  0  0  0
 30 34  1  0  0  0
 32 33  1  0  0  0
 34 35  1  0  0  0
 35 36  1  0  0  0
 35 38  1  0  0  0
 36 37  2  0  0  0
 36 42  1  0  0  0
 38 39  1  0  0  0
 39 40  2  0  0  0
 39 41  1  0  0  0
 42 43  1  0  0  0
 43 44  1  0  0  0
 43 46  1  0  0  0
 44 45  2  0  0  0
 44 53  1  0  0  0
 46 47  1  0  0  0
 47 48  4  0  0  0
 47 49  4  0  0  0
 48 50  4  0  0  0
 49 51  4  0  0  0
 50 52  4  0  0  0
 51 52  4  0  0  0
 53 54  1  0  0  0
 54 55  1  0  0  0
 55 56  2  0  0  0
 55 57  1  0  0  0
  1 58  1  0  0  0
  1 59  1  0  0  0
  1 60  1  0  0  0
  2 61  1  0  0  0
  5 62  1  0  0  0
  5 63  1  0  0  0
  7 64  1  0  0  0
  8 65  1  0  0  0
  8 66  1  0  0  0
 11 67  1  0  0  0
 12 68  1  0  0  0
 15 69  1  0  0  0
 15 70  1  0  0  0
 16 71  1  0  0  0
 17 72  1  0  0  0
 17 73  1  0  0  0
 17 74  1  0  0  0
 18 75  1  0  0  0
 18 76  1  0  0  0
 18 77  1  0  0  0
 19 78  1  0  0  0
 20 79  1  0  0  0
 23 80  1  0  0  0
 23 81  1  0  0  0
 24 82  1  0  0  0
 24 83  1  0  0  0
 26 84  1  0  0  0
 28 85  1  0  0  0
 29 86  1  0  0  0
 32 87  1  0  0  0
 32 88  1  0  0  0
 34 89  1  0  0  0
 35 90  1  0  0  0
 38 91  1  0  0  0
 38 92  1  0  0  0
 41 93  1  0  0  0
 41 94  1  0  0  0
 42 95  1  0  0  0
 43 96  1  0  0  0
 46 97  1  0  0  0
 46 98  1  0  0  0
 48 99  1  0  0  0
 49100  1  0  0  0
 50101  1  0  0  0
 51102  1  0  0  0
 52103  1  0  0  0
 53104  1  0  0  0
 54105  1  0  0  0
 54106  1  0  0  0
 57107  1  0  0  0
M  END
$$$$
