5m23_ligand
  -I-interpret- 

103104  0  0  0  0  0  0  0  0999 V2000
  -19.1000   17.1820   14.0150 C   0  0  0  0  0
  -18.9240   18.2920   14.5190 O   0  0  0  0  0
  -17.9320   16.5270   13.2590 C   0  0  0  0  0
  -17.1330   15.6120   14.2000 C   0  0  0  0  0
  -16.3360   14.5550   13.4150 C   0  0  0  0  0
  -16.2450   16.3770   15.1200 C   0  0  0  0  0
  -17.0400   17.5040   12.7700 N   0  0  0  0  0
  -16.8800   17.7800   11.3240 C   0  0  0  0  0
  -17.5330   17.1570   10.4650 O   0  0  0  0  0
  -15.8060   18.8850   10.8710 C   0  0  0  0  0
  -15.8190   19.4150    9.5800 C   0  0  0  0  0
  -14.8450   20.3860    9.1980 C   0  0  0  0  0
  -14.8170   19.3050   11.7850 C   0  0  0  0  0
  -13.8640   20.2490   11.4020 C   0  0  0  0  0
  -13.8800   20.7970   10.0910 C   0  0  0  0  0
  -12.8930   21.7870    9.7040 N   0  0  0  0  0
  -12.2970   21.8280    8.4250 N   0  0  0  0  0
  -11.3500   22.8830    8.0830 C   0  0  0  0  0
  -11.0550   23.2000    6.7560 C   0  0  0  0  0
  -10.1530   24.2170    6.4700 C   0  0  0  0  0
  -10.7050   23.5790    9.1060 C   0  0  0  0  0
   -9.7930   24.5920    8.8200 C   0  0  0  0  0
   -9.5040   24.9320    7.5130 C   0  0  0  0  0
   -8.4920   26.0550    7.2480 C   0  0  0  0  0
   -8.3780   26.3870    5.8670 N   0  0  0  0  0
   -7.2990   25.7890    5.1070 C   0  0  0  0  0
   -6.5360   25.0210    5.6290 O   0  0  0  0  0
   -7.1710   26.0790    3.6550 C   0  0  0  0  0
   -5.9250   26.8270    3.3160 C   0  0  0  0  0
   -8.4150   26.6390    3.1140 N   0  0  0  0  0
   -9.5040   25.7930    2.7740 C   0  0  0  0  0
   -9.4760   24.5830    2.9180 O   0  0  0  0  0
  -10.7740   26.4110    2.1770 C   0  0  0  0  0
  -10.5890   26.4230    0.6560 C   0  0  0  0  0
  -10.4270   24.9870    0.0840 C   0  0  0  0  0
  -10.3880   24.9410   -1.4510 C   0  0  0  0  0
  -11.4170   25.7710   -2.0920 N   0  0  0  0  0
  -12.6440   25.1950   -2.6620 C   0  0  0  0  0
  -12.7900   23.8610   -2.5290 N   0  0  0  0  0
  -13.5930   25.9890   -3.3080 N   0  0  0  0  0
  -10.9630   27.7410    2.6150 N   0  0  0  0  0
  -11.1220   28.0270    4.0190 C   0  0  0  0  0
  -11.0980   27.1330    4.8100 O   0  0  0  0  0
  -11.3380   29.4060    4.4540 C   0  0  0  0  0
  -12.8050   29.8270    4.2220 C   0  0  0  0  0
  -10.5470   30.2970    3.6090 N   0  0  0  0  0
   -9.0620   30.2530    3.6580 C   0  0  0  0  0
   -8.5120   29.4560    4.4070 O   0  0  0  0  0
   -8.2000   31.2420    2.7220 C   0  0  0  0  0
   -7.3130   31.9410    3.5920 N   0  3  0  0  0
   -7.4240   30.3470    1.8190 C   0  0  0  0  0
   -8.3750   29.3660    1.2820 O   0  0  0  0  0
  -20.2112   16.5968   14.1165 O   0  0  0  0  0
  -18.3599   15.9572   12.4342 H   0  0  0  0  0
  -17.8632   15.0930   14.8210 H   0  0  0  0  0
  -15.5632   15.0483   12.8255 H   0  0  0  0  0
  -15.8726   13.8584   14.1136 H   0  0  0  0  0
  -17.0097   14.0123   12.7519 H   0  0  0  0  0
  -15.7809   15.6911   15.8288 H   0  0  0  0  0
  -15.4715   16.8811   14.5406 H   0  0  0  0  0
  -16.8353   17.1164   15.6613 H   0  0  0  0  0
  -16.4848   18.0401   13.4369 H   0  0  0  0  0
  -16.5726   19.0876    8.8637 H   0  0  0  0  0
  -14.8649   20.8054    8.1921 H   0  0  0  0  0
  -14.7974   18.8909   12.7931 H   0  0  0  0  0
  -13.1021   20.5684   12.1130 H   0  0  0  0  0
  -11.5320   22.6500    5.9448 H   0  0  0  0  0
   -9.9400   24.4702    5.4314 H   0  0  0  0  0
  -10.9181   23.3261   10.1446 H   0  0  0  0  0
   -9.3022   25.1220    9.6363 H   0  0  0  0  0
   -7.5158   25.7095    7.5882 H   0  0  0  0  0
   -8.8367   26.9441    7.7760 H   0  0  0  0  0
   -9.0376   27.0278    5.4257 H   0  0  0  0  0
   -7.0351   25.1331    3.1307 H   0  0  0  0  0
   -5.9191   27.7796    3.8458 H   0  0  0  0  0
   -5.0571   26.2387    3.6140 H   0  0  0  0  0
   -5.8919   27.0072    2.2415 H   0  0  0  0  0
   -8.4984   27.6468    2.9807 H   0  0  0  0  0
  -11.6417   25.8298    2.4892 H   0  0  0  0  0
   -9.6861   26.9882    0.4248 H   0  0  0  0  0
  -11.4739   26.8735    0.2064 H   0  0  0  0  0
  -11.2903   24.4056    0.4078 H   0  0  0  0  0
   -9.4778   24.5940    0.4482 H   0  0  0  0  0
  -10.5677   23.9087   -1.7512 H   0  0  0  0  0
   -9.4172   25.3249   -1.7644 H   0  0  0  0  0
  -11.2756   26.7798   -2.1433 H   0  0  0  0  0
  -12.0714   23.3141   -2.0548 H   0  0  0  0  0
  -14.4330   25.5630   -3.6996 H   0  0  0  0  0
  -13.4465   26.9952   -3.3884 H   0  0  0  0  0
  -10.9870   28.5013    1.9355 H   0  0  0  0  0
  -11.0698   29.4682    5.5087 H   0  0  0  0  0
  -13.0400   29.7506    3.1604 H   0  0  0  0  0
  -13.4642   29.1702    4.7896 H   0  0  0  0  0
  -12.9429   30.8564    4.5528 H   0  0  0  0  0
  -11.0155   30.9519    2.9829 H   0  0  0  0  0
   -8.7963   31.9519    2.1487 H   0  0  0  0  0
   -6.7404   32.5848    3.0461 H   0  0  0  0  0
   -7.8552   32.4651    4.2789 H   0  0  0  0  0
   -6.7110   31.2715    4.0714 H   0  0  0  0  0
   -6.6180   29.8517    2.3605 H   0  0  0  0  0
   -6.9560   30.9157    1.0155 H   0  0  0  0  0
   -7.9144   28.7656    0.6913 H   0  0  0  0  0
  -20.1675   15.7494   13.6675 H   0  0  0  0  0
  1  2  2  0  0  0
  1  3  1  0  0  0
  3  4  1  0  0  0
  3  7  1  0  0  0
  4  5  1  0  0  0
  4  6  1  0  0  0
  7  8  1  0  0  0
  8  9  2  0  0  0
  8 10  1  0  0  0
 10 11  4  0  0  0
 10 13  4  0  0  0
 11 12  4  0  0  0
 12 15  4  0  0  0
 13 14  4  0  0  0
 14 15  4  0  0  0
 15 16  1  0  0  0
 16 17  2  0  0  0
 17 18  1  0  0  0
 18 19  4  0  0  0
 18 21  4  0  0  0
 19 20  4  0  0  0
 20 23  4  0  0  0
 21 22  4  0  0  0
 22 23  4  0  0  0
 23 24  1  0  0  0
 24 25  1  0  0  0
 25 26  1  0  0  0
 26 27  2  0  0  0
 26 28  1  0  0  0
 28 29  1  0  0  0
 28 30  1  0  0  0
 30 31  1  0  0  0
 31 32  2  0  0  0
 31 33  1  0  0  0
 33 34  1  0  0  0
 33 41  1  0  0  0
 34 35  1  0  0  0
 35 36  1  0  0  0
 36 37  1  0  0  0
 37 38  1  0  0  0
 38 39  2  0  0  0
 38 40  1  0  0  0
 41 42  1  0  0  0
 42 43  2  0  0  0
 42 44  1  0  0  0
 44 45  1  0  0  0
 44 46  1  0  0  0
 46 47  1  0  0  0
 47 48  2  0  0  0
 47 49  1  0  0  0
 49 50  1  0  0  0
 49 51  1  0  0  0
 51 52  1  0  0  0
  1 53  1  0  0  0
  3 54  1  0  0  0
  4 55  1  0  0  0
  5 56  1  0  0  0
  5 57  1  0  0  0
  5 58  1  0  0  0
  6 59  1  0  0  0
  6 60  1  0  0  0
  6 61  1  0  0  0
  7 62  1  0  0  0
 11 63  1  0  0  0
 12 64  1  0  0  0
 13 65  1  0  0  0
 14 66  1  0  0  0
 19 67  1  0  0  0
 20 68  1  0  0  0
 21 69  1  0  0  0
 22 70  1  0  0  0
 24 71  1  0  0  0
 24 72  1  0  0  0
 25 73  1  0  0  0
 28 74  1  0  0  0
 29 75  1  0  0  0
 29 76  1  0  0  0
 29 77  1  0  0  0
 30 78  1  0  0  0
 33 79  1  0  0  0
 34 80  1  0  0  0
 34 81  1  0  0  0
 35 82  1  0  0  0
 35 83  1  0  0  0
 36 84  1  0  0  0
 36 85  1  0  0  0
 37 86  1  0  0  0
 39 87  1  0  0  0
 40 88  1  0  0  0
 40 89  1  0  0  0
 41 90  1  0  0  0
 44 91  1  0  0  0
 45 92  1  0  0  0
 45 93  1  0  0  0
 45 94  1  0  0  0
 46 95  1  0  0  0
 49 96  1  0  0  0
 50 97  1  0  0  0
 50 98  1  0  0  0
 50 99  1  0  0  0
 51100  1  0  0  0
 51101  1  0  0  0
 52102  1  0  0  0
 53103  1  0  0  0
M  END
$$$$
