4pl6_ligand
  -I-interpret- 

 35 34  0  0  0  0  0  0  0  0999 V2000
   -1.6140    6.8020  -15.7860 N   0  3  0  0  0
   -0.4450    7.4240  -15.1870 C   0  0  0  0  0
    0.7790    7.1280  -16.0590 C   0  0  0  0  0
    0.6720    5.7330  -16.6640 C   0  0  0  0  0
    2.0130    5.0080  -16.6880 C   0  0  0  0  0
    2.9410    5.5990  -17.7400 C   0  0  0  0  0
    4.3060    5.0770  -17.5780 N   0  3  0  0  0
   -0.6580    8.9120  -15.0610 C   0  0  0  0  0
   -1.4520    9.3590  -14.2010 O   0  0  0  0  0
    4.3330    3.6230  -17.7900 C   0  0  0  0  0
    4.7990    5.3620  -16.2250 C   0  0  0  0  0
    5.1750    5.7390  -18.5580 C   0  0  0  0  0
   -0.0400    9.6980  -15.8170 O   0  0  0  0  0
   -1.4593    5.7970  -15.8664 H   0  0  0  0  0
   -2.4290    6.9758  -15.1979 H   0  0  0  0  0
   -1.7712    7.1982  -16.7127 H   0  0  0  0  0
   -0.2822    7.0179  -14.1887 H   0  0  0  0  0
    1.6764    7.1809  -15.4426 H   0  0  0  0  0
    0.8291    7.8620  -16.8633 H   0  0  0  0  0
    0.3250    5.8361  -17.6921 H   0  0  0  0  0
   -0.0162    5.1507  -16.0513 H   0  0  0  0  0
    1.8370    3.9597  -16.9294 H   0  0  0  0  0
    2.4832    5.1147  -15.7105 H   0  0  0  0  0
    2.9613    6.6827  -17.6244 H   0  0  0  0  0
    2.5733    5.3255  -18.7290 H   0  0  0  0  0
    5.3553    3.2604  -17.6828 H   0  0  0  0  0
    3.6946    3.1376  -17.0518 H   0  0  0  0  0
    3.9690    3.3964  -18.7921 H   0  0  0  0  0
    4.1583    4.8678  -15.4946 H   0  0  0  0  0
    5.8190    4.9907  -16.1256 H   0  0  0  0  0
    4.7845    6.4383  -16.0536 H   0  0  0  0  0
    6.1960    5.3760  -18.4400 H   0  0  0  0  0
    4.8223    5.5145  -19.5646 H   0  0  0  0  0
    5.1499    6.8164  -18.3947 H   0  0  0  0  0
    0.5214    9.1941  -16.4107 H   0  0  0  0  0
  1  2  1  0  0  0
  2  3  1  0  0  0
  2  8  1  0  0  0
  3  4  1  0  0  0
  4  5  1  0  0  0
  5  6  1  0  0  0
  6  7  1  0  0  0
  7 10  1  0  0  0
  7 11  1  0  0  0
  7 12  1  0  0  0
  8  9  2  0  0  0
  8 13  1  0  0  0
  1 14  1  0  0  0
  1 15  1  0  0  0
  1 16  1  0  0  0
  2 17  1  0  0  0
  3 18  1  0  0  0
  3 19  1  0  0  0
  4 20  1  0  0  0
  4 21  1  0  0  0
  5 22  1  0  0  0
  5 23  1  0  0  0
  6 24  1  0  0  0
  6 25  1  0  0  0
 10 26  1  0  0  0
 10 27  1  0  0  0
 10 28  1  0  0  0
 11 29  1  0  0  0
 11 30  1  0  0  0
 11 31  1  0  0  0
 12 32  1  0  0  0
 12 33  1  0  0  0
 12 34  1  0  0  0
 13 35  1  0  0  0
M  END
$$$$
