6dxl_ligand
  -I-interpret- 

 88 93  0  0  0  0  0  0  0  0999 V2000
   69.2460  -12.3700   75.7880 C   0  0  0  0  0
   69.1300  -12.2430   77.1800 C   0  0  0  0  0
   67.9170  -11.6400   77.3980 C   0  0  0  0  0
   65.1880  -11.2560   79.9050 C   0  0  0  0  0
   64.5880  -10.5120   81.8330 C   0  0  0  0  0
   62.1180  -10.2520   83.0620 C   0  0  0  0  0
   65.8180  -10.8650   74.3320 C   0  0  0  0  0
   66.0920  -10.8070   75.8100 C   0  0  0  0  0
   70.3660  -12.9650   74.9970 C   0  0  0  0  0
   67.2420  -11.2210   78.6580 C   0  0  0  0  0
   64.5240   -9.9860   83.1220 C   0  0  0  0  0
   63.2760   -9.8610   83.7350 C   0  0  0  0  0
   62.1750  -10.7730   81.7820 C   0  0  0  0  0
   63.4230  -10.8940   81.1840 C   0  0  0  0  0
   62.9330  -11.8850   78.8940 C   0  0  0  0  0
   62.5710  -13.3470   79.1000 C   0  0  0  0  0
   63.4440  -14.2970   78.2970 C   0  0  0  0  0
   63.1190  -15.7630   78.5400 C   0  0  0  0  0
   62.3090  -16.4600   76.2330 C   0  0  0  0  0
   63.6980  -16.3690   74.2520 C   0  0  0  0  0
   65.0490  -16.0070   73.7430 C   0  0  0  0  0
   65.4490  -15.3290   72.6200 C   0  0  0  0  0
   66.8470  -15.3170   72.6530 C   0  0  0  0  0
   67.7980  -14.7070   71.6760 C   0  0  0  0  0
   66.3690  -17.1310   75.6280 C   0  0  0  0  0
   66.8930  -16.2770   76.7510 C   0  0  0  0  0
   60.3090  -17.1500   76.6840 C   0  0  0  0  0
   59.0070  -17.6490   76.6570 C   0  0  0  0  0
   58.2860  -17.7120   77.8510 C   0  0  0  0  0
   58.8630  -17.2850   79.0470 C   0  0  0  0  0
   60.1540  -16.7910   79.0830 C   0  0  0  0  0
   60.8590  -16.7310   77.8900 C   0  0  0  0  0
   56.8840  -18.2480   77.8400 C   0  0  0  0  0
   63.1870   -9.2950   85.1220 C   0  0  0  0  0
   67.3670  -11.4220   76.1720 N   0  0  0  0  0
   68.1770  -11.8760   75.1690 N   0  0  0  0  0
   65.9350  -11.6130   78.8020 N   0  0  0  0  0
   65.6950  -10.7410   81.0070 N   0  0  0  0  0
   63.8200  -11.3650   79.9400 N   0  0  0  0  0
   62.1420  -16.2980   77.5840 N   0  0  0  0  0
   63.4870  -16.1510   75.5870 N   0  0  0  0  0
   67.3090  -15.9520   73.7260 N   0  0  0  0  0
   66.1900  -16.3800   74.3860 N   0  0  0  0  0
   61.2270  -16.9830   75.6460 N   0  0  0  0  0
   56.6180  -19.2730   77.0390 N   0  0  0  0  0
   63.8250   -8.1570   85.3690 N   0  0  0  0  0
   67.8330  -10.5540   79.5050 O   0  0  0  0  0
   62.8400  -16.8400   73.5040 O   0  0  0  0  0
   56.0270  -17.7300   78.5700 O   0  0  0  0  0
   62.5300   -9.8940   85.9840 O   0  0  0  0  0
   69.8532  -12.5579   77.9323 H   0  0  0  0  0
   61.1511  -10.1450   83.5538 H   0  0  0  0  0
   66.6075  -10.3378   73.7964 H   0  0  0  0  0
   65.7908  -11.9058   74.0094 H   0  0  0  0  0
   64.8579  -10.3932   74.1230 H   0  0  0  0  0
   65.2995  -11.3556   76.3190 H   0  0  0  0  0
   66.1319   -9.7576   76.1019 H   0  0  0  0  0
   71.2851  -12.4158   75.2012 H   0  0  0  0  0
   70.4947  -14.0095   75.2807 H   0  0  0  0  0
   70.1321  -12.9020   73.9343 H   0  0  0  0  0
   65.4313   -9.6780   83.6417 H   0  0  0  0  0
   61.2690  -11.0791   81.2589 H   0  0  0  0  0
   62.0099  -11.3060   78.9214 H   0  0  0  0  0
   63.4565  -11.8022   77.9415 H   0  0  0  0  0
   61.5417  -13.4830   78.7681 H   0  0  0  0  0
   62.7146  -13.5779   80.1555 H   0  0  0  0  0
   64.4773  -14.1334   78.6031 H   0  0  0  0  0
   63.2698  -14.0915   77.2408 H   0  0  0  0  0
   62.6887  -15.8475   79.5379 H   0  0  0  0  0
   64.0419  -16.3317   78.4261 H   0  0  0  0  0
   64.8074  -14.8888   71.8566 H   0  0  0  0  0
   67.6496  -15.1595   70.6955 H   0  0  0  0  0
   67.6149  -13.6343   71.6140 H   0  0  0  0  0
   68.8211  -14.8836   72.0080 H   0  0  0  0  0
   65.3957  -17.5193   75.9282 H   0  0  0  0  0
   67.0962  -17.9210   75.4402 H   0  0  0  0  0
   67.8601  -15.8610   76.4686 H   0  0  0  0  0
   66.1909  -15.4667   76.9476 H   0  0  0  0  0
   67.0061  -16.8869   77.6473 H   0  0  0  0  0
   58.5604  -17.9838   75.7208 H   0  0  0  0  0
   58.2858  -17.3418   79.9699 H   0  0  0  0  0
   60.6033  -16.4593   80.0191 H   0  0  0  0  0
   65.5046  -12.1834   78.0742 H   0  0  0  0  0
   64.2425  -15.7374   76.1334 H   0  0  0  0  0
   55.6769  -19.6651   77.0079 H   0  0  0  0  0
   57.3548  -19.6683   76.4548 H   0  0  0  0  0
   63.7855   -7.7418   86.2999 H   0  0  0  0  0
   64.3546   -7.6980   84.6279 H   0  0  0  0  0
  2  1  4  0  0  0
  1  9  1  0  0  0
  1 36  4  0  0  0
  3  2  4  0  0  0
 10  3  1  0  0  0
  3 35  4  0  0  0
  4 37  1  0  0  0
  4 38  4  0  0  0
 39  4  4  0  0  0
  5 11  4  0  0  0
 14  5  4  0  0  0
  5 38  4  0  0  0
  6 12  4  0  0  0
 13  6  4  0  0  0
  8  7  1  0  0  0
 35  8  1  0  0  0
 37 10  1  0  0  0
 10 47  2  0  0  0
 11 12  4  0  0  0
 12 34  1  0  0  0
 14 13  4  0  0  0
 39 14  4  0  0  0
 16 15  1  0  0  0
 15 39  1  0  0  0
 17 16  1  0  0  0
 18 17  1  0  0  0
 40 18  1  0  0  0
 19 40  4  0  0  0
 19 41  1  0  0  0
 44 19  4  0  0  0
 20 21  1  0  0  0
 41 20  1  0  0  0
 20 48  2  0  0  0
 21 22  4  0  0  0
 21 43  4  0  0  0
 22 23  4  0  0  0
 23 24  1  0  0  0
 23 42  4  0  0  0
 25 26  1  0  0  0
 43 25  1  0  0  0
 27 28  4  0  0  0
 27 32  4  0  0  0
 27 44  4  0  0  0
 28 29  4  0  0  0
 29 30  4  0  0  0
 29 33  1  0  0  0
 30 31  4  0  0  0
 31 32  4  0  0  0
 32 40  4  0  0  0
 33 45  1  0  0  0
 33 49  2  0  0  0
 34 46  1  0  0  0
 34 50  2  0  0  0
 35 36  4  0  0  0
 42 43  4  0  0  0
  2 51  1  0  0  0
  6 52  1  0  0  0
  7 53  1  0  0  0
  7 54  1  0  0  0
  7 55  1  0  0  0
  8 56  1  0  0  0
  8 57  1  0  0  0
  9 58  1  0  0  0
  9 59  1  0  0  0
  9 60  1  0  0  0
 11 61  1  0  0  0
 13 62  1  0  0  0
 15 63  1  0  0  0
 15 64  1  0  0  0
 16 65  1  0  0  0
 16 66  1  0  0  0
 17 67  1  0  0  0
 17 68  1  0  0  0
 18 69  1  0  0  0
 18 70  1  0  0  0
 22 71  1  0  0  0
 24 72  1  0  0  0
 24 73  1  0  0  0
 24 74  1  0  0  0
 25 75  1  0  0  0
 25 76  1  0  0  0
 26 77  1  0  0  0
 26 78  1  0  0  0
 26 79  1  0  0  0
 28 80  1  0  0  0
 30 81  1  0  0  0
 31 82  1  0  0  0
 37 83  1  0  0  0
 41 84  1  0  0  0
 45 85  1  0  0  0
 45 86  1  0  0  0
 46 87  1  0  0  0
 46 88  1  0  0  0
M  END
$$$$
