4x7n_ligand
  -I-interpret- 

 68 73  0  0  0  0  0  0  0  0999 V2000
   28.0130    7.8390    0.2880 C   0  0  0  0  0
   28.6100    7.8830   -0.9750 C   0  0  0  0  0
   29.3310    6.7940   -1.4700 C   0  0  0  0  0
   29.9180    6.8810   -2.7380 C   0  0  0  0  0
   29.7710    8.0500   -3.4850 C   0  0  0  0  0
   30.4040    8.1720   -4.8830 C   0  0  0  0  0
   29.0700    9.0870   -2.9830 N   0  0  0  0  0
   28.4990    9.0310   -1.7670 C   0  0  0  0  0
   27.7900   10.1310   -1.3000 C   0  0  0  0  0
   27.1970   10.0860   -0.0420 C   0  0  0  0  0
   27.3070    8.9500    0.7630 C   0  0  0  0  0
   26.6620    8.9800    2.0080 C   0  0  0  0  0
   27.2950    9.5290    3.1350 C   0  0  0  0  0
   28.5470   10.0040    3.0450 N   0  0  0  0  0
   25.3430    8.5020    2.1200 C   0  0  0  0  0
   24.5800    7.9040    0.9230 C   0  0  0  0  0
   24.6790    8.5520    3.3440 C   0  0  0  0  0
   25.3070    9.0940    4.4590 C   0  0  0  0  0
   26.6170    9.5730    4.3710 C   0  0  0  0  0
   27.3190   10.1780    5.6120 C   0  0  0  0  0
   28.2950   10.9020    5.4340 O   0  0  0  0  0
   26.8660    9.9160    7.0600 C   0  0  0  0  0
   26.2450    8.7910    7.5760 C   0  0  0  0  0
   25.9130    7.7780    6.9550 O   0  0  0  0  0
   26.0520    9.0000    8.8810 N   0  0  0  0  0
   25.4880    8.1060    9.7140 C   0  0  0  0  0
   24.1270    7.8060    9.6590 C   0  0  0  0  0
   23.5820    6.8640   10.5390 C   0  0  0  0  0
   24.3950    6.2120   11.4720 C   0  0  0  0  0
   25.7590    6.5040   11.5340 C   0  0  0  0  0
   26.2980    7.4420   10.6510 C   0  0  0  0  0
   26.5090   10.1150    9.2050 N   0  0  0  0  0
   26.4700   10.6800   10.5770 C   0  0  0  0  0
   27.0330   10.7660    8.1560 C   0  0  0  0  0
   27.6310   12.0410    8.1460 C   0  0  0  0  0
   28.7510   12.2800    8.9560 C   0  0  0  0  0
   29.3670   13.5300    8.9890 C   0  0  0  0  0
   28.8630   14.5640    8.1990 C   0  0  0  0  0
   27.7470   14.3330    7.3920 C   0  0  0  0  0
   27.1280   13.0810    7.3620 C   0  0  0  0  0
   28.0971    6.9418    0.9013 H   0  0  0  0  0
   29.4355    5.8863   -0.8756 H   0  0  0  0  0
   30.4858    6.0413   -3.1387 H   0  0  0  0  0
   31.4843    8.0511   -4.8031 H   0  0  0  0  0
   29.9975    7.3975   -5.5333 H   0  0  0  0  0
   30.1768    9.1536   -5.2989 H   0  0  0  0  0
   27.6987   11.0253   -1.9165 H   0  0  0  0  0
   26.6389   10.9494    0.3202 H   0  0  0  0  0
   29.0436    9.9673    2.1548 H   0  0  0  0  0
   29.0019   10.4017    3.8668 H   0  0  0  0  0
   24.4991    8.6525    0.1347 H   0  0  0  0  0
   25.1202    7.0352    0.5468 H   0  0  0  0  0
   23.5827    7.6026    1.2434 H   0  0  0  0  0
   23.6635    8.1647    3.4273 H   0  0  0  0  0
   24.7743    9.1459    5.4085 H   0  0  0  0  0
   23.4879    8.3052    8.9307 H   0  0  0  0  0
   22.5168    6.6369   10.4970 H   0  0  0  0  0
   23.9638    5.4760   12.1506 H   0  0  0  0  0
   26.3964    6.0050   12.2640 H   0  0  0  0  0
   27.3647    7.6628   10.6892 H   0  0  0  0  0
   25.4336   10.7689   10.9026 H   0  0  0  0  0
   27.0102   10.0200   11.2558 H   0  0  0  0  0
   26.9377   11.6645   10.5765 H   0  0  0  0  0
   29.1473   11.4725    9.5716 H   0  0  0  0  0
   30.2350   13.6983    9.6265 H   0  0  0  0  0
   29.3372   15.5454    8.2117 H   0  0  0  0  0
   27.3530   15.1416    6.7763 H   0  0  0  0  0
   26.2559   12.9167    6.7291 H   0  0  0  0  0
  1  2  4  0  0  0
  1 11  4  0  0  0
  2  3  4  0  0  0
  2  8  4  0  0  0
  3  4  4  0  0  0
  4  5  4  0  0  0
  5  6  1  0  0  0
  5  7  4  0  0  0
  7  8  4  0  0  0
  8  9  4  0  0  0
  9 10  4  0  0  0
 10 11  4  0  0  0
 11 12  1  0  0  0
 12 13  4  0  0  0
 12 15  4  0  0  0
 13 14  1  0  0  0
 13 19  4  0  0  0
 15 16  1  0  0  0
 15 17  4  0  0  0
 17 18  4  0  0  0
 18 19  4  0  0  0
 19 20  1  0  0  0
 20 21  2  0  0  0
 20 22  1  0  0  0
 22 23  1  0  0  0
 22 34  2  0  0  0
 23 24  2  0  0  0
 23 25  1  0  0  0
 25 26  1  0  0  0
 25 32  1  0  0  0
 26 27  4  0  0  0
 26 31  4  0  0  0
 27 28  4  0  0  0
 28 29  4  0  0  0
 29 30  4  0  0  0
 30 31  4  0  0  0
 32 33  1  0  0  0
 32 34  1  0  0  0
 34 35  1  0  0  0
 35 36  4  0  0  0
 35 40  4  0  0  0
 36 37  4  0  0  0
 37 38  4  0  0  0
 38 39  4  0  0  0
 39 40  4  0  0  0
  1 41  1  0  0  0
  3 42  1  0  0  0
  4 43  1  0  0  0
  6 44  1  0  0  0
  6 45  1  0  0  0
  6 46  1  0  0  0
  9 47  1  0  0  0
 10 48  1  0  0  0
 14 49  1  0  0  0
 14 50  1  0  0  0
 16 51  1  0  0  0
 16 52  1  0  0  0
 16 53  1  0  0  0
 17 54  1  0  0  0
 18 55  1  0  0  0
 27 56  1  0  0  0
 28 57  1  0  0  0
 29 58  1  0  0  0
 30 59  1  0  0  0
 31 60  1  0  0  0
 33 61  1  0  0  0
 33 62  1  0  0  0
 33 63  1  0  0  0
 36 64  1  0  0  0
 37 65  1  0  0  0
 38 66  1  0  0  0
 39 67  1  0  0  0
 40 68  1  0  0  0
M  END
$$$$
