4q3t_ligand
  -I-interpret- 

 28 27  0  0  0  0  0  0  0  0999 V2000
  -44.4580  -17.2020   51.0330 N   0  3  0  0  0
  -43.5320  -18.2650   51.3930 C   0  0  0  0  0
  -42.2220  -17.6960   51.9440 C   0  0  0  0  0
  -42.2690  -16.3390   52.0800 O   0  0  0  0  0
  -43.1970  -19.2780   50.2790 C   0  0  0  0  0
  -42.0020  -18.8850   49.4340 C   0  0  0  0  0
  -41.6500  -20.1170   48.5950 C   0  0  0  0  0
  -40.3420  -20.0700   47.9670 N   0  0  0  0  0
  -40.1690  -20.1210   46.5440 C   0  0  0  0  0
  -41.4840  -20.1840   45.8320 N   0  0  0  0  0
  -38.9780  -20.0970   45.9860 N   0  0  0  0  0
  -41.5740  -20.2350   44.5020 O   0  0  0  0  0
  -41.1730  -18.2740   52.2870 O   0  0  0  0  0
  -44.6068  -16.5949   51.8390 H   0  0  0  0  0
  -44.0670  -16.6581   50.2638 H   0  0  0  0  0
  -45.3471  -17.6104   50.7447 H   0  0  0  0  0
  -44.0775  -18.8218   52.1549 H   0  0  0  0  0
  -43.1238  -16.0182   51.7834 H   0  0  0  0  0
  -44.0608  -19.3297   49.6162 H   0  0  0  0  0
  -42.9560  -20.2248   50.7624 H   0  0  0  0  0
  -41.1617  -18.5809   50.0581 H   0  0  0  0  0
  -42.2332  -18.0296   48.7992 H   0  0  0  0  0
  -42.3853  -20.1748   47.7924 H   0  0  0  0  0
  -41.6463  -20.9713   49.2720 H   0  0  0  0  0
  -39.5151  -19.9980   48.5598 H   0  0  0  0  0
  -42.3421  -20.1881   46.3834 H   0  0  0  0  0
  -38.1428  -20.0406   46.5688 H   0  0  0  0  0
  -42.4986  -20.2704   44.2461 H   0  0  0  0  0
  1  2  1  0  0  0
  2  3  1  0  0  0
  2  5  1  0  0  0
  3  4  1  0  0  0
  3 13  2  0  0  0
  5  6  1  0  0  0
  6  7  1  0  0  0
  7  8  1  0  0  0
  8  9  1  0  0  0
  9 10  1  0  0  0
  9 11  2  0  0  0
 10 12  1  0  0  0
  1 14  1  0  0  0
  1 15  1  0  0  0
  1 16  1  0  0  0
  2 17  1  0  0  0
  4 18  1  0  0  0
  5 19  1  0  0  0
  5 20  1  0  0  0
  6 21  1  0  0  0
  6 22  1  0  0  0
  7 23  1  0  0  0
  7 24  1  0  0  0
  8 25  1  0  0  0
 10 26  1  0  0  0
 11 27  1  0  0  0
 12 28  1  0  0  0
M  END
$$$$
