5lyn_ligand
  -I-interpret- 

109109  0  0  0  0  0  0  0  0999 V2000
   14.4700    7.6580  -29.5100 N   0  3  0  0  0
   13.4980    8.5310  -30.1650 C   0  0  0  0  0
   12.2060    7.7930  -30.5060 C   0  0  0  0  0
   12.2730    6.7660  -31.1830 O   0  0  0  0  0
   14.2320    8.9510  -31.4330 C   0  0  0  0  0
   15.1610    7.7760  -31.7380 C   0  0  0  0  0
   15.2650    6.9150  -30.5000 C   0  0  0  0  0
   11.0560    8.2910  -30.0480 N   0  0  0  0  0
    9.7970    7.6120  -30.3350 C   0  0  0  0  0
    9.5860    7.5220  -31.8410 C   0  0  0  0  0
    9.5810    8.5400  -32.5430 O   0  0  0  0  0
    8.6150    8.3330  -29.6770 C   0  0  0  0  0
    8.6680    8.1680  -28.2530 O   0  0  0  0  0
    7.2940    7.7780  -30.1940 C   0  0  0  0  0
    9.4430    6.2980  -32.3370 N   0  0  0  0  0
    9.1150    6.0400  -33.7340 C   0  0  0  0  0
    7.6270    5.7100  -33.7710 C   0  0  0  0  0
    7.2120    4.6040  -33.4140 O   0  0  0  0  0
    9.9690    4.9150  -34.3220 C   0  0  0  0  0
    9.6070    4.6900  -35.7770 C   0  0  0  0  0
   11.4510    5.2460  -34.1770 C   0  0  0  0  0
    6.8180    6.6760  -34.1990 N   0  0  0  0  0
    5.3700    6.5570  -34.1050 C   0  0  0  0  0
    4.8030    5.7190  -35.2470 C   0  0  0  0  0
    5.2570    5.8070  -36.3920 O   0  0  0  0  0
    4.7260    7.9480  -34.0930 C   0  0  0  0  0
    4.7930    8.6630  -32.7340 C   0  0  0  0  0
    5.6280    9.9430  -32.7510 C   0  0  0  0  0
    6.1700   10.3030  -33.8230 O   0  0  0  0  0
    5.7420   10.5910  -31.6830 O   0  0  0  0  0
    3.8110    4.8940  -34.9180 N   0  0  0  0  0
    3.0970    4.1030  -35.9100 C   0  0  0  0  0
    2.2880    5.0010  -36.8430 C   0  0  0  0  0
    1.8270    6.0810  -36.4620 O   0  0  0  0  0
    2.1650    3.1060  -35.2150 C   0  0  0  0  0
    1.4980    2.0910  -36.1380 C   0  0  0  0  0
    0.1710    1.5890  -35.5930 C   0  0  0  0  0
   -0.6330    2.4220  -35.1180 O   0  0  0  0  0
   -0.0680    0.3620  -35.6360 O   0  0  0  0  0
    2.1070    4.5290  -38.0780 N   0  0  0  0  0
    1.3540    5.2470  -39.1030 C   0  0  0  0  0
   -0.1310    5.2790  -38.7550 C   0  0  0  0  0
   -0.5930    4.5290  -37.8880 O   0  0  0  0  0
    1.5770    4.6080  -40.4830 C   0  0  0  0  0
    3.0060    4.8460  -40.9440 C   0  0  0  0  0
    1.2640    3.1230  -40.4240 C   0  0  0  0  0
   -0.8910    6.1310  -39.4430 N   0  0  0  0  0
   -2.3120    6.3080  -39.1400 C   0  0  0  0  0
   -3.2240    6.0280  -40.3410 C   0  0  0  0  0
   -4.4510    6.1000  -40.2320 O   0  0  0  0  0
   -2.5630    7.7270  -38.6160 C   0  0  0  0  0
   -1.6800    8.0750  -37.4260 C   0  0  0  0  0
   -1.2170    9.2330  -37.3430 O   0  0  0  0  0
   -1.4460    7.1880  -36.5760 O   0  0  0  0  0
   -2.7770    5.7250  -41.4490 O   0  0  0  0  0
   13.9673    6.9893  -28.9264 H   0  0  0  0  0
   15.0998    8.2326  -28.9500 H   0  0  0  0  0
   13.1869    9.3651  -29.5361 H   0  0  0  0  0
   14.7800    9.8838  -31.3002 H   0  0  0  0  0
   13.5465    9.1564  -32.2552 H   0  0  0  0  0
   16.1475    8.1443  -32.0197 H   0  0  0  0  0
   14.7620    7.1908  -32.5665 H   0  0  0  0  0
   14.8987    5.9009  -30.6597 H   0  0  0  0  0
   16.2954    6.7577  -30.1811 H   0  0  0  0  0
   11.0571    9.1486  -29.4958 H   0  0  0  0  0
    9.8505    6.6060  -29.9189 H   0  0  0  0  0
    8.6810    9.3919  -29.9268 H   0  0  0  0  0
    7.9241    8.6229  -27.8514 H   0  0  0  0  0
    7.2391    7.9204  -31.2733 H   0  0  0  0  0
    7.2329    6.7145  -29.9630 H   0  0  0  0  0
    6.4681    8.3033  -29.7144 H   0  0  0  0  0
    9.5684    5.5020  -31.7117 H   0  0  0  0  0
    9.3318    6.9113  -34.3520 H   0  0  0  0  0
    9.7692    3.9951  -33.7724 H   0  0  0  0  0
    8.5546    4.4158  -35.8500 H   0  0  0  0  0
    9.7850    5.6061  -36.3402 H   0  0  0  0  0
   10.2220    3.8869  -36.1831 H   0  0  0  0  0
   11.6684    6.1734  -34.7069 H   0  0  0  0  0
   11.6940    5.3639  -33.1210 H   0  0  0  0  0
   12.0459    4.4364  -34.5998 H   0  0  0  0  0
    7.2224    7.5208  -34.6030 H   0  0  0  0  0
    5.1347    6.0467  -33.1710 H   0  0  0  0  0
    3.6714    7.8157  -34.3347 H   0  0  0  0  0
    5.2752    8.5623  -34.8065 H   0  0  0  0  0
    5.2631    7.9775  -32.0289 H   0  0  0  0  0
    3.7749    8.9426  -32.4633 H   0  0  0  0  0
    5.2531   10.1465  -30.9866 H   0  0  0  0  0
    3.5421    4.8134  -33.9374 H   0  0  0  0  0
    3.8312    3.5586  -36.5039 H   0  0  0  0  0
    1.3646    3.6896  -34.7601 H   0  0  0  0  0
    2.7787    2.5381  -34.5157 H   0  0  0  0  0
    2.1663    1.2353  -36.2343 H   0  0  0  0  0
    1.3048    2.5814  -37.0921 H   0  0  0  0  0
   -0.2553    3.3022  -35.1823 H   0  0  0  0  0
    2.5135    3.6246  -38.3173 H   0  0  0  0  0
    1.7165    6.2743  -39.1402 H   0  0  0  0  0
    0.9051    5.0707  -41.2059 H   0  0  0  0  0
    3.1909    5.9181  -41.0114 H   0  0  0  0  0
    3.6964    4.4013  -40.2273 H   0  0  0  0  0
    3.1516    4.3887  -41.9226 H   0  0  0  0  0
    1.9185    2.6437  -39.6960 H   0  0  0  0  0
    0.2245    2.9836  -40.1271 H   0  0  0  0  0
    1.4251    2.6797  -41.4067 H   0  0  0  0  0
   -0.4721    6.6727  -40.1990 H   0  0  0  0  0
   -2.5629    5.5737  -38.3746 H   0  0  0  0  0
   -4.6775    6.3415  -39.3309 H   0  0  0  0  0
   -3.6020    7.7865  -38.2920 H   0  0  0  0  0
   -2.3347    8.4271  -39.4197 H   0  0  0  0  0
   -1.8951    6.3780  -36.8285 H   0  0  0  0  0
  1  2  1  0  0  0
  1  7  1  0  0  0
  2  3  1  0  0  0
  2  5  1  0  0  0
  3  4  2  0  0  0
  3  8  1  0  0  0
  5  6  1  0  0  0
  6  7  1  0  0  0
  8  9  1  0  0  0
  9 10  1  0  0  0
  9 12  1  0  0  0
 10 11  2  0  0  0
 10 15  1  0  0  0
 12 13  1  0  0  0
 12 14  1  0  0  0
 15 16  1  0  0  0
 16 17  1  0  0  0
 16 19  1  0  0  0
 17 18  2  0  0  0
 17 22  1  0  0  0
 19 20  1  0  0  0
 19 21  1  0  0  0
 22 23  1  0  0  0
 23 24  1  0  0  0
 23 26  1  0  0  0
 24 25  2  0  0  0
 24 31  1  0  0  0
 26 27  1  0  0  0
 27 28  1  0  0  0
 28 29  2  0  0  0
 28 30  1  0  0  0
 31 32  1  0  0  0
 32 33  1  0  0  0
 32 35  1  0  0  0
 33 34  2  0  0  0
 33 40  1  0  0  0
 35 36  1  0  0  0
 36 37  1  0  0  0
 37 38  1  0  0  0
 37 39  2  0  0  0
 40 41  1  0  0  0
 41 42  1  0  0  0
 41 44  1  0  0  0
 42 43  2  0  0  0
 42 47  1  0  0  0
 44 45  1  0  0  0
 44 46  1  0  0  0
 47 48  1  0  0  0
 48 49  1  0  0  0
 48 51  1  0  0  0
 49 50  1  0  0  0
 49 55  2  0  0  0
 51 52  1  0  0  0
 52 53  2  0  0  0
 52 54  1  0  0  0
  1 56  1  0  0  0
  1 57  1  0  0  0
  2 58  1  0  0  0
  5 59  1  0  0  0
  5 60  1  0  0  0
  6 61  1  0  0  0
  6 62  1  0  0  0
  7 63  1  0  0  0
  7 64  1  0  0  0
  8 65  1  0  0  0
  9 66  1  0  0  0
 12 67  1  0  0  0
 13 68  1  0  0  0
 14 69  1  0  0  0
 14 70  1  0  0  0
 14 71  1  0  0  0
 15 72  1  0  0  0
 16 73  1  0  0  0
 19 74  1  0  0  0
 20 75  1  0  0  0
 20 76  1  0  0  0
 20 77  1  0  0  0
 21 78  1  0  0  0
 21 79  1  0  0  0
 21 80  1  0  0  0
 22 81  1  0  0  0
 23 82  1  0  0  0
 26 83  1  0  0  0
 26 84  1  0  0  0
 27 85  1  0  0  0
 27 86  1  0  0  0
 30 87  1  0  0  0
 31 88  1  0  0  0
 32 89  1  0  0  0
 35 90  1  0  0  0
 35 91  1  0  0  0
 36 92  1  0  0  0
 36 93  1  0  0  0
 38 94  1  0  0  0
 40 95  1  0  0  0
 41 96  1  0  0  0
 44 97  1  0  0  0
 45 98  1  0  0  0
 45 99  1  0  0  0
 45100  1  0  0  0
 46101  1  0  0  0
 46102  1  0  0  0
 46103  1  0  0  0
 47104  1  0  0  0
 48105  1  0  0  0
 50106  1  0  0  0
 51107  1  0  0  0
 51108  1  0  0  0
 54109  1  0  0  0
M  END
$$$$
