4q1f_ligand
  -I-interpret- 

 59 61  0  0  0  0  0  0  0  0999 V2000
   10.1010  -37.5580  -17.1370 C   0  0  0  0  0
    8.9160  -36.5830  -16.2360 S   0  0  0  0  0
    7.6140  -37.3730  -16.0920 O   0  0  0  0  0
    8.6460  -35.2820  -16.9920 O   0  0  0  0  0
    9.5060  -36.2240  -14.7620 N   0  0  0  0  0
    8.5370  -35.4170  -14.0030 C   0  0  0  0  0
    9.1160  -35.0480  -12.6380 C   0  0  0  0  0
    9.4190  -36.2370  -11.9070 O   0  0  0  0  0
   10.2390  -36.0000  -10.8460 C   0  0  0  0  0
   10.6880  -34.6970  -10.5950 C   0  0  0  0  0
   10.6820  -37.0510  -10.0080 C   0  0  0  0  0
   10.2940  -38.3730  -10.1580 O   0  0  0  0  0
    9.4660  -38.9610  -11.1780 C   0  0  0  0  0
   11.5100  -36.7630   -8.9380 C   0  0  0  0  0
   11.9370  -35.4630   -8.6960 C   0  0  0  0  0
   11.5150  -34.4310   -9.5140 C   0  0  0  0  0
   11.9870  -33.2250   -9.2280 C   0  0  0  0  0
   11.8410  -32.0800   -9.9140 N   0  0  0  0  0
   12.9400  -32.9830   -7.9240 S   0  0  0  0  0
   13.1610  -31.4400   -8.1990 C   0  0  0  0  0
   13.9860  -30.4830   -7.3480 C   0  0  0  0  0
   12.5200  -31.0870   -9.3070 C   0  0  0  0  0
   12.5750  -29.6390   -9.7520 C   0  0  0  0  0
   13.0970  -29.5970  -11.1870 C   0  0  0  0  0
   10.9100  -29.0290   -9.6490 S   0  0  0  0  0
   11.1540  -27.3380   -9.4740 C   0  0  0  0  0
   12.3890  -26.8190   -9.4100 N   0  0  0  0  0
   10.0710  -26.5590   -9.3650 N   0  0  0  0  0
   10.1890  -25.2370   -9.2160 C   0  0  0  0  0
    9.1010  -24.4800   -9.1230 N   0  0  0  0  0
   11.4520  -24.6660   -9.1580 C   0  0  0  0  0
   12.5590  -25.4980   -9.2600 C   0  0  0  0  0
   13.7840  -24.9840   -9.2090 N   0  0  0  0  0
   10.2941  -38.4843  -16.5958 H   0  0  0  0  0
    9.7032  -37.7892  -18.1251 H   0  0  0  0  0
   11.0291  -36.9957  -17.2400 H   0  0  0  0  0
   10.4187  -36.5170  -14.4134 H   0  0  0  0  0
    7.6242  -35.9952  -13.8599 H   0  0  0  0  0
    8.3192  -34.5044  -14.5577 H   0  0  0  0  0
    8.3862  -34.4585  -12.0831 H   0  0  0  0  0
   10.0276  -34.4669  -12.7771 H   0  0  0  0  0
   10.3846  -33.8847  -11.2554 H   0  0  0  0  0
    8.4819  -38.4927  -11.1600 H   0  0  0  0  0
    9.9267  -38.8041  -12.1533 H   0  0  0  0  0
    9.3646  -40.0299  -10.9904 H   0  0  0  0  0
   11.8319  -37.5667   -8.2757 H   0  0  0  0  0
   12.6055  -35.2564   -7.8602 H   0  0  0  0  0
   13.5755  -30.4502   -6.3388 H   0  0  0  0  0
   15.0186  -30.8301   -7.3105 H   0  0  0  0  0
   13.9521  -29.4863   -7.7879 H   0  0  0  0  0
   13.2359  -29.0279   -9.1372 H   0  0  0  0  0
   14.0934  -30.0375  -11.2229 H   0  0  0  0  0
   12.4252  -30.1618  -11.8333 H   0  0  0  0  0
   13.1436  -28.5618  -11.5251 H   0  0  0  0  0
    8.1764  -24.9086   -9.1654 H   0  0  0  0  0
    9.1904  -23.4703   -9.0092 H   0  0  0  0  0
   11.5725  -23.5897   -9.0353 H   0  0  0  0  0
   14.5971  -25.5953   -9.2841 H   0  0  0  0  0
   13.9108  -23.9784   -9.0948 H   0  0  0  0  0
  1  2  1  0  0  0
  2  3  2  0  0  0
  2  4  2  0  0  0
  2  5  1  0  0  0
  5  6  1  0  0  0
  6  7  1  0  0  0
  7  8  1  0  0  0
  8  9  1  0  0  0
  9 10  4  0  0  0
  9 11  4  0  0  0
 10 16  4  0  0  0
 11 12  1  0  0  0
 11 14  4  0  0  0
 12 13  1  0  0  0
 14 15  4  0  0  0
 15 16  4  0  0  0
 16 17  1  0  0  0
 17 18  4  0  0  0
 17 19  4  0  0  0
 18 22  4  0  0  0
 19 20  4  0  0  0
 20 21  1  0  0  0
 20 22  4  0  0  0
 22 23  1  0  0  0
 23 24  1  0  0  0
 23 25  1  0  0  0
 25 26  1  0  0  0
 26 27  4  0  0  0
 26 28  4  0  0  0
 27 32  4  0  0  0
 28 29  4  0  0  0
 29 30  1  0  0  0
 29 31  4  0  0  0
 31 32  4  0  0  0
 32 33  1  0  0  0
  1 34  1  0  0  0
  1 35  1  0  0  0
  1 36  1  0  0  0
  5 37  1  0  0  0
  6 38  1  0  0  0
  6 39  1  0  0  0
  7 40  1  0  0  0
  7 41  1  0  0  0
 10 42  1  0  0  0
 13 43  1  0  0  0
 13 44  1  0  0  0
 13 45  1  0  0  0
 14 46  1  0  0  0
 15 47  1  0  0  0
 21 48  1  0  0  0
 21 49  1  0  0  0
 21 50  1  0  0  0
 23 51  1  0  0  0
 24 52  1  0  0  0
 24 53  1  0  0  0
 24 54  1  0  0  0
 30 55  1  0  0  0
 30 56  1  0  0  0
 31 57  1  0  0  0
 33 58  1  0  0  0
 33 59  1  0  0  0
M  END
$$$$
