4uns_ligand
  -I-interpret- 

 45 47  0  0  0  0  0  0  0  0999 V2000
    4.1110   20.8670   -8.0070 C   0  0  0  0  0
    7.3750   19.1320   -7.8400 C   0  0  0  0  0
    6.3850   20.2820   -6.0440 C   0  0  0  0  0
    8.5690   19.7720   -7.5720 C   0  0  0  0  0
    7.5730   20.9300   -5.7740 C   0  0  0  0  0
    3.2800   15.4250   -7.8080 C   0  0  0  0  0
    6.2630   19.3780   -7.0750 C   0  0  0  0  0
    4.7710   17.2500   -7.3750 C   0  0  0  0  0
    3.5620   16.7640   -7.8200 C   0  0  0  0  0
    8.6800   20.6800   -6.5410 C   0  0  0  0  0
    4.2290   14.5670   -7.3350 C   0  0  0  0  0
    5.6730   16.3080   -6.9060 C   0  0  0  0  0
    4.0100   19.4720   -7.8970 C   0  0  0  0  0
    5.0060   18.6880   -7.4270 C   0  0  0  0  0
    2.7140   18.9490   -8.3560 C   0  0  0  0  0
    7.0360   16.6600   -6.3760 C   0  0  0  0  0
    4.0970   12.5200   -5.9500 C   0  0  0  0  0
    9.2830   23.6920   -5.1250 C   0  0  0  0  0
    3.9140   13.0940   -7.3290 C   0  0  0  0  0
    4.2010   22.0160   -8.1040 N   0  0  0  0  0
    5.4090   14.9920   -6.8850 N   0  0  0  0  0
    2.5640   17.5940   -8.2960 N   0  0  0  0  0
    9.9760   21.2920   -6.3840 N   0  0  0  0  0
    1.8630   19.7250   -8.7820 O   0  0  0  0  0
   11.7350   22.9530   -5.5000 O   0  0  0  0  0
   10.3710   21.6420   -3.8390 O   0  0  0  0  0
   10.4620   22.3660   -5.1080 S   0  0  0  0  0
    7.3155   18.4247   -8.6672 H   0  0  0  0  0
    5.5156   20.4926   -5.4212 H   0  0  0  0  0
    9.4414   19.5547   -8.1883 H   0  0  0  0  0
    7.6305   21.6412   -4.9500 H   0  0  0  0  0
    2.3205   15.0532   -8.1676 H   0  0  0  0  0
    7.6099   17.1598   -7.1563 H   0  0  0  0  0
    6.9305   17.3247   -5.5186 H   0  0  0  0  0
    7.5518   15.7497   -6.0704 H   0  0  0  0  0
    5.1300   12.6625   -5.6326 H   0  0  0  0  0
    3.4286   13.0279   -5.2548 H   0  0  0  0  0
    3.8645   11.4552   -5.9673 H   0  0  0  0  0
    9.5947   24.4627   -4.4201 H   0  0  0  0  0
    9.2289   24.1155   -6.1279 H   0  0  0  0  0
    8.3037   23.3094   -4.8375 H   0  0  0  0  0
    4.5898   12.5851   -8.0164 H   0  0  0  0  0
    2.8777   12.9528   -7.6361 H   0  0  0  0  0
    1.6872   17.1801   -8.6126 H   0  0  0  0  0
   10.6767   21.0727   -7.0921 H   0  0  0  0  0
 13  1  1  0  0  0
  1 20  3  0  0  0
  4  2  4  0  0  0
  2  7  4  0  0  0
  5  3  4  0  0  0
  3  7  4  0  0  0
 10  4  4  0  0  0
 10  5  4  0  0  0
  9  6  4  0  0  0
  6 11  4  0  0  0
  7 14  1  0  0  0
  8  9  4  0  0  0
  8 12  4  0  0  0
 14  8  1  0  0  0
  9 22  1  0  0  0
 23 10  1  0  0  0
 11 19  1  0  0  0
 21 11  4  0  0  0
 12 16  1  0  0  0
 12 21  4  0  0  0
 14 13  2  0  0  0
 13 15  1  0  0  0
 15 22  1  0  0  0
 15 24  2  0  0  0
 19 17  1  0  0  0
 27 18  1  0  0  0
 23 27  1  0  0  0
 27 25  2  0  0  0
 27 26  2  0  0  0
  2 28  1  0  0  0
  3 29  1  0  0  0
  4 30  1  0  0  0
  5 31  1  0  0  0
  6 32  1  0  0  0
 16 33  1  0  0  0
 16 34  1  0  0  0
 16 35  1  0  0  0
 17 36  1  0  0  0
 17 37  1  0  0  0
 17 38  1  0  0  0
 18 39  1  0  0  0
 18 40  1  0  0  0
 18 41  1  0  0  0
 19 42  1  0  0  0
 19 43  1  0  0  0
 22 44  1  0  0  0
 23 45  1  0  0  0
M  END
$$$$
