2hz4_ligand
  -I-interpret- 

 66 73  0  0  0  0  0  0  0  0999 V2000
   24.5600    4.7580   25.4650 C   0  0  0  0  0
   25.0800    5.0520   26.7580 O   0  0  0  0  0
   25.0820    4.0320   27.7760 C   0  0  0  0  0
   25.0900    4.7730   29.1140 C   0  0  0  0  0
   23.8280    5.5410   29.2760 N   0  3  0  0  0
   23.2360    5.8860   30.5830 C   0  0  0  0  0
   26.3850    5.6050   29.1340 C   0  0  0  0  0
   27.5350    4.6870   28.6540 C   0  0  0  0  0
   27.2650    3.2740   28.4590 O   0  0  0  0  0
   26.1590    2.8890   27.6240 C   0  0  0  0  0
   25.7670    1.5880   28.3540 C   0  0  0  0  0
   26.6590    2.6650   26.2470 N   0  0  0  0  0
   26.2510    1.7600   25.2350 C   0  0  0  0  0
   25.2550    0.7280   25.1860 C   0  0  0  0  0
   25.0630   -0.0780   24.0140 C   0  0  0  0  0
   25.8630    0.1510   22.8660 C   0  0  0  0  0
   26.8550    1.1730   22.9270 C   0  0  0  0  0
   27.0110    1.9350   24.1220 C   0  0  0  0  0
   27.9270    3.0020   24.3920 C   0  0  0  0  0
   27.6990    3.4580   25.7410 C   0  0  0  0  0
   28.4310    4.4750   26.2900 C   0  0  0  0  0
   28.3700    5.0960   27.5330 N   0  0  0  0  0
   29.3260    6.0820   27.6120 C   0  0  0  0  0
   29.6050    6.9680   28.8130 C   0  0  0  0  0
   30.2140    8.3110   28.3770 C   0  0  0  0  0
   31.4130    8.1240   27.4240 C   0  0  0  0  0
   31.1210    7.1740   26.2280 C   0  0  0  0  0
   30.0170    6.1670   26.4560 C   0  0  0  0  0
   29.4730    5.1610   25.5620 C   0  0  0  0  0
   29.6800    4.6970   24.2280 C   0  0  0  0  0
   28.9460    3.6500   23.6580 C   0  0  0  0  0
   29.3630    3.3680   22.2350 C   0  0  0  0  0
   30.4180    4.3800   22.1310 N   0  0  0  0  0
   30.6190    5.1420   23.2230 C   0  0  0  0  0
   31.4300    6.0540   23.3670 O   0  0  0  0  0
   25.1297    3.9407   25.0229 H   0  0  0  0  0
   23.5133    4.4669   25.5533 H   0  0  0  0  0
   24.6404    5.6423   24.8328 H   0  0  0  0  0
   24.1847    3.4204   27.6818 H   0  0  0  0  0
   25.1051    4.1130   29.9814 H   0  0  0  0  0
   23.1306    4.9169   28.8704 H   0  0  0  0  0
   24.0684    6.4538   28.8894 H   0  0  0  0  0
   23.0144    4.9713   31.1329 H   0  0  0  0  0
   23.9418    6.4914   31.1517 H   0  0  0  0  0
   22.3160    6.4493   30.4264 H   0  0  0  0  0
   26.5859    5.9735   30.1400 H   0  0  0  0  0
   26.2912    6.4721   28.4802 H   0  0  0  0  0
   28.0893    4.8419   29.5796 H   0  0  0  0  0
   26.6100    0.8972   28.3405 H   0  0  0  0  0
   25.5005    1.8179   29.3856 H   0  0  0  0  0
   24.9145    1.1328   27.8499 H   0  0  0  0  0
   24.6287    0.5519   26.0606 H   0  0  0  0  0
   24.3060   -0.8622   24.0065 H   0  0  0  0  0
   25.7231   -0.4391   21.9603 H   0  0  0  0  0
   27.4911    1.3709   22.0643 H   0  0  0  0  0
   30.3131    6.4585   29.4666 H   0  0  0  0  0
   28.6655    7.1616   29.3307 H   0  0  0  0  0
   30.5666    8.8293   29.2687 H   0  0  0  0  0
   29.4460    8.8767   27.8495 H   0  0  0  0  0
   32.2223    7.6789   28.0029 H   0  0  0  0  0
   31.6554    9.1028   27.0102 H   0  0  0  0  0
   32.0328    6.6027   26.0539 H   0  0  0  0  0
   30.8006    7.8055   25.3994 H   0  0  0  0  0
   28.5702    3.4366   21.4901 H   0  0  0  0  0
   29.6723    2.3432   22.0297 H   0  0  0  0  0
   30.9682    4.5002   21.2806 H   0  0  0  0  0
  1  2  1  0  0  0
  2  3  1  0  0  0
  3  4  1  0  0  0
  3 10  1  0  0  0
  4  5  1  0  0  0
  4  7  1  0  0  0
  5  6  1  0  0  0
  7  8  1  0  0  0
  8  9  1  0  0  0
  8 22  1  0  0  0
  9 10  1  0  0  0
 10 11  1  0  0  0
 10 12  1  0  0  0
 12 13  4  0  0  0
 12 20  4  0  0  0
 13 14  4  0  0  0
 13 18  4  0  0  0
 14 15  4  0  0  0
 15 16  4  0  0  0
 16 17  4  0  0  0
 17 18  4  0  0  0
 18 19  4  0  0  0
 19 20  4  0  0  0
 19 31  4  0  0  0
 20 21  4  0  0  0
 21 22  4  0  0  0
 21 29  4  0  0  0
 22 23  4  0  0  0
 23 24  1  0  0  0
 23 28  4  0  0  0
 24 25  1  0  0  0
 25 26  1  0  0  0
 26 27  1  0  0  0
 27 28  1  0  0  0
 28 29  4  0  0  0
 29 30  4  0  0  0
 30 31  4  0  0  0
 30 34  1  0  0  0
 31 32  1  0  0  0
 32 33  1  0  0  0
 33 34  1  0  0  0
 34 35  2  0  0  0
  1 36  1  0  0  0
  1 37  1  0  0  0
  1 38  1  0  0  0
  3 39  1  0  0  0
  4 40  1  0  0  0
  5 41  1  0  0  0
  5 42  1  0  0  0
  6 43  1  0  0  0
  6 44  1  0  0  0
  6 45  1  0  0  0
  7 46  1  0  0  0
  7 47  1  0  0  0
  8 48  1  0  0  0
 11 49  1  0  0  0
 11 50  1  0  0  0
 11 51  1  0  0  0
 14 52  1  0  0  0
 15 53  1  0  0  0
 16 54  1  0  0  0
 17 55  1  0  0  0
 24 56  1  0  0  0
 24 57  1  0  0  0
 25 58  1  0  0  0
 25 59  1  0  0  0
 26 60  1  0  0  0
 26 61  1  0  0  0
 27 62  1  0  0  0
 27 63  1  0  0  0
 32 64  1  0  0  0
 32 65  1  0  0  0
 33 66  1  0  0  0
M  END
$$$$
