5lz9_ligand
  -I-interpret- 

 50 52  0  0  0  0  0  0  0  0999 V2000
   27.7630   -0.2030   -0.4370 C   0  0  0  0  0
   27.4310    0.0750   -1.9180 C   0  0  0  0  0
   28.4580   -0.6050   -2.8450 C   0  0  0  0  0
   25.8420   -1.9500   -2.1030 C   0  0  0  0  0
   27.4570    1.5990   -2.2150 C   0  0  0  0  0
   26.4060    2.4480   -1.4940 C   0  0  0  0  0
   26.2630    4.9640   -1.1390 C   0  0  0  0  0
   25.5280    5.5200   -2.3290 C   0  0  0  0  0
   23.2510    7.7950   -5.0770 C   0  0  0  0  0
   22.5690    9.1970   -3.2380 C   0  0  0  0  0
   21.8280   10.3100   -2.7130 C   0  0  0  0  0
   23.3410    8.4280   -2.3740 C   0  0  0  0  0
   28.3280    3.7610   -1.7490 C   0  0  0  0  0
   28.7690    2.3360   -1.9360 C   0  0  0  0  0
   28.5110   -2.1180   -2.7070 C   0  0  0  0  0
   26.9630   -2.8580   -3.1180 S   0  0  0  0  0
   26.6740   -2.5960   -4.5030 O   0  0  0  0  0
   26.9770   -4.2260   -2.6810 O   0  0  0  0  0
   26.0210   -0.4490   -2.2720 C   0  0  0  0  0
   27.0160    3.7690   -1.4680 N   0  0  0  0  0
   24.7850    6.6710   -1.9120 O   0  0  0  0  0
   24.0630    7.3510   -2.8610 C   0  0  0  0  0
   24.0150    7.0370   -4.2160 C   0  0  0  0  0
   22.5410    8.8600   -4.5850 C   0  0  0  0  0
   21.7910    9.6030   -5.4300 F   0  0  0  0  0
   21.2370   11.1960   -2.2960 N   0  0  0  0  0
   29.0350    4.7540   -1.8340 O   0  0  0  0  0
   27.0319    0.2973    0.1980 H   0  0  0  0  0
   27.7305   -1.2771   -0.2541 H   0  0  0  0  0
   28.7604    0.1751   -0.2124 H   0  0  0  0  0
   29.4415   -0.2214   -2.5736 H   0  0  0  0  0
   28.1626   -0.3845   -3.8708 H   0  0  0  0  0
   26.0381   -2.2045   -1.0614 H   0  0  0  0  0
   24.8249   -2.2101   -2.3963 H   0  0  0  0  0
   27.2616    1.5299   -3.2851 H   0  0  0  0  0
   26.1688    2.0720   -0.4988 H   0  0  0  0  0
   25.4383    2.4388   -1.9955 H   0  0  0  0  0
   25.5273    4.7021   -0.3786 H   0  0  0  0  0
   26.9650    5.7214   -0.7904 H   0  0  0  0  0
   24.8501    4.7670   -2.7309 H   0  0  0  0  0
   26.2391    5.7996   -3.1063 H   0  0  0  0  0
   23.2115    7.5504   -6.1385 H   0  0  0  0  0
   23.3779    8.6730   -1.3125 H   0  0  0  0  0
   29.4951    2.2223   -2.7410 H   0  0  0  0  0
   29.2971    1.9414   -1.0679 H   0  0  0  0  0
   28.7470   -2.3626   -1.6713 H   0  0  0  0  0
   29.2694   -2.5010   -3.3898 H   0  0  0  0  0
   25.8540   -0.2255   -3.3257 H   0  0  0  0  0
   25.3217    0.0335   -1.5891 H   0  0  0  0  0
   24.5835    6.1888   -4.5975 H   0  0  0  0  0
  2  1  1  0  0  0
  2  3  1  0  0  0
  5  2  1  0  0  0
  2 19  1  0  0  0
  3 15  1  0  0  0
  4 16  1  0  0  0
 19  4  1  0  0  0
  6  5  1  0  0  0
 14  5  1  0  0  0
 20  6  1  0  0  0
  8  7  1  0  0  0
  7 20  1  0  0  0
 21  8  1  0  0  0
  9 23  4  0  0  0
 24  9  4  0  0  0
 10 11  1  0  0  0
 12 10  4  0  0  0
 10 24  4  0  0  0
 11 26  3  0  0  0
 22 12  4  0  0  0
 13 14  1  0  0  0
 20 13  1  0  0  0
 13 27  2  0  0  0
 15 16  1  0  0  0
 16 17  2  0  0  0
 16 18  2  0  0  0
 21 22  1  0  0  0
 22 23  4  0  0  0
 24 25  1  0  0  0
  1 28  1  0  0  0
  1 29  1  0  0  0
  1 30  1  0  0  0
  3 31  1  0  0  0
  3 32  1  0  0  0
  4 33  1  0  0  0
  4 34  1  0  0  0
  5 35  1  0  0  0
  6 36  1  0  0  0
  6 37  1  0  0  0
  7 38  1  0  0  0
  7 39  1  0  0  0
  8 40  1  0  0  0
  8 41  1  0  0  0
  9 42  1  0  0  0
 12 43  1  0  0  0
 14 44  1  0  0  0
 14 45  1  0  0  0
 15 46  1  0  0  0
 15 47  1  0  0  0
 19 48  1  0  0  0
 19 49  1  0  0  0
 23 50  1  0  0  0
M  END
$$$$
