2r1x_ligand
  -I-interpret- 

 60 61  0  0  0  0  0  0  0  0999 V2000
  -12.2250    2.0270   70.8140 O   0  0  0  0  0
  -11.3090    1.9490   71.6860 C   0  0  0  0  0
  -11.2900    1.1380   72.6410 O   0  0  0  0  0
  -10.0790    2.8640   71.6490 C   0  0  0  0  0
   -9.0430    2.4710   72.4770 O   0  0  0  0  0
   -7.6830    2.9420   72.2300 C   0  0  0  0  0
   -6.7490    2.5240   73.3790 C   0  0  0  0  0
   -7.2700    2.8510   74.7850 C   0  0  0  0  0
   -6.1750    3.0990   75.6640 O   0  0  0  0  0
   -6.5950    1.1160   73.2760 O   0  0  0  0  0
   -7.6530    4.4430   71.8530 C   0  0  0  0  0
   -9.9810    4.0210   70.8520 C   0  0  0  0  0
   -8.6660    4.4700   70.7060 C   0  0  0  0  0
   -9.6650    0.7790   65.8130 C   0  0  0  0  0
  -10.6770    1.4220   65.4060 O   0  0  0  0  0
   -9.5760   -0.4450   65.9350 O   0  0  0  0  0
   -8.4420    1.5950   66.1190 C   0  0  0  0  0
   -7.4220    1.4510   64.9490 C   0  0  0  0  0
   -6.2640    2.4530   65.1180 C   0  0  0  0  0
   -5.4620    2.4850   63.9080 O   0  0  0  0  0
   -6.7350    3.8660   65.4330 C   0  0  0  0  0
   -7.5330    4.3380   64.3330 O   0  0  0  0  0
   -7.6710    3.8730   66.6750 C   0  0  0  0  0
   -8.8220    3.0190   66.4130 O   0  0  0  0  0
   -8.1730    5.2750   67.0390 C   0  0  0  0  0
   -6.9990    6.0230   67.2990 O   0  0  0  0  0
   -9.0510    5.2120   68.3060 C   0  0  0  0  0
   -8.1760    4.7630   69.3590 O   0  0  0  0  0
   -7.8170    1.0870   67.3830 O   0  0  0  0  0
   -8.6230    1.1100   68.5580 C   0  0  0  0  0
   -8.7470    0.0280   69.3690 C   0  0  0  0  0
   -7.6790   -0.4010   70.1200 C   0  0  0  0  0
  -12.0119    2.7239   70.1891 H   0  0  0  0  0
   -7.2818    2.4479   71.3452 H   0  0  0  0  0
   -5.8208    3.0852   73.2717 H   0  0  0  0  0
   -7.8470    2.0056   75.1598 H   0  0  0  0  0
   -7.9001    3.7391   74.7369 H   0  0  0  0  0
   -6.5095    3.3026   76.5405 H   0  0  0  0  0
   -6.2691    0.8941   72.4007 H   0  0  0  0  0
   -6.6643    4.8117   71.5799 H   0  0  0  0  0
   -7.8992    5.1121   72.6775 H   0  0  0  0  0
  -10.8402    4.5140   70.3972 H   0  0  0  0  0
   -9.0363    5.3937   71.1508 H   0  0  0  0  0
  -10.4794    2.3614   65.4068 H   0  0  0  0  0
   -7.9318    1.6539   64.0072 H   0  0  0  0  0
   -7.0183    0.4385   64.9532 H   0  0  0  0  0
   -5.6764    2.1067   65.9683 H   0  0  0  0  0
   -4.7423    3.1106   64.0189 H   0  0  0  0  0
   -5.8555    4.4843   65.6125 H   0  0  0  0  0
   -7.8369    5.2294   64.5190 H   0  0  0  0  0
   -7.0850    3.5049   67.5171 H   0  0  0  0  0
   -8.7789    5.7157   66.2473 H   0  0  0  0  0
   -7.2394    6.9217   67.5360 H   0  0  0  0  0
   -9.8957    4.5360   68.1733 H   0  0  0  0  0
   -9.4886    6.1832   68.5373 H   0  0  0  0  0
   -9.6320    1.2576   68.1729 H   0  0  0  0  0
   -8.1310    1.8486   69.1909 H   0  0  0  0  0
   -9.6976   -0.5025   69.4246 H   0  0  0  0  0
   -6.7274    0.1278   70.0661 H   0  0  0  0  0
   -7.7835   -1.2701   70.7695 H   0  0  0  0  0
  2  1  1  0  0  0
  2  3  2  0  0  0
  4  2  1  0  0  0
  5  4  1  0  0  0
  4 12  2  0  0  0
  6  5  1  0  0  0
  6  7  1  0  0  0
 11  6  1  0  0  0
  7  8  1  0  0  0
  7 10  1  0  0  0
  8  9  1  0  0  0
 13 11  1  0  0  0
 12 13  1  0  0  0
 14 15  1  0  0  0
 14 16  2  0  0  0
 17 14  1  0  0  0
 17 18  1  0  0  0
 17 24  1  0  0  0
 29 17  1  0  0  0
 18 19  1  0  0  0
 19 20  1  0  0  0
 19 21  1  0  0  0
 21 22  1  0  0  0
 23 21  1  0  0  0
 24 23  1  0  0  0
 23 25  1  0  0  0
 25 26  1  0  0  0
 25 27  1  0  0  0
 27 28  1  0  0  0
 30 29  1  0  0  0
 31 30  1  0  0  0
 32 31  2  0  0  0
 28 13  1  0  0  0
  1 33  1  0  0  0
  6 34  1  0  0  0
  7 35  1  0  0  0
  8 36  1  0  0  0
  8 37  1  0  0  0
  9 38  1  0  0  0
 10 39  1  0  0  0
 11 40  1  0  0  0
 11 41  1  0  0  0
 12 42  1  0  0  0
 13 43  1  0  0  0
 15 44  1  0  0  0
 18 45  1  0  0  0
 18 46  1  0  0  0
 19 47  1  0  0  0
 20 48  1  0  0  0
 21 49  1  0  0  0
 22 50  1  0  0  0
 23 51  1  0  0  0
 25 52  1  0  0  0
 26 53  1  0  0  0
 27 54  1  0  0  0
 27 55  1  0  0  0
 30 56  1  0  0  0
 30 57  1  0  0  0
 31 58  1  0  0  0
 32 59  1  0  0  0
 32 60  1  0  0  0
M  END
$$$$
