1g3b_ligand
  -I-interpret- 

 30 30  0  0  0  0  0  0  0  0999 V2000
   44.1090   -2.9930   26.0760 C   0  0  0  0  0
   43.2660   -3.5420   27.0310 C   0  0  0  0  0
   43.0600   -2.9090   28.2600 C   0  0  0  0  0
   43.7190   -1.7020   28.5170 C   0  0  0  0  0
   44.5590   -1.1660   27.5490 C   0  0  0  0  0
   44.7500   -1.8000   26.3490 C   0  0  0  0  0
   42.1620   -3.5280   29.2170 C   0  0  0  0  0
   44.3430   -3.6710   24.8260 C   0  0  0  0  0
   43.6110   -0.9890   29.6540 O   0  0  0  0  0
   44.8000   -2.9900   23.7840 N   0  0  0  0  0
   44.1020   -4.9700   24.7200 N   0  0  0  0  0
   41.8780   -3.0520   30.3930 N   0  0  0  0  0
   40.9480   -3.8090   31.2190 C   0  0  0  0  0
   41.6450   -5.0310   31.8120 C   0  0  0  0  0
   40.3980   -2.9300   32.3310 C   0  0  0  0  0
   39.3270   -3.2390   32.8580 O   0  0  0  0  0
   41.1050   -1.9020   32.6520 O   0  0  0  0  0
   42.7561   -4.4819   26.8197 H   0  0  0  0  0
   45.0744   -0.2262   27.7470 H   0  0  0  0  0
   45.4128   -1.3595   25.6042 H   0  0  0  0  0
   41.6882   -4.4659   28.9271 H   0  0  0  0  0
   44.1574   -0.2022   29.5901 H   0  0  0  0  0
   44.9671   -3.4657   22.8974 H   0  0  0  0  0
   44.9844   -1.9904   23.8691 H   0  0  0  0  0
   44.2680   -5.4489   23.8349 H   0  0  0  0  0
   40.1198   -4.1450   30.5951 H   0  0  0  0  0
   42.0072   -5.6683   31.0052 H   0  0  0  0  0
   42.4855   -4.7063   32.4254 H   0  0  0  0  0
   40.9383   -5.5879   32.4272 H   0  0  0  0  0
   41.8925   -1.8728   32.1038 H   0  0  0  0  0
  1  8  1  0  0  0
  1  6  4  0  0  0
  1  2  4  0  0  0
  2  3  4  0  0  0
  3  7  1  0  0  0
  3  4  4  0  0  0
  4  9  1  0  0  0
  4  5  4  0  0  0
  5  6  4  0  0  0
  7 12  2  0  0  0
 12 13  1  0  0  0
 13 15  1  0  0  0
 13 14  1  0  0  0
 15 17  1  0  0  0
 15 16  2  0  0  0
  8 11  2  0  0  0
  8 10  1  0  0  0
  2 18  1  0  0  0
  5 19  1  0  0  0
  6 20  1  0  0  0
  7 21  1  0  0  0
  9 22  1  0  0  0
 10 23  1  0  0  0
 10 24  1  0  0  0
 11 25  1  0  0  0
 13 26  1  0  0  0
 14 27  1  0  0  0
 14 28  1  0  0  0
 14 29  1  0  0  0
 17 30  1  0  0  0
M  END
$$$$
