6ufn_ligand
  -I-interpret- 

 40 39  0  0  0  0  0  0  0  0999 V2000
   27.6410   40.0280   34.4490 C   0  0  0  0  0
   28.8590   40.9660   34.2770 C   0  0  0  0  0
   29.0510   41.3940   32.7970 C   0  0  0  0  0
   18.0160   40.9240   34.7130 C   0  0  0  0  0
   19.3280   40.2990   34.2170 C   0  0  0  0  0
   20.5480   40.7580   35.0410 C   0  0  0  0  0
   21.9170   40.3920   34.4530 C   0  0  0  0  0
   23.0210   40.2260   35.5180 C   0  0  0  0  0
   24.4430   40.4100   34.9650 C   0  0  0  0  0
   25.5420   39.6730   35.7740 C   0  0  0  0  0
   26.8620   40.3520   35.6750 N   0  3  0  0  0
   30.4370   41.8210   32.5560 N   0  3  0  0  0
   19.2690   38.9040   34.2980 O   0  0  0  0  0
   19.5650   40.6370   32.8870 O   0  0  0  0  0
   28.0064   39.0048   34.5359 H   0  0  0  0  0
   26.9879   40.1530   33.5853 H   0  0  0  0  0
   29.7525   40.4304   34.5979 H   0  0  0  0  0
   28.6890   41.8620   34.8739 H   0  0  0  0  0
   28.3826   42.2276   32.5814 H   0  0  0  0  0
   28.8266   40.5443   32.1522 H   0  0  0  0  0
   17.1900   40.5681   34.0973 H   0  0  0  0  0
   17.8475   40.6363   35.7508 H   0  0  0  0  0
   18.0825   42.0096   34.6418 H   0  0  0  0  0
   20.4792   40.2539   36.0050 H   0  0  0  0  0
   20.5065   41.8466   35.0772 H   0  0  0  0  0
   22.2181   41.2060   33.7936 H   0  0  0  0  0
   21.8085   39.4352   33.9422 H   0  0  0  0  0
   22.9504   39.2098   35.9059 H   0  0  0  0  0
   22.8629   40.9944   36.2747 H   0  0  0  0  0
   24.6701   41.4751   35.0114 H   0  0  0  0  0
   24.4521   39.9934   33.9578 H   0  0  0  0  0
   25.6462   38.6672   35.3670 H   0  0  0  0  0
   25.2430   39.6633   36.8221 H   0  0  0  0  0
   26.6778   41.3550   35.6520 H   0  0  0  0  0
   27.4173   40.0366   36.4703 H   0  0  0  0  0
   30.5415   42.0975   31.5798 H   0  0  0  0  0
   30.6576   42.6126   33.1603 H   0  0  0  0  0
   31.0702   41.0482   32.7614 H   0  0  0  0  0
   19.1060   38.6440   35.2076 H   0  0  0  0  0
   19.6101   41.5923   32.8039 H   0  0  0  0  0
  1  2  1  0  0  0
 11  1  1  0  0  0
  2  3  1  0  0  0
  3 12  1  0  0  0
  5  4  1  0  0  0
  6  5  1  0  0  0
  5 13  1  0  0  0
  5 14  1  0  0  0
  7  6  1  0  0  0
  8  7  1  0  0  0
  9  8  1  0  0  0
 10  9  1  0  0  0
 10 11  1  0  0  0
  1 15  1  0  0  0
  1 16  1  0  0  0
  2 17  1  0  0  0
  2 18  1  0  0  0
  3 19  1  0  0  0
  3 20  1  0  0  0
  4 21  1  0  0  0
  4 22  1  0  0  0
  4 23  1  0  0  0
  6 24  1  0  0  0
  6 25  1  0  0  0
  7 26  1  0  0  0
  7 27  1  0  0  0
  8 28  1  0  0  0
  8 29  1  0  0  0
  9 30  1  0  0  0
  9 31  1  0  0  0
 10 32  1  0  0  0
 10 33  1  0  0  0
 11 34  1  0  0  0
 11 35  1  0  0  0
 12 36  1  0  0  0
 12 37  1  0  0  0
 12 38  1  0  0  0
 13 39  1  0  0  0
 14 40  1  0  0  0
M  END
$$$$
