3fhr_ligand
  -I-interpret- 

 41 45  0  0  0  0  0  0  0  0999 V2000
   21.6220    8.0020   12.6900 C   0  0  0  0  0
   21.2730    8.5830   11.4580 C   0  0  0  0  0
   21.6980    9.8650   11.1070 C   0  0  0  0  0
   21.3330   10.3900    9.8620 C   0  0  0  0  0
   20.5460    9.6570    8.9710 C   0  0  0  0  0
   20.0950    8.3920    9.3110 C   0  0  0  0  0
   20.4780    7.8630   10.5490 C   0  0  0  0  0
   20.0410    6.6290   10.8650 N   0  0  0  0  0
   20.3610    6.0550   12.0270 C   0  0  0  0  0
   21.1140    6.7210   12.9770 C   0  0  0  0  0
   21.4120    5.9590   14.2130 C   0  0  0  0  0
   20.5270    5.0140   14.7050 C   0  0  0  0  0
   22.5770    6.1440   14.8430 N   0  0  0  0  0
   22.8990    5.4430   15.9480 C   0  0  0  0  0
   22.0420    4.5030   16.4870 C   0  0  0  0  0
   20.8340    4.2690   15.8350 C   0  0  0  0  0
   19.8910    3.2820   16.4160 C   0  0  0  0  0
   19.9580    2.5870   17.6120 C   0  0  0  0  0
   18.8100    1.8260   17.6310 C   0  0  0  0  0
   18.2400    0.8760   18.6250 C   0  0  0  0  0
   18.8820    0.5350   19.5950 O   0  0  0  0  0
   16.9860    0.4580   18.4510 N   0  0  0  0  0
   16.3950    0.3620   17.1120 C   0  0  0  0  0
   16.6930    1.4990   16.1240 C   0  0  0  0  0
   18.0330    2.1310   16.4410 C   0  0  0  0  0
   18.7320    3.0360   15.7240 N   0  0  0  0  0
   22.2639    8.5256   13.3985 H   0  0  0  0  0
   22.3075   10.4510   11.7949 H   0  0  0  0  0
   21.6689   11.3887    9.5828 H   0  0  0  0  0
   20.2850   10.0828    8.0022 H   0  0  0  0  0
   19.4588    7.8237    8.6325 H   0  0  0  0  0
   20.0216    5.0396   12.2315 H   0  0  0  0  0
   19.5759    4.8531   14.1975 H   0  0  0  0  0
   23.8606    5.6223   16.4290 H   0  0  0  0  0
   22.3036    3.9607   17.3956 H   0  0  0  0  0
   20.7422    2.6320   18.3677 H   0  0  0  0  0
   16.4271    0.2001   19.2643 H   0  0  0  0  0
   15.3160    0.3808   17.2650 H   0  0  0  0  0
   16.8233   -0.5353   16.6653 H   0  0  0  0  0
   15.9133    2.2563   16.2063 H   0  0  0  0  0
   16.7202    1.0942   15.1123 H   0  0  0  0  0
  1  2  4  0  0  0
  1 10  4  0  0  0
  2  3  4  0  0  0
  2  7  4  0  0  0
  3  4  4  0  0  0
  4  5  4  0  0  0
  5  6  4  0  0  0
  6  7  4  0  0  0
  7  8  4  0  0  0
  8  9  4  0  0  0
  9 10  4  0  0  0
 10 11  1  0  0  0
 11 12  4  0  0  0
 11 13  4  0  0  0
 12 16  4  0  0  0
 13 14  4  0  0  0
 14 15  4  0  0  0
 15 16  4  0  0  0
 16 17  1  0  0  0
 17 18  4  0  0  0
 17 26  4  0  0  0
 18 19  4  0  0  0
 19 20  1  0  0  0
 19 25  4  0  0  0
 20 21  2  0  0  0
 20 22  1  0  0  0
 22 23  1  0  0  0
 23 24  1  0  0  0
 24 25  1  0  0  0
 25 26  4  0  0  0
  1 27  1  0  0  0
  3 28  1  0  0  0
  4 29  1  0  0  0
  5 30  1  0  0  0
  6 31  1  0  0  0
  9 32  1  0  0  0
 12 33  1  0  0  0
 14 34  1  0  0  0
 15 35  1  0  0  0
 18 36  1  0  0  0
 22 37  1  0  0  0
 23 38  1  0  0  0
 23 39  1  0  0  0
 24 40  1  0  0  0
 24 41  1  0  0  0
M  END
$$$$
