4uxj_ligand
  -I-interpret- 

 46 47  0  0  0  0  0  0  0  0999 V2000
   22.5470  -11.5770   69.7380 P   0  0  0  0  0
   22.3080  -11.2950   71.1900 O   0  0  0  0  0
   23.3560  -12.8170   69.4300 O   0  0  0  0  0
   23.1890  -10.3360   68.9700 O   0  0  0  0  0
   24.6780   -9.8420   69.2500 P   0  0  0  0  0
   24.5580   -8.3340   69.2960 O   0  0  0  0  0
   25.7120  -10.4330   68.3050 O   0  0  0  0  0
   24.9180  -10.4990   70.6940 O   0  0  0  0  0
   26.1860  -11.4560   71.0170 P   0  0  0  0  0
   27.4330  -10.7910   70.4530 O   0  0  0  0  0
   25.7810  -12.7570   70.3530 O   0  0  0  0  0
   26.2300  -11.5370   72.5310 O   0  0  0  0  0
   21.1130  -11.7040   68.9890 O   0  0  0  0  0
   20.0160  -10.7940   69.1070 C   0  0  0  0  0
   19.1140  -10.8060   67.8730 C   0  0  0  0  0
   17.7250  -10.8270   68.2370 O   0  0  0  0  0
   19.2760   -9.6080   66.9620 C   0  0  0  0  0
   19.4950  -10.1020   65.6450 O   0  0  0  0  0
   17.9780   -8.8300   66.9930 C   0  0  0  0  0
   16.9670   -9.7190   67.6960 C   0  0  0  0  0
   16.2590   -8.9860   68.7570 N   0  0  0  0  0
   14.8500   -8.9330   68.8560 C   0  0  0  0  0
   14.1250   -9.4960   68.0370 O   0  0  0  0  0
   14.2230   -8.2790   69.8320 N   0  0  0  0  0
   14.9170   -7.6440   70.7880 C   0  0  0  0  0
   14.3290   -7.0250   71.7130 O   0  0  0  0  0
   16.4000   -7.6840   70.7280 C   0  0  0  0  0
   17.2400   -6.9730   71.7460 C   0  0  0  0  0
   17.0030   -8.3740   69.6870 C   0  0  0  0  0
   23.4518  -12.9072   68.4791 H   0  0  0  0  0
   25.6906  -11.3907   68.3675 H   0  0  0  0  0
   27.6074   -9.9794   70.9352 H   0  0  0  0  0
   26.4917  -10.6853   72.8884 H   0  0  0  0  0
   20.4222   -9.7886   69.2182 H   0  0  0  0  0
   19.4170  -11.0973   69.9657 H   0  0  0  0  0
   19.4245  -11.7079   67.3455 H   0  0  0  0  0
   20.1040   -8.9702   67.2713 H   0  0  0  0  0
   19.6020   -9.3635   65.0411 H   0  0  0  0  0
   17.6465   -8.5789   65.9854 H   0  0  0  0  0
   18.1003   -7.8828   67.5183 H   0  0  0  0  0
   16.1960  -10.0653   67.0077 H   0  0  0  0  0
   13.2034   -8.2608   69.8527 H   0  0  0  0  0
   17.8872   -7.6924   72.2476 H   0  0  0  0  0
   17.8498   -6.2185   71.2490 H   0  0  0  0  0
   16.5916   -6.4929   72.4789 H   0  0  0  0  0
   18.0904   -8.4184   69.6254 H   0  0  0  0  0
  1  2  2  0  0  0
  1  3  1  0  0  0
  1  4  1  0  0  0
  1 13  1  0  0  0
  4  5  1  0  0  0
  5  6  2  0  0  0
  5  7  1  0  0  0
  5  8  1  0  0  0
  8  9  1  0  0  0
  9 10  1  0  0  0
  9 11  2  0  0  0
  9 12  1  0  0  0
 13 14  1  0  0  0
 14 15  1  0  0  0
 15 16  1  0  0  0
 15 17  1  0  0  0
 16 20  1  0  0  0
 17 18  1  0  0  0
 17 19  1  0  0  0
 19 20  1  0  0  0
 20 21  1  0  0  0
 21 22  1  0  0  0
 21 29  1  0  0  0
 22 23  2  0  0  0
 22 24  1  0  0  0
 24 25  1  0  0  0
 25 26  2  0  0  0
 25 27  1  0  0  0
 27 28  1  0  0  0
 27 29  2  0  0  0
  3 30  1  0  0  0
  7 31  1  0  0  0
 10 32  1  0  0  0
 12 33  1  0  0  0
 14 34  1  0  0  0
 14 35  1  0  0  0
 15 36  1  0  0  0
 17 37  1  0  0  0
 18 38  1  0  0  0
 19 39  1  0  0  0
 19 40  1  0  0  0
 20 41  1  0  0  0
 24 42  1  0  0  0
 28 43  1  0  0  0
 28 44  1  0  0  0
 28 45  1  0  0  0
 29 46  1  0  0  0
M  END
$$$$
