### 
### Created by X-TOOL on Mon Sep 10 21:13:25 2018
### 

@<TRIPOS>MOLECULE
4uxj_ligand
   42    43     1     0     0
SMALL
GAST_HUCK


@<TRIPOS>ATOM
      1 PA         22.5470  -11.5770   69.7380 P.3       1 TTP         0.3266
      2 O1A        22.3080  -11.2950   71.1900 O.co2     1 TTP        -0.5692
      3 O2A        23.3560  -12.8170   69.4300 O.co2     1 TTP        -0.5692
      4 O3A        23.1890  -10.3360   68.9700 O.3       1 TTP        -0.1171
      5 PB         24.6780   -9.8420   69.2500 P.3       1 TTP         0.3553
      6 O1B        24.5580   -8.3340   69.2960 O.co2     1 TTP        -0.5652
      7 O2B        25.7120  -10.4330   68.3050 O.co2     1 TTP        -0.5652
      8 O3B        24.9180  -10.4990   70.6940 O.3       1 TTP        -0.1546
      9 PG         26.1860  -11.4560   71.0170 P.3       1 TTP         0.1879
     10 O1G        27.4330  -10.7910   70.4530 O.co2     1 TTP        -0.6091
     11 O2G        25.7810  -12.7570   70.3530 O.co2     1 TTP        -0.6091
     12 O3G        26.2300  -11.5370   72.5310 O.co2     1 TTP        -0.6091
     13 O5'        21.1130  -11.7040   68.9890 O.3       1 TTP        -0.2441
     14 C5'        20.0160  -10.7940   69.1070 C.3       1 TTP         0.1130
     15 C4'        19.1140  -10.8060   67.8730 C.3       1 TTP         0.1163
     16 O4'        17.7250  -10.8270   68.2370 O.3       1 TTP        -0.3395
     17 C3'        19.2760   -9.6080   66.9620 C.3       1 TTP         0.0889
     18 O3'        19.4950  -10.1020   65.6450 O.3       1 TTP        -0.3890
     19 C2'        17.9780   -8.8300   66.9930 C.3       1 TTP         0.0308
     20 C1'        16.9670   -9.7190   67.6960 C.3       1 TTP         0.1757
     21 N1         16.2590   -8.9860   68.7570 N.am      1 TTP        -0.1736
     22 C2         14.8500   -8.9330   68.8560 C.2       1 TTP         0.3265
     23 O2         14.1250   -9.4960   68.0370 O.2       1 TTP        -0.3843
     24 N3         14.2230   -8.2790   69.8320 N.am      1 TTP        -0.1859
     25 C4         14.9170   -7.6440   70.7880 C.2       1 TTP         0.1930
     26 O4         14.3290   -7.0250   71.7130 O.2       1 TTP        -0.4079
     27 C5         16.4000   -7.6840   70.7280 C.2       1 TTP         0.0225
     28 C5M        17.2400   -6.9730   71.7460 C.3       1 TTP        -0.0437
     29 C6         17.0030   -8.3740   69.6870 C.2       1 TTP         0.0524
     30 H1         20.4133   -9.7775   69.2443 H         1 TTP         0.0648
     31 H2         19.4166  -11.0752   69.9854 H         1 TTP         0.0648
     32 H3         19.3515  -11.7150   67.3009 H         1 TTP         0.0650
     33 H4         20.1159   -8.9758   67.2857 H         1 TTP         0.0622
     34 H5         19.6009   -9.3712   65.0474 H         1 TTP         0.2099
     35 H6         17.6427   -8.6070   65.9694 H         1 TTP         0.0344
     36 H7         18.1102   -7.8899   67.5486 H         1 TTP         0.0344
     37 H8         16.2288  -10.0911   66.9703 H         1 TTP         0.0959
     38 H9         13.2234   -8.2612   69.8523 H         1 TTP         0.2259
     39 H10        18.3044   -7.1308   71.5178 H         1 TTP         0.0296
     40 H11        17.0169   -7.3699   72.7473 H         1 TTP         0.0296
     41 H12        17.0151   -5.8966   71.7198 H         1 TTP         0.0296
     42 H13        18.0894   -8.4184   69.6255 H         1 TTP         0.1011
@<TRIPOS>BOND
     1    1    2 ar 
     2    1    3 ar 
     3    1    4 1  
     4    1   13 1  
     5    4    5 1  
     6    5    6 ar 
     7    5    7 ar 
     8    5    8 1  
     9    8    9 1  
    10    9   10 ar 
    11    9   11 ar 
    12    9   12 ar 
    13   13   14 1  
    14   14   15 1  
    15   15   16 1  
    16   15   17 1  
    17   16   20 1  
    18   17   18 1  
    19   17   19 1  
    20   19   20 1  
    21   20   21 1  
    22   21   22 am 
    23   21   29 1  
    24   22   23 2  
    25   22   24 am 
    26   24   25 am 
    27   25   26 2  
    28   25   27 1  
    29   27   28 1  
    30   27   29 2  
    31   14   30 1  
    32   14   31 1  
    33   15   32 1  
    34   17   33 1  
    35   18   34 1  
    36   19   35 1  
    37   19   36 1  
    38   20   37 1  
    39   24   38 1  
    40   28   39 1  
    41   28   40 1  
    42   28   41 1  
    43   29   42 1  
@<TRIPOS>SUBSTRUCTURE
     1 TTP         1

