6nzv_ligand
  -I-interpret- 

112118  0  0  0  0  0  0  0  0999 V2000
  -14.1370   12.2150  -12.9980 C   0  0  0  0  0
  -15.3680   11.3160  -12.7800 C   0  0  0  0  0
  -13.7740   10.2230  -14.2230 C   0  0  0  0  0
  -13.0570   11.1600  -13.2470 C   0  0  0  0  0
  -13.3700    8.7340  -14.2010 C   0  0  0  0  0
  -12.3170    6.9800  -15.6170 C   0  0  0  0  0
  -11.1540    6.3120  -14.9960 C   0  0  0  0  0
   -8.3930    7.4100  -12.2670 C   0  0  0  0  0
  -13.5160    6.0710  -15.9030 C   0  0  0  0  0
  -12.6430    6.5470  -17.0300 C   0  0  0  0  0
   -6.9920    6.9930  -11.9900 C   0  0  0  0  0
   -7.2600    8.1990  -12.8480 C   0  0  0  0  0
  -13.5620   14.1160  -14.3950 C   0  0  0  0  0
  -16.1660    9.4450  -14.2950 C   0  0  0  0  0
  -17.6000    9.5840  -13.7180 C   0  0  0  0  0
  -18.9370   10.8370  -15.2710 C   0  0  0  0  0
  -20.3080   11.8890  -16.8790 C   0  0  0  0  0
  -19.5220   12.4670  -18.0320 C   0  0  0  0  0
  -19.4720   13.9620  -18.2040 C   0  0  0  0  0
  -12.0250   15.6750  -13.7010 C   0  0  0  0  0
  -12.1860   16.3670  -14.9200 C   0  0  0  0  0
  -13.7370   14.7900  -15.5830 C   0  0  0  0  0
  -11.1340   16.1570  -12.7490 C   0  0  0  0  0
  -10.4070   17.3330  -13.0180 C   0  0  0  0  0
  -10.5720   18.0160  -14.2140 C   0  0  0  0  0
  -11.4660   17.5380  -15.1730 C   0  0  0  0  0
  -14.6850   14.3090  -16.6500 C   0  0  0  0  0
  -16.1290   14.7400  -16.3670 C   0  0  0  0  0
  -17.0730   14.2550  -17.4770 C   0  0  0  0  0
  -18.5260   14.5760  -17.1630 C   0  0  0  0  0
  -20.8000   11.7100  -18.2880 C   0  0  0  0  0
  -13.6340    4.6180  -15.5840 C   0  0  0  0  0
  -17.9170    8.4320  -12.7190 C   0  0  0  0  0
  -17.8150    7.0360  -13.3720 C   0  0  0  0  0
  -16.8930    8.4690  -11.5610 C   0  0  0  0  0
  -19.3310    8.5650  -12.1270 C   0  0  0  0  0
   -9.2890   17.2460  -10.9240 C   0  0  0  0  0
   -9.5750    7.8050  -11.3610 C   0  0  0  0  0
  -12.6790   10.4570  -11.9360 C   0  0  0  0  0
  -11.9100   11.4380  -11.0270 C   0  0  0  0  0
  -14.7420    4.1520  -16.2250 F   0  0  0  0  0
  -13.8470    4.4810  -14.2370 F   0  0  0  0  0
  -15.1920   10.2670  -13.7820 N   0  0  0  0  0
  -12.7270    8.3250  -15.3450 N   0  0  0  0  0
  -10.4390    7.0820  -14.0970 N   0  0  0  0  0
  -18.5130    9.6210  -14.8420 N   0  0  0  0  0
  -12.7100   14.5290  -13.4340 N   0  0  0  0  0
  -13.0500   15.9290  -15.8570 N   0  0  0  0  0
  -13.6180    7.9660  -13.2700 O   0  0  0  0  0
   -9.6750    5.1410  -12.6040 O   0  0  0  0  0
   -8.1590    5.8590  -14.4050 O   0  0  0  0  0
  -10.8600    5.1520  -15.2860 O   0  0  0  0  0
  -14.3110   12.9730  -14.2140 O   0  0  0  0  0
  -15.9280    8.5890  -15.1600 O   0  0  0  0  0
  -18.6270   11.9170  -14.7830 O   0  0  0  0  0
  -19.7670   10.6800  -16.3260 O   0  0  0  0  0
   -9.5160   17.8960  -12.1640 O   0  0  0  0  0
   -9.1650    6.2440  -13.4260 S   0  0  0  0  0
  -13.9362   12.9165  -12.1883 H   0  0  0  0  0
  -16.3090   11.8543  -12.8934 H   0  0  0  0  0
  -15.4297   10.9238  -11.7649 H   0  0  0  0  0
  -13.5358   10.5663  -15.2297 H   0  0  0  0  0
  -12.1138   11.5468  -13.6328 H   0  0  0  0  0
  -14.5666    6.1229  -15.6173 H   0  0  0  0  0
  -12.1210    6.1184  -17.8855 H   0  0  0  0  0
  -12.7666    7.0089  -18.0095 H   0  0  0  0  0
   -6.3883    6.0860  -12.0216 H   0  0  0  0  0
   -6.3750    6.7206  -11.1337 H   0  0  0  0  0
   -6.9383    9.2371  -12.9308 H   0  0  0  0  0
   -6.9515    8.6089  -13.8097 H   0  0  0  0  0
  -17.7030   10.5021  -13.1396 H   0  0  0  0  0
  -20.7099   12.2970  -15.9516 H   0  0  0  0  0
  -18.4991   12.3843  -18.3992 H   0  0  0  0  0
  -20.4722   14.3733  -18.0678 H   0  0  0  0  0
  -19.1074   14.1969  -19.2040 H   0  0  0  0  0
  -10.9994   15.6303  -11.8042 H   0  0  0  0  0
  -10.0033   18.9261  -14.4048 H   0  0  0  0  0
  -11.6018   18.0739  -16.1124 H   0  0  0  0  0
  -14.6511   13.2197  -16.6720 H   0  0  0  0  0
  -14.3784   14.7438  -17.6014 H   0  0  0  0  0
  -16.1680   15.8285  -16.3243 H   0  0  0  0  0
  -16.4465   14.3022  -15.4206 H   0  0  0  0  0
  -16.9722   13.1732  -17.5640 H   0  0  0  0  0
  -16.8024   14.7625  -18.4029 H   0  0  0  0  0
  -18.7693   14.1595  -16.1855 H   0  0  0  0  0
  -18.6522   15.6586  -17.1761 H   0  0  0  0  0
  -21.7244   11.8371  -18.8515 H   0  0  0  0  0
  -21.1566   10.9057  -18.9314 H   0  0  0  0  0
  -12.7349    4.0807  -15.8856 H   0  0  0  0  0
  -18.5242    6.9695  -14.1970 H   0  0  0  0  0
  -16.8031    6.8853  -13.7480 H   0  0  0  0  0
  -18.0459    6.2715  -12.6301 H   0  0  0  0  0
  -15.8878    8.3404  -11.9623 H   0  0  0  0  0
  -16.9609    9.4284  -11.0482 H   0  0  0  0  0
  -17.1110    7.6642  -10.8590 H   0  0  0  0  0
  -19.4133    9.5131  -11.5956 H   0  0  0  0  0
  -20.0650    8.5334  -12.9322 H   0  0  0  0  0
  -19.5128    7.7424  -11.4354 H   0  0  0  0  0
  -10.2245   17.1915  -10.3672 H   0  0  0  0  0
   -8.9140   16.2389  -11.1064 H   0  0  0  0  0
   -8.5546   17.8098  -10.3488 H   0  0  0  0  0
  -10.3577    8.2628  -11.9660 H   0  0  0  0  0
   -9.9677    6.9149  -10.8696 H   0  0  0  0  0
   -9.2329    8.5158  -10.6088 H   0  0  0  0  0
  -12.0481    9.5956  -12.1554 H   0  0  0  0  0
  -13.5847   10.1260  -11.4279 H   0  0  0  0  0
  -11.0046   11.7690  -11.5357 H   0  0  0  0  0
  -12.5411   12.2994  -10.8083 H   0  0  0  0  0
  -11.6429   10.9362  -10.0970 H   0  0  0  0  0
  -12.5270    9.0318  -16.0527 H   0  0  0  0  0
  -10.6653    8.0505  -13.8710 H   0  0  0  0  0
  -18.8265    8.7628  -15.2955 H   0  0  0  0  0
  2  1  1  0  0  0
  4  1  1  0  0  0
  1 53  1  0  0  0
 43  2  1  0  0  0
  3  4  1  0  0  0
  5  3  1  0  0  0
  3 43  1  0  0  0
  4 39  1  0  0  0
 44  5  1  0  0  0
  5 49  2  0  0  0
  7  6  1  0  0  0
  6  9  1  0  0  0
  6 10  1  0  0  0
  6 44  1  0  0  0
 45  7  1  0  0  0
  7 52  2  0  0  0
  8 11  1  0  0  0
  8 12  1  0  0  0
  8 38  1  0  0  0
 58  8  1  0  0  0
 10  9  1  0  0  0
  9 32  1  0  0  0
 12 11  1  0  0  0
 13 22  4  0  0  0
 13 47  4  0  0  0
 53 13  1  0  0  0
 14 15  1  0  0  0
 43 14  1  0  0  0
 14 54  2  0  0  0
 15 33  1  0  0  0
 15 46  1  0  0  0
 46 16  1  0  0  0
 16 55  2  0  0  0
 16 56  1  0  0  0
 17 18  1  0  0  0
 17 31  1  0  0  0
 56 17  1  0  0  0
 18 19  1  0  0  0
 31 18  1  0  0  0
 19 30  1  0  0  0
 20 21  4  0  0  0
 20 23  4  0  0  0
 47 20  4  0  0  0
 21 26  4  0  0  0
 48 21  4  0  0  0
 22 27  1  0  0  0
 22 48  4  0  0  0
 23 24  4  0  0  0
 24 25  4  0  0  0
 24 57  1  0  0  0
 26 25  4  0  0  0
 27 28  1  0  0  0
 28 29  1  0  0  0
 29 30  1  0  0  0
 32 41  1  0  0  0
 32 42  1  0  0  0
 33 34  1  0  0  0
 33 35  1  0  0  0
 33 36  1  0  0  0
 57 37  1  0  0  0
 39 40  1  0  0  0
 45 58  1  0  0  0
 58 50  2  0  0  0
 58 51  2  0  0  0
  1 59  1  0  0  0
  2 60  1  0  0  0
  2 61  1  0  0  0
  3 62  1  0  0  0
  4 63  1  0  0  0
  9 64  1  0  0  0
 10 65  1  0  0  0
 10 66  1  0  0  0
 11 67  1  0  0  0
 11 68  1  0  0  0
 12 69  1  0  0  0
 12 70  1  0  0  0
 15 71  1  0  0  0
 17 72  1  0  0  0
 18 73  1  0  0  0
 19 74  1  0  0  0
 19 75  1  0  0  0
 23 76  1  0  0  0
 25 77  1  0  0  0
 26 78  1  0  0  0
 27 79  1  0  0  0
 27 80  1  0  0  0
 28 81  1  0  0  0
 28 82  1  0  0  0
 29 83  1  0  0  0
 29 84  1  0  0  0
 30 85  1  0  0  0
 30 86  1  0  0  0
 31 87  1  0  0  0
 31 88  1  0  0  0
 32 89  1  0  0  0
 34 90  1  0  0  0
 34 91  1  0  0  0
 34 92  1  0  0  0
 35 93  1  0  0  0
 35 94  1  0  0  0
 35 95  1  0  0  0
 36 96  1  0  0  0
 36 97  1  0  0  0
 36 98  1  0  0  0
 37 99  1  0  0  0
 37100  1  0  0  0
 37101  1  0  0  0
 38102  1  0  0  0
 38103  1  0  0  0
 38104  1  0  0  0
 39105  1  0  0  0
 39106  1  0  0  0
 40107  1  0  0  0
 40108  1  0  0  0
 40109  1  0  0  0
 44110  1  0  0  0
 45111  1  0  0  0
 46112  1  0  0  0
M  END
$$$$
