1qj1_ligand
  -I-interpret- 

 53 55  0  0  0  0  0  0  0  0999 V2000
    8.1220   21.9910   51.5480 C   0  0  0  0  0
    9.0380   23.2180   51.2330 C   0  0  0  0  0
   10.1350   22.9460   50.2440 C   0  0  0  0  0
    9.6610   22.9600   48.8050 C   0  0  0  0  0
   10.7350   22.4680   47.8050 C   0  0  0  0  0
   11.3720   21.3060   47.9420 N   0  0  0  0  0
   11.0240   23.1710   46.7130 N   0  0  0  0  0
    8.6890   23.4960   54.2810 O   0  0  0  0  0
    5.1690   22.9100   55.0940 O   0  0  0  0  0
    5.7670   21.8320   52.9290 C   0  0  0  0  0
    3.6850   20.7170   52.8630 C   0  0  0  0  0
    4.8070   20.9390   52.0860 C   0  0  0  0  0
    5.2700   21.6670   54.3980 C   0  0  0  0  0
    3.8540   21.1070   54.3070 C   0  0  0  0  0
    4.7750   20.5070   50.7430 C   0  0  0  0  0
    3.5850   19.9100   50.2410 C   0  0  0  0  0
    2.4700   19.7850   51.0770 C   0  0  0  0  0
    2.5090   20.1940   52.3810 C   0  0  0  0  0
    3.4010   19.3480   48.8330 C   0  0  0  0  0
    2.1690   19.5040   48.1730 C   0  0  0  0  0
    1.9290   19.0140   46.8980 C   0  0  0  0  0
    2.9290   18.3500   46.2320 C   0  0  0  0  0
    4.1590   18.1640   46.8510 C   0  0  0  0  0
    4.3950   18.6610   48.1400 C   0  0  0  0  0
    2.6840   17.8950   44.9580 O   0  0  0  0  0
    7.3390   22.0690   52.8880 C   0  0  0  0  0
    7.6950   23.4430   53.6050 C   0  0  0  0  0
    8.7783   21.1238   51.6215 H   0  0  0  0  0
    7.3762   21.9479   50.7542 H   0  0  0  0  0
    9.5186   23.5032   52.1688 H   0  0  0  0  0
    8.3999   23.9857   50.7953 H   0  0  0  0  0
   10.5271   21.9505   50.4522 H   0  0  0  0  0
   10.8801   23.7340   50.3533 H   0  0  0  0  0
    9.4170   23.9907   48.5474 H   0  0  0  0  0
    8.8076   22.2859   48.7316 H   0  0  0  0  0
   12.0375   21.0023   47.2311 H   0  0  0  0  0
   11.1942   20.7200   48.7577 H   0  0  0  0  0
   11.6999   22.8114   46.0390 H   0  0  0  0  0
    4.8602   22.7502   55.9888 H   0  0  0  0  0
    5.6767   22.7183   52.3009 H   0  0  0  0  0
    5.9776   21.0335   54.9329 H   0  0  0  0  0
    3.7103   20.2581   54.9755 H   0  0  0  0  0
    3.1083   21.8382   54.6192 H   0  0  0  0  0
    5.6474   20.6286   50.1009 H   0  0  0  0  0
    1.5514   19.3526   50.6805 H   0  0  0  0  0
    1.6310   20.1076   53.0211 H   0  0  0  0  0
    1.3667   20.0338   48.6866 H   0  0  0  0  0
    0.9552   19.1548   46.4290 H   0  0  0  0  0
    4.9493   17.6254   46.3281 H   0  0  0  0  0
    5.3684   18.5080   48.6060 H   0  0  0  0  0
    3.4673   17.4542   44.6207 H   0  0  0  0  0
    7.6892   21.1761   53.4059 H   0  0  0  0  0
    7.0536   24.3164   53.4869 H   0  0  0  0  0
  1  2  1  0  0  0
 26  1  1  0  0  0
  2  3  1  0  0  0
  3  4  1  0  0  0
  4  5  1  0  0  0
  5  6  1  0  0  0
  5  7  2  0  0  0
 27  8  2  0  0  0
 13  9  1  0  0  0
 10 12  1  0  0  0
 10 13  1  0  0  0
 26 10  1  0  0  0
 12 11  4  0  0  0
 14 11  1  0  0  0
 11 18  4  0  0  0
 12 15  4  0  0  0
 13 14  1  0  0  0
 15 16  4  0  0  0
 16 17  4  0  0  0
 16 19  1  0  0  0
 18 17  4  0  0  0
 19 20  4  0  0  0
 19 24  4  0  0  0
 20 21  4  0  0  0
 21 22  4  0  0  0
 23 22  4  0  0  0
 22 25  1  0  0  0
 24 23  4  0  0  0
 26 27  1  0  0  0
  1 28  1  0  0  0
  1 29  1  0  0  0
  2 30  1  0  0  0
  2 31  1  0  0  0
  3 32  1  0  0  0
  3 33  1  0  0  0
  4 34  1  0  0  0
  4 35  1  0  0  0
  6 36  1  0  0  0
  6 37  1  0  0  0
  7 38  1  0  0  0
  9 39  1  0  0  0
 10 40  1  0  0  0
 13 41  1  0  0  0
 14 42  1  0  0  0
 14 43  1  0  0  0
 15 44  1  0  0  0
 17 45  1  0  0  0
 18 46  1  0  0  0
 20 47  1  0  0  0
 21 48  1  0  0  0
 23 49  1  0  0  0
 24 50  1  0  0  0
 25 51  1  0  0  0
 26 52  1  0  0  0
 27 53  1  0  0  0
M  END
$$$$
