4o07_ligand
  -I-interpret- 

 68 72  0  0  0  0  0  0  0  0999 V2000
    8.8500  -12.0960  -24.0000 O   0  0  0  0  0
    7.7030  -12.4800  -24.1240 C   0  0  0  0  0
    7.4330  -13.9080  -24.5440 C   0  0  0  0  0
    6.1880  -14.1220  -25.4200 C   0  0  0  0  0
    5.8910  -15.6160  -25.5390 C   0  0  0  0  0
    6.4230  -13.5510  -26.8230 C   0  0  0  0  0
    4.9960  -13.4190  -24.7570 C   0  0  0  0  0
    5.2970  -12.0420  -24.2430 C   0  0  0  0  0
    6.5600  -11.5660  -23.9460 C   0  0  0  0  0
    6.4050  -10.1870  -23.5290 C   0  0  0  0  0
    7.4890   -9.2140  -23.1180 C   0  0  0  0  0
    6.8950   -7.8010  -23.0460 C   0  0  0  0  0
    5.5590   -7.7160  -22.4560 N   0  3  0  0  0
    5.1060   -6.3150  -22.3700 C   0  0  0  0  0
    4.5990   -8.5180  -23.2080 C   0  0  0  0  0
    5.0680   -9.8890  -23.5860 C   0  0  0  0  0
    4.3910  -11.0130  -24.0320 N   0  0  0  0  0
    2.9890  -11.0330  -24.3670 C   0  0  0  0  0
    2.5000  -10.0960  -25.2790 C   0  0  0  0  0
    2.1360  -11.9870  -23.7970 C   0  0  0  0  0
    0.7920  -12.0310  -24.1660 C   0  0  0  0  0
   -0.1200  -13.0590  -23.5370 C   0  0  0  0  0
   -1.5420  -12.5470  -23.4420 C   0  0  0  0  0
   -1.9340  -11.9560  -24.7330 N   0  0  0  0  0
   -1.1150  -11.2750  -25.5610 C   0  0  0  0  0
   -1.5110  -10.8790  -26.6510 O   0  0  0  0  0
    0.2930  -11.0910  -25.1150 C   0  0  0  0  0
    1.1580  -10.0900  -25.6420 C   0  0  0  0  0
    0.7750   -8.9210  -26.5240 C   0  0  0  0  0
    0.1220   -7.6870  -25.8690 C   0  0  0  0  0
   -0.1690   -6.6260  -26.9230 C   0  0  0  0  0
    0.9170   -7.0510  -24.7200 C   0  0  0  0  0
    7.2656  -14.4728  -23.6269 H   0  0  0  0  0
    8.2887  -14.2204  -25.1426 H   0  0  0  0  0
    5.7274  -16.0329  -24.5453 H   0  0  0  0  0
    4.9976  -15.7603  -26.1465 H   0  0  0  0  0
    6.7369  -16.1169  -26.0098 H   0  0  0  0  0
    5.5319  -13.7066  -27.4311 H   0  0  0  0  0
    6.6323  -12.4838  -26.7492 H   0  0  0  0  0
    7.2713  -14.0580  -27.2828 H   0  0  0  0  0
    4.7043  -14.0243  -23.8988 H   0  0  0  0  0
    4.2223  -13.3147  -25.5177 H   0  0  0  0  0
    8.2970   -9.2351  -23.8493 H   0  0  0  0  0
    7.8836   -9.4959  -22.1418 H   0  0  0  0  0
    6.8067   -7.4460  -24.0728 H   0  0  0  0  0
    7.5567   -7.2156  -22.4077 H   0  0  0  0  0
    5.6158   -8.0925  -21.5097 H   0  0  0  0  0
    5.7993   -5.7478  -21.7489 H   0  0  0  0  0
    5.0748   -5.8825  -23.3701 H   0  0  0  0  0
    4.1103   -6.2829  -21.9277 H   0  0  0  0  0
    4.4089   -7.9851  -24.1397 H   0  0  0  0  0
    3.7307   -8.6519  -22.5628 H   0  0  0  0  0
    3.1783   -9.3605  -25.7115 H   0  0  0  0  0
    2.5232  -12.6953  -23.0646 H   0  0  0  0  0
    0.2400  -13.2732  -22.5307 H   0  0  0  0  0
   -0.1142  -13.9547  -24.1580 H   0  0  0  0  0
   -1.6059  -11.7904  -22.6600 H   0  0  0  0  0
   -2.2116  -13.3724  -23.2003 H   0  0  0  0  0
   -2.9045  -12.0711  -25.0250 H   0  0  0  0  0
    0.0208   -9.3139  -27.2059 H   0  0  0  0  0
    1.7149   -8.5585  -26.9402 H   0  0  0  0  0
   -0.7953   -8.0666  -25.4190 H   0  0  0  0  0
    0.7632   -6.3260  -27.4017 H   0  0  0  0  0
   -0.8478   -7.0355  -27.6711 H   0  0  0  0  0
   -0.6298   -5.7602  -26.4475 H   0  0  0  0  0
    1.0553   -7.7847  -23.9258 H   0  0  0  0  0
    1.8896   -6.7257  -25.0893 H   0  0  0  0  0
    0.3686   -6.1927  -24.3319 H   0  0  0  0  0
  1  2  2  0  0  0
  2  3  1  0  0  0
  2  9  1  0  0  0
  3  4  1  0  0  0
  4  5  1  0  0  0
  4  6  1  0  0  0
  4  7  1  0  0  0
  7  8  1  0  0  0
  8  9  4  0  0  0
  8 17  4  0  0  0
  9 10  4  0  0  0
 10 11  1  0  0  0
 10 16  4  0  0  0
 11 12  1  0  0  0
 12 13  1  0  0  0
 13 14  1  0  0  0
 13 15  1  0  0  0
 15 16  1  0  0  0
 16 17  4  0  0  0
 17 18  1  0  0  0
 18 19  4  0  0  0
 18 20  4  0  0  0
 19 28  4  0  0  0
 20 21  4  0  0  0
 21 22  1  0  0  0
 21 27  4  0  0  0
 22 23  1  0  0  0
 23 24  1  0  0  0
 24 25  1  0  0  0
 25 26  2  0  0  0
 25 27  1  0  0  0
 27 28  4  0  0  0
 28 29  1  0  0  0
 29 30  1  0  0  0
 30 31  1  0  0  0
 30 32  1  0  0  0
  3 33  1  0  0  0
  3 34  1  0  0  0
  5 35  1  0  0  0
  5 36  1  0  0  0
  5 37  1  0  0  0
  6 38  1  0  0  0
  6 39  1  0  0  0
  6 40  1  0  0  0
  7 41  1  0  0  0
  7 42  1  0  0  0
 11 43  1  0  0  0
 11 44  1  0  0  0
 12 45  1  0  0  0
 12 46  1  0  0  0
 13 47  1  0  0  0
 14 48  1  0  0  0
 14 49  1  0  0  0
 14 50  1  0  0  0
 15 51  1  0  0  0
 15 52  1  0  0  0
 19 53  1  0  0  0
 20 54  1  0  0  0
 22 55  1  0  0  0
 22 56  1  0  0  0
 23 57  1  0  0  0
 23 58  1  0  0  0
 24 59  1  0  0  0
 29 60  1  0  0  0
 29 61  1  0  0  0
 30 62  1  0  0  0
 31 63  1  0  0  0
 31 64  1  0  0  0
 31 65  1  0  0  0
 32 66  1  0  0  0
 32 67  1  0  0  0
 32 68  1  0  0  0
M  END
$$$$
