5k0m_ligand
  -I-interpret- 

 71 75  0  0  0  0  0  0  0  0999 V2000
  -15.4740  -24.6340   22.4010 N   0  3  0  0  0
  -16.3660  -24.3340   31.9210 N   0  0  0  0  0
  -16.2280  -23.4380   22.7930 C   0  0  0  0  0
  -17.5030  -23.9890   23.4390 C   0  0  0  0  0
  -17.4000  -24.1570   24.9430 C   0  0  0  0  0
  -16.5030  -25.0590   25.5010 C   0  0  0  0  0
  -16.3890  -25.2030   26.8700 C   0  0  0  0  0
  -18.0680  -23.5180   27.1730 C   0  0  0  0  0
  -17.7650  -24.2490   31.4500 C   0  0  0  0  0
  -15.6070  -24.3950   29.5990 C   0  0  0  0  0
  -14.2630  -24.3420   21.6000 C   0  0  0  0  0
  -12.4820  -25.8440   22.0750 C   0  0  0  0  0
  -11.7060  -26.9930   21.9510 C   0  0  0  0  0
  -11.9610  -27.9100   20.9440 C   0  0  0  0  0
  -13.7620  -26.5610   20.2170 C   0  0  0  0  0
  -14.8020  -26.3730   19.3800 F   0  0  0  0  0
  -13.0010  -27.6920   20.0600 C   0  0  0  0  0
  -13.5490  -25.6120   21.2050 C   0  0  0  0  0
  -12.3370  -24.6980   23.0390 C   0  0  0  0  0
  -13.1520  -23.5930   22.3540 C   0  0  0  0  0
  -16.5190  -25.3990   21.7000 C   0  0  0  0  0
  -17.6900  -25.3410   22.6750 C   0  0  0  0  0
  -19.0170  -25.4430   22.0350 N   0  3  0  0  0
  -19.1340  -26.5520   21.0830 C   0  0  0  0  0
  -20.1100  -25.4720   23.0230 C   0  0  0  0  0
  -18.1860  -23.4010   25.7980 C   0  0  0  0  0
  -17.1610  -24.4250   27.7360 C   0  0  0  0  0
  -16.9880  -24.5230   29.1360 N   0  0  0  0  0
  -15.4580  -25.0020   30.9680 C   0  0  0  0  0
  -16.0310  -23.9980   33.4840 S   0  0  0  0  0
  -16.3530  -25.1740   34.2260 O   0  0  0  0  0
  -14.3080  -23.7260   33.6190 C   0  0  0  0  0
  -16.7050  -22.7820   33.8040 O   0  0  0  0  0
  -17.8220  -23.7180   30.0310 C   0  0  0  0  0
  -15.0536  -25.1445   23.1776 H   0  0  0  0  0
  -16.4452  -22.7927   21.9418 H   0  0  0  0  0
  -15.6637  -22.8027   23.4757 H   0  0  0  0  0
  -18.3562  -23.3164   23.3501 H   0  0  0  0  0
  -15.8770  -25.6649   24.8459 H   0  0  0  0  0
  -15.6890  -25.9316   27.2790 H   0  0  0  0  0
  -18.6864  -22.8988   27.8228 H   0  0  0  0  0
  -18.3156  -23.5710   32.1021 H   0  0  0  0  0
  -18.2048  -25.2461   31.4708 H   0  0  0  0  0
  -15.3439  -23.3383   29.6472 H   0  0  0  0  0
  -14.9485  -24.9166   28.9044 H   0  0  0  0  0
  -14.6671  -23.7525   20.7771 H   0  0  0  0  0
  -10.8909  -27.1729   22.6520 H   0  0  0  0  0
  -11.3422  -28.8023   20.8491 H   0  0  0  0  0
  -13.2112  -28.4004   19.2587 H   0  0  0  0  0
  -11.2994  -24.4173   23.2201 H   0  0  0  0  0
  -12.6906  -24.9334   24.0428 H   0  0  0  0  0
  -13.5562  -22.8797   23.0723 H   0  0  0  0  0
  -12.5391  -22.9904   21.6837 H   0  0  0  0  0
  -16.2130  -26.4182   21.4640 H   0  0  0  0  0
  -16.7614  -24.9875   20.7202 H   0  0  0  0  0
  -17.6774  -26.2039   23.3408 H   0  0  0  0  0
  -19.1101  -24.5886   21.4857 H   0  0  0  0  0
  -18.4002  -26.4248   20.2871 H   0  0  0  0  0
  -18.9514  -27.4939   21.6002 H   0  0  0  0  0
  -20.1371  -26.5587   20.6565 H   0  0  0  0  0
  -19.9824  -26.3331   23.6789 H   0  0  0  0  0
  -20.0878  -24.5567   23.6144 H   0  0  0  0  0
  -21.0654  -25.5476   22.5038 H   0  0  0  0  0
  -18.9104  -22.7015   25.3808 H   0  0  0  0  0
  -15.7083  -26.0617   30.9185 H   0  0  0  0  0
  -14.4293  -24.8752   31.3054 H   0  0  0  0  0
  -14.0435  -23.5934   34.6681 H   0  0  0  0  0
  -13.7730  -24.5849   33.2139 H   0  0  0  0  0
  -14.0378  -22.8308   33.0589 H   0  0  0  0  0
  -17.4521  -22.6927   30.0260 H   0  0  0  0  0
  -18.8537  -23.7624   29.6820 H   0  0  0  0  0
  3  1  1  0  0  0
  1 11  1  0  0  0
 21  1  1  0  0  0
  2  9  1  0  0  0
 29  2  1  0  0  0
  2 30  1  0  0  0
  4  3  1  0  0  0
  5  4  1  0  0  0
  4 22  1  0  0  0
  6  5  4  0  0  0
 26  5  4  0  0  0
  7  6  4  0  0  0
 27  7  4  0  0  0
  8 26  4  0  0  0
 27  8  4  0  0  0
  9 34  1  0  0  0
 28 10  1  0  0  0
 10 29  1  0  0  0
 11 18  1  0  0  0
 11 20  1  0  0  0
 12 13  4  0  0  0
 18 12  4  0  0  0
 19 12  1  0  0  0
 13 14  4  0  0  0
 17 14  4  0  0  0
 15 16  1  0  0  0
 15 17  4  0  0  0
 18 15  4  0  0  0
 20 19  1  0  0  0
 22 21  1  0  0  0
 22 23  1  0  0  0
 23 24  1  0  0  0
 23 25  1  0  0  0
 27 28  1  0  0  0
 28 34  1  0  0  0
 30 31  2  0  0  0
 30 32  1  0  0  0
 30 33  2  0  0  0
  1 35  1  0  0  0
  3 36  1  0  0  0
  3 37  1  0  0  0
  4 38  1  0  0  0
  6 39  1  0  0  0
  7 40  1  0  0  0
  8 41  1  0  0  0
  9 42  1  0  0  0
  9 43  1  0  0  0
 10 44  1  0  0  0
 10 45  1  0  0  0
 11 46  1  0  0  0
 13 47  1  0  0  0
 14 48  1  0  0  0
 17 49  1  0  0  0
 19 50  1  0  0  0
 19 51  1  0  0  0
 20 52  1  0  0  0
 20 53  1  0  0  0
 21 54  1  0  0  0
 21 55  1  0  0  0
 22 56  1  0  0  0
 23 57  1  0  0  0
 24 58  1  0  0  0
 24 59  1  0  0  0
 24 60  1  0  0  0
 25 61  1  0  0  0
 25 62  1  0  0  0
 25 63  1  0  0  0
 26 64  1  0  0  0
 29 65  1  0  0  0
 29 66  1  0  0  0
 32 67  1  0  0  0
 32 68  1  0  0  0
 32 69  1  0  0  0
 34 70  1  0  0  0
 34 71  1  0  0  0
M  END
$$$$
