5dsx_ligand
  -I-interpret- 

 59 63  0  0  0  0  0  0  0  0999 V2000
   37.3050   -6.1080   12.0800 C   0  0  0  0  0
   35.6020   -5.9670   10.2740 C   0  0  0  0  0
   33.3650   -9.8650   10.2540 C   0  0  0  0  0
   32.3460  -10.1000   11.1770 C   0  0  0  0  0
   32.4370  -11.1730   12.0600 C   0  0  0  0  0
   33.5520  -12.0180   12.0300 C   0  0  0  0  0
   34.4660  -10.7340   10.2760 C   0  0  0  0  0
   39.0440   -6.0290   13.7060 C   0  0  0  0  0
   38.7990   -7.3490   14.0760 C   0  0  0  0  0
   37.7370   -8.0210   13.4430 C   0  0  0  0  0
   31.3300   -9.7320    8.0260 C   0  0  0  0  0
   31.3100  -11.4000   13.0290 C   0  0  0  0  0
   31.5180  -10.9360   14.4180 C   0  0  0  0  0
   29.3260  -11.7070   14.9560 C   0  0  0  0  0
   29.1180  -12.1590   13.7030 C   0  0  0  0  0
   30.1510  -12.0010   12.6620 C   0  0  0  0  0
   36.6000   -5.4740   11.0790 N   0  0  0  0  0
   35.0410   -7.2750   10.3780 C   0  0  0  0  0
   33.9510   -7.6150    9.5460 C   0  0  0  0  0
   33.4840   -6.6980    8.6070 C   0  0  0  0  0
   34.0590   -5.4240    8.4410 C   0  0  0  0  0
   35.0840   -5.0590    9.3160 C   0  0  0  0  0
   32.3440   -7.4180    7.9490 C   0  0  0  0  0
   32.2980   -8.6460    8.4830 C   0  0  0  0  0
   33.2480   -8.7800    9.4160 N   0  0  0  0  0
   34.5350  -11.7660   11.1490 N   0  0  0  0  0
   35.8110  -10.5390    9.1760 Cl  0  0  0  0  0
   38.3040   -5.4580   12.7300 N   0  0  0  0  0
   37.0330   -7.3690   12.4670 N   0  0  0  0  0
   30.5000  -11.1100   15.3220 N   0  0  0  0  0
   32.6070  -10.4310   14.7050 O   0  0  0  0  0
   30.6720  -10.6620   16.7190 C   0  0  0  0  0
   29.8410  -12.5130   11.2640 C   0  0  0  0  0
   37.4710   -9.3370   13.7090 N   0  0  0  0  0
   36.2820  -10.0560   13.2820 C   0  0  0  0  0
   31.4770   -9.4427   11.2072 H   0  0  0  0  0
   33.6221  -12.8668   12.7102 H   0  0  0  0  0
   39.8295   -5.4586   14.2017 H   0  0  0  0  0
   39.4094   -7.8450   14.8306 H   0  0  0  0  0
   30.3058   -9.3859    8.1650 H   0  0  0  0  0
   31.5015   -9.9496    6.9718 H   0  0  0  0  0
   31.4933  -10.6340    8.6157 H   0  0  0  0  0
   28.5358  -11.8208   15.6981 H   0  0  0  0  0
   28.1751  -12.6471   13.4562 H   0  0  0  0  0
   36.8558   -4.5007   10.9126 H   0  0  0  0  0
   35.4458   -7.9981   11.0860 H   0  0  0  0  0
   33.7167   -4.7472    7.6581 H   0  0  0  0  0
   35.4961   -4.0514    9.2613 H   0  0  0  0  0
   31.6798   -7.0183    7.1827 H   0  0  0  0  0
   31.5165  -11.1865   17.1661 H   0  0  0  0  0
   30.8600   -9.5884   16.7344 H   0  0  0  0  0
   29.7660  -10.8816   17.2838 H   0  0  0  0  0
   29.8864  -11.6848   10.5568 H   0  0  0  0  0
   30.5731  -13.2709   10.9854 H   0  0  0  0  0
   28.8421  -12.9489   11.2513 H   0  0  0  0  0
   38.1629   -9.8550   14.2506 H   0  0  0  0  0
   35.3980   -9.5739   13.6993 H   0  0  0  0  0
   36.2237  -10.0452   12.1936 H   0  0  0  0  0
   36.3359  -11.0862   13.6340 H   0  0  0  0  0
 17  1  1  0  0  0
  1 28  4  0  0  0
  1 29  4  0  0  0
  2 17  1  0  0  0
 18  2  4  0  0  0
 22  2  4  0  0  0
  3  4  4  0  0  0
  3  7  4  0  0  0
 25  3  1  0  0  0
  4  5  4  0  0  0
  5  6  4  0  0  0
  5 12  1  0  0  0
 26  6  4  0  0  0
  7 26  4  0  0  0
  7 27  1  0  0  0
  8  9  4  0  0  0
 28  8  4  0  0  0
 10  9  4  0  0  0
 29 10  4  0  0  0
 10 34  1  0  0  0
 24 11  1  0  0  0
 12 13  1  0  0  0
 12 16  2  0  0  0
 13 30  1  0  0  0
 13 31  2  0  0  0
 15 14  2  0  0  0
 30 14  1  0  0  0
 16 15  1  0  0  0
 16 33  1  0  0  0
 19 18  4  0  0  0
 20 19  4  0  0  0
 19 25  4  0  0  0
 20 21  4  0  0  0
 23 20  4  0  0  0
 21 22  4  0  0  0
 23 24  4  0  0  0
 24 25  4  0  0  0
 30 32  1  0  0  0
 34 35  1  0  0  0
  4 36  1  0  0  0
  6 37  1  0  0  0
  8 38  1  0  0  0
  9 39  1  0  0  0
 11 40  1  0  0  0
 11 41  1  0  0  0
 11 42  1  0  0  0
 14 43  1  0  0  0
 15 44  1  0  0  0
 17 45  1  0  0  0
 18 46  1  0  0  0
 21 47  1  0  0  0
 22 48  1  0  0  0
 23 49  1  0  0  0
 32 50  1  0  0  0
 32 51  1  0  0  0
 32 52  1  0  0  0
 33 53  1  0  0  0
 33 54  1  0  0  0
 33 55  1  0  0  0
 34 56  1  0  0  0
 35 57  1  0  0  0
 35 58  1  0  0  0
 35 59  1  0  0  0
M  END
$$$$
