1nnk_ligand
  -I-interpret- 

 33 33  0  0  0  0  0  0  0  0999 V2000
   46.7080   12.6030   23.0670 C   0  0  0  0  0
   46.9580   13.8820   22.2800 C   0  0  0  0  0
   48.2890   14.5440   22.5000 C   0  0  0  0  0
   48.9800   14.9760   23.5960 C   0  0  0  0  0
   50.1910   15.6020   23.0880 C   0  0  0  0  0
   51.0840   16.1690   23.8090 O   0  0  0  0  0
   50.2520   15.5050   21.7490 N   0  0  0  0  0
   49.0160   14.8080   21.3580 O   0  0  0  0  0
   48.7770   14.9510   25.0720 C   0  0  0  0  0
   49.6540   13.8480   25.7050 C   0  0  0  0  0
   49.7480   14.1220   27.2180 C   0  0  0  0  0
   50.2260   15.2470   27.5410 O   0  0  0  0  0
   49.3940   13.2180   28.0080 O   0  0  0  0  0
   49.1210   12.4700   25.4670 N   0  3  0  0  0
   46.7330   13.5740   20.7940 C   0  0  0  0  0
   45.9030   14.9200   22.6680 C   0  0  0  0  0
   45.6833   12.2704   22.9013 H   0  0  0  0  0
   47.4006   11.8308   22.7324 H   0  0  0  0  0
   46.8617   12.7954   24.1288 H   0  0  0  0  0
   50.9945   15.8417   21.1360 H   0  0  0  0  0
   47.7286   14.7443   25.2872 H   0  0  0  0  0
   49.0581   15.9177   25.4899 H   0  0  0  0  0
   50.6366   13.8809   25.2343 H   0  0  0  0  0
   50.4142   15.7533   26.7473 H   0  0  0  0  0
   49.7387   11.7873   25.9061 H   0  0  0  0  0
   48.1870   12.3938   25.8698 H   0  0  0  0  0
   49.0753   12.2930   24.4635 H   0  0  0  0  0
   45.7262   13.1804   20.6542 H   0  0  0  0  0
   46.8509   14.4886   20.2128 H   0  0  0  0  0
   47.4626   12.8350   20.4629 H   0  0  0  0  0
   46.0335   15.8142   22.0585 H   0  0  0  0  0
   44.9088   14.5060   22.4999 H   0  0  0  0  0
   46.0178   15.1767   23.7211 H   0  0  0  0  0
  1  2  1  0  0  0
  2  3  1  0  0  0
  2 15  1  0  0  0
  2 16  1  0  0  0
  3  4  2  0  0  0
  3  8  1  0  0  0
  4  5  1  0  0  0
  4  9  1  0  0  0
  5  6  2  0  0  0
  5  7  1  0  0  0
  7  8  1  0  0  0
  9 10  1  0  0  0
 10 11  1  0  0  0
 10 14  1  0  0  0
 11 12  1  0  0  0
 11 13  2  0  0  0
  1 17  1  0  0  0
  1 18  1  0  0  0
  1 19  1  0  0  0
  7 20  1  0  0  0
  9 21  1  0  0  0
  9 22  1  0  0  0
 10 23  1  0  0  0
 12 24  1  0  0  0
 14 25  1  0  0  0
 14 26  1  0  0  0
 14 27  1  0  0  0
 15 28  1  0  0  0
 15 29  1  0  0  0
 15 30  1  0  0  0
 16 31  1  0  0  0
 16 32  1  0  0  0
 16 33  1  0  0  0
M  END
$$$$
