5mqe_ligand
  -I-interpret- 

 16 16  0  0  0  0  0  0  0  0999 V2000
  -20.4620  -25.0520  -12.3550 C   0  0  0  0  0
  -18.4520  -29.9460  -14.7610 C   0  0  0  0  0
  -17.8070  -27.8860  -14.3260 C   0  0  0  0  0
  -20.0130  -27.0720  -13.5730 C   0  0  0  0  0
  -17.4190  -29.1050  -14.7640 C   0  0  0  0  0
  -19.1310  -27.9950  -14.0630 C   0  0  0  0  0
  -19.5010  -26.0050  -12.9380 N   0  0  0  0  0
  -19.5070  -29.2610  -14.3040 N   0  0  0  0  0
  -21.2260  -27.2540  -13.6670 O   0  0  0  0  0
  -15.6230  -29.6620  -15.3420 Br  0  0  0  0  0
  -21.0963  -24.6488  -13.1444 H   0  0  0  0  0
  -21.0793  -25.5655  -11.6179 H   0  0  0  0  0
  -19.9187  -24.2392  -11.8730 H   0  0  0  0  0
  -18.4403  -30.9909  -15.0711 H   0  0  0  0  0
  -17.1835  -26.9996  -14.2089 H   0  0  0  0  0
  -18.4940  -25.8610  -12.8628 H   0  0  0  0  0
  7  1  1  0  0  0
  5  2  4  0  0  0
  2  8  4  0  0  0
  3  5  4  0  0  0
  6  3  4  0  0  0
  4  6  1  0  0  0
  4  7  1  0  0  0
  4  9  2  0  0  0
  5 10  1  0  0  0
  6  8  4  0  0  0
  1 11  1  0  0  0
  1 12  1  0  0  0
  1 13  1  0  0  0
  2 14  1  0  0  0
  3 15  1  0  0  0
  7 16  1  0  0  0
M  END
$$$$
