5gn5_ligand
  -I-interpret- 

 50 53  0  0  0  0  0  0  0  0999 V2000
   35.2190    9.2950   -1.2170 C   0  0  0  0  0
   36.6510    9.4000   -1.4770 O   0  0  0  0  0
   37.4850    9.0980   -0.4290 C   0  0  0  0  0
   38.4200    8.0570   -0.5020 C   0  0  0  0  0
   39.2570    7.7770    0.5910 C   0  0  0  0  0
   37.4050    9.8520    0.7420 C   0  0  0  0  0
   38.2340    9.5710    1.8290 C   0  0  0  0  0
   39.1880    8.5370    1.7870 C   0  0  0  0  0
   39.9660    8.2850    2.8970 N   0  0  0  0  0
   40.2420    6.8480    3.2780 C   0  0  0  0  0
   41.4350    6.7520    4.2460 C   0  0  0  0  0
   40.5250    9.3650    3.8030 C   0  0  0  0  0
   40.6890    8.8530    5.3180 C   0  0  0  0  0
   40.9090    7.3950    5.4370 N   0  0  0  0  0
   41.8880    7.1310    6.5460 C   0  0  0  0  0
   41.5240    6.0450    7.4860 C   0  0  0  0  0
   40.3660    5.2310    7.3670 C   0  0  0  0  0
   40.0240    4.1940    8.2410 C   0  0  0  0  0
   38.9710    3.5920    8.0230 O   0  0  0  0  0
   40.8520    3.8780    9.2780 O   0  0  0  0  0
   42.0390    4.5800    9.4050 C   0  0  0  0  0
   42.3850    5.6580    8.5480 C   0  0  0  0  0
   43.6340    6.2760    8.7850 C   0  0  0  0  0
   44.4990    5.8820    9.8130 C   0  0  0  0  0
   44.1370    4.8340   10.6370 C   0  0  0  0  0
   44.9630    4.4300   11.6390 O   0  0  0  0  0
   42.9010    4.1860   10.4230 C   0  0  0  0  0
   42.4840    3.1500   11.2000 O   0  0  0  0  0
   34.9777    8.2724   -0.9271 H   0  0  0  0  0
   34.9464    9.9764   -0.4111 H   0  0  0  0  0
   34.6670    9.5581   -2.1193 H   0  0  0  0  0
   38.4984    7.4614   -1.4115 H   0  0  0  0  0
   39.9740    6.9592    0.5187 H   0  0  0  0  0
   36.6872   10.6695    0.8087 H   0  0  0  0  0
   38.1401   10.1688    2.7356 H   0  0  0  0  0
   40.4794    6.2865    2.3744 H   0  0  0  0  0
   39.3588    6.4415    3.7708 H   0  0  0  0  0
   42.3402    7.2242    3.8642 H   0  0  0  0  0
   41.7694    5.7291    4.4193 H   0  0  0  0  0
   39.8312   10.2057    3.8001 H   0  0  0  0  0
   41.5093    9.6477    3.4299 H   0  0  0  0  0
   39.7611    9.0847    5.8409 H   0  0  0  0  0
   41.5660    9.3484    5.7346 H   0  0  0  0  0
   42.8095    7.7034    6.6524 H   0  0  0  0  0
   40.5499    4.6986    6.4338 H   0  0  0  0  0
   39.5600    5.9470    7.5277 H   0  0  0  0  0
   43.9380    7.0980    8.1369 H   0  0  0  0  0
   45.4482    6.3968    9.9616 H   0  0  0  0  0
   44.5593    3.6967   12.1089 H   0  0  0  0  0
   43.1499    2.9624   11.8656 H   0  0  0  0  0
  1  2  1  0  0  0
  2  3  1  0  0  0
  3  4  4  0  0  0
  3  6  4  0  0  0
  4  5  4  0  0  0
  5  8  4  0  0  0
  6  7  4  0  0  0
  7  8  4  0  0  0
  8  9  1  0  0  0
  9 10  1  0  0  0
  9 12  1  0  0  0
 10 11  1  0  0  0
 11 14  1  0  0  0
 12 13  1  0  0  0
 13 14  1  0  0  0
 14 15  1  0  0  0
 15 16  2  0  0  0
 16 17  1  0  0  0
 16 22  1  0  0  0
 17 18  1  0  0  0
 18 19  2  0  0  0
 18 20  1  0  0  0
 20 21  1  0  0  0
 21 22  4  0  0  0
 21 27  4  0  0  0
 22 23  4  0  0  0
 23 24  4  0  0  0
 24 25  4  0  0  0
 25 26  1  0  0  0
 25 27  4  0  0  0
 27 28  1  0  0  0
  1 29  1  0  0  0
  1 30  1  0  0  0
  1 31  1  0  0  0
  4 32  1  0  0  0
  5 33  1  0  0  0
  6 34  1  0  0  0
  7 35  1  0  0  0
 10 36  1  0  0  0
 10 37  1  0  0  0
 11 38  1  0  0  0
 11 39  1  0  0  0
 12 40  1  0  0  0
 12 41  1  0  0  0
 13 42  1  0  0  0
 13 43  1  0  0  0
 15 44  1  0  0  0
 17 45  1  0  0  0
 17 46  1  0  0  0
 23 47  1  0  0  0
 24 48  1  0  0  0
 26 49  1  0  0  0
 28 50  1  0  0  0
M  END
$$$$
