3ddb_ligand
  -I-interpret- 

114113  0  0  0  0  0  0  0  0999 V2000
   28.2550   27.8660   53.1190 N   0  3  0  0  0
   28.1750   26.3810   53.0380 C   0  0  0  0  0
   26.9100   25.9190   53.7420 C   0  0  0  0  0
   26.7030   26.2280   54.9210 O   0  0  0  0  0
   29.3940   25.7520   53.7100 C   0  0  0  0  0
   29.6440   24.3050   53.3150 C   0  0  0  0  0
   30.8110   23.7260   54.1020 C   0  0  0  0  0
   31.8780   24.7130   54.2650 N   0  0  0  0  0
   32.5210   25.3030   53.2610 C   0  0  0  0  0
   32.2130   25.0090   52.0050 N   0  0  0  0  0
   33.4690   26.1970   53.5130 N   0  0  0  0  0
   26.0850   25.1630   53.0180 N   0  0  0  0  0
   24.8140   24.6710   53.5390 C   0  0  0  0  0
   24.8780   24.0520   54.9280 C   0  0  0  0  0
   23.9980   24.2870   55.7550 O   0  0  0  0  0
   24.2010   23.6530   52.5790 C   0  0  0  0  0
   22.7890   23.2240   52.9620 C   0  0  0  0  0
   22.3170   22.0900   52.0770 C   0  0  0  0  0
   23.0320   20.8460   52.3500 N   0  0  0  0  0
   22.8310   20.0900   53.4240 C   0  0  0  0  0
   21.9300   20.4480   54.3310 N   0  0  0  0  0
   23.5370   18.9810   53.5960 N   0  0  0  0  0
   25.9070   23.2510   55.1820 N   0  0  0  0  0
   26.0480   22.6140   56.4810 C   0  0  0  0  0
   27.4430   22.0600   56.7160 C   0  0  0  0  0
   28.2880   22.0580   55.8170 O   0  0  0  0  0
   25.0190   21.4990   56.6210 C   0  0  0  0  0
   27.6780   21.6020   57.9410 N   0  0  0  0  0
   28.9550   21.0120   58.3000 C   0  0  0  0  0
   28.9660   19.6070   57.7110 C   0  0  0  0  0
   28.0380   19.2270   57.0020 O   0  0  0  0  0
   29.1180   20.9020   59.8240 C   0  0  0  0  0
   28.1630   19.9670   60.3370 O   0  0  0  0  0
   28.9070   22.2440   60.4840 C   0  0  0  0  0
   30.0020   18.8340   58.0080 N   0  0  0  0  0
   30.0720   17.4790   57.4950 C   0  0  0  0  0
   28.9400   16.6150   58.0470 C   0  0  0  0  0
   28.7400   15.4910   57.6050 O   0  0  0  0  0
   31.4230   16.8490   57.8350 C   0  0  0  0  0
   32.5340   17.1070   56.8240 C   0  0  0  0  0
   32.0470   17.9830   55.6680 C   0  0  0  0  0
   33.0110   17.9880   54.4850 C   0  0  0  0  0
   32.4650   18.8060   53.3600 N   0  3  0  0  0
   28.1990   17.1430   59.0150 N   0  0  0  0  0
   27.0820   16.4260   59.6330 C   0  0  0  0  0
   25.7450   16.7080   58.9680 C   0  0  0  0  0
   24.7180   16.2830   59.5370 O   0  0  0  0  0
   27.0260   16.7880   61.1210 C   0  0  0  0  0
   28.2980   16.5360   61.8650 C   0  0  0  0  0
   28.8160   14.8020   61.8450 S   0  0  0  0  0
   29.4120   14.5990   63.5560 C   0  0  0  0  0
   25.6970   17.4270   57.8080 N   0  0  0  0  0
   27.4366   28.2745   52.6675 H   0  0  0  0  0
   28.2824   28.1509   54.0980 H   0  0  0  0  0
   29.1006   28.1860   52.6467 H   0  0  0  0  0
   28.1539   26.0739   51.9924 H   0  0  0  0  0
   29.2125   25.7659   54.7847 H   0  0  0  0  0
   30.2662   26.3265   53.3980 H   0  0  0  0  0
   29.8822   24.2662   52.2521 H   0  0  0  0  0
   28.7492   23.7213   53.5312 H   0  0  0  0  0
   31.2084   22.8697   53.5570 H   0  0  0  0  0
   30.4542   23.4321   55.0891 H   0  0  0  0  0
   32.1481   24.9668   55.2153 H   0  0  0  0  0
   31.4803   24.3279   51.8056 H   0  0  0  0  0
   33.9567   26.6542   52.7426 H   0  0  0  0  0
   33.7099   26.4269   54.4771 H   0  0  0  0  0
   26.3521   24.9193   52.0642 H   0  0  0  0  0
   24.1936   25.5629   53.6273 H   0  0  0  0  0
   24.8299   22.7630   52.6019 H   0  0  0  0  0
   24.1442   24.1233   51.5973 H   0  0  0  0  0
   22.1163   24.0725   52.8370 H   0  0  0  0  0
   22.7920   22.8852   53.9980 H   0  0  0  0  0
   22.5027   22.3683   51.0396 H   0  0  0  0  0
   21.2578   21.9236   52.2735 H   0  0  0  0  0
   23.7301   20.5380   51.6731 H   0  0  0  0  0
   21.7819   19.8702   55.1584 H   0  0  0  0  0
   21.3859   21.3008   54.2004 H   0  0  0  0  0
   24.2346   18.7080   52.9038 H   0  0  0  0  0
   26.6053   23.0813   54.4581 H   0  0  0  0  0
   25.8778   23.3818   57.2358 H   0  0  0  0  0
   24.0168   21.9178   56.5303 H   0  0  0  0  0
   25.1775   20.7594   55.8362 H   0  0  0  0  0
   25.1292   21.0250   57.5964 H   0  0  0  0  0
   26.9437   21.6665   58.6460 H   0  0  0  0  0
   29.7662   21.6338   57.9212 H   0  0  0  0  0
   30.1303   20.5616   60.0418 H   0  0  0  0  0
   28.2642   19.8978   61.2891 H   0  0  0  0  0
   29.6399   22.9546   60.1019 H   0  0  0  0  0
   27.9017   22.6024   60.2624 H   0  0  0  0  0
   29.0276   22.1401   61.5623 H   0  0  0  0  0
   30.7517   19.1934   58.5989 H   0  0  0  0  0
   29.9632   17.5294   56.4116 H   0  0  0  0  0
   31.2674   15.7705   57.8597 H   0  0  0  0  0
   31.7472   17.2939   58.7758 H   0  0  0  0  0
   32.8609   16.1497   56.4181 H   0  0  0  0  0
   33.3486   17.6248   57.3304 H   0  0  0  0  0
   31.9636   19.0057   56.0356 H   0  0  0  0  0
   31.0949   17.5808   55.3218 H   0  0  0  0  0
   33.1496   16.9634   54.1399 H   0  0  0  0  0
   33.9592   18.4195   54.8057 H   0  0  0  0  0
   33.1245   18.7951   52.5820 H   0  0  0  0  0
   31.5736   18.4134   53.0572 H   0  0  0  0  0
   32.3255   19.7659   53.6756 H   0  0  0  0  0
   28.4168   18.0848   59.3405 H   0  0  0  0  0
   27.2617   15.3588   59.5027 H   0  0  0  0  0
   26.2596   16.1597   61.5749 H   0  0  0  0  0
   26.8251   17.8575   61.1831 H   0  0  0  0  0
   28.1296   16.8153   62.9051 H   0  0  0  0  0
   29.0818   17.1173   61.3794 H   0  0  0  0  0
   30.2295   15.2961   63.7397 H   0  0  0  0  0
   28.5965   14.8024   64.2500 H   0  0  0  0  0
   29.7651   13.5775   63.6976 H   0  0  0  0  0
   24.7978   17.6354   57.3740 H   0  0  0  0  0
   26.5604   17.7557   57.3756 H   0  0  0  0  0
  1  2  1  0  0  0
  2  3  1  0  0  0
  2  5  1  0  0  0
  3  4  2  0  0  0
  3 12  1  0  0  0
  5  6  1  0  0  0
  6  7  1  0  0  0
  7  8  1  0  0  0
  8  9  1  0  0  0
  9 10  2  0  0  0
  9 11  1  0  0  0
 12 13  1  0  0  0
 13 14  1  0  0  0
 13 16  1  0  0  0
 14 15  2  0  0  0
 14 23  1  0  0  0
 16 17  1  0  0  0
 17 18  1  0  0  0
 18 19  1  0  0  0
 19 20  1  0  0  0
 20 21  1  0  0  0
 20 22  2  0  0  0
 23 24  1  0  0  0
 24 25  1  0  0  0
 24 27  1  0  0  0
 25 26  2  0  0  0
 25 28  1  0  0  0
 28 29  1  0  0  0
 29 30  1  0  0  0
 29 32  1  0  0  0
 30 31  2  0  0  0
 30 35  1  0  0  0
 32 33  1  0  0  0
 32 34  1  0  0  0
 35 36  1  0  0  0
 36 37  1  0  0  0
 36 39  1  0  0  0
 37 38  2  0  0  0
 37 44  1  0  0  0
 39 40  1  0  0  0
 40 41  1  0  0  0
 41 42  1  0  0  0
 42 43  1  0  0  0
 44 45  1  0  0  0
 45 46  1  0  0  0
 45 48  1  0  0  0
 46 47  2  0  0  0
 46 52  1  0  0  0
 48 49  1  0  0  0
 49 50  1  0  0  0
 50 51  1  0  0  0
  1 53  1  0  0  0
  1 54  1  0  0  0
  1 55  1  0  0  0
  2 56  1  0  0  0
  5 57  1  0  0  0
  5 58  1  0  0  0
  6 59  1  0  0  0
  6 60  1  0  0  0
  7 61  1  0  0  0
  7 62  1  0  0  0
  8 63  1  0  0  0
 10 64  1  0  0  0
 11 65  1  0  0  0
 11 66  1  0  0  0
 12 67  1  0  0  0
 13 68  1  0  0  0
 16 69  1  0  0  0
 16 70  1  0  0  0
 17 71  1  0  0  0
 17 72  1  0  0  0
 18 73  1  0  0  0
 18 74  1  0  0  0
 19 75  1  0  0  0
 21 76  1  0  0  0
 21 77  1  0  0  0
 22 78  1  0  0  0
 23 79  1  0  0  0
 24 80  1  0  0  0
 27 81  1  0  0  0
 27 82  1  0  0  0
 27 83  1  0  0  0
 28 84  1  0  0  0
 29 85  1  0  0  0
 32 86  1  0  0  0
 33 87  1  0  0  0
 34 88  1  0  0  0
 34 89  1  0  0  0
 34 90  1  0  0  0
 35 91  1  0  0  0
 36 92  1  0  0  0
 39 93  1  0  0  0
 39 94  1  0  0  0
 40 95  1  0  0  0
 40 96  1  0  0  0
 41 97  1  0  0  0
 41 98  1  0  0  0
 42 99  1  0  0  0
 42100  1  0  0  0
 43101  1  0  0  0
 43102  1  0  0  0
 43103  1  0  0  0
 44104  1  0  0  0
 45105  1  0  0  0
 48106  1  0  0  0
 48107  1  0  0  0
 49108  1  0  0  0
 49109  1  0  0  0
 51110  1  0  0  0
 51111  1  0  0  0
 51112  1  0  0  0
 52113  1  0  0  0
 52114  1  0  0  0
M  END
$$$$
