### 
### Created by X-TOOL on Mon Sep 10 21:12:58 2018
### 

@<TRIPOS>MOLECULE
3ddb_ligand
  116   115     1     0     0
SMALL
GAST_HUCK


@<TRIPOS>ATOM
      1 N          28.2550   27.8660   53.1190 N.4       1 ARG         0.2379
      2 CA         28.1750   26.3810   53.0380 C.3       1 ARG         0.0651
      3 C          26.9100   25.9190   53.7420 C.2       1 ARG         0.2267
      4 O          26.7030   26.2280   54.9210 O.2       1 ARG        -0.3907
      5 CB         29.3940   25.7520   53.7100 C.3       1 ARG         0.0110
      6 CG         29.6440   24.3050   53.3150 C.3       1 ARG        -0.0125
      7 CD         30.8110   23.7260   54.1020 C.3       1 ARG         0.0629
      8 NE         31.8780   24.7130   54.2650 N.pl3     1 ARG        -0.2723
      9 CZ         32.5210   25.3030   53.2610 C.cat     1 ARG         0.2882
     10 NH1        32.2130   25.0090   52.0050 N.pl3     1 ARG        -0.2849
     11 NH2        33.4690   26.1970   53.5130 N.pl3     1 ARG        -0.2849
     12 N          26.0850   25.1630   53.0180 N.am      1 ARG        -0.2610
     13 CA         24.8140   24.6710   53.5390 C.3       1 ARG         0.1312
     14 C          24.8780   24.0520   54.9280 C.2       1 ARG         0.2039
     15 O          23.9980   24.2870   55.7550 O.2       1 ARG        -0.3944
     16 CB         24.2010   23.6530   52.5790 C.3       1 ARG        -0.0092
     17 CG         22.7890   23.2240   52.9620 C.3       1 ARG        -0.0156
     18 CD         22.3170   22.0900   52.0770 C.3       1 ARG         0.0627
     19 NE         23.0320   20.8460   52.3500 N.pl3     1 ARG        -0.2723
     20 CZ         22.8310   20.0900   53.4240 C.cat     1 ARG         0.2882
     21 NH1        21.9300   20.4480   54.3310 N.pl3     1 ARG        -0.2849
     22 NH2        23.5370   18.9810   53.5960 N.pl3     1 ARG        -0.2849
     23 N          25.9070   23.2510   55.1820 N.am      1 ALA        -0.2640
     24 CA         26.0480   22.6140   56.4810 C.3       1 ALA         0.1282
     25 C          27.4430   22.0600   56.7160 C.2       1 ALA         0.2037
     26 O          28.2880   22.0580   55.8170 O.2       1 ALA        -0.3944
     27 CB         25.0190   21.4990   56.6210 C.3       1 ALA        -0.0244
     28 N          27.6780   21.6020   57.9410 N.am      1 THR        -0.2613
     29 CA         28.9550   21.0120   58.3000 C.3       1 THR         0.1565
     30 C          28.9660   19.6070   57.7110 C.2       1 THR         0.2065
     31 O          28.0380   19.2270   57.0020 O.2       1 THR        -0.3943
     32 CB         29.1180   20.9020   59.8240 C.3       1 THR         0.0924
     33 OG1        28.1630   19.9670   60.3370 O.3       1 THR        -0.3874
     34 CG2        28.9070   22.2440   60.4840 C.3       1 THR        -0.0346
     35 N          30.0020   18.8340   58.0080 N.am      1 LYS        -0.2637
     36 CA         30.0720   17.4790   57.4950 C.3       1 LYS         0.1310
     37 C          28.9400   16.6150   58.0470 C.2       1 LYS         0.2039
     38 O          28.7400   15.4910   57.6050 O.2       1 LYS        -0.3944
     39 CB         31.4230   16.8490   57.8350 C.3       1 LYS        -0.0122
     40 CG         32.5340   17.1070   56.8240 C.3       1 LYS        -0.0440
     41 CD         32.0470   17.9830   55.6680 C.3       1 LYS        -0.0124
     42 CE         33.0110   17.9880   54.4850 C.3       1 LYS        -0.0354
     43 NZ         32.4650   18.8060   53.3600 N.4       1 LYS         0.2185
     44 N          28.1990   17.1430   59.0150 N.am      1 MET        -0.2637
     45 CA         27.0820   16.4260   59.6330 C.3       1 MET         0.1314
     46 C          25.7450   16.7080   58.9680 C.2       1 MET         0.1992
     47 O          24.7180   16.2830   59.5370 O.2       1 MET        -0.3947
     48 CB         27.0260   16.7880   61.1210 C.3       1 MET        -0.0034
     49 CG         28.2980   16.5360   61.8650 C.3       1 MET        -0.0024
     50 SD         28.8160   14.8020   61.8450 S.3       1 MET        -0.1639
     51 CE         29.4120   14.5990   63.5560 C.3       1 MET        -0.0181
     52 N          25.6970   17.4270   57.8080 N.am      1 NH2        -0.2990
     53 H1         29.0915   28.1832   52.6545 H         1 ARG         0.2015
     54 H2         28.2799   28.1489   54.0862 H         1 ARG         0.2015
     55 H3         27.4479   28.2709   52.6711 H         1 ARG         0.2015
     56 H4         28.1424   26.0729   51.9825 H         1 ARG         0.1098
     57 H5         29.2468   25.7920   54.7994 H         1 ARG         0.0347
     58 H6         30.2813   26.3424   53.4379 H         1 ARG         0.0347
     59 H7         29.8749   24.2588   52.2405 H         1 ARG         0.0302
     60 H8         28.7402   23.7130   53.5216 H         1 ARG         0.0302
     61 H9         31.2087   22.8526   53.5644 H         1 ARG         0.0689
     62 H10        30.4552   23.4145   55.0951 H         1 ARG         0.0689
     63 H11        32.1507   24.9692   55.2246 H         1 ARG         0.2642
     64 H12        32.7136   25.4684   51.2309 H         1 ARG         0.2615
     65 H13        31.4732   24.3213   51.8036 H         1 ARG         0.2615
     66 H14        33.7123   26.4292   54.4866 H         1 ARG         0.2615
     67 H15        33.9615   26.6587   52.7350 H         1 ARG         0.2615
     68 H16        26.3468   24.9241   52.0829 H         1 ARG         0.1884
     69 H17        24.1375   25.5363   53.5991 H         1 ARG         0.0800
     70 H18        24.8431   22.7600   52.5629 H         1 ARG         0.0313
     71 H19        24.1680   24.0991   51.5741 H         1 ARG         0.0313
     72 H20        22.1076   24.0798   52.8468 H         1 ARG         0.0301
     73 H21        22.7846   22.8902   54.0101 H         1 ARG         0.0301
     74 H22        22.4798   22.3692   51.0256 H         1 ARG         0.0689
     75 H23        21.2431   21.9274   52.2512 H         1 ARG         0.0689
     76 H24        23.7369   20.5350   51.6664 H         1 ARG         0.2642
     77 H25        21.7754   19.8608   55.1630 H         1 ARG         0.2615
     78 H26        21.3856   21.3129   54.2027 H         1 ARG         0.2615
     79 H27        24.2365   18.7016   52.8934 H         1 ARG         0.2615
     80 H28        23.3860   18.3988   54.4322 H         1 ARG         0.2615
     81 H29        26.5916   23.0846   54.4723 H         1 ALA         0.1883
     82 H30        25.8500   23.3717   57.2535 H         1 ALA         0.0797
     83 H31        25.1292   21.0198   57.6050 H         1 ALA         0.0277
     84 H32        25.1780   20.7518   55.8295 H         1 ALA         0.0277
     85 H33        24.0070   21.9203   56.5296 H         1 ALA         0.0277
     86 H34        26.9581   21.6652   58.6321 H         1 THR         0.1884
     87 H35        29.7768   21.6129   57.8834 H         1 THR         0.0826
     88 H36        30.1338   20.5463   60.0512 H         1 THR         0.0639
     89 H37        27.2855   20.2675   60.1318 H         1 THR         0.2101
     90 H38        29.0285   22.1405   61.5724 H         1 THR         0.0257
     91 H39        27.8928   22.6068   60.2612 H         1 THR         0.0257
     92 H40        29.6461   22.9621   60.0993 H         1 THR         0.0257
     93 H41        30.7370   19.1863   58.5873 H         1 LYS         0.1883
     94 H42        29.9723   17.5205   56.4003 H         1 LYS         0.0800
     95 H43        31.2807   15.7611   57.9135 H         1 LYS         0.0312
     96 H44        31.7489   17.2473   58.8072 H         1 LYS         0.0312
     97 H45        32.8815   16.1442   56.4212 H         1 LYS         0.0269
     98 H46        33.3678   17.6149   57.3308 H         1 LYS         0.0269
     99 H47        31.9322   19.0145   56.0325 H         1 LYS         0.0317
    100 H48        31.0725   17.6043   55.3260 H         1 LYS         0.0317
    101 H49        33.1631   16.9549   54.1392 H         1 LYS         0.0813
    102 H50        33.9736   18.4128   54.8058 H         1 LYS         0.0813
    103 H51        33.1160   18.7959   52.5905 H         1 LYS         0.1994
    104 H52        32.3267   19.7549   53.6707 H         1 LYS         0.1994
    105 H53        31.5840   18.4190   53.0598 H         1 LYS         0.1994
    106 H54        28.4125   18.0664   59.3341 H         1 MET         0.1883
    107 H55        27.2790   15.3476   59.5423 H         1 MET         0.0800
    108 H56        26.2290   16.1927   61.5904 H         1 MET         0.0320
    109 H57        26.7835   17.8575   61.2062 H         1 MET         0.0320
    110 H58        28.1563   16.8447   62.9112 H         1 MET         0.0378
    111 H59        29.0942   17.1423   61.4084 H         1 MET         0.0378
    112 H60        29.7686   13.5684   63.7002 H         1 MET         0.0340
    113 H61        28.5898   14.8040   64.2574 H         1 MET         0.0340
    114 H62        30.2372   15.3020   63.7427 H         1 MET         0.0340
    115 H63        24.8170   17.6124   57.3707 H         1 NH2         0.1815
    116 H64        26.5419   17.7681   57.3959 H         1 NH2         0.1815
@<TRIPOS>BOND
     1    1    2 1  
     2    2    3 1  
     3    2    5 1  
     4    3    4 2  
     5    3   12 am 
     6    5    6 1  
     7    6    7 1  
     8    7    8 1  
     9    8    9 ar 
    10    9   10 ar 
    11    9   11 ar 
    12   12   13 1  
    13   13   14 1  
    14   13   16 1  
    15   14   15 2  
    16   14   23 am 
    17   16   17 1  
    18   17   18 1  
    19   18   19 1  
    20   19   20 ar 
    21   20   21 ar 
    22   20   22 ar 
    23   23   24 1  
    24   24   25 1  
    25   24   27 1  
    26   25   26 2  
    27   25   28 am 
    28   28   29 1  
    29   29   30 1  
    30   29   32 1  
    31   30   31 2  
    32   30   35 am 
    33   32   33 1  
    34   32   34 1  
    35   35   36 1  
    36   36   37 1  
    37   36   39 1  
    38   37   38 2  
    39   37   44 am 
    40   39   40 1  
    41   40   41 1  
    42   41   42 1  
    43   42   43 1  
    44   44   45 1  
    45   45   46 1  
    46   45   48 1  
    47   46   47 2  
    48   46   52 am 
    49   48   49 1  
    50   49   50 1  
    51   50   51 1  
    52    1   53 1  
    53    1   54 1  
    54    1   55 1  
    55    2   56 1  
    56    5   57 1  
    57    5   58 1  
    58    6   59 1  
    59    6   60 1  
    60    7   61 1  
    61    7   62 1  
    62    8   63 1  
    63   10   64 1  
    64   10   65 1  
    65   11   66 1  
    66   11   67 1  
    67   12   68 1  
    68   13   69 1  
    69   16   70 1  
    70   16   71 1  
    71   17   72 1  
    72   17   73 1  
    73   18   74 1  
    74   18   75 1  
    75   19   76 1  
    76   21   77 1  
    77   21   78 1  
    78   22   79 1  
    79   22   80 1  
    80   23   81 1  
    81   24   82 1  
    82   27   83 1  
    83   27   84 1  
    84   27   85 1  
    85   28   86 1  
    86   29   87 1  
    87   32   88 1  
    88   33   89 1  
    89   34   90 1  
    90   34   91 1  
    91   34   92 1  
    92   35   93 1  
    93   36   94 1  
    94   39   95 1  
    95   39   96 1  
    96   40   97 1  
    97   40   98 1  
    98   41   99 1  
    99   41  100 1  
   100   42  101 1  
   101   42  102 1  
   102   43  103 1  
   103   43  104 1  
   104   43  105 1  
   105   44  106 1  
   106   45  107 1  
   107   48  108 1  
   108   48  109 1  
   109   49  110 1  
   110   49  111 1  
   111   51  112 1  
   112   51  113 1  
   113   51  114 1  
   114   52  115 1  
   115   52  116 1  
@<TRIPOS>SUBSTRUCTURE
     1 ARG         1

