5k0t_ligand
  -I-interpret- 

 47 48  0  0  0  0  0  0  0  0999 V2000
   27.5300    9.9680    9.0100 C   0  0  0  0  0
   28.2290   11.0230    9.6530 O   0  0  0  0  0
   28.0470   11.0020   11.0340 C   0  0  0  0  0
   29.0160   10.4760   11.8450 C   0  0  0  0  0
   26.8300   11.5100   11.5880 C   0  0  0  0  0
   26.6370   11.4820   12.9680 C   0  0  0  0  0
   25.1750   12.1080   13.5930 Cl  0  0  0  0  0
   27.6440   10.9440   13.8150 C   0  0  0  0  0
   28.8120   10.4510   13.2730 C   0  0  0  0  0
   29.9000    9.8660   14.1580 C   0  0  0  0  0
   29.5780    8.4820   14.4510 N   0  3  0  0  0
   30.6750    7.6010   14.4230 C   0  0  0  0  0
   30.8170    6.9020   13.0000 C   0  0  0  0  0
   31.0030    5.3490   13.0930 C   0  0  0  0  0
   29.7920    4.6810   12.8730 N   0  0  0  0  0
   29.4410    4.0590   11.6410 C   0  0  0  0  0
   30.2330    4.0920   10.6520 O   0  0  0  0  0
   28.1420    3.3920   11.5580 N   0  0  0  0  0
   27.6420    2.7410   10.3830 C   0  0  0  0  0
   26.2990    2.8710   10.1070 C   0  0  0  0  0
   25.7200    2.2510    8.9390 C   0  0  0  0  0
   26.5280    1.5070    8.0720 C   0  0  0  0  0
   27.8960    1.3700    8.3430 C   0  0  0  0  0
   28.4650    1.9770    9.4950 C   0  0  0  0  0
   27.8911    9.0114    9.3877 H   0  0  0  0  0
   26.4637   10.0621    9.2155 H   0  0  0  0  0
   27.7004   10.0233    7.9348 H   0  0  0  0  0
   29.9354   10.0788   11.4150 H   0  0  0  0  0
   26.0580   11.9166   10.9347 H   0  0  0  0  0
   27.4926   10.9212   14.8942 H   0  0  0  0  0
   29.9626   10.4332   15.0867 H   0  0  0  0  0
   30.8597    9.9190   13.6440 H   0  0  0  0  0
   28.9295    8.1699   13.7282 H   0  0  0  0  0
   29.2050    8.4597   15.4001 H   0  0  0  0  0
   30.5195    6.8283   15.1759 H   0  0  0  0  0
   31.5829    8.1700   14.6229 H   0  0  0  0  0
   31.7031    7.3131   12.5163 H   0  0  0  0  0
   29.8987    7.0926   12.4445 H   0  0  0  0  0
   31.3616    5.1003   14.0918 H   0  0  0  0  0
   31.7164    5.0373   12.3301 H   0  0  0  0  0
   29.1217    4.6374   13.6406 H   0  0  0  0  0
   27.5533    3.3900   12.3909 H   0  0  0  0  0
   25.6651    3.4495   10.7791 H   0  0  0  0  0
   24.6555    2.3622    8.7328 H   0  0  0  0  0
   26.0951    1.0360    7.1895 H   0  0  0  0  0
   28.5274    0.7944    7.6661 H   0  0  0  0  0
   29.5287    1.8608    9.7027 H   0  0  0  0  0
  1  2  1  0  0  0
  2  3  1  0  0  0
  3  4  4  0  0  0
  3  5  4  0  0  0
  4  9  4  0  0  0
  5  6  4  0  0  0
  6  7  1  0  0  0
  6  8  4  0  0  0
  8  9  4  0  0  0
  9 10  1  0  0  0
 10 11  1  0  0  0
 11 12  1  0  0  0
 12 13  1  0  0  0
 13 14  1  0  0  0
 14 15  1  0  0  0
 15 16  1  0  0  0
 16 17  2  0  0  0
 16 18  1  0  0  0
 18 19  1  0  0  0
 19 20  4  0  0  0
 19 24  4  0  0  0
 20 21  4  0  0  0
 21 22  4  0  0  0
 22 23  4  0  0  0
 23 24  4  0  0  0
  1 25  1  0  0  0
  1 26  1  0  0  0
  1 27  1  0  0  0
  4 28  1  0  0  0
  5 29  1  0  0  0
  8 30  1  0  0  0
 10 31  1  0  0  0
 10 32  1  0  0  0
 11 33  1  0  0  0
 11 34  1  0  0  0
 12 35  1  0  0  0
 12 36  1  0  0  0
 13 37  1  0  0  0
 13 38  1  0  0  0
 14 39  1  0  0  0
 14 40  1  0  0  0
 15 41  1  0  0  0
 18 42  1  0  0  0
 20 43  1  0  0  0
 21 44  1  0  0  0
 22 45  1  0  0  0
 23 46  1  0  0  0
 24 47  1  0  0  0
M  END
$$$$
