2wzs_ligand
  -I-interpret- 

 26 27  0  0  0  0  0  0  0  0999 V2000
   44.1390   24.4400  100.9170 C   0  0  0  0  0
   43.9610   23.2130  100.4380 N   0  0  0  0  0
   44.9420   23.5900  103.1260 C   0  0  0  0  0
   44.3010   22.2600  102.6430 C   0  0  0  0  0
   44.4460   21.9950  101.1340 C   0  0  0  0  0
   43.6280   20.7630  100.7080 C   0  0  0  0  0
   42.8970   24.6140   99.1410 C   0  0  0  0  0
   43.1670   23.2840   99.3620 C   0  0  0  0  0
   43.5100   25.3170  100.1180 N   0  0  0  0  0
   44.2360   24.0740  104.2650 O   0  0  0  0  0
   44.4740   25.9530  102.7150 O   0  0  0  0  0
   44.8530   21.1480  103.3700 O   0  0  0  0  0
   44.9620   24.7450  102.1150 C   0  0  0  0  0
   42.2720   20.8240  101.1890 O   0  0  0  0  0
   45.9787   23.3168  103.3230 H   0  0  0  0  0
   43.2342   22.3666  102.8398 H   0  0  0  0  0
   45.4846   21.7854  100.8780 H   0  0  0  0  0
   44.1006   19.8767  101.1314 H   0  0  0  0  0
   43.6024   20.7305   99.6188 H   0  0  0  0  0
   42.2989   25.0250   98.3277 H   0  0  0  0  0
   42.8025   22.4437   98.7712 H   0  0  0  0  0
   44.1952   23.3844  104.9316 H   0  0  0  0  0
   44.4946   26.6615  102.0676 H   0  0  0  0  0
   44.7652   21.3080  104.3125 H   0  0  0  0  0
   45.9990   24.8771  101.8062 H   0  0  0  0  0
   41.7967   20.0404  100.9032 H   0  0  0  0  0
  1  2  4  0  0  0
  1  9  4  0  0  0
 13  1  1  0  0  0
  2  5  1  0  0  0
  2  8  4  0  0  0
  3  4  1  0  0  0
  3 10  1  0  0  0
  3 13  1  0  0  0
  4  5  1  0  0  0
  4 12  1  0  0  0
  5  6  1  0  0  0
  6 14  1  0  0  0
  8  7  4  0  0  0
  7  9  4  0  0  0
 13 11  1  0  0  0
  3 15  1  0  0  0
  4 16  1  0  0  0
  5 17  1  0  0  0
  6 18  1  0  0  0
  6 19  1  0  0  0
  7 20  1  0  0  0
  8 21  1  0  0  0
 10 22  1  0  0  0
 11 23  1  0  0  0
 12 24  1  0  0  0
 13 25  1  0  0  0
 14 26  1  0  0  0
M  END
$$$$
