### 
### Created by X-TOOL on Mon Sep 10 21:12:50 2018
### 

@<TRIPOS>MOLECULE
1gx0_ligand
   38    39     1     0     0
SMALL
GAST_HUCK


@<TRIPOS>ATOM
      1 N1          2.6520   13.3320   43.2820 N.am      1 UDP        -0.2233
      2 C2          2.7170   14.3280   42.2910 C.2       1 UDP         0.2924
      3 N3          2.3500   15.6320   42.6440 N.am      1 UDP        -0.1851
      4 C4          1.9050   16.1090   43.9020 C.2       1 UDP         0.2063
      5 C5          1.8290   15.0530   44.9860 C.3       1 UDP         0.0625
      6 C6          2.2270   13.6530   44.5880 C.3       1 UDP         0.0545
      7 O2          3.0870   14.0710   41.1380 O.2       1 UDP        -0.3913
      8 O4          1.6290   17.3030   44.0120 O.2       1 UDP        -0.3868
      9 C1          3.0440   11.9280   42.9190 C.3       1 UDP         0.1751
     10 C2          4.5570   11.7180   42.6950 C.3       1 UDP         0.1308
     11 O2          4.8010   10.6840   41.7510 O.3       1 UDP        -0.3844
     12 C3          5.0200   11.3790   44.1080 C.3       1 UDP         0.1141
     13 C4          3.8930   10.4330   44.5910 C.3       1 UDP         0.1181
     14 O4          2.6950   11.0210   43.9910 O.3       1 UDP        -0.3432
     15 O3          6.2860   10.7180   43.9960 O.3       1 UDP        -0.3864
     16 C5          3.6580   10.3850   46.1410 C.3       1 UDP         0.1131
     17 O5          4.0440   11.6410   46.6530 O.3       1 UDP        -0.2436
     18 PA          5.3050   12.1130   47.4460 P.3       1 UDP         0.3276
     19 O1A         6.4920   11.6030   46.7210 O.co2     1 UDP        -0.5556
     20 O2A         5.1810   13.6010   47.6330 O.co2     1 UDP        -0.5556
     21 O3A         5.1550   11.3180   48.8130 O.3       1 UDP        -0.1548
     22 PB          6.2700   11.1520   49.9520 P.3       1 UDP         0.2069
     23 O1B         7.2350    9.9860   49.4000 O.co2     1 UDP        -0.5891
     24 O2B         5.4950   10.7300   51.1430 O.co2     1 UDP        -0.5891
     25 O3B         7.1740   12.3300   50.0400 O.co2     1 UDP        -0.5891
     26 H1          2.4095   16.3141   41.9152 H         1 UDP         0.2254
     27 H2          0.7899   15.0162   45.3451 H         1 UDP         0.0527
     28 H3          2.4898   15.3681   45.8071 H         1 UDP         0.0527
     29 H4          3.0517   13.3671   45.2574 H         1 UDP         0.0546
     30 H5          1.3528   13.0168   44.7907 H         1 UDP         0.0546
     31 H6          2.5041   11.6503   42.0017 H         1 UDP         0.0895
     32 H7          5.0381   12.6411   42.3396 H         1 UDP         0.0668
     33 H8          4.4012   10.9141   40.9205 H         1 UDP         0.2101
     34 H9          5.1055   12.2673   44.7511 H         1 UDP         0.0648
     35 H10         4.0755    9.4128   44.2223 H         1 UDP         0.0651
     36 H11         6.5382   10.3733   44.8446 H         1 UDP         0.2100
     37 H12         4.2688    9.5889   46.5917 H         1 UDP         0.0648
     38 H13         2.5956   10.1988   46.3569 H         1 UDP         0.0648
@<TRIPOS>BOND
     1    1    2 am 
     2    1    6 1  
     3    1    9 1  
     4    2    3 am 
     5    2    7 2  
     6    3    4 am 
     7    4    5 1  
     8    4    8 2  
     9    5    6 1  
    10    9   10 1  
    11    9   14 1  
    12   10   11 1  
    13   10   12 1  
    14   12   13 1  
    15   12   15 1  
    16   13   14 1  
    17   13   16 1  
    18   16   17 1  
    19   17   18 1  
    20   18   19 ar 
    21   18   20 ar 
    22   18   21 1  
    23   21   22 1  
    24   22   23 ar 
    25   22   24 ar 
    26   22   25 ar 
    27    3   26 1  
    28    5   27 1  
    29    5   28 1  
    30    6   29 1  
    31    6   30 1  
    32    9   31 1  
    33   10   32 1  
    34   11   33 1  
    35   12   34 1  
    36   13   35 1  
    37   15   36 1  
    38   16   37 1  
    39   16   38 1  
@<TRIPOS>SUBSTRUCTURE
     1 UDP         1

