1gx0_ligand
  -I-interpret- 

 41 42  0  0  0  0  0  0  0  0999 V2000
    2.6520   13.3320   43.2820 N   0  0  0  0  0
    2.7170   14.3280   42.2910 C   0  0  0  0  0
    2.3500   15.6320   42.6440 N   0  0  0  0  0
    1.9050   16.1090   43.9020 C   0  0  0  0  0
    1.8290   15.0530   44.9860 C   0  0  0  0  0
    2.2270   13.6530   44.5880 C   0  0  0  0  0
    3.0870   14.0710   41.1380 O   0  0  0  0  0
    1.6290   17.3030   44.0120 O   0  0  0  0  0
    3.0440   11.9280   42.9190 C   0  0  0  0  0
    4.5570   11.7180   42.6950 C   0  0  0  0  0
    4.8010   10.6840   41.7510 O   0  0  0  0  0
    5.0200   11.3790   44.1080 C   0  0  0  0  0
    3.8930   10.4330   44.5910 C   0  0  0  0  0
    2.6950   11.0210   43.9910 O   0  0  0  0  0
    6.2860   10.7180   43.9960 O   0  0  0  0  0
    3.6580   10.3850   46.1410 C   0  0  0  0  0
    4.0440   11.6410   46.6530 O   0  0  0  0  0
    5.3050   12.1130   47.4460 P   0  0  0  0  0
    6.4920   11.6030   46.7210 O   0  0  0  0  0
    5.1810   13.6010   47.6330 O   0  0  0  0  0
    5.1550   11.3180   48.8130 O   0  0  0  0  0
    6.2700   11.1520   49.9520 P   0  0  0  0  0
    7.2350    9.9860   49.4000 O   0  0  0  0  0
    5.4950   10.7300   51.1430 O   0  0  0  0  0
    7.1740   12.3300   50.0400 O   0  0  0  0  0
    2.4107   16.3278   41.9006 H   0  0  0  0  0
    0.7813   14.9974   45.2814 H   0  0  0  0  0
    2.5346   15.3603   45.7579 H   0  0  0  0  0
    3.1096   13.4576   45.1970 H   0  0  0  0  0
    1.3034   13.0852   44.7008 H   0  0  0  0  0
    2.5121   11.7368   41.9870 H   0  0  0  0  0
    5.0857   12.5704   42.2683 H   0  0  0  0  0
    5.7477   10.5769   41.6329 H   0  0  0  0  0
    5.1654   12.2163   44.7905 H   0  0  0  0  0
    4.1441    9.4093   44.3134 H   0  0  0  0  0
    6.6056   10.4906   44.8722 H   0  0  0  0  0
    4.2427    9.5856   46.5962 H   0  0  0  0  0
    2.6116   10.1802   46.3673 H   0  0  0  0  0
    4.3736   13.7957   48.1144 H   0  0  0  0  0
    7.7139   10.3055   48.6317 H   0  0  0  0  0
    7.5988   12.4701   49.1906 H   0  0  0  0  0
  1  2  1  0  0  0
  1  6  1  0  0  0
  1  9  1  0  0  0
  2  3  1  0  0  0
  2  7  2  0  0  0
  3  4  1  0  0  0
  4  5  1  0  0  0
  4  8  2  0  0  0
  5  6  1  0  0  0
  9 10  1  0  0  0
  9 14  1  0  0  0
 10 11  1  0  0  0
 10 12  1  0  0  0
 12 13  1  0  0  0
 12 15  1  0  0  0
 13 14  1  0  0  0
 13 16  1  0  0  0
 16 17  1  0  0  0
 17 18  1  0  0  0
 18 19  2  0  0  0
 18 20  1  0  0  0
 18 21  1  0  0  0
 21 22  1  0  0  0
 22 23  1  0  0  0
 22 24  2  0  0  0
 22 25  1  0  0  0
  3 26  1  0  0  0
  5 27  1  0  0  0
  5 28  1  0  0  0
  6 29  1  0  0  0
  6 30  1  0  0  0
  9 31  1  0  0  0
 10 32  1  0  0  0
 11 33  1  0  0  0
 12 34  1  0  0  0
 13 35  1  0  0  0
 15 36  1  0  0  0
 16 37  1  0  0  0
 16 38  1  0  0  0
 20 39  1  0  0  0
 23 40  1  0  0  0
 25 41  1  0  0  0
M  END
$$$$
