1hvh_ligand
  -I-interpret- 

 84 88  0  0  0  0  0  0  0  0999 V2000
   -7.7330   14.4990   28.2180 N   0  0  0  0  0
  -11.2400   18.8550   29.0110 O   0  0  0  0  0
   -9.3790   19.5570   27.1380 O   0  0  0  0  0
   -8.8930   15.9700   26.9000 N   0  0  0  0  0
   -9.5020   15.5750   29.1170 N   0  0  0  0  0
   -8.6900   15.3420   28.0700 C   0  0  0  0  0
   -9.4320   14.7210   30.3120 C   0  0  0  0  0
  -10.5910   16.5490   29.0450 C   0  0  0  0  0
  -10.1740   17.9870   28.7120 C   0  0  0  0  0
   -9.7940   18.2200   27.2600 C   0  0  0  0  0
   -8.6070   17.3900   26.8210 C   0  0  0  0  0
   -9.3460   15.2930   25.6750 C   0  0  0  0  0
   -9.7070   15.4360   31.6190 C   0  0  0  0  0
   -8.8250   16.4080   32.0800 C   0  0  0  0  0
   -8.9710   16.9290   33.3620 C   0  0  0  0  0
  -10.0620   16.4300   34.2300 C   0  0  0  0  0
  -10.9210   15.4600   33.7280 C   0  0  0  0  0
  -10.7260   14.9660   32.4490 C   0  0  0  0  0
  -11.6470   15.9100   28.1290 C   0  0  0  0  0
  -12.2980   14.7000   28.7690 C   0  0  0  0  0
  -12.0530   13.3850   28.3830 C   0  0  0  0  0
  -12.6890   12.2550   28.8830 C   0  0  0  0  0
  -13.6660   12.4320   29.8470 C   0  0  0  0  0
  -13.9490   13.7290   30.2650 C   0  0  0  0  0
  -13.2860   14.8480   29.7470 C   0  0  0  0  0
   -7.3650   17.6340   27.6830 C   0  0  0  0  0
   -6.1910   18.1030   26.8580 C   0  0  0  0  0
   -6.3830   19.0850   25.8940 C   0  0  0  0  0
   -5.4500   19.2490   24.8740 C   0  0  0  0  0
   -4.3210   18.4380   24.8280 C   0  0  0  0  0
   -4.1240   17.4530   25.7890 C   0  0  0  0  0
   -5.0590   17.2890   26.8070 C   0  0  0  0  0
   -8.7730   15.8140   24.3550 C   0  0  0  0  0
   -7.5240   16.1300   24.1720 C   0  0  0  0  0
   -6.9910   16.6000   22.9740 C   0  0  0  0  0
   -7.8840   16.7530   21.8110 C   0  0  0  0  0
   -9.2130   16.4150   22.0240 C   0  0  0  0  0
   -9.6460   15.9480   23.2680 C   0  0  0  0  0
   -7.1450   13.9590   27.2000 C   0  0  0  0  0
   -6.6260   13.4560   26.2810 N   0  0  0  0  0
   -7.3980   17.2570   20.4840 C   0  0  0  0  0
  -10.2490   16.9680   35.6200 C   0  0  0  0  0
   -5.9890   17.1720   20.3320 O   0  0  0  0  0
  -11.2680   16.2950   36.3510 O   0  0  0  0  0
   -7.4295   14.2494   29.1593 H   0  0  0  0  0
  -10.9843   19.7570   28.8044 H   0  0  0  0  0
   -9.1321   19.7324   26.2270 H   0  0  0  0  0
   -8.3414   15.9369   27.2258 H   0  0  0  0  0
   -8.4131   14.3379   30.3686 H   0  0  0  0  0
  -10.2011   13.9567   30.2009 H   0  0  0  0  0
  -11.0162   16.7350   30.0313 H   0  0  0  0  0
   -9.2846   18.1777   29.3126 H   0  0  0  0  0
  -10.6617   17.9589   26.6542 H   0  0  0  0  0
   -8.4140   17.6971   25.7931 H   0  0  0  0  0
  -10.4226   15.4547   25.6214 H   0  0  0  0  0
   -9.0131   14.2586   25.7611 H   0  0  0  0  0
   -8.0192   16.7616   31.4367 H   0  0  0  0  0
   -8.2883   17.6977   33.7241 H   0  0  0  0  0
  -11.7447   15.0895   34.3382 H   0  0  0  0  0
  -11.3898   14.1848   32.0785 H   0  0  0  0  0
  -11.1523   15.5860   27.2134 H   0  0  0  0  0
  -12.4225   16.6510   27.9348 H   0  0  0  0  0
  -11.2924   13.2272   27.6183 H   0  0  0  0  0
  -12.4262   11.2590   28.5265 H   0  0  0  0  0
  -14.1991   11.5792   30.2673 H   0  0  0  0  0
  -14.7161   13.8793   31.0247 H   0  0  0  0  0
  -13.5424   15.8435   30.1094 H   0  0  0  0  0
   -7.0919   16.6943   28.1630 H   0  0  0  0  0
   -7.6017   18.4088   28.4122 H   0  0  0  0  0
   -7.2633   19.7263   25.9364 H   0  0  0  0  0
   -5.6042   20.0127   24.1117 H   0  0  0  0  0
   -3.5868   18.5755   24.0342 H   0  0  0  0  0
   -3.2427   16.8130   25.7456 H   0  0  0  0  0
   -4.9064   16.5223   27.5666 H   0  0  0  0  0
   -6.8455   16.0188   25.0178 H   0  0  0  0  0
   -5.9328   16.8501   22.8978 H   0  0  0  0  0
   -9.9298   16.5152   21.2090 H   0  0  0  0  0
  -10.6947   15.6800   23.3962 H   0  0  0  0  0
   -7.6742   18.3088   20.4102 H   0  0  0  0  0
   -7.8505   16.6366   19.7105 H   0  0  0  0  0
  -10.5425   18.0140   35.5320 H   0  0  0  0  0
   -9.3108   16.8278   36.1568 H   0  0  0  0  0
   -5.7407   17.5075   19.4675 H   0  0  0  0  0
  -11.3402   16.6813   37.2269 H   0  0  0  0  0
  1 39  1  0  0  0
  1  6  1  0  0  0
  6  4  1  0  0  0
  6  5  1  0  0  0
  5  7  1  0  0  0
  5  8  1  0  0  0
  8 19  1  0  0  0
  8  9  1  0  0  0
  9  2  1  0  0  0
  9 10  1  0  0  0
 10  3  1  0  0  0
 10 11  1  0  0  0
 11  4  1  0  0  0
 11 26  1  0  0  0
 26 27  1  0  0  0
 27 32  4  0  0  0
 27 28  4  0  0  0
 28 29  4  0  0  0
 29 30  4  0  0  0
 30 31  4  0  0  0
 31 32  4  0  0  0
  4 12  1  0  0  0
 12 33  1  0  0  0
 33 38  4  0  0  0
 33 34  4  0  0  0
 34 35  4  0  0  0
 35 36  4  0  0  0
 36 41  1  0  0  0
 36 37  4  0  0  0
 37 38  4  0  0  0
 41 43  1  0  0  0
 19 20  1  0  0  0
 20 25  4  0  0  0
 20 21  4  0  0  0
 21 22  4  0  0  0
 22 23  4  0  0  0
 23 24  4  0  0  0
 24 25  4  0  0  0
  7 13  1  0  0  0
 13 18  4  0  0  0
 13 14  4  0  0  0
 14 15  4  0  0  0
 15 16  4  0  0  0
 16 42  1  0  0  0
 16 17  4  0  0  0
 17 18  4  0  0  0
 42 44  1  0  0  0
 39 40  3  0  0  0
  1 45  1  0  0  0
  2 46  1  0  0  0
  3 47  1  0  0  0
  6 48  1  0  0  0
  7 49  1  0  0  0
  7 50  1  0  0  0
  8 51  1  0  0  0
  9 52  1  0  0  0
 10 53  1  0  0  0
 11 54  1  0  0  0
 12 55  1  0  0  0
 12 56  1  0  0  0
 14 57  1  0  0  0
 15 58  1  0  0  0
 17 59  1  0  0  0
 18 60  1  0  0  0
 19 61  1  0  0  0
 19 62  1  0  0  0
 21 63  1  0  0  0
 22 64  1  0  0  0
 23 65  1  0  0  0
 24 66  1  0  0  0
 25 67  1  0  0  0
 26 68  1  0  0  0
 26 69  1  0  0  0
 28 70  1  0  0  0
 29 71  1  0  0  0
 30 72  1  0  0  0
 31 73  1  0  0  0
 32 74  1  0  0  0
 34 75  1  0  0  0
 35 76  1  0  0  0
 37 77  1  0  0  0
 38 78  1  0  0  0
 41 79  1  0  0  0
 41 80  1  0  0  0
 42 81  1  0  0  0
 42 82  1  0  0  0
 43 83  1  0  0  0
 44 84  1  0  0  0
M  END
$$$$
