5u94_ligand
  -I-interpret- 

 59 62  0  0  0  0  0  0  0  0999 V2000
  -25.0450  -13.4420   -1.2630 C   0  0  0  0  0
  -26.2290  -15.1670    3.0000 N   0  0  0  0  0
  -25.9320  -13.3620    1.9170 N   0  0  0  0  0
  -25.3270  -14.6110   -0.3290 C   0  0  0  0  0
  -25.9770  -18.0330    2.0300 O   0  0  0  0  0
  -25.1860  -15.8270   -0.8540 N   0  0  0  0  0
  -25.6780  -14.4760    0.9740 C   0  0  0  0  0
  -26.2300  -10.6480    3.1980 N   0  0  0  0  0
  -26.5430  -11.5110    4.3210 C   0  0  0  0  0
  -26.8390  -11.1410    5.4690 N   0  0  0  0  0
  -27.0740  -12.2870    6.2580 O   0  0  0  0  0
  -26.8800  -13.4170    5.4420 N   0  0  0  0  0
  -26.5740  -13.0240    4.3020 C   0  0  0  0  0
  -26.2580  -13.8800    3.0830 C   0  0  0  0  0
  -26.5400  -16.0950    4.0840 C   0  0  0  0  0
  -25.2810  -16.7980    4.5810 C   0  0  0  0  0
  -24.8570  -12.5880   -2.0590 C   0  0  0  0  0
  -24.7180  -11.5010   -3.1150 C   0  0  0  0  0
  -25.9070  -10.5560   -2.9920 C   0  0  0  0  0
  -23.4090  -10.7390   -2.9430 C   0  0  0  0  0
  -24.7400  -12.0980   -4.3830 O   0  0  0  0  0
  -25.9090  -15.6390    1.7910 C   0  0  0  0  0
  -25.7620  -16.8900    1.2360 C   0  0  0  0  0
  -25.3850  -16.9490   -0.1270 C   0  0  0  0  0
  -25.8510  -19.3230    1.4630 C   0  0  0  0  0
  -27.0370  -20.1910    1.8610 C   0  0  0  0  0
  -26.7190  -20.8430    3.2010 C   0  0  0  0  0
  -26.0730  -22.1210    2.9820 N   0  3  0  0  0
  -27.0350  -23.0830    2.4880 C   0  0  0  0  0
  -27.7330  -22.5870    1.2200 C   0  0  0  0  0
  -27.2170  -21.2280    0.7490 C   0  0  0  0  0
  -26.2414   -9.6348    3.3147 H   0  0  0  0  0
  -25.9985  -11.0544    2.2915 H   0  0  0  0  0
  -27.2359  -16.8467    3.7115 H   0  0  0  0  0
  -26.9759  -15.5335    4.9103 H   0  0  0  0  0
  -24.8305  -17.3567    3.7606 H   0  0  0  0  0
  -24.5728  -16.0554    4.9486 H   0  0  0  0  0
  -25.5431  -17.4826    5.3877 H   0  0  0  0  0
  -26.8304  -11.1135   -3.1492 H   0  0  0  0  0
  -25.9145  -10.1112   -1.9969 H   0  0  0  0  0
  -25.8236   -9.7697   -3.7422 H   0  0  0  0  0
  -23.3870  -10.2750   -1.9569 H   0  0  0  0  0
  -22.5721  -11.4307   -3.0392 H   0  0  0  0  0
  -23.3352   -9.9683   -3.7103 H   0  0  0  0  0
  -24.6528  -11.4195   -5.0565 H   0  0  0  0  0
  -25.2521  -17.9214   -0.6012 H   0  0  0  0  0
  -24.9332  -19.7845    1.8272 H   0  0  0  0  0
  -25.8227  -19.2340    0.3770 H   0  0  0  0  0
  -27.9603  -19.6231    1.9759 H   0  0  0  0  0
  -27.6443  -20.9967    3.7563 H   0  0  0  0  0
  -26.0523  -20.1941    3.7690 H   0  0  0  0  0
  -25.6849  -22.4565    3.8636 H   0  0  0  0  0
  -25.3283  -22.0074    2.2943 H   0  0  0  0  0
  -27.7912  -23.2381    3.2575 H   0  0  0  0  0
  -26.5060  -24.0058    2.2498 H   0  0  0  0  0
  -28.7942  -22.4802    1.4446 H   0  0  0  0  0
  -27.5371  -23.3099    0.4280 H   0  0  0  0  0
  -26.2334  -21.3968    0.3106 H   0  0  0  0  0
  -27.9607  -20.8280    0.0597 H   0  0  0  0  0
  4  1  1  0  0  0
  1 17  3  0  0  0
  2 14  4  0  0  0
  2 15  1  0  0  0
 22  2  4  0  0  0
  7  3  4  0  0  0
  3 14  4  0  0  0
  4  6  4  0  0  0
  7  4  4  0  0  0
 23  5  1  0  0  0
  5 25  1  0  0  0
  6 24  4  0  0  0
 22  7  4  0  0  0
  9  8  1  0  0  0
  9 10  4  0  0  0
 13  9  4  0  0  0
 11 10  4  0  0  0
 12 11  4  0  0  0
 13 12  4  0  0  0
 14 13  1  0  0  0
 15 16  1  0  0  0
 17 18  1  0  0  0
 18 19  1  0  0  0
 18 20  1  0  0  0
 18 21  1  0  0  0
 22 23  4  0  0  0
 23 24  4  0  0  0
 25 26  1  0  0  0
 26 27  1  0  0  0
 26 31  1  0  0  0
 27 28  1  0  0  0
 28 29  1  0  0  0
 29 30  1  0  0  0
 30 31  1  0  0  0
  8 32  1  0  0  0
  8 33  1  0  0  0
 15 34  1  0  0  0
 15 35  1  0  0  0
 16 36  1  0  0  0
 16 37  1  0  0  0
 16 38  1  0  0  0
 19 39  1  0  0  0
 19 40  1  0  0  0
 19 41  1  0  0  0
 20 42  1  0  0  0
 20 43  1  0  0  0
 20 44  1  0  0  0
 21 45  1  0  0  0
 24 46  1  0  0  0
 25 47  1  0  0  0
 25 48  1  0  0  0
 26 49  1  0  0  0
 27 50  1  0  0  0
 27 51  1  0  0  0
 28 52  1  0  0  0
 28 53  1  0  0  0
 29 54  1  0  0  0
 29 55  1  0  0  0
 30 56  1  0  0  0
 30 57  1  0  0  0
 31 58  1  0  0  0
 31 59  1  0  0  0
M  END
$$$$
