4z2i_ligand
  -I-interpret- 

106107  0  0  0  0  0  0  0  0999 V2000
  -20.4380   -7.1320  -31.1320 C   0  0  0  0  0
  -20.9510   -6.0890  -30.2560 N   0  0  0  0  0
  -20.4070   -4.8990  -30.1100 C   0  0  0  0  0
  -19.4490   -4.5450  -30.8050 O   0  0  0  0  0
  -21.0180   -4.1200  -29.1540 N   0  0  0  0  0
  -20.7510   -2.8400  -28.9920 C   0  0  0  0  0
  -21.2100   -2.2440  -27.9340 N   0  0  0  0  0
  -19.8620   -2.2450  -29.8220 N   0  0  0  0  0
  -19.5970   -0.7930  -29.7920 C   0  0  0  0  0
  -19.3120   -0.2600  -31.2160 C   0  0  0  0  0
  -19.2790    1.2740  -31.3120 C   0  0  0  0  0
  -20.5980    1.8270  -31.0570 N   0  0  0  0  0
  -21.4820    1.9900  -32.0030 C   0  0  0  0  0
  -21.2530    1.7360  -33.1820 O   0  0  0  0  0
  -22.8220    2.2430  -31.5500 O   0  0  0  0  0
  -23.6890    2.5740  -32.6240 C   0  0  0  0  0
  -24.9130    1.6960  -32.4970 C   0  0  0  0  0
  -25.4930    1.6810  -31.0840 C   0  0  0  0  0
  -23.9940    4.0920  -32.5200 C   0  0  0  0  0
  -22.7730    4.9450  -32.7440 C   0  0  0  0  0
  -24.9650    4.5150  -33.5740 C   0  0  0  0  0
  -24.7360    4.4750  -34.7840 O   0  0  0  0  0
  -26.2890    4.7700  -33.1280 O   0  0  0  0  0
  -27.0550    5.1850  -34.2530 C   0  0  0  0  0
  -27.0190    6.7400  -34.3700 C   0  0  0  0  0
  -25.7160    7.2880  -34.9960 C   0  0  0  0  0
  -28.3500    4.4430  -33.9440 C   0  0  0  0  0
  -29.4430    5.1640  -34.4450 O   0  0  0  0  0
  -28.4680    4.2750  -32.4470 C   0  0  0  0  0
  -28.2880    3.1050  -34.6900 C   0  0  0  0  0
  -29.2270    1.9900  -34.3100 C   0  0  0  0  0
  -30.6980    2.3580  -34.4420 C   0  0  0  0  0
  -28.4600    3.3890  -36.0720 O   0  0  0  0  0
  -28.0340    2.3280  -36.8990 C   0  0  0  0  0
  -26.7460    2.7680  -37.5730 C   0  0  0  0  0
  -29.1240    2.1060  -37.9690 C   0  0  0  0  0
  -27.7910    1.1440  -36.0750 O   0  0  0  0  0
  -28.8710    0.7980  -35.2180 C   0  0  0  0  0
  -28.3270   -0.4310  -34.5070 C   0  0  0  0  0
  -29.4790   -1.1410  -33.8530 C   0  0  0  0  0
  -27.1510   -0.0250  -33.5690 C   0  0  0  0  0
  -25.7210   -0.1160  -34.1310 C   0  0  0  0  0
  -25.4850    0.7680  -35.2010 O   0  0  0  0  0
  -25.4230   -1.5280  -34.6400 C   0  0  0  0  0
  -24.6860    0.2700  -33.0550 C   0  0  0  0  0
  -24.7430   -0.6680  -31.9880 O   0  0  0  0  0
  -23.4230   -0.8250  -31.4260 C   0  0  0  0  0
  -23.0300   -2.2250  -31.5560 C   0  0  0  0  0
  -22.6450   -3.4230  -31.6750 C   0  0  0  0  0
  -20.4297   -6.7698  -32.1600 H   0  0  0  0  0
  -19.4239   -7.3928  -30.8291 H   0  0  0  0  0
  -21.0775   -8.0118  -31.0606 H   0  0  0  0  0
  -21.7920   -6.2947  -29.7167 H   0  0  0  0  0
  -21.7621   -2.7662  -27.2536 H   0  0  0  0  0
  -19.3560   -2.8221  -30.4938 H   0  0  0  0  0
  -18.7252   -0.6067  -29.1649 H   0  0  0  0  0
  -20.4740   -0.2828  -29.3936 H   0  0  0  0  0
  -20.1197   -0.6078  -31.8600 H   0  0  0  0  0
  -18.3268   -0.6243  -31.5073 H   0  0  0  0  0
  -18.9626    1.5598  -32.3151 H   0  0  0  0  0
  -18.5824    1.6609  -30.5682 H   0  0  0  0  0
  -20.8419    2.0976  -30.1043 H   0  0  0  0  0
  -23.2595    2.3957  -33.6098 H   0  0  0  0  0
  -25.6718    2.1568  -33.1294 H   0  0  0  0  0
  -24.7422    1.3060  -30.3884 H   0  0  0  0  0
  -25.7801    2.6934  -30.7997 H   0  0  0  0  0
  -26.3691    1.0330  -31.0591 H   0  0  0  0  0
  -24.3849    4.2329  -31.5123 H   0  0  0  0  0
  -22.0194    4.7024  -31.9948 H   0  0  0  0  0
  -22.3733    4.7508  -33.7393 H   0  0  0  0  0
  -23.0458    5.9969  -32.6595 H   0  0  0  0  0
  -26.7367    4.9438  -35.2672 H   0  0  0  0  0
  -27.0895    7.1439  -33.3600 H   0  0  0  0  0
  -27.8420    7.0364  -35.0203 H   0  0  0  0  0
  -24.8660    6.9890  -34.3826 H   0  0  0  0  0
  -25.5998    6.8842  -36.0018 H   0  0  0  0  0
  -25.7667    8.3758  -35.0434 H   0  0  0  0  0
  -30.2547    4.6912  -34.2469 H   0  0  0  0  0
  -27.6164    3.7030  -32.0786 H   0  0  0  0  0
  -28.4810    5.2562  -31.9725 H   0  0  0  0  0
  -29.3915    3.7450  -32.2138 H   0  0  0  0  0
  -27.3200    2.6950  -34.4020 H   0  0  0  0  0
  -29.0996    1.7534  -33.2536 H   0  0  0  0  0
  -30.9190    3.2051  -33.7926 H   0  0  0  0  0
  -30.9128    2.6259  -35.4765 H   0  0  0  0  0
  -31.3120    1.5056  -34.1511 H   0  0  0  0  0
  -26.9350    3.6630  -38.1657 H   0  0  0  0  0
  -25.9957    2.9857  -36.8129 H   0  0  0  0  0
  -26.3862    1.9699  -38.2224 H   0  0  0  0  0
  -30.0651    1.8540  -37.4803 H   0  0  0  0  0
  -29.2491    3.0178  -38.5530 H   0  0  0  0  0
  -28.8248    1.2899  -38.6267 H   0  0  0  0  0
  -29.8203    0.5741  -35.7045 H   0  0  0  0  0
  -27.8813   -1.1504  -35.1940 H   0  0  0  0  0
  -29.9564   -0.4727  -33.1364 H   0  0  0  0  0
  -30.2016   -1.4360  -34.6139 H   0  0  0  0  0
  -29.1115   -2.0275  -33.3360 H   0  0  0  0  0
  -27.1832   -0.7314  -32.7395 H   0  0  0  0  0
  -27.3088    1.0299  -33.3443 H   0  0  0  0  0
  -24.5808    0.6646  -35.5065 H   0  0  0  0  0
  -25.5231   -2.2376  -33.8187 H   0  0  0  0  0
  -26.1279   -1.7840  -35.4310 H   0  0  0  0  0
  -24.4064   -1.5647  -35.0316 H   0  0  0  0  0
  -23.7040    0.2572  -33.5279 H   0  0  0  0  0
  -23.4282   -0.5352  -30.3752 H   0  0  0  0  0
  -22.7142   -0.1881  -31.9552 H   0  0  0  0  0
  1  2  1  0  0  0
  2  3  1  0  0  0
  3  4  2  0  0  0
  3  5  1  0  0  0
  5  6  4  0  0  0
  6  7  2  0  0  0
  6  8  1  0  0  0
  8  9  1  0  0  0
  9 10  1  0  0  0
 10 11  1  0  0  0
 11 12  1  0  0  0
 12 13  1  0  0  0
 13 14  2  0  0  0
 13 15  1  0  0  0
 15 16  1  0  0  0
 16 17  1  0  0  0
 16 19  1  0  0  0
 17 18  1  0  0  0
 17 45  1  0  0  0
 19 20  1  0  0  0
 19 21  1  0  0  0
 21 22  2  0  0  0
 21 23  1  0  0  0
 23 24  1  0  0  0
 24 25  1  0  0  0
 24 27  1  0  0  0
 25 26  1  0  0  0
 27 28  1  0  0  0
 27 29  1  0  0  0
 27 30  1  0  0  0
 30 31  1  0  0  0
 30 33  1  0  0  0
 31 32  1  0  0  0
 31 38  1  0  0  0
 33 34  1  0  0  0
 34 35  1  0  0  0
 34 36  1  0  0  0
 34 37  1  0  0  0
 37 38  1  0  0  0
 38 39  1  0  0  0
 39 40  1  0  0  0
 39 41  1  0  0  0
 41 42  1  0  0  0
 42 43  1  0  0  0
 42 44  1  0  0  0
 42 45  1  0  0  0
 45 46  1  0  0  0
 46 47  1  0  0  0
 47 48  1  0  0  0
 48 49  3  0  0  0
  1 50  1  0  0  0
  1 51  1  0  0  0
  1 52  1  0  0  0
  2 53  1  0  0  0
  7 54  1  0  0  0
  8 55  1  0  0  0
  9 56  1  0  0  0
  9 57  1  0  0  0
 10 58  1  0  0  0
 10 59  1  0  0  0
 11 60  1  0  0  0
 11 61  1  0  0  0
 12 62  1  0  0  0
 16 63  1  0  0  0
 17 64  1  0  0  0
 18 65  1  0  0  0
 18 66  1  0  0  0
 18 67  1  0  0  0
 19 68  1  0  0  0
 20 69  1  0  0  0
 20 70  1  0  0  0
 20 71  1  0  0  0
 24 72  1  0  0  0
 25 73  1  0  0  0
 25 74  1  0  0  0
 26 75  1  0  0  0
 26 76  1  0  0  0
 26 77  1  0  0  0
 28 78  1  0  0  0
 29 79  1  0  0  0
 29 80  1  0  0  0
 29 81  1  0  0  0
 30 82  1  0  0  0
 31 83  1  0  0  0
 32 84  1  0  0  0
 32 85  1  0  0  0
 32 86  1  0  0  0
 35 87  1  0  0  0
 35 88  1  0  0  0
 35 89  1  0  0  0
 36 90  1  0  0  0
 36 91  1  0  0  0
 36 92  1  0  0  0
 38 93  1  0  0  0
 39 94  1  0  0  0
 40 95  1  0  0  0
 40 96  1  0  0  0
 40 97  1  0  0  0
 41 98  1  0  0  0
 41 99  1  0  0  0
 43100  1  0  0  0
 44101  1  0  0  0
 44102  1  0  0  0
 44103  1  0  0  0
 45104  1  0  0  0
 47105  1  0  0  0
 47106  1  0  0  0
M  END
$$$$
