3r92_ligand
  -I-interpret- 

 67 71  0  0  0  0  0  0  0  0999 V2000
    7.3190    9.1320   23.3440 C   0  0  0  0  0
    6.1760   10.0230   23.6970 C   0  0  0  0  0
    4.8170    9.6950   23.7220 C   0  0  0  0  0
    4.1100   10.8560   24.0900 N   0  0  0  0  0
    5.0200   11.8870   24.2680 C   0  0  0  0  0
    6.2870   11.4030   24.0240 C   0  0  0  0  0
    7.4510   12.2770   24.1150 C   0  0  0  0  0
    8.5930   11.8310   24.0480 O   0  0  0  0  0
    7.2110   13.7300   24.5120 C   0  0  0  0  0
    5.9250   13.9650   25.3450 C   0  0  0  0  0
    4.7060   13.3000   24.6550 C   0  0  0  0  0
    6.1160   13.3460   26.7420 C   0  0  0  0  0
    5.6620   15.4740   25.5360 C   0  0  0  0  0
    2.7050   10.9500   24.2730 C   0  0  0  0  0
    1.8960   11.8330   23.5670 C   0  0  0  0  0
    0.5380   11.9290   23.8990 C   0  0  0  0  0
   -0.0100   11.1390   24.9310 C   0  0  0  0  0
    0.7920   10.2270   25.6330 C   0  0  0  0  0
    2.1290   10.1340   25.2370 C   0  0  0  0  0
    0.3100    9.4080   26.6500 N   0  0  0  0  0
    1.1880    8.7780   27.6300 C   0  0  0  0  0
    1.4110    7.2970   27.2820 C   0  0  0  0  0
    0.0980    6.5280   27.0930 C   0  0  0  0  0
    0.3930    5.4570   26.0540 C   0  0  0  0  0
    1.8260    5.6790   25.6020 C   0  0  0  0  0
    2.1120    7.1360   25.9250 N   0  3  0  0  0
    3.6100    7.4680   25.9100 C   0  0  0  0  0
    4.3540    7.2480   24.5760 C   0  0  0  0  0
    4.1500    8.3430   23.5040 C   0  0  0  0  0
   -1.4730   11.1950   25.1970 C   0  0  0  0  0
   -1.9290   10.7130   26.2300 O   0  0  0  0  0
   -2.2420   11.8020   24.2310 N   0  0  0  0  0
    7.3432    8.2852   24.0299 H   0  0  0  0  0
    7.1947    8.7708   22.3231 H   0  0  0  0  0
    8.2514    9.6911   23.4219 H   0  0  0  0  0
    7.1014   14.2989   23.5887 H   0  0  0  0  0
    8.0534   14.0342   25.1332 H   0  0  0  0  0
    3.8670   13.2959   25.3508 H   0  0  0  0  0
    4.4597   13.8645   23.7557 H   0  0  0  0  0
    6.3008   12.2764   26.6419 H   0  0  0  0  0
    6.9661   13.8184   27.2342 H   0  0  0  0  0
    5.2158   13.5066   27.3353 H   0  0  0  0  0
    6.5060   15.9254   26.0575 H   0  0  0  0  0
    5.5407   15.9466   24.5613 H   0  0  0  0  0
    4.7543   15.6118   26.1236 H   0  0  0  0  0
    2.3127   12.4429   22.7654 H   0  0  0  0  0
   -0.1022   12.6222   23.3534 H   0  0  0  0  0
    2.7547    9.3782   25.7118 H   0  0  0  0  0
   -0.6945    9.2421   26.7124 H   0  0  0  0  0
    0.7243    8.8440   28.6142 H   0  0  0  0  0
    2.1496    9.2912   27.6247 H   0  0  0  0  0
    1.9953    6.9144   28.1189 H   0  0  0  0  0
   -0.7053    7.1881   26.7659 H   0  0  0  0  0
   -0.2434    6.0887   28.0303 H   0  0  0  0  0
   -0.2971    5.5278   25.2133 H   0  0  0  0  0
    0.2662    4.4594   26.4745 H   0  0  0  0  0
    1.9552    5.4651   24.5410 H   0  0  0  0  0
    2.5200    5.0071   26.1069 H   0  0  0  0  0
    1.7657    7.8020   25.2344 H   0  0  0  0  0
    4.0748    6.7928   26.6284 H   0  0  0  0  0
    3.6838    8.5344   26.1231 H   0  0  0  0  0
    3.9596    6.3246   24.1520 H   0  0  0  0  0
    5.4178    7.2440   24.8136 H   0  0  0  0  0
    4.5996    7.9434   22.5950 H   0  0  0  0  0
    3.0793    8.5473   23.5012 H   0  0  0  0  0
   -3.2525   11.8706   24.3521 H   0  0  0  0  0
   -1.8016   12.1834   23.3937 H   0  0  0  0  0
  1  2  1  0  0  0
  2  3  4  0  0  0
  2  6  4  0  0  0
  3  4  4  0  0  0
  3 29  1  0  0  0
  4  5  4  0  0  0
  4 14  1  0  0  0
  5  6  4  0  0  0
  5 11  1  0  0  0
  6  7  1  0  0  0
  7  8  2  0  0  0
  7  9  1  0  0  0
  9 10  1  0  0  0
 10 11  1  0  0  0
 10 12  1  0  0  0
 10 13  1  0  0  0
 14 15  4  0  0  0
 14 19  4  0  0  0
 15 16  4  0  0  0
 16 17  4  0  0  0
 17 18  4  0  0  0
 17 30  1  0  0  0
 18 19  4  0  0  0
 18 20  1  0  0  0
 20 21  1  0  0  0
 21 22  1  0  0  0
 22 23  1  0  0  0
 22 26  1  0  0  0
 23 24  1  0  0  0
 24 25  1  0  0  0
 25 26  1  0  0  0
 26 27  1  0  0  0
 27 28  1  0  0  0
 28 29  1  0  0  0
 30 31  2  0  0  0
 30 32  1  0  0  0
  1 33  1  0  0  0
  1 34  1  0  0  0
  1 35  1  0  0  0
  9 36  1  0  0  0
  9 37  1  0  0  0
 11 38  1  0  0  0
 11 39  1  0  0  0
 12 40  1  0  0  0
 12 41  1  0  0  0
 12 42  1  0  0  0
 13 43  1  0  0  0
 13 44  1  0  0  0
 13 45  1  0  0  0
 15 46  1  0  0  0
 16 47  1  0  0  0
 19 48  1  0  0  0
 20 49  1  0  0  0
 21 50  1  0  0  0
 21 51  1  0  0  0
 22 52  1  0  0  0
 23 53  1  0  0  0
 23 54  1  0  0  0
 24 55  1  0  0  0
 24 56  1  0  0  0
 25 57  1  0  0  0
 25 58  1  0  0  0
 26 59  1  0  0  0
 27 60  1  0  0  0
 27 61  1  0  0  0
 28 62  1  0  0  0
 28 63  1  0  0  0
 29 64  1  0  0  0
 29 65  1  0  0  0
 32 66  1  0  0  0
 32 67  1  0  0  0
M  END
$$$$
