4yv8_ligand
  -I-interpret- 

 76 75  0  0  0  0  0  0  0  0999 V2000
  -21.6750   18.4700   -8.1360 C   0  0  0  0  0
  -22.6320   18.5750   -9.2810 C   0  0  0  0  0
  -22.0440   19.3280  -10.4580 C   0  0  0  0  0
  -22.7340   20.6930  -10.5670 C   0  0  0  0  0
  -23.8420   20.4390  -11.4420 N   0  0  0  0  0
  -23.5710   20.4780  -12.8450 C   0  0  0  0  0
  -24.6380   20.1840  -13.7250 N   0  0  0  0  0
  -22.3600   20.7400  -13.2680 N   0  0  0  0  0
  -20.2530   17.7930   -6.1150 C   0  0  0  0  0
  -19.1830   17.9360   -6.6360 O   0  0  0  0  0
  -21.4640   17.8910   -6.8330 N   0  0  0  0  0
  -20.1210   17.1420   -4.8080 N   0  0  0  0  0
  -19.1240   16.2240   -4.2710 C   0  0  0  0  0
  -19.4930   14.7740   -4.5670 C   0  0  0  0  0
  -20.2040   14.1330   -3.7920 O   0  0  0  0  0
  -18.9640   16.4290   -2.7630 C   0  0  0  0  0
  -20.2240   16.4430   -2.1140 O   0  0  0  0  0
  -19.0050   14.2620   -5.6920 N   0  0  0  0  0
  -19.2820   12.8870   -6.0920 C   0  0  0  0  0
  -18.1930   11.9400   -5.6020 C   0  0  0  0  0
  -17.0690   11.9580   -6.1020 O   0  0  0  0  0
  -19.4100   12.7600   -7.6220 C   0  0  0  0  0
  -19.8850   11.3650   -8.0000 C   0  0  0  0  0
  -20.3570   13.8180   -8.1640 C   0  0  0  0  0
  -18.5160   11.0750   -4.4880 N   0  0  0  0  0
  -17.5920   10.1420   -3.9410 C   0  0  0  0  0
  -18.0810    8.7480   -4.1670 C   0  0  0  0  0
  -17.7730    7.7760   -3.5040 O   0  0  0  0  0
  -17.3860   10.4390   -2.4550 C   0  0  0  0  0
  -16.5020   11.6580   -2.2990 C   0  0  0  0  0
  -16.3700   12.0020   -0.8340 C   0  0  0  0  0
  -15.4740   11.0330   -0.1810 N   0  0  0  0  0
  -14.7560   11.3650    0.8160 C   0  0  0  0  0
  -13.9580   10.4620    1.3780 N   0  0  0  0  0
  -14.7900   12.6040    1.3040 N   0  0  0  0  0
  -18.8510    8.4040   -5.0430 O   0  0  0  0  0
  -21.8419   19.4834   -7.7709 H   0  0  0  0  0
  -20.9703   17.8180   -8.6521 H   0  0  0  0  0
  -23.5111   19.1199   -8.9370 H   0  0  0  0  0
  -22.8730   17.5651   -9.6130 H   0  0  0  0  0
  -22.2016   18.7605  -11.3752 H   0  0  0  0  0
  -20.9731   19.4666  -10.3096 H   0  0  0  0  0
  -22.0692   21.4679  -10.9487 H   0  0  0  0  0
  -23.0473   21.0814   -9.5979 H   0  0  0  0  0
  -24.7754   20.2407  -11.0815 H   0  0  0  0  0
  -24.4792   20.1704  -14.7325 H   0  0  0  0  0
  -25.5665   19.9856  -13.3523 H   0  0  0  0  0
  -22.1572   20.7371  -14.2676 H   0  0  0  0  0
  -22.2896   17.5056   -6.3745 H   0  0  0  0  0
  -20.8662   17.3750   -4.1516 H   0  0  0  0  0
  -18.1742   16.4402   -4.7602 H   0  0  0  0  0
  -18.4722   17.3865   -2.5912 H   0  0  0  0  0
  -18.3728   15.6068   -2.3598 H   0  0  0  0  0
  -20.0958   16.5727   -1.1715 H   0  0  0  0  0
  -18.4216   14.8457   -6.2914 H   0  0  0  0  0
  -20.2312   12.6109   -5.6328 H   0  0  0  0  0
  -18.4287   12.9194   -8.0688 H   0  0  0  0  0
  -19.1666   10.6282   -7.6407 H   0  0  0  0  0
  -20.8576   11.1780   -7.5449 H   0  0  0  0  0
  -19.9699   11.2929   -9.0843 H   0  0  0  0  0
  -21.3408   13.6886   -7.7129 H   0  0  0  0  0
  -19.9715   14.8080   -7.9203 H   0  0  0  0  0
  -20.4355   13.7135   -9.2461 H   0  0  0  0  0
  -19.4474   11.1370   -4.0768 H   0  0  0  0  0
  -16.6277   10.2367   -4.4402 H   0  0  0  0  0
  -17.1648    8.0426   -2.8107 H   0  0  0  0  0
  -16.9102    9.5828   -1.9769 H   0  0  0  0  0
  -18.3515   10.6292   -1.9863 H   0  0  0  0  0
  -16.9469   12.4992   -2.8305 H   0  0  0  0  0
  -15.5158   11.4463   -2.7122 H   0  0  0  0  0
  -17.3518   11.9643   -0.3621 H   0  0  0  0  0
  -15.9562   13.0053   -0.7322 H   0  0  0  0  0
  -15.4279   10.0773   -0.5345 H   0  0  0  0  0
  -13.9245    9.5114    1.0097 H   0  0  0  0  0
  -14.2068   12.8537    2.1027 H   0  0  0  0  0
  -15.3993   13.3030    0.8790 H   0  0  0  0  0
  1  2  1  0  0  0
 11  1  1  0  0  0
  2  3  1  0  0  0
  3  4  1  0  0  0
  4  5  1  0  0  0
  5  6  1  0  0  0
  6  7  1  0  0  0
  6  8  2  0  0  0
  9 10  2  0  0  0
  9 11  1  0  0  0
  9 12  1  0  0  0
 12 13  1  0  0  0
 13 14  1  0  0  0
 13 16  1  0  0  0
 14 15  2  0  0  0
 14 18  1  0  0  0
 16 17  1  0  0  0
 18 19  1  0  0  0
 19 20  1  0  0  0
 19 22  1  0  0  0
 20 21  2  0  0  0
 20 25  1  0  0  0
 22 23  1  0  0  0
 22 24  1  0  0  0
 25 26  1  0  0  0
 26 27  1  0  0  0
 26 29  1  0  0  0
 27 28  1  0  0  0
 27 36  2  0  0  0
 29 30  1  0  0  0
 30 31  1  0  0  0
 31 32  1  0  0  0
 32 33  1  0  0  0
 33 34  2  0  0  0
 33 35  1  0  0  0
  1 37  1  0  0  0
  1 38  1  0  0  0
  2 39  1  0  0  0
  2 40  1  0  0  0
  3 41  1  0  0  0
  3 42  1  0  0  0
  4 43  1  0  0  0
  4 44  1  0  0  0
  5 45  1  0  0  0
  7 46  1  0  0  0
  7 47  1  0  0  0
  8 48  1  0  0  0
 11 49  1  0  0  0
 12 50  1  0  0  0
 13 51  1  0  0  0
 16 52  1  0  0  0
 16 53  1  0  0  0
 17 54  1  0  0  0
 18 55  1  0  0  0
 19 56  1  0  0  0
 22 57  1  0  0  0
 23 58  1  0  0  0
 23 59  1  0  0  0
 23 60  1  0  0  0
 24 61  1  0  0  0
 24 62  1  0  0  0
 24 63  1  0  0  0
 25 64  1  0  0  0
 26 65  1  0  0  0
 28 66  1  0  0  0
 29 67  1  0  0  0
 29 68  1  0  0  0
 30 69  1  0  0  0
 30 70  1  0  0  0
 31 71  1  0  0  0
 31 72  1  0  0  0
 32 73  1  0  0  0
 34 74  1  0  0  0
 35 75  1  0  0  0
 35 76  1  0  0  0
M  END
$$$$
