2mip_ligand
  -I-interpret- 

117118  0  0  0  0  0  0  0  0999 V2000
   20.4680   38.2330   -9.0280 N   0  3  0  0  0
   19.1850   38.4960   -8.3590 C   0  0  0  0  0
   19.3280   39.3440   -7.1200 C   0  0  0  0  0
   20.0950   39.0390   -6.1930 O   0  0  0  0  0
   18.3560   37.2360   -8.0020 C   0  0  0  0  0
   17.6220   36.7000   -9.1730 C   0  0  0  0  0
   16.6580   37.4550   -9.8440 C   0  0  0  0  0
   17.9400   35.4420   -9.6740 C   0  0  0  0  0
   16.0240   36.9610  -10.9870 C   0  0  0  0  0
   17.2620   34.8980  -10.7710 C   0  0  0  0  0
   16.3330   35.6840  -11.4570 C   0  0  0  0  0
   18.5670   40.4300   -7.1130 N   0  0  0  0  0
   18.5950   41.3610   -6.0150 C   0  0  0  0  0
   17.2140   41.9510   -5.7870 C   0  0  0  0  0
   16.6470   42.6620   -6.6280 O   0  0  0  0  0
   19.7400   42.4110   -6.1340 C   0  0  0  0  0
   20.9510   41.9820   -6.9990 C   0  0  0  0  0
   19.1760   43.7720   -6.6410 C   0  0  0  0  0
   16.6720   41.6290   -4.6490 N   0  0  0  0  0
   15.3360   42.1300   -4.3150 C   0  0  0  0  0
   15.2980   43.1470   -3.1870 C   0  0  0  0  0
   14.3290   40.9740   -4.1110 C   0  0  0  0  0
   14.4500   39.9570   -5.2330 C   0  0  0  0  0
   13.9420   40.2340   -6.5050 C   0  0  0  0  0
   15.0570   38.7200   -5.0170 C   0  0  0  0  0
   14.0390   39.3190   -7.5560 C   0  0  0  0  0
   15.1650   37.7870   -6.0510 C   0  0  0  0  0
   14.6580   38.0880   -7.3180 C   0  0  0  0  0
   15.7810   44.4310   -3.8490 N   0  3  0  0  0
   14.9490   45.5650   -3.5350 C   0  0  0  0  0
   13.4950   45.3940   -3.9830 C   0  0  0  0  0
   13.1630   44.7690   -4.9920 O   0  0  0  0  0
   15.5430   46.9070   -4.0240 C   0  0  0  0  0
   14.6120   48.1030   -3.8360 C   0  0  0  0  0
   14.6570   48.6320   -2.3970 C   0  0  0  0  0
   14.9370   49.2340   -4.8190 C   0  0  0  0  0
   12.6310   46.0310   -3.2390 N   0  0  0  0  0
   11.2460   45.9500   -3.5270 C   0  0  0  0  0
   10.5330   46.9540   -2.6390 C   0  0  0  0  0
   10.1140   46.6890   -1.4820 O   0  0  0  0  0
   10.8960   44.4670   -3.3510 C   0  0  0  0  0
    9.5480   44.0930   -3.9360 C   0  0  0  0  0
    8.5370   44.1130   -2.8450 C   0  0  0  0  0
    8.1600   45.3370   -2.4970 O   0  0  0  0  0
    8.2560   43.0940   -2.2560 O   0  0  0  0  0
   10.4960   48.1750   -3.1880 N   0  0  0  0  0
   10.0050   49.3710   -2.5930 C   0  0  0  0  0
    8.4770   49.4480   -2.5970 C   0  0  0  0  0
    7.8610   49.9220   -3.6090 O   0  0  0  0  0
   10.7270   50.5670   -3.1810 C   0  0  0  0  0
   10.2860   51.8840   -2.5800 C   0  0  0  0  0
   10.6050   50.5950   -4.7130 C   0  0  0  0  0
    9.9380   52.9200   -3.6440 C   0  0  0  0  0
    7.8140   48.9570   -1.5530 N   0  0  0  0  0
   20.3073   37.6577   -9.8548 H   0  0  0  0  0
   20.8931   39.1177   -9.3053 H   0  0  0  0  0
   21.0903   37.7417   -8.3863 H   0  0  0  0  0
   18.6326   39.0448   -9.1217 H   0  0  0  0  0
   17.6260   37.5139   -7.2417 H   0  0  0  0  0
   19.0427   36.4661   -7.6501 H   0  0  0  0  0
   16.3960   38.4449   -9.4705 H   0  0  0  0  0
   18.7358   34.8664   -9.2013 H   0  0  0  0  0
   15.2891   37.5723  -11.5108 H   0  0  0  0  0
   17.4566   33.8729  -11.0864 H   0  0  0  0  0
   15.8510   35.3010  -12.3565 H   0  0  0  0  0
   17.9478   40.6099   -7.9033 H   0  0  0  0  0
   18.8502   40.8135   -5.1077 H   0  0  0  0  0
   20.1345   42.5079   -5.1225 H   0  0  0  0  0
   21.3995   41.0840   -6.5741 H   0  0  0  0  0
   20.6151   41.7759   -8.0153 H   0  0  0  0  0
   21.6877   42.7852   -7.0143 H   0  0  0  0  0
   18.7180   43.6319   -7.6201 H   0  0  0  0  0
   18.4282   44.1386   -5.9378 H   0  0  0  0  0
   19.9886   44.4943   -6.7186 H   0  0  0  0  0
   17.1743   41.0311   -3.9928 H   0  0  0  0  0
   15.0174   42.6978   -5.1892 H   0  0  0  0  0
   15.9187   42.8547   -2.3400 H   0  0  0  0  0
   14.3044   43.2501   -2.7509 H   0  0  0  0  0
   13.3181   41.3816   -4.1106 H   0  0  0  0  0
   14.5434   40.4814   -3.1626 H   0  0  0  0  0
   13.4553   41.1931   -6.6824 H   0  0  0  0  0
   15.4516   38.4785   -4.0301 H   0  0  0  0  0
   13.6403   39.5597   -8.5415 H   0  0  0  0  0
   15.6443   36.8250   -5.8697 H   0  0  0  0  0
   14.7455   37.3598   -8.1244 H   0  0  0  0  0
   16.7208   44.6269   -3.5044 H   0  0  0  0  0
   15.7535   44.2923   -4.8591 H   0  0  0  0  0
   14.9337   45.6059   -2.4459 H   0  0  0  0  0
   15.7300   46.8075   -5.0932 H   0  0  0  0  0
   16.4390   47.0985   -3.4335 H   0  0  0  0  0
   13.6024   47.7478   -4.0424 H   0  0  0  0  0
   14.3478   47.8431   -1.7114 H   0  0  0  0  0
   15.6733   48.9451   -2.1580 H   0  0  0  0  0
   13.9818   49.4824   -2.3026 H   0  0  0  0  0
   15.9623   49.5681   -4.6604 H   0  0  0  0  0
   14.8262   48.8692   -5.8401 H   0  0  0  0  0
   14.2526   50.0659   -4.6528 H   0  0  0  0  0
   12.9542   46.5884   -2.4483 H   0  0  0  0  0
   10.9341   46.2270   -4.5340 H   0  0  0  0  0
   10.8578   44.2631   -2.2809 H   0  0  0  0  0
   11.6545   43.8859   -3.8755 H   0  0  0  0  0
    9.5979   43.0981   -4.3784 H   0  0  0  0  0
    9.2699   44.8044   -4.7136 H   0  0  0  0  0
    8.5128   45.9703   -3.1263 H   0  0  0  0  0
   10.8599   48.2568   -4.1374 H   0  0  0  0  0
   10.2386   49.3723   -1.5283 H   0  0  0  0  0
   11.7777   50.4437   -2.9185 H   0  0  0  0  0
   11.1102   52.2759   -1.9840 H   0  0  0  0  0
    9.3929   51.7003   -1.9828 H   0  0  0  0  0
   11.0423   49.6868   -5.1277 H   0  0  0  0  0
    9.5528   50.6530   -4.9914 H   0  0  0  0  0
   11.1337   51.4650   -5.1025 H   0  0  0  0  0
   10.8133   53.1088   -4.2655 H   0  0  0  0  0
    9.1249   52.5429   -4.2643 H   0  0  0  0  0
    9.6279   53.8461   -3.1599 H   0  0  0  0  0
    6.7940   48.9548   -1.5518 H   0  0  0  0  0
    8.3258   48.5828   -0.7540 H   0  0  0  0  0
  2  1  1  0  0  0
  2  5  1  0  0  0
  3  2  1  0  0  0
  3  4  2  0  0  0
  5  6  1  0  0  0
  6  7  4  0  0  0
  6  8  4  0  0  0
  8 10  4  0  0  0
 10 11  4  0  0  0
  9 11  4  0  0  0
  7  9  4  0  0  0
 13 12  1  0  0  0
 13 16  1  0  0  0
 14 13  1  0  0  0
 14 15  2  0  0  0
 16 18  1  0  0  0
 16 17  1  0  0  0
 12  3  1  0  0  0
 20 19  1  0  0  0
 20 22  1  0  0  0
 21 20  1  0  0  0
 22 23  1  0  0  0
 23 24  4  0  0  0
 23 25  4  0  0  0
 25 27  4  0  0  0
 27 28  4  0  0  0
 26 28  4  0  0  0
 24 26  4  0  0  0
 19 14  1  0  0  0
 30 29  1  0  0  0
 30 33  1  0  0  0
 31 30  1  0  0  0
 31 32  2  0  0  0
 33 34  1  0  0  0
 34 35  1  0  0  0
 34 36  1  0  0  0
 29 21  1  0  0  0
 38 37  1  0  0  0
 38 41  1  0  0  0
 39 38  1  0  0  0
 39 40  2  0  0  0
 41 42  1  0  0  0
 42 43  1  0  0  0
 43 45  2  0  0  0
 43 44  1  0  0  0
 37 31  1  0  0  0
 46 47  1  0  0  0
 47 50  1  0  0  0
 47 48  1  0  0  0
 48 49  2  0  0  0
 50 52  1  0  0  0
 50 51  1  0  0  0
 51 53  1  0  0  0
 39 46  1  0  0  0
 48 54  1  0  0  0
  1 55  1  0  0  0
  1 56  1  0  0  0
  1 57  1  0  0  0
  2 58  1  0  0  0
  5 59  1  0  0  0
  5 60  1  0  0  0
  7 61  1  0  0  0
  8 62  1  0  0  0
  9 63  1  0  0  0
 10 64  1  0  0  0
 11 65  1  0  0  0
 12 66  1  0  0  0
 13 67  1  0  0  0
 16 68  1  0  0  0
 17 69  1  0  0  0
 17 70  1  0  0  0
 17 71  1  0  0  0
 18 72  1  0  0  0
 18 73  1  0  0  0
 18 74  1  0  0  0
 19 75  1  0  0  0
 20 76  1  0  0  0
 21 77  1  0  0  0
 21 78  1  0  0  0
 22 79  1  0  0  0
 22 80  1  0  0  0
 24 81  1  0  0  0
 25 82  1  0  0  0
 26 83  1  0  0  0
 27 84  1  0  0  0
 28 85  1  0  0  0
 29 86  1  0  0  0
 29 87  1  0  0  0
 30 88  1  0  0  0
 33 89  1  0  0  0
 33 90  1  0  0  0
 34 91  1  0  0  0
 35 92  1  0  0  0
 35 93  1  0  0  0
 35 94  1  0  0  0
 36 95  1  0  0  0
 36 96  1  0  0  0
 36 97  1  0  0  0
 37 98  1  0  0  0
 38 99  1  0  0  0
 41100  1  0  0  0
 41101  1  0  0  0
 42102  1  0  0  0
 42103  1  0  0  0
 44104  1  0  0  0
 46105  1  0  0  0
 47106  1  0  0  0
 50107  1  0  0  0
 51108  1  0  0  0
 51109  1  0  0  0
 52110  1  0  0  0
 52111  1  0  0  0
 52112  1  0  0  0
 53113  1  0  0  0
 53114  1  0  0  0
 53115  1  0  0  0
 54116  1  0  0  0
 54117  1  0  0  0
M  END
$$$$
