### 
### Created by X-TOOL on Mon Sep 10 21:12:45 2018
### 

@<TRIPOS>MOLECULE
2mip_ligand
  116   117     1     0     0
SMALL
GAST_HUCK


@<TRIPOS>ATOM
      1 N          20.4680   38.2330   -9.0280 N.4       1 PHE         0.2394
      2 CA         19.1850   38.4960   -8.3590 C.3       1 PHE         0.0744
      3 C          19.3280   39.3440   -7.1200 C.2       1 PHE         0.2288
      4 O          20.0950   39.0390   -6.1930 O.2       1 PHE        -0.3905
      5 CB         18.3560   37.2360   -8.0020 C.3       1 PHE         0.0416
      6 CG         17.6220   36.7000   -9.1730 C.ar      1 PHE        -0.0353
      7 CD1        16.6580   37.4550   -9.8440 C.ar      1 PHE        -0.0600
      8 CD2        17.9400   35.4420   -9.6740 C.ar      1 PHE        -0.0600
      9 CE1        16.0240   36.9610  -10.9870 C.ar      1 PHE        -0.0686
     10 CE2        17.2620   34.8980  -10.7710 C.ar      1 PHE        -0.0686
     11 CZ         16.3330   35.6840  -11.4570 C.ar      1 PHE        -0.0687
     12 N          18.5670   40.4300   -7.1130 N.am      1 VAL        -0.2606
     13 CA         18.5950   41.3610   -6.0150 C.3       1 VAL         0.1332
     14 C          17.2140   41.9510   -5.7870 C.2       1 VAL         0.2025
     15 O          16.6470   42.6620   -6.6280 O.2       1 VAL        -0.3945
     16 CB         19.7400   42.4110   -6.1340 C.3       1 VAL        -0.0063
     17 CG1        20.9510   41.9820   -6.9990 C.3       1 VAL        -0.0584
     18 CG2        19.1760   43.7720   -6.6410 C.3       1 VAL        -0.0584
     19 N          16.6720   41.6290   -4.6490 N.am      1 PHE        -0.2749
     20 CA         15.3360   42.1300   -4.3150 C.3       1 PHE         0.0911
     21 C          15.2980   43.1470   -3.1870 C.3       1 PHE        -0.0062
     22 CB         14.3290   40.9740   -4.1110 C.3       1 PHE         0.0089
     23 CG         14.4500   39.9570   -5.2330 C.ar      1 PHE        -0.0406
     24 CD1        13.9420   40.2340   -6.5050 C.ar      1 PHE        -0.0603
     25 CD2        15.0570   38.7200   -5.0170 C.ar      1 PHE        -0.0603
     26 CE1        14.0390   39.3190   -7.5560 C.ar      1 PHE        -0.0686
     27 CE2        15.1650   37.7870   -6.0510 C.ar      1 PHE        -0.0686
     28 CZ         14.6580   38.0880   -7.3180 C.ar      1 PHE        -0.0687
     29 N          15.7810   44.4310   -3.8490 N.4       1 LEU         0.2479
     30 CA         14.9490   45.5650   -3.5350 C.3       1 LEU         0.0671
     31 C          13.4950   45.3940   -3.9830 C.2       1 LEU         0.2268
     32 O          13.1630   44.7690   -4.9920 O.2       1 LEU        -0.3907
     33 CB         15.5430   46.9070   -4.0240 C.3       1 LEU         0.0103
     34 CG         14.6120   48.1030   -3.8360 C.3       1 LEU        -0.0394
     35 CD1        14.6570   48.6320   -2.3970 C.3       1 LEU        -0.0623
     36 CD2        14.9370   49.2340   -4.8190 C.3       1 LEU        -0.0623
     37 N          12.6310   46.0310   -3.2390 N.am      1 GLU        -0.2609
     38 CA         11.2460   45.9500   -3.5270 C.3       1 GLU         0.1326
     39 C          10.5330   46.9540   -2.6390 C.2       1 GLU         0.2040
     40 O          10.1140   46.6890   -1.4820 O.2       1 GLU        -0.3944
     41 CB         10.8960   44.4670   -3.3510 C.3       1 GLU        -0.0008
     42 CG          9.5480   44.0930   -3.9360 C.3       1 GLU         0.0044
     43 CD          8.5370   44.1130   -2.8450 C.2       1 GLU         0.0350
     44 OE1         8.1600   45.3370   -2.4970 O.co2     1 GLU        -0.5690
     45 OE2         8.2560   43.0940   -2.2560 O.co2     1 GLU        -0.5690
     46 N          10.4960   48.1750   -3.1880 N.am      1 ILE        -0.2635
     47 CA         10.0050   49.3710   -2.5930 C.3       1 ILE         0.1332
     48 C           8.4770   49.4480   -2.5970 C.2       1 ILE         0.1994
     49 O           7.8610   49.9220   -3.6090 O.2       1 ILE        -0.3947
     50 CB         10.7270   50.5670   -3.1810 C.3       1 ILE        -0.0037
     51 CG1        10.2860   51.8840   -2.5800 C.3       1 ILE        -0.0491
     52 CG2        10.6050   50.5950   -4.7130 C.3       1 ILE        -0.0582
     53 CD1         9.9380   52.9200   -3.6440 C.3       1 ILE        -0.0648
     54 N           7.8140   48.9570   -1.5530 N.am      1 NH2        -0.2990
     55 H1         20.3104   37.6645   -9.8453 H         1 PHE         0.2017
     56 H2         21.0839   37.7475   -8.3947 H         1 PHE         0.2017
     57 H3         20.8891   39.1067   -9.3025 H         1 PHE         0.2017
     58 H4         18.5858   39.0737   -9.0781 H         1 PHE         0.1122
     59 H5         17.6299   37.4995   -7.2188 H         1 PHE         0.0507
     60 H6         19.0368   36.4589   -7.6244 H         1 PHE         0.0507
     61 H7         16.3974   38.4395   -9.4725 H         1 PHE         0.0557
     62 H8         18.7314   34.8695   -9.2039 H         1 PHE         0.0557
     63 H9         15.2931   37.5689  -11.5079 H         1 PHE         0.0599
     64 H10        17.4556   33.8786  -11.0846 H         1 PHE         0.0599
     65 H11        15.8537   35.3031  -12.3516 H         1 PHE         0.0559
     66 H12        17.9599   40.6063   -7.8879 H         1 VAL         0.1885
     67 H13        18.8270   40.7726   -5.1150 H         1 VAL         0.0802
     68 H14        20.1241   42.5701   -5.1156 H         1 VAL         0.0343
     69 H15        21.6952   42.7919   -7.0152 H         1 VAL         0.0234
     70 H16        20.6134   41.7738   -8.0250 H         1 VAL         0.0234
     71 H17        21.4045   41.0758   -6.5712 H         1 VAL         0.0234
     72 H18        18.3171   44.0670   -6.0203 H         1 VAL         0.0234
     73 H19        18.8536   43.6683   -7.6876 H         1 VAL         0.0234
     74 H20        19.9590   44.5416   -6.5730 H         1 VAL         0.0234
     75 H21        17.1644   41.0428   -4.0057 H         1 PHE         0.1859
     76 H22        14.9943   42.6742   -5.2078 H         1 PHE         0.0632
     77 H23        15.9694   42.8506   -2.3676 H         1 PHE         0.0839
     78 H24        14.2757   43.2655   -2.7987 H         1 PHE         0.0839
     79 H25        13.3074   41.3817   -4.1010 H         1 PHE         0.0450
     80 H26        14.5358   40.4793   -3.1506 H         1 PHE         0.0450
     81 H27        13.4580   41.1878   -6.6814 H         1 PHE         0.0557
     82 H28        15.4495   38.4799   -4.0355 H         1 PHE         0.0557
     83 H29        13.6425   39.5584   -8.5361 H         1 PHE         0.0599
     84 H30        15.6417   36.8303   -5.8707 H         1 PHE         0.0599
     85 H31        14.7450   37.3639   -8.1199 H         1 PHE         0.0559
     86 H32        16.7194   44.6226   -3.5349 H         1 LEU         0.2036
     87 H33        15.7817   44.2982   -4.8482 H         1 LEU         0.2036
     88 H34        14.9245   45.6236   -2.4368 H         1 LEU         0.1099
     89 H35        15.7738   46.8133   -5.0954 H         1 LEU         0.0348
     90 H36        16.4704   47.0992   -3.4646 H         1 LEU         0.0348
     91 H37        13.5864   47.7616   -4.0398 H         1 LEU         0.0299
     92 H38        13.9759   49.4904   -2.3005 H         1 LEU         0.0232
     93 H39        15.6822   48.9484   -2.1545 H         1 LEU         0.0232
     94 H40        14.3451   47.8367   -1.7040 H         1 LEU         0.0232
     95 H41        14.9026   48.8466   -5.8480 H         1 LEU         0.0232
     96 H42        15.9431   49.6254   -4.6080 H         1 LEU         0.0232
     97 H43        14.1984   50.0413   -4.7063 H         1 LEU         0.0232
     98 H44        12.9479   46.5775   -2.4638 H         1 GLU         0.1885
     99 H45        11.0538   46.2297   -4.5733 H         1 GLU         0.0801
    100 H46        10.8854   44.2365   -2.2755 H         1 GLU         0.0330
    101 H47        11.6708   43.8645   -3.8476 H         1 GLU         0.0330
    102 H48         9.6006   43.0855   -4.3744 H         1 GLU         0.0433
    103 H49         9.2677   44.8176   -4.7147 H         1 GLU         0.0433
    104 H50        10.8528   48.2552   -4.1188 H         1 ILE         0.1883
    105 H51        10.2928   49.3352   -1.5319 H         1 ILE         0.0802
    106 H52        11.7934   50.4460   -2.9398 H         1 ILE         0.0345
    107 H53        11.1015   52.2785   -1.9560 H         1 ILE         0.0267
    108 H54         9.3983   51.7076   -1.9548 H         1 ILE         0.0267
    109 H55        10.9309   49.6283   -5.1245 H         1 ILE         0.0235
    110 H56        11.2393   51.3979   -5.1168 H         1 ILE         0.0235
    111 H57         9.5575   50.7788   -4.9941 H         1 ILE         0.0235
    112 H58         9.6249   53.8551   -3.1567 H         1 ILE         0.0230
    113 H59         9.1175   52.5406   -4.2707 H         1 ILE         0.0230
    114 H60        10.8206   53.1115   -4.2719 H         1 ILE         0.0230
    115 H61         6.8150   48.9955   -1.5321 H         1 NH2         0.1815
    116 H62         8.3148   48.5495   -0.7894 H         1 NH2         0.1815
@<TRIPOS>BOND
     1    2    1 1  
     2    2    5 1  
     3    3    2 1  
     4    3    4 2  
     5    5    6 1  
     6    6    7 ar 
     7    6    8 ar 
     8    8   10 ar 
     9   10   11 ar 
    10    9   11 ar 
    11    7    9 ar 
    12   13   12 1  
    13   13   16 1  
    14   14   13 1  
    15   14   15 2  
    16   16   18 1  
    17   16   17 1  
    18   12    3 am 
    19   20   19 1  
    20   20   22 1  
    21   21   20 1  
    22   22   23 1  
    23   23   24 ar 
    24   23   25 ar 
    25   25   27 ar 
    26   27   28 ar 
    27   26   28 ar 
    28   24   26 ar 
    29   19   14 am 
    30   30   29 1  
    31   30   33 1  
    32   31   30 1  
    33   31   32 2  
    34   33   34 1  
    35   34   35 1  
    36   34   36 1  
    37   29   21 1  
    38   38   37 1  
    39   38   41 1  
    40   39   38 1  
    41   39   40 2  
    42   41   42 1  
    43   42   43 1  
    44   43   45 ar 
    45   43   44 ar 
    46   37   31 am 
    47   46   47 1  
    48   47   50 1  
    49   47   48 1  
    50   48   49 2  
    51   50   52 1  
    52   50   51 1  
    53   51   53 1  
    54   39   46 am 
    55   48   54 am 
    56    1   55 1  
    57    1   56 1  
    58    1   57 1  
    59    2   58 1  
    60    5   59 1  
    61    5   60 1  
    62    7   61 1  
    63    8   62 1  
    64    9   63 1  
    65   10   64 1  
    66   11   65 1  
    67   12   66 1  
    68   13   67 1  
    69   16   68 1  
    70   17   69 1  
    71   17   70 1  
    72   17   71 1  
    73   18   72 1  
    74   18   73 1  
    75   18   74 1  
    76   19   75 1  
    77   20   76 1  
    78   21   77 1  
    79   21   78 1  
    80   22   79 1  
    81   22   80 1  
    82   24   81 1  
    83   25   82 1  
    84   26   83 1  
    85   27   84 1  
    86   28   85 1  
    87   29   86 1  
    88   29   87 1  
    89   30   88 1  
    90   33   89 1  
    91   33   90 1  
    92   34   91 1  
    93   35   92 1  
    94   35   93 1  
    95   35   94 1  
    96   36   95 1  
    97   36   96 1  
    98   36   97 1  
    99   37   98 1  
   100   38   99 1  
   101   41  100 1  
   102   41  101 1  
   103   42  102 1  
   104   42  103 1  
   105   46  104 1  
   106   47  105 1  
   107   50  106 1  
   108   51  107 1  
   109   51  108 1  
   110   52  109 1  
   111   52  110 1  
   112   52  111 1  
   113   53  112 1  
   114   53  113 1  
   115   53  114 1  
   116   54  115 1  
   117   54  116 1  
@<TRIPOS>SUBSTRUCTURE
     1 PHE         1

