6jbe_ligand
  -I-interpret- 

 24 24  0  0  0  0  0  0  0  0999 V2000
   -6.5730  -32.4350  -14.2450 C   0  0  0  0  0
   -7.9030  -32.2400  -13.5020 C   0  0  0  0  0
   -8.7460  -31.2490  -14.2610 C   0  0  0  0  0
   -7.9350  -29.9620  -14.4390 C   0  0  0  0  0
   -6.6090  -30.1960  -15.1600 C   0  0  0  0  0
   -5.7180  -28.9890  -15.2860 C   0  0  0  0  0
   -6.9180  -33.0500  -15.4890 O   0  0  0  0  0
   -8.6530  -33.4200  -13.4030 O   0  0  0  0  0
   -9.9600  -30.9250  -13.5010 O   0  0  0  0  0
   -8.7300  -28.9860  -15.1620 O   0  0  0  0  0
   -5.8720  -31.2360  -14.4960 O   0  0  0  0  0
   -4.5460  -29.2300  -16.0740 O   0  0  0  0  0
   -5.9040  -33.0337  -13.6269 H   0  0  0  0  0
   -7.6523  -31.8994  -12.4974 H   0  0  0  0  0
   -9.0251  -31.6776  -15.2236 H   0  0  0  0  0
   -7.6916  -29.5880  -13.4445 H   0  0  0  0  0
   -6.8915  -30.4723  -16.1759 H   0  0  0  0  0
   -5.3903  -28.7152  -14.2831 H   0  0  0  0  0
   -6.2923  -28.2056  -15.7806 H   0  0  0  0  0
   -7.3949  -33.8658  -15.3200 H   0  0  0  0  0
   -8.1473  -34.0799  -12.9231 H   0  0  0  0  0
  -10.4821  -31.7214  -13.3794 H   0  0  0  0  0
   -9.5603  -28.8465  -14.7008 H   0  0  0  0  0
   -4.0205  -28.4278  -16.1176 H   0  0  0  0  0
  1  2  1  0  0  0
  1  7  1  0  0  0
 11  1  1  0  0  0
  3  2  1  0  0  0
  2  8  1  0  0  0
  4  3  1  0  0  0
  3  9  1  0  0  0
  5  4  1  0  0  0
  4 10  1  0  0  0
  6  5  1  0  0  0
  5 11  1  0  0  0
 12  6  1  0  0  0
  1 13  1  0  0  0
  2 14  1  0  0  0
  3 15  1  0  0  0
  4 16  1  0  0  0
  5 17  1  0  0  0
  6 18  1  0  0  0
  6 19  1  0  0  0
  7 20  1  0  0  0
  8 21  1  0  0  0
  9 22  1  0  0  0
 10 23  1  0  0  0
 12 24  1  0  0  0
M  END
$$$$
