6rj6_ligand
  -I-interpret- 

 52 54  0  0  0  0  0  0  0  0999 V2000
   16.2440  -13.1340    1.5730 C   0  0  0  0  0
   17.0970  -12.9420    0.4820 C   0  0  0  0  0
   17.0550  -13.9400   -0.5080 C   0  0  0  0  0
   18.6350  -12.4470   -1.1210 C   0  0  0  0  0
   19.6780  -11.8100   -1.9890 C   0  0  0  0  0
   20.6210  -11.0990   -1.3370 N   0  0  0  0  0
   18.2330  -14.4400   -2.6880 C   0  0  0  0  0
   22.5050   -9.6060   -0.9280 C   0  0  0  0  0
   19.0080   -7.4210   -2.7770 C   0  0  0  0  0
   19.3400   -7.1230   -4.0890 C   0  0  0  0  0
   20.3670   -7.8010   -4.7290 C   0  0  0  0  0
   15.3810  -14.2250    1.6770 C   0  0  0  0  0
   14.4200  -16.3870    0.7230 C   0  0  0  0  0
   21.5390  -10.1520   -1.9700 C   0  0  0  0  0
   20.7950   -9.0480   -2.7010 C   0  0  0  0  0
   19.7370   -8.3780   -2.0940 C   0  0  0  0  0
   15.3370  -15.1920    0.6640 C   0  0  0  0  0
   21.0820   -8.7620   -4.0310 C   0  0  0  0  0
   19.2170   -4.3650   -4.7530 C   0  0  0  0  0
   20.1080   -4.2730   -3.5260 C   0  0  0  0  0
   16.2000  -15.0370   -0.4180 C   0  0  0  0  0
   18.0990  -12.0050    0.0690 C   0  0  0  0  0
   17.9870  -13.6260   -1.4980 N   0  0  0  0  0
   19.6370  -11.9010   -3.2180 O   0  0  0  0  0
   23.3280  -10.6370   -0.4070 O   0  0  0  0  0
   17.0950   -5.8370   -4.3640 O   0  0  0  0  0
   18.4520   -6.2590   -6.3790 O   0  0  0  0  0
   19.5500   -4.2670   -2.4050 O   0  0  0  0  0
   21.3440   -4.1850   -3.7110 O   0  0  0  0  0
   18.3880   -5.9340   -4.9800 S   0  0  0  0  0
   16.2950  -11.9610    2.8340 Cl  0  0  0  0  0
   14.3350  -14.3840    3.0400 Cl  0  0  0  0  0
   20.6997  -11.2314   -0.3287 H   0  0  0  0  0
   18.5604  -15.4345   -2.3850 H   0  0  0  0  0
   17.3138  -14.5198   -3.2684 H   0  0  0  0  0
   19.0074  -13.9702   -3.2943 H   0  0  0  0  0
   21.9288   -9.1723   -0.1107 H   0  0  0  0  0
   23.1405   -8.8564   -1.3995 H   0  0  0  0  0
   18.1807   -6.9065   -2.2881 H   0  0  0  0  0
   20.6091   -7.5808   -5.7687 H   0  0  0  0  0
   14.6532  -16.9790    1.6080 H   0  0  0  0  0
   13.3855  -16.0474    0.7738 H   0  0  0  0  0
   14.5605  -16.9957   -0.1702 H   0  0  0  0  0
   22.1167  -10.6765   -2.7311 H   0  0  0  0  0
   19.4779   -8.6116   -1.0613 H   0  0  0  0  0
   21.8835   -9.3031   -4.5339 H   0  0  0  0  0
   19.8636   -4.2254   -5.6194 H   0  0  0  0  0
   18.4362   -3.6146   -4.6287 H   0  0  0  0  0
   16.2069  -15.7872   -1.2088 H   0  0  0  0  0
   18.3873  -11.0997    0.6033 H   0  0  0  0  0
   23.9266  -10.2677    0.2463 H   0  0  0  0  0
   21.5282   -4.2122   -4.6528 H   0  0  0  0  0
  2  1  4  0  0  0
  1 12  4  0  0  0
  1 31  1  0  0  0
  3  2  4  0  0  0
 22  2  4  0  0  0
  3 21  4  0  0  0
 23  3  4  0  0  0
  5  4  1  0  0  0
  4 22  4  0  0  0
  4 23  4  0  0  0
  6  5  1  0  0  0
  5 24  2  0  0  0
 14  6  1  0  0  0
 23  7  1  0  0  0
 14  8  1  0  0  0
  8 25  1  0  0  0
 10  9  4  0  0  0
  9 16  4  0  0  0
 10 11  4  0  0  0
 30 10  1  0  0  0
 11 18  4  0  0  0
 17 12  4  0  0  0
 12 32  1  0  0  0
 17 13  1  0  0  0
 15 14  1  0  0  0
 16 15  4  0  0  0
 18 15  4  0  0  0
 21 17  4  0  0  0
 19 20  1  0  0  0
 19 30  1  0  0  0
 20 28  2  0  0  0
 20 29  1  0  0  0
 30 26  2  0  0  0
 30 27  2  0  0  0
  6 33  1  0  0  0
  7 34  1  0  0  0
  7 35  1  0  0  0
  7 36  1  0  0  0
  8 37  1  0  0  0
  8 38  1  0  0  0
  9 39  1  0  0  0
 11 40  1  0  0  0
 13 41  1  0  0  0
 13 42  1  0  0  0
 13 43  1  0  0  0
 14 44  1  0  0  0
 16 45  1  0  0  0
 18 46  1  0  0  0
 19 47  1  0  0  0
 19 48  1  0  0  0
 21 49  1  0  0  0
 22 50  1  0  0  0
 25 51  1  0  0  0
 29 52  1  0  0  0
M  END
$$$$
