1hn2_ligand
  -I-interpret- 

 26 28  0  0  0  0  0  0  0  0999 V2000
    0.5210   -0.6440    5.5400 C   0  0  0  0  0
    1.2810   -0.2490    4.3830 C   0  0  0  0  0
   -0.8640   -0.3470    5.6250 C   0  0  0  0  0
    0.6220    0.4600    3.3030 C   0  0  0  0  0
   -1.5100    0.3530    4.5630 C   0  0  0  0  0
   -0.7930    0.7480    3.4210 C   0  0  0  0  0
   -1.1380   -2.5280   10.0370 C   0  0  0  0  0
    0.3580   -2.8580    9.9340 C   0  0  0  0  0
   -1.7650   -1.8280    8.9860 C   0  0  0  0  0
    1.0440   -2.4380    8.7800 C   0  0  0  0  0
   -1.0190   -1.4310    7.8380 C   0  0  0  0  0
    0.3780   -1.7370    7.7450 C   0  0  0  0  0
    1.2110   -1.3360    6.5530 C   0  0  0  0  0
   -1.7230   -0.6780    6.7090 C   0  0  0  0  0
   -2.9840    0.6900    4.6120 N   0  0  0  0  0
    2.3441   -0.4811    4.3191 H   0  0  0  0  0
    1.1804    0.7701    2.4198 H   0  0  0  0  0
   -1.3058    1.2757    2.6169 H   0  0  0  0  0
   -1.7096   -2.8319   10.9140 H   0  0  0  0  0
    0.8713   -3.3996   10.7285 H   0  0  0  0  0
   -2.8264   -1.5890    9.0517 H   0  0  0  0  0
    2.1073   -2.6560    8.6805 H   0  0  0  0  0
    2.2740   -1.5663    6.4811 H   0  0  0  0  0
   -2.7817   -0.4196    6.7326 H   0  0  0  0  0
   -3.4200    1.1856    3.8344 H   0  0  0  0  0
   -3.5419    0.4216    5.4227 H   0  0  0  0  0
  1 13  4  0  0  0
  1  3  4  0  0  0
  1  2  4  0  0  0
  2  4  4  0  0  0
  4  6  4  0  0  0
  6  5  4  0  0  0
  5 15  1  0  0  0
  5  3  4  0  0  0
  3 14  4  0  0  0
 14 11  4  0  0  0
 11 12  4  0  0  0
 11  9  4  0  0  0
  9  7  4  0  0  0
  7  8  4  0  0  0
  8 10  4  0  0  0
 10 12  4  0  0  0
 12 13  4  0  0  0
  2 16  1  0  0  0
  4 17  1  0  0  0
  6 18  1  0  0  0
  7 19  1  0  0  0
  8 20  1  0  0  0
  9 21  1  0  0  0
 10 22  1  0  0  0
 13 23  1  0  0  0
 14 24  1  0  0  0
 15 25  1  0  0  0
 15 26  1  0  0  0
M  END
$$$$
