4joe_ligand
  -I-interpret- 

149149  0  0  0  0  0  0  0  0999 V2000
   36.2110   22.3800   42.7850 N   0  3  0  0  0
   35.8450   22.3180   41.3750 C   0  0  0  0  0
   36.7700   21.3780   40.6110 C   0  0  0  0  0
   37.4930   20.5810   41.2110 O   0  0  0  0  0
   35.8660   23.7090   40.7570 C   0  0  0  0  0
   36.7460   21.4760   39.2860 N   0  0  0  0  0
   37.5430   20.5950   38.4420 C   0  0  0  0  0
   37.9980   21.2880   37.1610 C   0  0  0  0  0
   37.2270   21.4180   36.2090 O   0  0  0  0  0
   36.7470   19.3350   38.1030 C   0  0  0  0  0
   37.5920   18.2750   37.4280 C   0  0  0  0  0
   38.6800   18.5590   36.9280 O   0  0  0  0  0
   37.0930   17.0430   37.4080 N   0  0  0  0  0
   39.2550   21.7240   37.1410 N   0  0  0  0  0
   39.8050   22.4530   36.0010 C   0  0  0  0  0
   39.7560   21.6320   34.7170 C   0  0  0  0  0
   39.8830   22.1700   33.6150 O   0  0  0  0  0
   41.2460   22.8850   36.2900 C   0  0  0  0  0
   42.0860   21.7610   36.4870 O   0  0  0  0  0
   39.5700   20.3260   34.8670 N   0  0  0  0  0
   39.5550   19.4140   33.7310 C   0  0  0  0  0
   38.1960   19.3680   33.0340 C   0  0  0  0  0
   38.0810   18.8400   31.9310 O   0  0  0  0  0
   39.9680   18.0100   34.1810 C   0  0  0  0  0
   41.3090   17.9700   34.9000 C   0  0  0  0  0
   41.5280   16.6370   35.5940 C   0  0  0  0  0
   40.5680   16.4200   36.6730 N   0  0  0  0  0
   40.5310   15.3270   37.4290 C   0  0  0  0  0
   41.4070   14.3520   37.2260 N   0  0  0  0  0
   39.6260   15.2070   38.3920 N   0  0  0  0  0
   37.1690   19.9150   33.6800 N   0  0  0  0  0
   35.8450   19.9760   33.0720 C   0  0  0  0  0
   35.8570   21.0130   31.9580 C   0  0  0  0  0
   36.5690   22.0150   32.0470 O   0  0  0  0  0
   34.7960   20.3290   34.1110 C   0  0  0  0  0
   35.0630   20.7870   30.9070 N   0  0  0  0  0
   35.0430   21.7710   29.8280 C   0  0  0  0  0
   34.1730   22.9610   30.1910 C   0  0  0  0  0
   33.5070   22.9700   31.2330 O   0  0  0  0  0
   34.4060   20.9990   28.6750 C   0  0  0  0  0
   33.4580   20.0860   29.3500 C   0  0  0  0  0
   34.1440   19.6670   30.6390 C   0  0  0  0  0
   34.1980   23.9510   29.3150 N   0  0  0  0  0
   33.4100   25.1510   29.4720 C   0  0  0  0  0
   32.6090   25.3650   28.2030 C   0  0  0  0  0
   33.1500   25.2360   27.0990 O   0  0  0  0  0
   34.3310   26.3560   29.7070 C   0  0  0  0  0
   35.0050   26.1870   30.9610 O   0  0  0  0  0
   33.5380   27.6560   29.7340 C   0  0  0  0  0
   31.3200   25.6650   28.3530 N   0  0  0  0  0
   30.4610   25.9720   27.2180 C   0  0  0  0  0
   29.8540   27.3510   27.4070 C   0  0  0  0  0
   29.4150   27.7030   28.5070 O   0  0  0  0  0
   29.3440   24.9350   27.0690 C   0  0  0  0  0
   29.8710   23.6540   26.7580 O   0  0  0  0  0
   29.8510   28.1220   26.3270 N   0  0  0  0  0
   29.1970   29.4210   26.2790 C   0  0  0  0  0
   27.7660   29.1800   25.8270 C   0  0  0  0  0
   27.5500   28.5690   24.7780 O   0  0  0  0  0
   29.8880   30.3340   25.2440 C   0  0  0  0  0
   31.3990   30.4150   25.5000 C   0  0  0  0  0
   29.2270   31.7050   25.2030 C   0  0  0  0  0
   32.1780   31.0780   24.3710 C   0  0  0  0  0
   26.8000   29.6540   26.6130 N   0  0  0  0  0
   25.3790   29.3930   26.3720 C   0  0  0  0  0
   24.4840   30.6080   26.6160 C   0  0  0  0  0
   24.9480   31.6600   27.1030 O   0  0  0  0  0
   24.8540   28.1980   27.2140 C   0  0  0  0  0
   24.9350   28.5020   28.7070 C   0  0  0  0  0
   25.6340   26.9290   26.8840 C   0  0  0  0  0
   24.2840   27.4330   29.5600 C   0  0  0  0  0
   23.2850   30.5110   26.3070 O   0  0  0  0  0
   36.1916   21.4405   43.1817 H   0  0  0  0  0
   37.1497   22.7688   42.8746 H   0  0  0  0  0
   35.5469   22.9739   43.2816 H   0  0  0  0  0
   34.8314   21.9232   41.3055 H   0  0  0  0  0
   36.8808   24.1054   40.7919 H   0  0  0  0  0
   35.5331   23.6499   39.7208 H   0  0  0  0  0
   35.1991   24.3642   41.3174 H   0  0  0  0  0
   36.1560   22.1844   38.8495 H   0  0  0  0  0
   38.4374   20.3226   39.0024 H   0  0  0  0  0
   35.9505   19.6171   37.4145 H   0  0  0  0  0
   36.3677   18.9173   39.0356 H   0  0  0  0  0
   37.6167   16.2878   36.9655 H   0  0  0  0  0
   36.1865   16.8529   37.8351 H   0  0  0  0  0
   39.8533   21.5435   37.9471 H   0  0  0  0  0
   39.1833   23.3359   35.8525 H   0  0  0  0  0
   41.2536   23.4893   37.1971 H   0  0  0  0  0
   41.6176   23.4528   35.4370 H   0  0  0  0  0
   42.9808   22.0591   36.6658 H   0  0  0  0  0
   39.4336   19.9501   35.8053 H   0  0  0  0  0
   40.2730   19.7923   33.0034 H   0  0  0  0  0
   40.0584   17.3936   33.2866 H   0  0  0  0  0
   39.2113   17.6555   34.8809 H   0  0  0  0  0
   41.3209   18.7578   35.6532 H   0  0  0  0  0
   42.1003   18.1103   34.1636 H   0  0  0  0  0
   42.5300   16.6358   36.0229 H   0  0  0  0  0
   41.3996   15.8435   34.8578 H   0  0  0  0  0
   39.8831   17.1528   36.8582 H   0  0  0  0  0
   42.1081   14.4412   36.4905 H   0  0  0  0  0
   39.6064   14.3680   38.9718 H   0  0  0  0  0
   38.9500   15.9537   38.5525 H   0  0  0  0  0
   37.3102   20.2975   34.6150 H   0  0  0  0  0
   35.5932   18.9995   32.6583 H   0  0  0  0  0
   34.7915   19.5700   34.8933 H   0  0  0  0  0
   35.0304   21.3003   34.5467 H   0  0  0  0  0
   33.8156   20.3693   33.6364 H   0  0  0  0  0
   36.0314   22.1713   29.6025 H   0  0  0  0  0
   35.1419   20.4656   28.0734 H   0  0  0  0  0
   33.9139   21.6541   27.9561 H   0  0  0  0  0
   33.2210   19.2243   28.7259 H   0  0  0  0  0
   32.5041   20.5755   29.5466 H   0  0  0  0  0
   33.4410   19.4942   31.4539 H   0  0  0  0  0
   34.6593   18.7106   30.5508 H   0  0  0  0  0
   34.7983   23.8636   28.4950 H   0  0  0  0  0
   32.7433   25.0480   30.3282 H   0  0  0  0  0
   35.0502   26.4107   28.8898 H   0  0  0  0  0
   35.5836   26.9372   31.1157 H   0  0  0  0  0
   33.0268   27.7882   28.7804 H   0  0  0  0  0
   32.8039   27.6156   30.5387 H   0  0  0  0  0
   34.2178   28.4913   29.9021 H   0  0  0  0  0
   30.9222   25.6802   29.2921 H   0  0  0  0  0
   31.0666   25.9494   26.3120 H   0  0  0  0  0
   28.6858   25.2467   26.2580 H   0  0  0  0  0
   28.8026   24.8688   28.0127 H   0  0  0  0  0
   29.1506   23.0255   26.6706 H   0  0  0  0  0
   30.3300   27.7882   25.4906 H   0  0  0  0  0
   29.2434   29.9015   27.2563 H   0  0  0  0  0
   29.7626   29.8927   24.2552 H   0  0  0  0  0
   31.7683   29.3938   25.5944 H   0  0  0  0  0
   31.5455   31.0194   26.3952 H   0  0  0  0  0
   28.1782   31.5932   24.9280 H   0  0  0  0  0
   29.2986   32.1710   26.1858 H   0  0  0  0  0
   29.7327   32.3288   24.4660 H   0  0  0  0  0
   32.0345   30.5116   23.4508 H   0  0  0  0  0
   31.8172   32.0971   24.2319 H   0  0  0  0  0
   33.2377   31.0980   24.6253 H   0  0  0  0  0
   27.0616   30.2235   27.4177 H   0  0  0  0  0
   25.3219   29.1439   25.3124 H   0  0  0  0  0
   25.8854   31.5452   27.2755 H   0  0  0  0  0
   23.8064   28.0391   26.9584 H   0  0  0  0  0
   24.4075   29.4389   28.8859 H   0  0  0  0  0
   25.9889   28.5516   28.9808 H   0  0  0  0  0
   25.5160   26.6964   25.8257 H   0  0  0  0  0
   26.6894   27.0843   27.1077 H   0  0  0  0  0
   25.2519   26.1029   27.4837 H   0  0  0  0  0
   23.2304   27.3489   29.2934 H   0  0  0  0  0
   24.7813   26.4787   29.3865 H   0  0  0  0  0
   24.3734   27.7048   30.6118 H   0  0  0  0  0
  1  2  1  0  0  0
  2  3  1  0  0  0
  2  5  1  0  0  0
  3  4  2  0  0  0
  3  6  1  0  0  0
  6  7  1  0  0  0
  7  8  1  0  0  0
  7 10  1  0  0  0
  8  9  2  0  0  0
  8 14  1  0  0  0
 10 11  1  0  0  0
 11 12  2  0  0  0
 11 13  1  0  0  0
 14 15  1  0  0  0
 15 16  1  0  0  0
 15 18  1  0  0  0
 16 17  2  0  0  0
 16 20  1  0  0  0
 18 19  1  0  0  0
 20 21  1  0  0  0
 21 22  1  0  0  0
 21 24  1  0  0  0
 22 23  2  0  0  0
 22 31  1  0  0  0
 24 25  1  0  0  0
 25 26  1  0  0  0
 26 27  1  0  0  0
 27 28  1  0  0  0
 28 29  2  0  0  0
 28 30  1  0  0  0
 31 32  1  0  0  0
 32 33  1  0  0  0
 32 35  1  0  0  0
 33 34  2  0  0  0
 33 36  1  0  0  0
 36 37  1  0  0  0
 36 42  1  0  0  0
 37 38  1  0  0  0
 37 40  1  0  0  0
 38 39  2  0  0  0
 38 43  1  0  0  0
 40 41  1  0  0  0
 41 42  1  0  0  0
 43 44  1  0  0  0
 44 45  1  0  0  0
 44 47  1  0  0  0
 45 46  2  0  0  0
 45 50  1  0  0  0
 47 48  1  0  0  0
 47 49  1  0  0  0
 50 51  1  0  0  0
 51 52  1  0  0  0
 51 54  1  0  0  0
 52 53  2  0  0  0
 52 56  1  0  0  0
 54 55  1  0  0  0
 56 57  1  0  0  0
 57 58  1  0  0  0
 57 60  1  0  0  0
 58 59  2  0  0  0
 58 64  1  0  0  0
 60 61  1  0  0  0
 60 62  1  0  0  0
 61 63  1  0  0  0
 64 65  1  0  0  0
 65 66  1  0  0  0
 65 68  1  0  0  0
 66 67  1  0  0  0
 66 72  2  0  0  0
 68 69  1  0  0  0
 68 70  1  0  0  0
 69 71  1  0  0  0
  1 73  1  0  0  0
  1 74  1  0  0  0
  1 75  1  0  0  0
  2 76  1  0  0  0
  5 77  1  0  0  0
  5 78  1  0  0  0
  5 79  1  0  0  0
  6 80  1  0  0  0
  7 81  1  0  0  0
 10 82  1  0  0  0
 10 83  1  0  0  0
 13 84  1  0  0  0
 13 85  1  0  0  0
 14 86  1  0  0  0
 15 87  1  0  0  0
 18 88  1  0  0  0
 18 89  1  0  0  0
 19 90  1  0  0  0
 20 91  1  0  0  0
 21 92  1  0  0  0
 24 93  1  0  0  0
 24 94  1  0  0  0
 25 95  1  0  0  0
 25 96  1  0  0  0
 26 97  1  0  0  0
 26 98  1  0  0  0
 27 99  1  0  0  0
 29100  1  0  0  0
 30101  1  0  0  0
 30102  1  0  0  0
 31103  1  0  0  0
 32104  1  0  0  0
 35105  1  0  0  0
 35106  1  0  0  0
 35107  1  0  0  0
 37108  1  0  0  0
 40109  1  0  0  0
 40110  1  0  0  0
 41111  1  0  0  0
 41112  1  0  0  0
 42113  1  0  0  0
 42114  1  0  0  0
 43115  1  0  0  0
 44116  1  0  0  0
 47117  1  0  0  0
 48118  1  0  0  0
 49119  1  0  0  0
 49120  1  0  0  0
 49121  1  0  0  0
 50122  1  0  0  0
 51123  1  0  0  0
 54124  1  0  0  0
 54125  1  0  0  0
 55126  1  0  0  0
 56127  1  0  0  0
 57128  1  0  0  0
 60129  1  0  0  0
 61130  1  0  0  0
 61131  1  0  0  0
 62132  1  0  0  0
 62133  1  0  0  0
 62134  1  0  0  0
 63135  1  0  0  0
 63136  1  0  0  0
 63137  1  0  0  0
 64138  1  0  0  0
 65139  1  0  0  0
 67140  1  0  0  0
 68141  1  0  0  0
 69142  1  0  0  0
 69143  1  0  0  0
 70144  1  0  0  0
 70145  1  0  0  0
 70146  1  0  0  0
 71147  1  0  0  0
 71148  1  0  0  0
 71149  1  0  0  0
M  END
$$$$
