### 
### Created by X-TOOL on Mon Sep 10 21:13:18 2018
### 

@<TRIPOS>MOLECULE
4joe_ligand
  149   149     1     0     0
SMALL
GAST_HUCK


@<TRIPOS>ATOM
      1 N          36.2110   22.3800   42.7850 N.4       1 ALA         0.2377
      2 CA         35.8450   22.3180   41.3750 C.3       1 ALA         0.0621
      3 C          36.7700   21.3780   40.6110 C.2       1 ALA         0.2265
      4 O          37.4930   20.5810   41.2110 O.2       1 ALA        -0.3907
      5 CB         35.8660   23.7090   40.7570 C.3       1 ALA        -0.0040
      6 N          36.7460   21.4760   39.2860 N.am      1 ASN        -0.2589
      7 CA         37.5430   20.5950   38.4420 C.3       1 ASN         0.1477
      8 C          37.9980   21.2880   37.1610 C.2       1 ASN         0.2063
      9 O          37.2270   21.4180   36.2090 O.2       1 ASN        -0.3942
     10 CB         36.7470   19.3350   38.1030 C.3       1 ASN         0.0773
     11 CG         37.5920   18.2750   37.4280 C.2       1 ASN         0.1780
     12 OD1        38.6800   18.5590   36.9280 O.2       1 ASN        -0.3970
     13 ND2        37.0930   17.0430   37.4080 N.am      1 ASN        -0.3007
     14 N          39.2550   21.7240   37.1410 N.am      1 SER        -0.2614
     15 CA         39.8050   22.4530   36.0010 C.3       1 SER         0.1539
     16 C          39.7560   21.6320   34.7170 C.2       1 SER         0.2062
     17 O          39.8830   22.1700   33.6150 O.2       1 SER        -0.3943
     18 CB         41.2460   22.8850   36.2900 C.3       1 SER         0.0843
     19 OG         42.0860   21.7610   36.4870 O.3       1 SER        -0.3903
     20 N          39.5700   20.3260   34.8670 N.am      1 ARG        -0.2637
     21 CA         39.5550   19.4140   33.7310 C.3       1 ARG         0.1311
     22 C          38.1960   19.3680   33.0340 C.2       1 ARG         0.2039
     23 O          38.0810   18.8400   31.9310 O.2       1 ARG        -0.3944
     24 CB         39.9680   18.0100   34.1810 C.3       1 ARG        -0.0092
     25 CG         41.3090   17.9700   34.9000 C.3       1 ARG        -0.0156
     26 CD         41.5280   16.6370   35.5940 C.3       1 ARG         0.0627
     27 NE         40.5680   16.4200   36.6730 N.pl3     1 ARG        -0.2723
     28 CZ         40.5310   15.3270   37.4290 C.cat     1 ARG         0.2882
     29 NH1        41.4070   14.3520   37.2260 N.pl3     1 ARG        -0.2849
     30 NH2        39.6260   15.2070   38.3920 N.pl3     1 ARG        -0.2849
     31 N          37.1690   19.9150   33.6800 N.am      1 ALA        -0.2640
     32 CA         35.8450   19.9760   33.0720 C.3       1 ALA         0.1284
     33 C          35.8570   21.0130   31.9580 C.2       1 ALA         0.2061
     34 O          36.5690   22.0150   32.0470 O.2       1 ALA        -0.3942
     35 CB         34.7960   20.3290   34.1110 C.3       1 ALA        -0.0244
     36 N          35.0630   20.7870   30.9070 N.am      1 PRO        -0.2498
     37 CA         35.0430   21.7710   29.8280 C.3       1 PRO         0.1338
     38 C          34.1730   22.9610   30.1910 C.2       1 PRO         0.2042
     39 O          33.5070   22.9700   31.2330 O.2       1 PRO        -0.3944
     40 CB         34.4060   20.9990   28.6750 C.3       1 PRO        -0.0104
     41 CG         33.4580   20.0860   29.3500 C.3       1 PRO        -0.0281
     42 CD         34.1440   19.6670   30.6390 C.3       1 PRO         0.0369
     43 N          34.1980   23.9510   29.3150 N.am      1 THR        -0.2613
     44 CA         33.4100   25.1510   29.4720 C.3       1 THR         0.1565
     45 C          32.6090   25.3650   28.2030 C.2       1 THR         0.2065
     46 O          33.1500   25.2360   27.0990 O.2       1 THR        -0.3943
     47 CB         34.3310   26.3560   29.7070 C.3       1 THR         0.0924
     48 OG1        35.0050   26.1870   30.9610 O.3       1 THR        -0.3874
     49 CG2        33.5380   27.6560   29.7340 C.3       1 THR        -0.0346
     50 N          31.3200   25.6650   28.3530 N.am      1 SER        -0.2615
     51 CA         30.4610   25.9720   27.2180 C.3       1 SER         0.1539
     52 C          29.8540   27.3510   27.4070 C.2       1 SER         0.2062
     53 O          29.4150   27.7030   28.5070 O.2       1 SER        -0.3943
     54 CB         29.3440   24.9350   27.0690 C.3       1 SER         0.0843
     55 OG         29.8710   23.6540   26.7580 O.3       1 SER        -0.3903
     56 N          29.8510   28.1220   26.3270 N.am      1 ILE        -0.2634
     57 CA         29.1970   29.4210   26.2790 C.3       1 ILE         0.1335
     58 C          27.7660   29.1800   25.8270 C.2       1 ILE         0.2036
     59 O          27.5500   28.5690   24.7780 O.2       1 ILE        -0.3944
     60 CB         29.8880   30.3340   25.2440 C.3       1 ILE        -0.0037
     61 CG1        31.3990   30.4150   25.5000 C.3       1 ILE        -0.0491
     62 CG2        29.2270   31.7050   25.2030 C.3       1 ILE        -0.0582
     63 CD1        32.1780   31.0780   24.3710 C.3       1 ILE        -0.0648
     64 N          26.8000   29.6540   26.6130 N.am      1 ILE        -0.2692
     65 CA         25.3790   29.3930   26.3720 C.3       1 ILE         0.0969
     66 C          24.4840   30.6080   26.6160 C.2       1 ILE         0.0604
     67 O          24.9480   31.6600   27.1030 O.co2     1 ILE        -0.5666
     68 CB         24.8540   28.1980   27.2140 C.3       1 ILE        -0.0092
     69 CG1        24.9350   28.5020   28.7070 C.3       1 ILE        -0.0497
     70 CG2        25.6340   26.9290   26.8840 C.3       1 ILE        -0.0588
     71 CD1        24.2840   27.4330   29.5600 C.3       1 ILE        -0.0649
     72 OXT        23.2850   30.5110   26.3070 O.co2     1 ILE        -0.5666
     73 H          35.5858   23.0067   43.2672 H         1 ALA         0.2015
     74 H          37.1571   22.7165   42.8721 H         1 ALA         0.2015
     75 H          36.1430   21.4597   43.1906 H         1 ALA         0.2015
     76 H          34.8204   21.9243   41.3032 H         1 ALA         0.1095
     77 H          35.5878   23.6425   39.6948 H         1 ALA         0.0310
     78 H          36.8766   24.1343   40.8453 H         1 ALA         0.0310
     79 H          35.1488   24.3553   41.2841 H         1 ALA         0.0310
     80 H          36.1676   22.1705   38.8581 H         1 ASN         0.1886
     81 H          38.4393   20.2995   39.0070 H         1 ASN         0.0826
     82 H          35.9226   19.6101   37.4287 H         1 ASN         0.0551
     83 H          36.3357   18.9173   39.0338 H         1 ASN         0.0551
     84 H          37.6072   16.3022   36.9757 H         1 ASN         0.1814
     85 H          36.2034   16.8570   37.8253 H         1 ASN         0.1814
     86 H          39.8416   21.5470   37.9313 H         1 SER         0.1884
     87 H          39.1958   23.3565   35.8507 H         1 SER         0.0823
     88 H          41.2595   23.5069   37.1972 H         1 SER         0.0606
     89 H          41.6232   23.4704   35.4385 H         1 SER         0.0606
     90 H          42.9716   22.0560   36.6640 H         1 SER         0.2097
     91 H          39.4362   19.9574   35.7869 H         1 ARG         0.1883
     92 H          40.2948   19.7737   33.0007 H         1 ARG         0.0800
     93 H          40.0305   17.3644   33.2926 H         1 ARG         0.0313
     94 H          39.1965   17.6223   34.8625 H         1 ARG         0.0313
     95 H          41.3360   18.7729   35.6513 H         1 ARG         0.0301
     96 H          42.1131   18.1273   34.1661 H         1 ARG         0.0301
     97 H          42.5447   16.6173   36.0135 H         1 ARG         0.0689
     98 H          41.4206   15.8295   34.8549 H         1 ARG         0.0689
     99 H          39.8764   17.1600   36.8600 H         1 ARG         0.2642
    100 H          41.3793   13.5047   37.8111 H         1 ARG         0.2615
    101 H          42.1149   14.4421   36.4833 H         1 ARG         0.2615
    102 H          38.9433   15.9611   38.5540 H         1 ARG         0.2615
    103 H          39.6062   14.3598   38.9775 H         1 ARG         0.2615
    104 H          37.3075   20.2900   34.5966 H         1 ALA         0.1883
    105 H          35.6016   18.9923   32.6442 H         1 ALA         0.0797
    106 H          33.8060   20.3700   33.6332 H         1 ALA         0.0277
    107 H          35.0314   21.3091   34.5514 H         1 ALA         0.0277
    108 H          34.7904   19.5637   34.9011 H         1 ALA         0.0277
    109 H          36.0587   22.1103   29.5765 H         1 PRO         0.0802
    110 H          35.1647   20.4331   28.1145 H         1 PRO         0.0313
    111 H          33.8769   21.6794   27.9916 H         1 PRO         0.0313
    112 H          33.2555   19.2077   28.7195 H         1 PRO         0.0287
    113 H          32.5136   20.6059   29.5688 H         1 PRO         0.0287
    114 H          33.4150   19.5504   31.4545 H         1 PRO         0.0524
    115 H          34.6971   18.7258   30.5041 H         1 PRO         0.0524
    116 H          34.7865   23.8654   28.5110 H         1 THR         0.1884
    117 H          32.7286   25.0380   30.3281 H         1 THR         0.0826
    118 H          35.0726   26.4055   28.8961 H         1 THR         0.0639
    119 H          35.5192   25.3885   30.9378 H         1 THR         0.2101
    120 H          34.2230   28.4998   29.9036 H         1 THR         0.0257
    121 H          32.7967   27.6166   30.5458 H         1 THR         0.0257
    122 H          33.0216   27.7906   28.7721 H         1 THR         0.0257
    123 H          30.9300   25.6799   29.2737 H         1 SER         0.1884
    124 H          31.0700   25.9688   26.3020 H         1 SER         0.0823
    125 H          28.6671   25.2502   26.2613 H         1 SER         0.0606
    126 H          28.7838   24.8728   28.0136 H         1 SER         0.0606
    127 H          30.4535   23.3748   27.4546 H         1 SER         0.2097
    128 H          30.3206   27.7947   25.5070 H         1 ILE         0.1883
    129 H          29.2168   29.8951   27.2714 H         1 ILE         0.0803
    130 H          29.7501   29.8759   24.2535 H         1 ILE         0.0345
    131 H          31.7837   29.3931   25.6336 H         1 ILE         0.0267
    132 H          31.5644   30.9925   26.4215 H         1 ILE         0.0267
    133 H          28.1492   31.5870   25.0174 H         1 ILE         0.0235
    134 H          29.6746   32.3039   24.3962 H         1 ILE         0.0235
    135 H          29.3795   32.2146   26.1658 H         1 ILE         0.0235
    136 H          33.2477   31.0987   24.6265 H         1 ILE         0.0230
    137 H          31.8148   32.1066   24.2296 H         1 ILE         0.0230
    138 H          32.0340   30.5073   23.4417 H         1 ILE         0.0230
    139 H          27.0564   30.2124   27.4020 H         1 ILE         0.1875
    140 H          25.2816   29.1215   25.3105 H         1 ILE         0.0729
    141 H          23.7981   28.0320   26.9540 H         1 ILE         0.0338
    142 H          24.4299   29.4602   28.8985 H         1 ILE         0.0267
    143 H          25.9943   28.5824   28.9923 H         1 ILE         0.0267
    144 H          25.5644   26.7260   25.8051 H         1 ILE         0.0234
    145 H          25.2109   26.0823   27.4444 H         1 ILE         0.0234
    146 H          26.6891   27.0637   27.1644 H         1 ILE         0.0234
    147 H          24.3736   27.7062   30.6218 H         1 ILE         0.0230
    148 H          24.7850   26.4694   29.3858 H         1 ILE         0.0230
    149 H          23.2206   27.3471   29.2920 H         1 ILE         0.0230
@<TRIPOS>BOND
     1    1    2 1  
     2    2    3 1  
     3    2    5 1  
     4    3    4 2  
     5    3    6 am 
     6    6    7 1  
     7    7    8 1  
     8    7   10 1  
     9    8    9 2  
    10    8   14 am 
    11   10   11 1  
    12   11   12 2  
    13   11   13 am 
    14   14   15 1  
    15   15   16 1  
    16   15   18 1  
    17   16   17 2  
    18   16   20 am 
    19   18   19 1  
    20   20   21 1  
    21   21   22 1  
    22   21   24 1  
    23   22   23 2  
    24   22   31 am 
    25   24   25 1  
    26   25   26 1  
    27   26   27 1  
    28   27   28 ar 
    29   28   29 ar 
    30   28   30 ar 
    31   31   32 1  
    32   32   33 1  
    33   32   35 1  
    34   33   34 2  
    35   33   36 am 
    36   36   37 1  
    37   36   42 1  
    38   37   38 1  
    39   37   40 1  
    40   38   39 2  
    41   38   43 am 
    42   40   41 1  
    43   41   42 1  
    44   43   44 1  
    45   44   45 1  
    46   44   47 1  
    47   45   46 2  
    48   45   50 am 
    49   47   48 1  
    50   47   49 1  
    51   50   51 1  
    52   51   52 1  
    53   51   54 1  
    54   52   53 2  
    55   52   56 am 
    56   54   55 1  
    57   56   57 1  
    58   57   58 1  
    59   57   60 1  
    60   58   59 2  
    61   58   64 am 
    62   60   61 1  
    63   60   62 1  
    64   61   63 1  
    65   64   65 1  
    66   65   66 1  
    67   65   68 1  
    68   66   67 ar 
    69   66   72 ar 
    70   68   69 1  
    71   68   70 1  
    72   69   71 1  
    73    1   73 1  
    74    1   74 1  
    75    1   75 1  
    76    2   76 1  
    77    5   77 1  
    78    5   78 1  
    79    5   79 1  
    80    6   80 1  
    81    7   81 1  
    82   10   82 1  
    83   10   83 1  
    84   13   84 1  
    85   13   85 1  
    86   14   86 1  
    87   15   87 1  
    88   18   88 1  
    89   18   89 1  
    90   19   90 1  
    91   20   91 1  
    92   21   92 1  
    93   24   93 1  
    94   24   94 1  
    95   25   95 1  
    96   25   96 1  
    97   26   97 1  
    98   26   98 1  
    99   27   99 1  
   100   29  100 1  
   101   29  101 1  
   102   30  102 1  
   103   30  103 1  
   104   31  104 1  
   105   32  105 1  
   106   35  106 1  
   107   35  107 1  
   108   35  108 1  
   109   37  109 1  
   110   40  110 1  
   111   40  111 1  
   112   41  112 1  
   113   41  113 1  
   114   42  114 1  
   115   42  115 1  
   116   43  116 1  
   117   44  117 1  
   118   47  118 1  
   119   48  119 1  
   120   49  120 1  
   121   49  121 1  
   122   49  122 1  
   123   50  123 1  
   124   51  124 1  
   125   54  125 1  
   126   54  126 1  
   127   55  127 1  
   128   56  128 1  
   129   57  129 1  
   130   60  130 1  
   131   61  131 1  
   132   61  132 1  
   133   62  133 1  
   134   62  134 1  
   135   62  135 1  
   136   63  136 1  
   137   63  137 1  
   138   63  138 1  
   139   64  139 1  
   140   65  140 1  
   141   68  141 1  
   142   69  142 1  
   143   69  143 1  
   144   70  144 1  
   145   70  145 1  
   146   70  146 1  
   147   71  147 1  
   148   71  148 1  
   149   71  149 1  
@<TRIPOS>SUBSTRUCTURE
     1 ALA         1

