4q8y_ligand
  -I-interpret- 

 21 22  0  0  0  0  0  0  0  0999 V2000
   15.0320    0.1280   17.0050 S   0  0  0  0  0
   15.5520    1.2340   15.7460 C   0  0  0  0  0
   15.3070    2.5790   15.8690 C   0  0  0  0  0
   14.6170    3.0850   17.0380 C   0  0  0  0  0
   14.3860    4.4090   17.1650 C   0  0  0  0  0
   14.7960    5.3080   16.1320 C   0  0  0  0  0
   15.4570    4.8140   14.9910 C   0  0  0  0  0
   15.7130    3.4520   14.8700 C   0  0  0  0  0
   16.3650    2.9710   13.7590 C   0  0  0  0  0
   16.6060    1.6640   13.6410 C   0  0  0  0  0
   16.1980    0.7680   14.6720 N   0  0  0  0  0
   16.4490   -0.5340   14.5600 O   0  0  0  0  0
   14.4159    0.8106   17.9659 H   0  0  0  0  0
   14.5735    1.1139   15.2809 H   0  0  0  0  0
   14.2844    2.3967   17.8150 H   0  0  0  0  0
   13.8870    4.7924   18.0550 H   0  0  0  0  0
   14.5971    6.3754   16.2275 H   0  0  0  0  0
   15.7682    5.4990   14.2023 H   0  0  0  0  0
   16.6849    3.6573   12.9749 H   0  0  0  0  0
   17.1149    1.2814   12.7563 H   0  0  0  0  0
   16.1112   -0.9915   15.3334 H   0  0  0  0  0
  1  2  1  0  0  0
  2  3  1  0  0  0
  2 11  1  0  0  0
  3  4  4  0  0  0
  3  8  4  0  0  0
  4  5  4  0  0  0
  5  6  4  0  0  0
  6  7  4  0  0  0
  7  8  4  0  0  0
  8  9  1  0  0  0
  9 10  2  0  0  0
 10 11  1  0  0  0
 11 12  1  0  0  0
  1 13  1  0  0  0
  2 14  1  0  0  0
  4 15  1  0  0  0
  5 16  1  0  0  0
  6 17  1  0  0  0
  7 18  1  0  0  0
  9 19  1  0  0  0
 10 20  1  0  0  0
 12 21  1  0  0  0
M  END
$$$$
