4frj_ligand
  -I-interpret- 

 45 49  0  0  0  0  0  0  0  0999 V2000
   26.3100   47.1730   77.4560 F   0  0  0  0  0
   27.0210   47.0360   78.5910 C   0  0  0  0  0
   26.5490   46.1470   79.5490 C   0  0  0  0  0
   27.2640   45.9620   80.7300 C   0  0  0  0  0
   28.4340   46.6680   80.9560 C   0  0  0  0  0
   29.3170   46.4150   82.4350 Cl  0  0  0  0  0
   28.9020   47.5660   80.0030 C   0  0  0  0  0
   28.2030   47.7600   78.8080 C   0  0  0  0  0
   28.7040   48.6450   77.8430 C   0  0  0  0  0
   30.0610   48.6120   77.5340 C   0  0  0  0  0
   30.6060   49.4590   76.5790 C   0  0  0  0  0
   27.8840   49.5410   77.1680 C   0  0  0  0  0
   28.4130   50.3970   76.2210 C   0  0  0  0  0
   29.7620   50.3670   75.9210 C   0  0  0  0  0
   30.1800   51.2180   74.9720 O   0  0  0  0  0
   31.4960   51.2660   74.6490 C   0  0  0  0  0
   31.8910   52.2000   73.6900 C   0  0  0  0  0
   33.2300   52.3200   73.3000 C   0  0  0  0  0
   34.2020   51.4960   73.8820 C   0  0  0  0  0
   35.5460   51.5370   73.5530 O   0  0  0  0  0
   35.9410   52.4350   72.5110 C   0  0  0  0  0
   33.7950   50.5660   74.8310 C   0  0  0  0  0
   32.4620   50.4270   75.2200 C   0  0  0  0  0
   32.1100   49.3870   76.2730 C   0  0  0  0  0
   32.5240   47.9720   75.8200 C   0  0  0  0  0
   33.5690   47.5230   76.7770 O   0  0  0  0  0
   33.7890   48.5640   77.6530 C   0  0  0  0  0
   34.7050   48.4960   78.6220 N   0  0  0  0  0
   32.9850   49.6160   77.4530 N   0  0  0  0  0
   25.6237   45.5971   79.3771 H   0  0  0  0  0
   26.9012   45.2586   81.4795 H   0  0  0  0  0
   29.8205   48.1227   80.1891 H   0  0  0  0  0
   30.7093   47.9060   78.0531 H   0  0  0  0  0
   26.8166   49.5688   77.3869 H   0  0  0  0  0
   27.7607   51.1022   75.7059 H   0  0  0  0  0
   31.1421   52.8488   73.2358 H   0  0  0  0  0
   33.5157   53.0528   72.5453 H   0  0  0  0  0
   35.4245   52.1690   71.5887 H   0  0  0  0  0
   35.6803   53.4549   72.7938 H   0  0  0  0  0
   37.0180   52.3626   72.3596 H   0  0  0  0  0
   34.5450   49.9209   75.2887 H   0  0  0  0  0
   32.9029   47.9804   74.7980 H   0  0  0  0  0
   31.6714   47.2929   75.8201 H   0  0  0  0  0
   35.2694   47.6536   78.7320 H   0  0  0  0  0
   32.9744   50.4572   78.0298 H   0  0  0  0  0
  1  2  1  0  0  0
  2  3  4  0  0  0
  2  8  4  0  0  0
  3  4  4  0  0  0
  4  5  4  0  0  0
  5  6  1  0  0  0
  5  7  4  0  0  0
  7  8  4  0  0  0
  8  9  1  0  0  0
  9 10  4  0  0  0
  9 12  4  0  0  0
 10 11  4  0  0  0
 11 14  4  0  0  0
 11 24  1  0  0  0
 12 13  4  0  0  0
 13 14  4  0  0  0
 14 15  1  0  0  0
 15 16  1  0  0  0
 16 17  4  0  0  0
 16 23  4  0  0  0
 17 18  4  0  0  0
 18 19  4  0  0  0
 19 20  1  0  0  0
 19 22  4  0  0  0
 20 21  1  0  0  0
 22 23  4  0  0  0
 23 24  1  0  0  0
 24 25  1  0  0  0
 24 29  1  0  0  0
 25 26  1  0  0  0
 26 27  1  0  0  0
 27 28  2  0  0  0
 27 29  1  0  0  0
  3 30  1  0  0  0
  4 31  1  0  0  0
  7 32  1  0  0  0
 10 33  1  0  0  0
 12 34  1  0  0  0
 13 35  1  0  0  0
 17 36  1  0  0  0
 18 37  1  0  0  0
 21 38  1  0  0  0
 21 39  1  0  0  0
 21 40  1  0  0  0
 22 41  1  0  0  0
 25 42  1  0  0  0
 25 43  1  0  0  0
 28 44  1  0  0  0
 29 45  1  0  0  0
M  END
$$$$
