### 
### Created by X-TOOL on Mon Sep 10 21:13:09 2018
### 

@<TRIPOS>MOLECULE
4frj_ligand
   45    49     1     0     0
SMALL
GAST_HUCK


@<TRIPOS>ATOM
      1 F26        26.3100   47.1730   77.4560 F         1 DWB        -0.1818
      2 C20        27.0210   47.0360   78.5910 C.ar      1 DWB         0.1408
      3 C21        26.5490   46.1470   79.5490 C.ar      1 DWB        -0.0272
      4 C22        27.2640   45.9620   80.7300 C.ar      1 DWB        -0.0501
      5 C23        28.4340   46.6680   80.9560 C.ar      1 DWB         0.0362
      6 CL2        29.3170   46.4150   82.4350 Cl        1 DWB        -0.0745
      7 C24        28.9020   47.5660   80.0030 C.ar      1 DWB        -0.0423
      8 C14        28.2030   47.7600   78.8080 C.ar      1 DWB         0.0178
      9 C12        28.7040   48.6450   77.8430 C.ar      1 DWB        -0.0064
     10 C13        30.0610   48.6120   77.5340 C.ar      1 DWB        -0.0508
     11 C8         30.6060   49.4590   76.5790 C.ar      1 DWB        -0.0187
     12 C11        27.8840   49.5410   77.1680 C.ar      1 DWB        -0.0395
     13 C10        28.4130   50.3970   76.2210 C.ar      1 DWB         0.0011
     14 C9         29.7620   50.3670   75.9210 C.ar      1 DWB         0.1522
     15 O25        30.1800   51.2180   74.9720 O.3       1 DWB        -0.2134
     16 C4         31.4960   51.2660   74.6490 C.ar      1 DWB         0.1460
     17 C3         31.8910   52.2000   73.6900 C.ar      1 DWB        -0.0033
     18 C2         33.2300   52.3200   73.3000 C.ar      1 DWB        -0.0143
     19 C1         34.2020   51.4960   73.8820 C.ar      1 DWB         0.1017
     20 O28        35.5460   51.5370   73.5530 O.3       1 DWB        -0.3201
     21 C29        35.9410   52.4350   72.5110 C.3       1 DWB         0.0589
     22 C6         33.7950   50.5660   74.8310 C.ar      1 DWB        -0.0306
     23 C5         32.4620   50.4270   75.2200 C.ar      1 DWB        -0.0272
     24 C7         32.1100   49.3870   76.2730 C.3       1 DWB         0.0607
     25 C18        32.5240   47.9720   75.8200 C.3       1 DWB         0.0638
     26 O17        33.5690   47.5230   76.7770 O.3       1 DWB        -0.2738
     27 C16        33.7890   48.5640   77.6530 C.2       1 DWB         0.2185
     28 N19        34.7050   48.4960   78.6220 N.2       1 DWB        -0.3794
     29 N15        32.9850   49.6160   77.4530 N.pl3     1 DWB        -0.3188
     30 H1         25.6288   45.6001   79.3781 H         1 DWB         0.0603
     31 H2         26.9032   45.2625   81.4754 H         1 DWB         0.0609
     32 H3         29.8154   48.1196   80.1881 H         1 DWB         0.0613
     33 H4         30.7057   47.9099   78.0502 H         1 DWB         0.0715
     34 H5         26.8224   49.5686   77.3857 H         1 DWB         0.0760
     35 H6         27.7643   51.0983   75.7088 H         1 DWB         0.0635
     36 H7         31.1462   52.8452   73.2383 H         1 DWB         0.0620
     37 H8         33.5141   53.0487   72.5495 H         1 DWB         0.0715
     38 H9         37.0278   52.3629   72.3573 H         1 DWB         0.0576
     39 H10        35.6785   53.4647   72.7952 H         1 DWB         0.0576
     40 H11        35.4204   52.1676   71.5796 H         1 DWB         0.0576
     41 H12        34.5409   49.9245   75.2862 H         1 DWB         0.0608
     42 H13        32.9295   48.0016   74.7979 H         1 DWB         0.0465
     43 H14        31.6596   47.2925   75.8520 H         1 DWB         0.0465
     44 H15        34.8388   49.2772   79.2448 H         1 DWB         0.0489
     45 H16        32.9743   50.4654   78.0355 H         1 DWB         0.1720
@<TRIPOS>BOND
     1    1    2 1  
     2    2    3 ar 
     3    2    8 ar 
     4    3    4 ar 
     5    4    5 ar 
     6    5    6 1  
     7    5    7 ar 
     8    7    8 ar 
     9    8    9 1  
    10    9   10 ar 
    11    9   12 ar 
    12   10   11 ar 
    13   11   14 ar 
    14   11   24 1  
    15   12   13 ar 
    16   13   14 ar 
    17   14   15 1  
    18   15   16 1  
    19   16   17 ar 
    20   16   23 ar 
    21   17   18 ar 
    22   18   19 ar 
    23   19   20 1  
    24   19   22 ar 
    25   20   21 1  
    26   22   23 ar 
    27   23   24 1  
    28   24   25 1  
    29   24   29 1  
    30   25   26 1  
    31   26   27 1  
    32   27   28 2  
    33   27   29 1  
    34    3   30 1  
    35    4   31 1  
    36    7   32 1  
    37   10   33 1  
    38   12   34 1  
    39   13   35 1  
    40   17   36 1  
    41   18   37 1  
    42   21   38 1  
    43   21   39 1  
    44   21   40 1  
    45   22   41 1  
    46   25   42 1  
    47   25   43 1  
    48   28   44 1  
    49   29   45 1  
@<TRIPOS>SUBSTRUCTURE
     1 DWB         1

