2isw_ligand
  -I-interpret- 

 16 15  0  0  0  0  0  0  0  0999 V2000
  -24.8050   15.2140   57.1340 C   0  0  0  0  0
  -26.3380   14.9260   56.4970 C   0  0  0  0  0
  -24.3690   14.0710   57.5790 N   0  0  0  0  0
  -23.0360   14.2630   58.1280 O   0  0  0  0  0
  -24.3110   16.3160   57.1080 O   0  0  0  0  0
  -27.2340   15.6100   57.5300 O   0  0  0  0  0
  -29.4690   15.8600   58.5260 O   0  0  0  0  0
  -29.1090   14.1040   56.9150 O   0  0  0  0  0
  -29.1150   16.5000   56.0800 O   0  0  0  0  0
  -28.8030   15.5220   57.2660 P   0  0  0  0  0
  -26.5608   13.8678   56.3602 H   0  0  0  0  0
  -26.4682   15.3102   55.4853 H   0  0  0  0  0
  -24.8778   13.1875   57.5478 H   0  0  0  0  0
  -22.7040   13.4255   58.4596 H   0  0  0  0  0
  -28.6740   13.8789   56.0894 H   0  0  0  0  0
  -28.6432   16.2107   55.2956 H   0  0  0  0  0
  1  2  1  0  0  0
  1  3  1  0  0  0
  1  5  2  0  0  0
  2  6  1  0  0  0
  3  4  1  0  0  0
  6 10  1  0  0  0
 10  7  2  0  0  0
 10  8  1  0  0  0
 10  9  1  0  0  0
  2 11  1  0  0  0
  2 12  1  0  0  0
  3 13  1  0  0  0
  4 14  1  0  0  0
  8 15  1  0  0  0
  9 16  1  0  0  0
M  END
$$$$
