3fzn_ligand
  -I-interpret- 

 68 70  0  0  0  0  0  0  0  0999 V2000
  107.8070   41.3610   99.1990 P   0  0  0  0  0
  107.9080   41.2790  100.6960 O   0  0  0  0  0
  106.5640   40.9320   98.5630 O   0  0  0  0  0
  111.2130   41.8300   98.0640 O   0  0  0  0  0
  110.6680   40.7070   98.9010 P   0  0  0  0  0
  110.8350   40.8570  100.4090 O   0  0  0  0  0
  111.2970   39.2970   98.4450 O   0  0  0  0  0
  109.0410   40.4970   98.5070 O   0  0  0  0  0
  108.1550   42.8520   98.8390 O   0  0  0  0  0
  107.6820   43.4690   97.5880 C   0  0  0  0  0
  108.4960   44.7270   97.3960 C   0  0  0  0  0
  108.3520   45.4780   96.0430 C   0  0  0  0  0
  107.6850   46.6090   95.7590 C   0  0  0  0  0
  106.8450   47.3680   96.8440 C   0  0  0  0  0
  109.1320   44.8780   94.6460 S   0  0  0  0  0
  108.5680   46.2170   93.6360 C   0  0  0  0  0
  107.7800   47.0420   94.4380 N   0  0  0  0  0
  107.0630   48.3140   94.0440 C   0  0  0  0  0
  105.5980   48.1760   93.7800 C   0  0  0  0  0
  104.7000   48.9130   94.5800 C   0  0  0  0  0
  104.9860   47.4860   92.7040 C   0  0  0  0  0
  105.7730   46.7670   91.8970 N   0  0  0  0  0
  103.6090   47.4180   92.5660 N   0  0  0  0  0
  102.7770   48.1200   93.3610 C   0  0  0  0  0
  103.2810   48.8690   94.3620 N   0  0  0  0  0
  101.3660   48.0790   93.1380 C   0  0  0  0  0
  110.2000   48.7960   93.0470 O   0  0  0  0  0
  110.6460   47.5570   92.2990 P   0  0  0  0  0
  111.3290   47.7250   90.9950 O   0  0  0  0  0
  111.6430   46.7050   93.2680 O   0  0  0  0  0
  113.0720   46.7950   93.1090 C   0  0  0  0  0
  109.1110   46.3380   92.1700 C   0  0  0  0  0
  108.3400   47.1550   91.2880 O   0  0  0  0  0
  109.4730   45.0720   91.5690 C   0  0  0  0  0
  108.6440   44.4990   90.6110 C   0  0  0  0  0
  108.9430   43.2840   90.0090 C   0  0  0  0  0
  110.1080   42.6040   90.3570 C   0  0  0  0  0
  110.9570   43.1460   91.2990 C   0  0  0  0  0
  110.6490   44.3610   91.9080 C   0  0  0  0  0
  108.7722   41.5905  100.9748 H   0  0  0  0  0
  110.4565   40.0925  100.8493 H   0  0  0  0  0
  110.9360   38.5951   98.9915 H   0  0  0  0  0
  106.6176   43.6974   97.6435 H   0  0  0  0  0
  107.8090   42.7895   96.7453 H   0  0  0  0  0
  109.5382   44.4117   97.4461 H   0  0  0  0  0
  108.1422   45.4233   98.1563 H   0  0  0  0  0
  106.0630   46.7097   97.2223 H   0  0  0  0  0
  107.4982   47.6669   97.6638 H   0  0  0  0  0
  106.3920   48.2531   96.3974 H   0  0  0  0  0
  108.1311   46.6013   92.7143 H   0  0  0  0  0
  107.5153   48.6471   93.1099 H   0  0  0  0  0
  107.1621   48.9983   94.8866 H   0  0  0  0  0
  105.0936   49.5328   95.3856 H   0  0  0  0  0
  106.7781   46.7287   92.0664 H   0  0  0  0  0
  105.3683   46.2568   91.1119 H   0  0  0  0  0
  101.1468   48.4492   92.1365 H   0  0  0  0  0
  101.0143   47.0516   93.2320 H   0  0  0  0  0
  100.8645   48.7050   93.8760 H   0  0  0  0  0
  109.7760   48.5372   93.8685 H   0  0  0  0  0
  113.3459   46.4693   92.1055 H   0  0  0  0  0
  113.3883   47.8277   93.2562 H   0  0  0  0  0
  113.5592   46.1559   93.8454 H   0  0  0  0  0
  108.7519   47.1651   90.4209 H   0  0  0  0  0
  107.7307   45.0200   90.3235 H   0  0  0  0  0
  108.2669   42.8627   89.2650 H   0  0  0  0  0
  110.3470   41.6496   89.8877 H   0  0  0  0  0
  111.8736   42.6214   91.5686 H   0  0  0  0  0
  111.3253   44.7708   92.6582 H   0  0  0  0  0
  1  2  1  0  0  0
  1  3  2  0  0  0
  1  8  1  0  0  0
  9  1  1  0  0  0
  5  4  2  0  0  0
  5  6  1  0  0  0
  5  7  1  0  0  0
  8  5  1  0  0  0
 10  9  1  0  0  0
 11 10  1  0  0  0
 12 11  1  0  0  0
 13 12  2  0  0  0
 15 12  1  0  0  0
 13 14  1  0  0  0
 17 13  1  0  0  0
 16 15  1  0  0  0
 16 17  1  0  0  0
 32 16  1  0  0  0
 17 18  1  0  0  0
 18 19  1  0  0  0
 19 20  4  0  0  0
 19 21  4  0  0  0
 20 25  4  0  0  0
 21 22  1  0  0  0
 21 23  4  0  0  0
 23 24  4  0  0  0
 25 24  4  0  0  0
 24 26  1  0  0  0
 28 27  1  0  0  0
 28 29  2  0  0  0
 28 30  1  0  0  0
 28 32  1  0  0  0
 30 31  1  0  0  0
 32 33  1  0  0  0
 32 34  1  0  0  0
 34 35  4  0  0  0
 34 39  4  0  0  0
 35 36  4  0  0  0
 36 37  4  0  0  0
 37 38  4  0  0  0
 38 39  4  0  0  0
  2 40  1  0  0  0
  6 41  1  0  0  0
  7 42  1  0  0  0
 10 43  1  0  0  0
 10 44  1  0  0  0
 11 45  1  0  0  0
 11 46  1  0  0  0
 14 47  1  0  0  0
 14 48  1  0  0  0
 14 49  1  0  0  0
 16 50  1  0  0  0
 18 51  1  0  0  0
 18 52  1  0  0  0
 20 53  1  0  0  0
 22 54  1  0  0  0
 22 55  1  0  0  0
 26 56  1  0  0  0
 26 57  1  0  0  0
 26 58  1  0  0  0
 27 59  1  0  0  0
 31 60  1  0  0  0
 31 61  1  0  0  0
 31 62  1  0  0  0
 33 63  1  0  0  0
 35 64  1  0  0  0
 36 65  1  0  0  0
 37 66  1  0  0  0
 38 67  1  0  0  0
 39 68  1  0  0  0
M  END
$$$$
