1xp1_ligand
  -I-interpret- 

 66 70  0  0  0  0  0  0  0  0999 V2000
   31.0200   -0.1590   28.8830 C   0  0  0  0  0
   31.2290   -1.6020   28.3540 C   0  0  0  0  0
   29.9990   -2.3260   28.6030 O   0  0  0  0  0
   28.7870   -1.9020   28.1250 C   0  0  0  0  0
   27.8770   -2.9010   27.8170 C   0  0  0  0  0
   26.6200   -2.5960   27.2970 C   0  0  0  0  0
   26.2510   -1.2290   27.1610 C   0  0  0  0  0
   25.0100   -0.9830   26.6580 O   0  0  0  0  0
   27.1760   -0.2260   27.4850 C   0  0  0  0  0
   28.4710   -0.5330   27.9000 C   0  0  0  0  0
   29.4850    0.5350   28.2710 S   0  0  0  0  0
   32.3210    0.5570   28.5810 C   0  0  0  0  0
   32.5280    1.3640   27.4550 C   0  0  0  0  0
   33.7900    1.9610   27.3250 C   0  0  0  0  0
   34.8180    1.7460   28.2770 C   0  0  0  0  0
   36.0360    2.3080   28.1080 O   0  0  0  0  0
   34.6020    0.9470   29.4060 C   0  0  0  0  0
   33.3320    0.3420   29.5310 C   0  0  0  0  0
   31.6000   -1.7960   26.8740 C   0  0  0  0  0
   32.5980   -2.7670   26.6020 C   0  0  0  0  0
   33.0380   -3.0360   25.3010 C   0  0  0  0  0
   32.4280   -2.3410   24.2250 C   0  0  0  0  0
   31.4720   -1.3810   24.4850 C   0  0  0  0  0
   31.0490   -1.0880   25.8190 C   0  0  0  0  0
   32.8320   -2.5750   22.9510 O   0  0  0  0  0
   33.6620   -3.7020   22.6190 C   0  0  0  0  0
   33.8330   -3.8100   21.0910 C   0  0  0  0  0
   32.6000   -4.0420   20.3000 N   0  3  0  0  0
   33.0510   -4.0280   18.8880 C   0  0  0  0  0
   31.7120   -3.8610   18.1380 C   0  0  0  0  0
   31.8860   -3.5740   16.6460 C   0  0  0  0  0
   31.1200   -2.6760   18.9190 C   0  0  0  0  0
   29.5960   -2.6780   18.7890 C   0  0  0  0  0
   31.6110   -2.9360   20.3690 C   0  0  0  0  0
   30.8534   -0.0730   29.9568 H   0  0  0  0  0
   32.1090   -1.9629   28.8865 H   0  0  0  0  0
   28.1489   -3.9432   27.9843 H   0  0  0  0  0
   25.9337   -3.3892   27.0006 H   0  0  0  0  0
   24.8676   -0.0348   26.6099 H   0  0  0  0  0
   26.8751    0.8190   27.4105 H   0  0  0  0  0
   31.7441    1.5207   26.7140 H   0  0  0  0  0
   33.9857    2.6074   26.4694 H   0  0  0  0  0
   36.6058    2.0603   28.8398 H   0  0  0  0  0
   35.3795    0.7984   30.1553 H   0  0  0  0  0
   33.1323   -0.3064   30.3841 H   0  0  0  0  0
   33.0358   -3.3209   27.4324 H   0  0  0  0  0
   33.8303   -3.7620   25.1187 H   0  0  0  0  0
   31.0286   -0.8328   23.6537 H   0  0  0  0  0
   30.3016   -0.3164   26.0035 H   0  0  0  0  0
   33.1902   -4.6122   22.9891 H   0  0  0  0  0
   34.6418   -3.5694   23.0779 H   0  0  0  0  0
   34.4686   -4.6788   20.9198 H   0  0  0  0  0
   34.2245   -2.8471   20.7630 H   0  0  0  0  0
   32.1605   -4.8938   20.6488 H   0  0  0  0  0
   33.6047   -4.9211   18.5982 H   0  0  0  0  0
   33.7744   -3.2426   18.6690 H   0  0  0  0  0
   31.0863   -4.7533   18.1190 H   0  0  0  0  0
   32.4518   -2.6511   16.5184 H   0  0  0  0  0
   32.4239   -4.3990   16.1789 H   0  0  0  0  0
   30.9059   -3.4681   16.1810 H   0  0  0  0  0
   31.4288   -1.6934   18.5624 H   0  0  0  0  0
   29.3222   -2.5899   17.7376 H   0  0  0  0  0
   29.1995   -3.6098   19.1922 H   0  0  0  0  0
   29.1841   -1.8357   19.3449 H   0  0  0  0  0
   32.0644   -2.0385   20.7897 H   0  0  0  0  0
   30.7765   -3.2044   21.0168 H   0  0  0  0  0
  1  2  1  0  0  0
  1 11  1  0  0  0
  1 12  1  0  0  0
  2  3  1  0  0  0
  2 19  1  0  0  0
  3  4  1  0  0  0
  4  5  4  0  0  0
  4 10  4  0  0  0
  5  6  4  0  0  0
  6  7  4  0  0  0
  7  8  1  0  0  0
  7  9  4  0  0  0
  9 10  4  0  0  0
 10 11  1  0  0  0
 12 13  4  0  0  0
 12 18  4  0  0  0
 13 14  4  0  0  0
 14 15  4  0  0  0
 15 16  1  0  0  0
 15 17  4  0  0  0
 17 18  4  0  0  0
 19 20  4  0  0  0
 19 24  4  0  0  0
 20 21  4  0  0  0
 21 22  4  0  0  0
 22 23  4  0  0  0
 22 25  1  0  0  0
 23 24  4  0  0  0
 25 26  1  0  0  0
 26 27  1  0  0  0
 27 28  1  0  0  0
 28 29  1  0  0  0
 28 34  1  0  0  0
 29 30  1  0  0  0
 30 31  1  0  0  0
 30 32  1  0  0  0
 32 33  1  0  0  0
 32 34  1  0  0  0
  1 35  1  0  0  0
  2 36  1  0  0  0
  5 37  1  0  0  0
  6 38  1  0  0  0
  8 39  1  0  0  0
  9 40  1  0  0  0
 13 41  1  0  0  0
 14 42  1  0  0  0
 16 43  1  0  0  0
 17 44  1  0  0  0
 18 45  1  0  0  0
 20 46  1  0  0  0
 21 47  1  0  0  0
 23 48  1  0  0  0
 24 49  1  0  0  0
 26 50  1  0  0  0
 26 51  1  0  0  0
 27 52  1  0  0  0
 27 53  1  0  0  0
 28 54  1  0  0  0
 29 55  1  0  0  0
 29 56  1  0  0  0
 30 57  1  0  0  0
 31 58  1  0  0  0
 31 59  1  0  0  0
 31 60  1  0  0  0
 32 61  1  0  0  0
 33 62  1  0  0  0
 33 63  1  0  0  0
 33 64  1  0  0  0
 34 65  1  0  0  0
 34 66  1  0  0  0
M  END
$$$$
