3nu9_ligand
  -I-interpret- 

 70 72  0  0  0  0  0  0  0  0999 V2000
   17.1050   25.3570   18.6600 C   0  0  0  0  0
   15.1580   24.5540   19.8520 C   0  0  0  0  0
   14.8220   22.7010   17.4170 C   0  0  0  0  0
   15.7230   24.7330   18.4450 C   0  0  0  0  0
   14.1860   20.5200   16.4720 C   0  0  0  0  0
   13.7730   19.4420   17.4770 C   0  0  0  0  0
   14.8270   19.9860   15.1780 C   0  0  0  0  0
   15.1930   21.1350   14.2640 C   0  0  0  0  0
   16.4970   21.6270   14.2470 C   0  0  0  0  0
   14.2200   21.7130   13.4400 C   0  0  0  0  0
   16.8420   22.6940   13.4160 C   0  0  0  0  0
   14.5450   22.7920   12.6110 C   0  0  0  0  0
   15.8570   23.2750   12.6040 C   0  0  0  0  0
   12.6420   18.5160   17.0120 C   0  0  0  0  0
   10.4250   19.1550   18.1220 C   0  0  0  0  0
   11.0040   19.7630   19.3990 C   0  0  0  0  0
    9.9340   18.1410   15.0860 C   0  0  0  0  0
   10.5890   17.1810   14.3070 C   0  0  0  0  0
    9.9470   16.0090   13.8900 C   0  0  0  0  0
    8.6350   15.7530   14.2700 C   0  0  0  0  0
    7.9550   16.7100   15.0280 C   0  0  0  0  0
    8.6080   17.8940   15.4350 C   0  0  0  0  0
   11.1940   21.2720   19.3110 C   0  0  0  0  0
    9.9950   19.4420   20.4900 C   0  0  0  0  0
   16.2990   24.9320   20.8000 C   0  0  0  0  0
   15.0990   21.4320   17.1390 N   0  0  0  0  0
   11.3000   19.1120   16.9590 N   0  0  0  0  0
    8.0050   14.6090   13.8580 N   0  0  0  0  0
   15.9820   23.4470   17.8920 O   0  0  0  0  0
   13.7190   23.2350   17.3230 O   0  0  0  0  0
   14.9210   18.6190   17.7610 O   0  0  0  0  0
   11.7900   19.7810   14.6570 O   0  0  0  0  0
    9.7180   20.5240   15.6980 O   0  0  0  0  0
   17.4780   24.9720   19.9860 O   0  0  0  0  0
   10.7060   19.4960   15.5710 S   0  0  0  0  0
   17.0834   26.4405   18.5432 H   0  0  0  0  0
   17.8259   25.0110   17.9193 H   0  0  0  0  0
   14.8201   23.5315   20.0203 H   0  0  0  0  0
   14.2801   25.1796   20.0132 H   0  0  0  0  0
   15.0504   25.3104   17.8107 H   0  0  0  0  0
   13.2728   21.0188   16.1476 H   0  0  0  0  0
   13.3971   19.9793   18.3477 H   0  0  0  0  0
   14.1148   19.3372   14.6682 H   0  0  0  0  0
   15.7294   19.4290   15.4301 H   0  0  0  0  0
   17.2537   21.1747   14.8881 H   0  0  0  0  0
   13.2033   21.3201   13.4444 H   0  0  0  0  0
   17.8645   23.0712   13.3983 H   0  0  0  0  0
   13.7848   23.2504   11.9784 H   0  0  0  0  0
   16.1178   24.1141   11.9590 H   0  0  0  0  0
   12.5889   17.7083   17.7420 H   0  0  0  0  0
   12.8869   18.2236   15.9909 H   0  0  0  0  0
    9.5860   19.7918   17.8415 H   0  0  0  0  0
   10.1960   18.1168   18.3624 H   0  0  0  0  0
   11.9951   19.3510   19.5888 H   0  0  0  0  0
   11.6261   17.3500   14.0173 H   0  0  0  0  0
   10.4792   15.2931   13.2636 H   0  0  0  0  0
    6.9148   16.5416   15.3066 H   0  0  0  0  0
    8.0656   18.6270   16.0322 H   0  0  0  0  0
   11.8784   21.5038   18.4949 H   0  0  0  0  0
   10.2311   21.7480   19.1256 H   0  0  0  0  0
   11.6079   21.6401   20.2497 H   0  0  0  0  0
    9.0329   19.8867   20.2356 H   0  0  0  0  0
    9.8858   18.3609   20.5754 H   0  0  0  0  0
   10.3455   19.8491   21.4384 H   0  0  0  0  0
   16.3988   24.2109   21.6113 H   0  0  0  0  0
   16.1150   25.8918   21.2827 H   0  0  0  0  0
   16.0142   21.0739   17.4122 H   0  0  0  0  0
    8.4988   13.9388   13.2687 H   0  0  0  0  0
    7.0419   14.4271   14.1405 H   0  0  0  0  0
   15.6466   19.1744   18.0552 H   0  0  0  0  0
  4  1  1  0  0  0
  1 34  1  0  0  0
  4  2  1  0  0  0
  2 25  1  0  0  0
 26  3  1  0  0  0
  3 29  1  0  0  0
  3 30  2  0  0  0
 29  4  1  0  0  0
  6  5  1  0  0  0
  5  7  1  0  0  0
  5 26  1  0  0  0
 14  6  1  0  0  0
  6 31  1  0  0  0
  7  8  1  0  0  0
  8  9  4  0  0  0
  8 10  4  0  0  0
  9 11  4  0  0  0
 10 12  4  0  0  0
 11 13  4  0  0  0
 12 13  4  0  0  0
 27 14  1  0  0  0
 15 16  1  0  0  0
 27 15  1  0  0  0
 16 23  1  0  0  0
 16 24  1  0  0  0
 17 18  4  0  0  0
 17 22  4  0  0  0
 35 17  1  0  0  0
 18 19  4  0  0  0
 19 20  4  0  0  0
 21 20  4  0  0  0
 20 28  1  0  0  0
 22 21  4  0  0  0
 25 34  1  0  0  0
 27 35  1  0  0  0
 35 32  2  0  0  0
 35 33  2  0  0  0
  1 36  1  0  0  0
  1 37  1  0  0  0
  2 38  1  0  0  0
  2 39  1  0  0  0
  4 40  1  0  0  0
  5 41  1  0  0  0
  6 42  1  0  0  0
  7 43  1  0  0  0
  7 44  1  0  0  0
  9 45  1  0  0  0
 10 46  1  0  0  0
 11 47  1  0  0  0
 12 48  1  0  0  0
 13 49  1  0  0  0
 14 50  1  0  0  0
 14 51  1  0  0  0
 15 52  1  0  0  0
 15 53  1  0  0  0
 16 54  1  0  0  0
 18 55  1  0  0  0
 19 56  1  0  0  0
 21 57  1  0  0  0
 22 58  1  0  0  0
 23 59  1  0  0  0
 23 60  1  0  0  0
 23 61  1  0  0  0
 24 62  1  0  0  0
 24 63  1  0  0  0
 24 64  1  0  0  0
 25 65  1  0  0  0
 25 66  1  0  0  0
 26 67  1  0  0  0
 28 68  1  0  0  0
 28 69  1  0  0  0
 31 70  1  0  0  0
M  END
$$$$
