3tpr_ligand
  -I-interpret- 

 80 83  0  0  0  0  0  0  0  0999 V2000
   62.4840   47.5100    8.8550 C   0  0  0  0  0
   63.9690   47.2340    8.8690 C   0  0  0  0  0
   63.2960   47.9270   10.0700 C   0  0  0  0  0
   64.7250   48.1590    7.9970 N   0  3  0  0  0
   66.1490   47.9030    8.1500 C   0  0  0  0  0
   66.9020   49.0400    7.4850 C   0  0  0  0  0
   68.3160   48.9290    7.9120 C   0  0  0  0  0
   68.9510   47.6670    7.4500 N   0  0  0  0  0
   69.0490   46.6130    8.2860 C   0  0  0  0  0
   68.4160   46.5130    9.3430 O   0  0  0  0  0
   66.4040   50.3210    7.8760 O   0  0  0  0  0
   69.1060   50.0840    7.3980 C   0  0  0  0  0
   69.7340   45.3860    7.6610 C   0  0  0  0  0
   70.8140   45.5120    6.7860 C   0  0  0  0  0
   71.3810   44.3950    6.1890 C   0  0  0  0  0
   70.8670   43.1050    6.4020 C   0  0  0  0  0
   69.7930   42.9850    7.3240 C   0  0  0  0  0
   69.2210   44.1290    7.9310 C   0  0  0  0  0
   72.4900   44.6600    5.2300 C   0  0  0  0  0
   69.1290   41.8320    7.5980 N   0  0  0  0  0
   73.2230   43.8380    4.7480 O   0  0  0  0  0
   68.8930   41.4820    9.0270 C   0  0  0  0  0
   69.4040   40.4940    6.6800 S   0  0  0  0  0
   70.8840   39.6150    7.2220 C   0  0  0  0  0
   68.1800   39.6600    7.0080 O   0  0  0  0  0
   69.6080   40.7220    5.1880 O   0  0  0  0  0
   71.1640   49.8310    8.9030 C   0  0  0  0  0
   72.5400   49.6690    9.0700 C   0  0  0  0  0
   73.4090   49.5370    8.0020 C   0  0  0  0  0
   72.8550   49.5970    6.7460 C   0  0  0  0  0
   71.4890   49.7530    6.5610 C   0  0  0  0  0
   70.6300   49.8740    7.6230 C   0  0  0  0  0
   72.4590   45.8200    4.6560 N   0  0  0  0  0
   73.5010   46.0490    3.7000 C   0  0  0  0  0
   74.1180   47.3720    4.1460 C   0  0  0  0  0
   72.9050   46.0870    2.2980 C   0  0  0  0  0
   71.7060   46.7360    2.0440 C   0  0  0  0  0
   71.2190   46.7490    0.7050 C   0  0  0  0  0
   71.8930   46.1320   -0.3330 C   0  0  0  0  0
   73.0930   45.4900   -0.0540 C   0  0  0  0  0
   73.6030   45.4760    1.2530 C   0  0  0  0  0
   61.5629   46.9656    8.6468 H   0  0  0  0  0
   61.7511   47.9544    8.1817 H   0  0  0  0  0
   64.6030   46.3564    8.7431 H   0  0  0  0  0
   63.2580   47.8420   11.1560 H   0  0  0  0  0
   63.4405   48.8012   10.7048 H   0  0  0  0  0
   64.5199   49.1228    8.2605 H   0  0  0  0  0
   64.4531   48.0126    7.0249 H   0  0  0  0  0
   66.4135   46.9529    7.6858 H   0  0  0  0  0
   66.4104   47.8445    9.2066 H   0  0  0  0  0
   66.7834   48.9620    6.4043 H   0  0  0  0  0
   68.3131   48.9282    9.0020 H   0  0  0  0  0
   69.3133   47.5979    6.4990 H   0  0  0  0  0
   65.4871   50.4034    7.6037 H   0  0  0  0  0
   68.7972   50.9809    7.9349 H   0  0  0  0  0
   68.9240   50.1788    6.3275 H   0  0  0  0  0
   71.2175   46.5010    6.5687 H   0  0  0  0  0
   71.2735   42.2365    5.8838 H   0  0  0  0  0
   68.3763   44.0199    8.6112 H   0  0  0  0  0
   69.8504   41.3863    9.5392 H   0  0  0  0  0
   68.3036   42.2677    9.4996 H   0  0  0  0  0
   68.3530   40.5369    9.0839 H   0  0  0  0  0
   70.8322   39.4478    8.2979 H   0  0  0  0  0
   70.9450   38.6565    6.7066 H   0  0  0  0  0
   71.7656   40.2116    6.9878 H   0  0  0  0  0
   70.5130   49.9232    9.7724 H   0  0  0  0  0
   72.9457   49.6456   10.0814 H   0  0  0  0  0
   74.4793   49.3927    8.1493 H   0  0  0  0  0
   73.5045   49.5202    5.8740 H   0  0  0  0  0
   71.0890   49.7800    5.5474 H   0  0  0  0  0
   71.7464   46.5182    4.8684 H   0  0  0  0  0
   74.2618   45.2695    3.6579 H   0  0  0  0  0
   73.3572   48.1523    4.1230 H   0  0  0  0  0
   74.5032   47.2681    5.1603 H   0  0  0  0  0
   74.9326   47.6371    3.4720 H   0  0  0  0  0
   71.1516   47.2226    2.8464 H   0  0  0  0  0
   70.2821   47.2634    0.4913 H   0  0  0  0  0
   71.4921   46.1490   -1.3464 H   0  0  0  0  0
   73.6414   44.9943   -0.8550 H   0  0  0  0  0
   74.5539   44.9832    1.4554 H   0  0  0  0  0
  2  1  1  0  0  0
  3  1  1  0  0  0
  2  3  1  0  0  0
  4  2  1  0  0  0
  5  4  1  0  0  0
  6  5  1  0  0  0
  7  6  1  0  0  0
  6 11  1  0  0  0
  7  8  1  0  0  0
 12  7  1  0  0  0
  8  9  1  0  0  0
  9 10  2  0  0  0
  9 13  1  0  0  0
 32 12  1  0  0  0
 13 14  4  0  0  0
 13 18  4  0  0  0
 14 15  4  0  0  0
 15 16  4  0  0  0
 15 19  1  0  0  0
 17 16  4  0  0  0
 18 17  4  0  0  0
 17 20  1  0  0  0
 19 21  2  0  0  0
 19 33  1  0  0  0
 20 22  1  0  0  0
 20 23  1  0  0  0
 23 24  1  0  0  0
 23 25  2  0  0  0
 23 26  2  0  0  0
 27 28  4  0  0  0
 27 32  4  0  0  0
 28 29  4  0  0  0
 29 30  4  0  0  0
 30 31  4  0  0  0
 31 32  4  0  0  0
 33 34  1  0  0  0
 34 35  1  0  0  0
 34 36  1  0  0  0
 36 37  4  0  0  0
 36 41  4  0  0  0
 37 38  4  0  0  0
 38 39  4  0  0  0
 39 40  4  0  0  0
 40 41  4  0  0  0
  1 42  1  0  0  0
  1 43  1  0  0  0
  2 44  1  0  0  0
  3 45  1  0  0  0
  3 46  1  0  0  0
  4 47  1  0  0  0
  4 48  1  0  0  0
  5 49  1  0  0  0
  5 50  1  0  0  0
  6 51  1  0  0  0
  7 52  1  0  0  0
  8 53  1  0  0  0
 11 54  1  0  0  0
 12 55  1  0  0  0
 12 56  1  0  0  0
 14 57  1  0  0  0
 16 58  1  0  0  0
 18 59  1  0  0  0
 22 60  1  0  0  0
 22 61  1  0  0  0
 22 62  1  0  0  0
 24 63  1  0  0  0
 24 64  1  0  0  0
 24 65  1  0  0  0
 27 66  1  0  0  0
 28 67  1  0  0  0
 29 68  1  0  0  0
 30 69  1  0  0  0
 31 70  1  0  0  0
 33 71  1  0  0  0
 34 72  1  0  0  0
 35 73  1  0  0  0
 35 74  1  0  0  0
 35 75  1  0  0  0
 37 76  1  0  0  0
 38 77  1  0  0  0
 39 78  1  0  0  0
 40 79  1  0  0  0
 41 80  1  0  0  0
M  END
$$$$
