4zur_ligand
  -I-interpret- 

 28 27  0  0  0  0  0  0  0  0999 V2000
   -0.9390  -10.7290  -31.2320 O   0  0  0  0  0
   -1.3070   -9.8640  -30.2300 N   0  0  0  0  0
   -2.4420   -9.2660  -30.2040 C   0  0  0  0  0
   -3.2910   -9.4390  -31.0240 O   0  0  0  0  0
   -2.6710   -8.4010  -28.9740 C   0  0  0  0  0
   -3.2030   -7.0330  -29.3100 C   0  0  0  0  0
   -3.5550   -6.3070  -28.0210 C   0  0  0  0  0
   -4.0160   -4.9030  -28.3490 C   0  0  0  0  0
   -4.4780   -4.1530  -27.1090 C   0  0  0  0  0
   -4.8910   -2.7420  -27.5020 C   0  0  0  0  0
   -5.2300   -2.0000  -26.2960 N   0  3  0  0  0
   -0.0559  -11.0624  -31.0571 H   0  0  0  0  0
   -0.6475   -9.6891  -29.4718 H   0  0  0  0  0
   -1.7107   -8.2713  -28.4749 H   0  0  0  0  0
   -3.4103   -8.9011  -28.3484 H   0  0  0  0  0
   -4.0926   -7.1278  -29.9327 H   0  0  0  0  0
   -2.4462   -6.4683  -29.8545 H   0  0  0  0  0
   -2.6777   -6.2621  -27.3757 H   0  0  0  0  0
   -4.3527   -6.8425  -27.5062 H   0  0  0  0  0
   -4.8566   -4.9720  -29.0395 H   0  0  0  0  0
   -3.1763   -4.3605  -28.7833 H   0  0  0  0  0
   -3.6646   -4.1076  -26.3849 H   0  0  0  0  0
   -5.3267   -4.6716  -26.6630 H   0  0  0  0  0
   -5.7539   -2.7811  -28.1668 H   0  0  0  0  0
   -4.0701   -2.2478  -28.0216 H   0  0  0  0  0
   -5.5085   -1.0518  -26.5486 H   0  0  0  0  0
   -6.0007   -2.4658  -25.8170 H   0  0  0  0  0
   -4.4174   -1.9644  -25.6805 H   0  0  0  0  0
  1  2  1  0  0  0
  2  3  1  0  0  0
  3  4  2  0  0  0
  3  5  1  0  0  0
  5  6  1  0  0  0
  6  7  1  0  0  0
  7  8  1  0  0  0
  8  9  1  0  0  0
  9 10  1  0  0  0
 10 11  1  0  0  0
  1 12  1  0  0  0
  2 13  1  0  0  0
  5 14  1  0  0  0
  5 15  1  0  0  0
  6 16  1  0  0  0
  6 17  1  0  0  0
  7 18  1  0  0  0
  7 19  1  0  0  0
  8 20  1  0  0  0
  8 21  1  0  0  0
  9 22  1  0  0  0
  9 23  1  0  0  0
 10 24  1  0  0  0
 10 25  1  0  0  0
 11 26  1  0  0  0
 11 27  1  0  0  0
 11 28  1  0  0  0
M  END
$$$$
