4bdg_ligand
  -I-interpret- 

 19 20  0  0  0  0  0  0  0  0999 V2000
  -36.4030   35.0950    7.1750 C   0  0  0  0  0
  -37.0160   33.9730    7.7600 C   0  0  0  0  0
  -35.7330   36.0430    7.8180 N   0  0  0  0  0
  -36.6190   35.0640    5.8160 N   0  0  0  0  0
  -38.4410   31.2160    7.9380 C   0  0  0  0  0
  -38.3540   31.9790    6.7810 C   0  0  0  0  0
  -37.6110   33.2530    6.7480 C   0  0  0  0  0
  -39.1130   30.0580    8.0200 N   0  0  0  0  0
  -39.7310   29.6240    6.9160 C   0  0  0  0  0
  -39.7060   30.3060    5.7130 C   0  0  0  0  0
  -39.0040   31.4970    5.6500 C   0  0  0  0  0
  -37.3580   33.9350    5.6100 N   0  0  0  0  0
  -37.0196   33.7195    8.8201 H   0  0  0  0  0
  -35.6272   35.9948    8.8314 H   0  0  0  0  0
  -35.3238   36.8198    7.2989 H   0  0  0  0  0
  -37.9336   31.5793    8.8317 H   0  0  0  0  0
  -40.2824   28.6851    6.9670 H   0  0  0  0  0
  -40.2254   29.9158    4.8378 H   0  0  0  0  0
  -38.9606   32.0563    4.7155 H   0  0  0  0  0
  2  1  4  0  0  0
  1  3  1  0  0  0
  1  4  4  0  0  0
  7  2  4  0  0  0
  4 12  4  0  0  0
  6  5  4  0  0  0
  5  8  4  0  0  0
  6  7  1  0  0  0
  6 11  4  0  0  0
  7 12  4  0  0  0
  8  9  4  0  0  0
  9 10  4  0  0  0
 10 11  4  0  0  0
  2 13  1  0  0  0
  3 14  1  0  0  0
  3 15  1  0  0  0
  5 16  1  0  0  0
  9 17  1  0  0  0
 10 18  1  0  0  0
 11 19  1  0  0  0
M  END
$$$$
