6qmu_ligand
  -I-interpret- 

 15 15  0  0  0  0  0  0  0  0999 V2000
  -23.3950   -9.7900    5.6890 C   0  0  0  0  0
  -22.9360  -10.9830    5.1700 C   0  0  0  0  0
  -23.2940  -11.2560    3.8580 C   0  0  0  0  0
  -24.0350  -10.3890    3.0790 C   0  0  0  0  0
  -24.4510   -9.1850    3.6170 C   0  0  0  0  0
  -24.1450   -8.9130    4.9220 C   0  0  0  0  0
  -22.8560  -12.4980    3.2610 N   0  0  0  0  0
  -23.1970   -9.2670    6.9420 O   0  0  0  0  0
  -22.2260  -13.2830    3.9570 O   0  0  0  0  0
  -23.1300  -12.6910    2.0770 O   0  0  0  0  0
  -22.3274  -11.6710    5.7568 H   0  0  0  0  0
  -24.2890  -10.6509    2.0519 H   0  0  0  0  0
  -25.0101   -8.4689    3.0147 H   0  0  0  0  0
  -24.4995   -7.9843    5.3692 H   0  0  0  0  0
  -23.6416   -8.4187    7.0074 H   0  0  0  0  0
  1  2  4  0  0  0
  1  6  4  0  0  0
  1  8  1  0  0  0
  2  3  4  0  0  0
  3  4  4  0  0  0
  3  7  1  0  0  0
  4  5  4  0  0  0
  5  6  4  0  0  0
  7  9  2  0  0  0
  7 10  2  0  0  0
  2 11  1  0  0  0
  4 12  1  0  0  0
  5 13  1  0  0  0
  6 14  1  0  0  0
  8 15  1  0  0  0
M  END
$$$$
