2iw9_ligand
  -I-interpret- 

 49 52  0  0  0  0  0  0  0  0999 V2000
    7.7900   43.7290   49.8420 C   0  0  0  0  0
   10.6640   46.3810   51.9930 C   0  0  0  0  0
    4.9380   45.7440   51.8420 C   0  0  0  0  0
    4.0580   46.0110   53.0440 C   0  0  0  0  0
    2.6180   45.5960   52.7190 C   0  0  0  0  0
    1.7050   45.8360   53.9210 C   0  0  0  0  0
    2.2770   45.3040   55.2360 C   0  0  0  0  0
    3.7340   45.7260   55.4460 C   0  0  0  0  0
    4.5760   45.2560   54.2720 C   0  0  0  0  0
    4.1300   41.3120   49.9790 C   0  0  0  0  0
    3.7920   40.6400   48.7970 C   0  0  0  0  0
    4.6640   40.7210   47.7110 C   0  0  0  0  0
    5.8660   41.4390   47.8020 C   0  0  0  0  0
    1.3840   40.3000   49.6640 N   0  0  0  0  0
    6.8680   44.3970   50.5810 N   0  0  0  0  0
    7.2280   45.3720   51.4530 C   0  0  0  0  0
    6.2870   46.0290   52.1840 O   0  0  0  0  0
    8.6560   45.7010   51.5950 C   0  0  0  0  0
    9.3640   46.5760   52.3340 N   0  0  0  0  0
   10.7880   45.3880   51.0620 N   0  0  0  0  0
    9.5310   44.9790   50.8070 C   0  0  0  0  0
    9.1190   44.0070   49.9570 N   0  0  0  0  0
    7.3900   42.7670   48.9840 N   0  0  0  0  0
    6.2030   42.1010   48.9740 C   0  0  0  0  0
    5.3360   42.0230   50.0800 C   0  0  0  0  0
    2.4060   39.8040   48.6540 S   0  0  0  0  0
    2.6670   38.3710   48.8940 O   0  0  0  0  0
    1.8510   40.0060   47.3150 O   0  0  0  0  0
   11.5003   46.9436   52.4080 H   0  0  0  0  0
    4.6277   46.3777   51.0112 H   0  0  0  0  0
    4.8470   44.6993   51.5447 H   0  0  0  0  0
    4.0800   47.0759   53.2757 H   0  0  0  0  0
    2.6037   44.5347   52.4708 H   0  0  0  0  0
    2.2599   46.1911   51.8790 H   0  0  0  0  0
    0.7697   45.3087   53.7330 H   0  0  0  0  0
    1.5815   46.9136   54.0291 H   0  0  0  0  0
    2.2404   44.2150   55.2057 H   0  0  0  0  0
    1.6842   45.7135   56.0539 H   0  0  0  0  0
    4.1118   45.2774   56.3648 H   0  0  0  0  0
    3.7892   46.8122   55.5190 H   0  0  0  0  0
    5.6334   45.4595   54.4408 H   0  0  0  0  0
    4.4913   44.1780   54.1347 H   0  0  0  0  0
    3.4489   41.2823   50.8295 H   0  0  0  0  0
    4.4077   40.2191   46.7780 H   0  0  0  0  0
    6.5398   41.4770   46.9460 H   0  0  0  0  0
    1.0005   39.6588   50.3584 H   0  0  0  0  0
    1.0817   41.2740   49.6474 H   0  0  0  0  0
    8.0565   42.5083   48.2565 H   0  0  0  0  0
    5.6013   42.5151   51.0157 H   0  0  0  0  0
  1 15  4  0  0  0
  1 22  4  0  0  0
 23  1  1  0  0  0
  2 19  4  0  0  0
 20  2  4  0  0  0
  3  4  1  0  0  0
 17  3  1  0  0  0
  4  5  1  0  0  0
  4  9  1  0  0  0
  5  6  1  0  0  0
  6  7  1  0  0  0
  8  7  1  0  0  0
  9  8  1  0  0  0
 11 10  4  0  0  0
 10 25  4  0  0  0
 12 11  4  0  0  0
 11 26  1  0  0  0
 13 12  4  0  0  0
 24 13  4  0  0  0
 26 14  1  0  0  0
 15 16  4  0  0  0
 16 17  1  0  0  0
 16 18  4  0  0  0
 18 19  4  0  0  0
 21 18  4  0  0  0
 21 20  4  0  0  0
 22 21  4  0  0  0
 23 24  1  0  0  0
 24 25  4  0  0  0
 26 27  2  0  0  0
 26 28  2  0  0  0
  2 29  1  0  0  0
  3 30  1  0  0  0
  3 31  1  0  0  0
  4 32  1  0  0  0
  5 33  1  0  0  0
  5 34  1  0  0  0
  6 35  1  0  0  0
  6 36  1  0  0  0
  7 37  1  0  0  0
  7 38  1  0  0  0
  8 39  1  0  0  0
  8 40  1  0  0  0
  9 41  1  0  0  0
  9 42  1  0  0  0
 10 43  1  0  0  0
 12 44  1  0  0  0
 13 45  1  0  0  0
 14 46  1  0  0  0
 14 47  1  0  0  0
 23 48  1  0  0  0
 25 49  1  0  0  0
M  END
$$$$
