### 
### Created by X-TOOL on Mon Sep 10 21:13:11 2018
### 

@<TRIPOS>MOLECULE
4f9g_ligand
   68    74     1     0     0
SMALL
GAST_HUCK


@<TRIPOS>ATOM
      1 P1         12.8350    7.7190   12.5880 P.3       1 C2E         0.2557
      2 O2P        11.7720    6.6180   12.8120 O.co2     1 C2E        -0.6177
      3 O1P        13.5100    7.4720   11.1790 O.co2     1 C2E        -0.6177
      4 O5'        13.9000    7.5670   13.7820 O.3       1 C2E        -0.2514
      5 C5'        13.6280    7.7150   15.0910 C.3       1 C2E         0.1128
      6 C4'        14.8330    7.6180   15.9230 C.3       1 C2E         0.1242
      7 O4'        15.6400    6.6120   15.4300 O.3       1 C2E        -0.3359
      8 C3'        15.7090    8.7640   15.7610 C.3       1 C2E         0.1540
      9 O3'        15.2580    9.9090   16.4240 O.3       1 C2E        -0.2453
     10 C2'        16.9300    8.2950   16.2740 C.3       1 C2E         0.1440
     11 O2'        16.9050    8.3300   17.6770 O.3       1 C2E        -0.3832
     12 C1'        16.9650    6.9000   15.7960 C.3       1 C2E         0.1996
     13 N9         17.7860    6.6490   14.6130 N.pl3     1 C2E        -0.2101
     14 C8         17.2940    6.7150   13.3720 C.2       1 C2E         0.0957
     15 N7         18.2590    6.4250   12.4850 N.2       1 C2E        -0.3235
     16 C5         19.3980    6.1730   13.1420 C.2       1 C2E         0.0926
     17 C6         20.6920    5.8180   12.7130 C.2       1 C2E         0.2135
     18 O6         20.9730    5.6950   11.3960 O.2       1 C2E        -0.4091
     19 N1         21.6210    5.6060   13.6710 N.am      1 C2E        -0.1839
     20 C2         21.3380    5.7230   14.9890 C.2       1 C2E         0.2340
     21 N2         22.3850    5.4730   15.9240 N.pl3     1 C2E        -0.2807
     22 N3         20.1040    6.0670   15.4200 N.2       1 C2E        -0.2765
     23 C4         19.1070    6.3040   14.5160 C.2       1 C2E         0.1159
     24 P11        15.4590   11.2850   15.7000 P.3       1 C2E         0.2557
     25 O21        15.6650   12.2470   16.7720 O.co2     1 C2E        -0.6177
     26 O11        16.7530   11.2520   14.7740 O.co2     1 C2E        -0.6177
     27 O5A        14.1660   11.8450   14.8980 O.3       1 C2E        -0.2514
     28 C5A        13.0310   11.1320   14.5090 C.3       1 C2E         0.1128
     29 C4A        12.5460   11.3470   13.1510 C.3       1 C2E         0.1242
     30 O4A        13.2680   12.3780   12.4980 O.3       1 C2E        -0.3359
     31 C3A        12.8470   10.2610   12.2530 C.3       1 C2E         0.1540
     32 O3A        12.0740    9.0840   12.5450 O.3       1 C2E        -0.2453
     33 C2A        12.4550   10.8340   11.0280 C.3       1 C2E         0.1440
     34 O2A        11.0740   10.8730   11.0110 O.3       1 C2E        -0.3832
     35 C1A        13.0130   12.2260   11.1430 C.3       1 C2E         0.1996
     36 N91        14.2760   12.4970   10.4460 N.pl3     1 C2E        -0.2101
     37 C81        15.4650   12.4830   11.0800 C.2       1 C2E         0.0957
     38 N71        16.4590   12.7790   10.2200 N.2       1 C2E        -0.3235
     39 C51        15.9090   12.9900    8.9940 C.2       1 C2E         0.0926
     40 C61        16.4660   13.3300    7.7520 C.2       1 C2E         0.2135
     41 O61        17.7530   13.4970    7.5970 O.2       1 C2E        -0.4091
     42 N11        15.6410   13.4840    6.7150 N.am      1 C2E        -0.1839
     43 C21        14.3060   13.3290    6.8660 C.2       1 C2E         0.2340
     44 N21        13.5020   13.5320    5.7100 N.pl3     1 C2E        -0.2807
     45 N31        13.7440   13.0040    8.0490 N.2       1 C2E        -0.2765
     46 C41        14.5090   12.8200    9.1340 C.2       1 C2E         0.1159
     47 H          12.9222    6.9288   15.3971 H         1 C2E         0.0647
     48 H          13.1681    8.7019   15.2477 H         1 C2E         0.0647
     49 H          14.5562    7.4597   16.9757 H         1 C2E         0.0655
     50 H          15.8146    9.0074   14.6935 H         1 C2E         0.0712
     51 H          17.7828    8.8766   15.8940 H         1 C2E         0.0681
     52 H          17.7336    8.0116   18.0154 H         1 C2E         0.2102
     53 H          17.3044    6.2450   16.6120 H         1 C2E         0.0998
     54 H          16.2651    6.9662   13.1186 H         1 C2E         0.1179
     55 H          22.5491    5.3541   13.3967 H         1 C2E         0.2515
     56 H          22.2030    5.5534   16.9346 H         1 C2E         0.1897
     57 H          23.3233    5.2120   15.5888 H         1 C2E         0.1897
     58 H          12.2174   11.4020   15.1983 H         1 C2E         0.0647
     59 H          13.2600   10.0612   14.6136 H         1 C2E         0.0647
     60 H          11.4667   11.5569   13.1833 H         1 C2E         0.0655
     61 H          13.9179   10.0098   12.2643 H         1 C2E         0.0712
     62 H          12.8506   10.2943   10.1549 H         1 C2E         0.0681
     63 H          10.7792   11.2563   10.1932 H         1 C2E         0.2102
     64 H          12.2579   12.9465   10.7956 H         1 C2E         0.0998
     65 H          15.6029   12.2635   12.1377 H         1 C2E         0.1179
     66 H          16.0136   13.7165    5.8166 H         1 C2E         0.2515
     67 H          12.4791   13.4267    5.7691 H         1 C2E         0.1897
     68 H          13.9428   13.7843    4.8139 H         1 C2E         0.1897
@<TRIPOS>BOND
     1    1    2 ar 
     2    1    3 ar 
     3    1    4 1  
     4    1   32 1  
     5    4    5 1  
     6    5    6 1  
     7    6    7 1  
     8    6    8 1  
     9    7   12 1  
    10    8    9 1  
    11    8   10 1  
    12    9   24 1  
    13   10   11 1  
    14   10   12 1  
    15   12   13 1  
    16   13   14 1  
    17   13   23 1  
    18   14   15 2  
    19   15   16 1  
    20   16   17 1  
    21   16   23 2  
    22   17   18 2  
    23   17   19 am 
    24   19   20 am 
    25   20   21 1  
    26   20   22 2  
    27   22   23 1  
    28   24   25 ar 
    29   24   26 ar 
    30   24   27 1  
    31   27   28 1  
    32   28   29 1  
    33   29   30 1  
    34   29   31 1  
    35   30   35 1  
    36   31   32 1  
    37   31   33 1  
    38   33   34 1  
    39   33   35 1  
    40   35   36 1  
    41   36   37 1  
    42   36   46 1  
    43   37   38 2  
    44   38   39 1  
    45   39   40 1  
    46   39   46 2  
    47   40   41 2  
    48   40   42 am 
    49   42   43 am 
    50   43   44 1  
    51   43   45 2  
    52   45   46 1  
    53    5   47 1  
    54    5   48 1  
    55    6   49 1  
    56    8   50 1  
    57   10   51 1  
    58   11   52 1  
    59   12   53 1  
    60   14   54 1  
    61   19   55 1  
    62   21   56 1  
    63   21   57 1  
    64   28   58 1  
    65   28   59 1  
    66   29   60 1  
    67   31   61 1  
    68   33   62 1  
    69   34   63 1  
    70   35   64 1  
    71   37   65 1  
    72   42   66 1  
    73   44   67 1  
    74   44   68 1  
@<TRIPOS>SUBSTRUCTURE
     1 C2E         1

