4f9g_ligand
  -I-interpret- 

 70 76  0  0  0  0  0  0  0  0999 V2000
   12.8350    7.7190   12.5880 P   0  0  0  0  0
   11.7720    6.6180   12.8120 O   0  0  0  0  0
   13.5100    7.4720   11.1790 O   0  0  0  0  0
   13.9000    7.5670   13.7820 O   0  0  0  0  0
   13.6280    7.7150   15.0910 C   0  0  0  0  0
   14.8330    7.6180   15.9230 C   0  0  0  0  0
   15.6400    6.6120   15.4300 O   0  0  0  0  0
   15.7090    8.7640   15.7610 C   0  0  0  0  0
   15.2580    9.9090   16.4240 O   0  0  0  0  0
   16.9300    8.2950   16.2740 C   0  0  0  0  0
   16.9050    8.3300   17.6770 O   0  0  0  0  0
   16.9650    6.9000   15.7960 C   0  0  0  0  0
   17.7860    6.6490   14.6130 N   0  0  0  0  0
   17.2940    6.7150   13.3720 C   0  0  0  0  0
   18.2590    6.4250   12.4850 N   0  0  0  0  0
   19.3980    6.1730   13.1420 C   0  0  0  0  0
   20.6920    5.8180   12.7130 C   0  0  0  0  0
   20.9730    5.6950   11.3960 O   0  0  0  0  0
   21.6210    5.6060   13.6710 N   0  0  0  0  0
   21.3380    5.7230   14.9890 C   0  0  0  0  0
   22.3850    5.4730   15.9240 N   0  0  0  0  0
   20.1040    6.0670   15.4200 N   0  0  0  0  0
   19.1070    6.3040   14.5160 C   0  0  0  0  0
   15.4590   11.2850   15.7000 P   0  0  0  0  0
   15.6650   12.2470   16.7720 O   0  0  0  0  0
   16.7530   11.2520   14.7740 O   0  0  0  0  0
   14.1660   11.8450   14.8980 O   0  0  0  0  0
   13.0310   11.1320   14.5090 C   0  0  0  0  0
   12.5460   11.3470   13.1510 C   0  0  0  0  0
   13.2680   12.3780   12.4980 O   0  0  0  0  0
   12.8470   10.2610   12.2530 C   0  0  0  0  0
   12.0740    9.0840   12.5450 O   0  0  0  0  0
   12.4550   10.8340   11.0280 C   0  0  0  0  0
   11.0740   10.8730   11.0110 O   0  0  0  0  0
   13.0130   12.2260   11.1430 C   0  0  0  0  0
   14.2760   12.4970   10.4460 N   0  0  0  0  0
   15.4650   12.4830   11.0800 C   0  0  0  0  0
   16.4590   12.7790   10.2200 N   0  0  0  0  0
   15.9090   12.9900    8.9940 C   0  0  0  0  0
   16.4660   13.3300    7.7520 C   0  0  0  0  0
   17.7530   13.4970    7.5970 O   0  0  0  0  0
   15.6410   13.4840    6.7150 N   0  0  0  0  0
   14.3060   13.3290    6.8660 C   0  0  0  0  0
   13.5020   13.5320    5.7100 N   0  0  0  0  0
   13.7440   13.0040    8.0490 N   0  0  0  0  0
   14.5090   12.8200    9.1340 C   0  0  0  0  0
   14.1744    8.1467   11.0210 H   0  0  0  0  0
   12.9464    6.9178   15.3876 H   0  0  0  0  0
   13.1942    8.7042   15.2371 H   0  0  0  0  0
   14.4714    7.4928   16.9436 H   0  0  0  0  0
   15.7712    9.0955   14.7245 H   0  0  0  0  0
   17.7939    8.8825   15.9634 H   0  0  0  0  0
   17.7423    8.0082   18.0190 H   0  0  0  0  0
   17.3975    6.2932   16.5915 H   0  0  0  0  0
   16.2642    6.9665   13.1183 H   0  0  0  0  0
   22.5676    5.3491   13.3912 H   0  0  0  0  0
   22.2050    5.5534   16.9248 H   0  0  0  0  0
   23.3140    5.2138   15.5921 H   0  0  0  0  0
   16.6216   10.6183   14.0649 H   0  0  0  0  0
   12.2295   11.4671   15.1673 H   0  0  0  0  0
   13.3087   10.0793   14.5622 H   0  0  0  0  0
   11.4815   11.5233   13.3053 H   0  0  0  0  0
   13.8800    9.9161   12.2971 H   0  0  0  0  0
   12.7905   10.3101   10.1330 H   0  0  0  0  0
   10.7761   11.2603   10.1846 H   0  0  0  0  0
   12.2909   12.9030   10.6866 H   0  0  0  0  0
   15.6030   12.2633   12.1387 H   0  0  0  0  0
   16.0211   13.7211    5.7986 H   0  0  0  0  0
   12.4886   13.4322    5.7696 H   0  0  0  0  0
   13.9389   13.7773    4.8216 H   0  0  0  0  0
  1  2  2  0  0  0
  1  3  1  0  0  0
  1  4  1  0  0  0
  1 32  1  0  0  0
  4  5  1  0  0  0
  5  6  1  0  0  0
  6  7  1  0  0  0
  6  8  1  0  0  0
  7 12  1  0  0  0
  8  9  1  0  0  0
  8 10  1  0  0  0
  9 24  1  0  0  0
 10 11  1  0  0  0
 10 12  1  0  0  0
 12 13  1  0  0  0
 13 14  4  0  0  0
 13 23  4  0  0  0
 14 15  4  0  0  0
 15 16  4  0  0  0
 16 17  1  0  0  0
 16 23  4  0  0  0
 17 18  2  0  0  0
 17 19  1  0  0  0
 19 20  1  0  0  0
 20 21  1  0  0  0
 20 22  2  0  0  0
 22 23  1  0  0  0
 24 25  2  0  0  0
 24 26  1  0  0  0
 24 27  1  0  0  0
 27 28  1  0  0  0
 28 29  1  0  0  0
 29 30  1  0  0  0
 29 31  1  0  0  0
 30 35  1  0  0  0
 31 32  1  0  0  0
 31 33  1  0  0  0
 33 34  1  0  0  0
 33 35  1  0  0  0
 35 36  1  0  0  0
 36 37  4  0  0  0
 36 46  4  0  0  0
 37 38  4  0  0  0
 38 39  4  0  0  0
 39 40  1  0  0  0
 39 46  4  0  0  0
 40 41  2  0  0  0
 40 42  1  0  0  0
 42 43  1  0  0  0
 43 44  1  0  0  0
 43 45  2  0  0  0
 45 46  1  0  0  0
  3 47  1  0  0  0
  5 48  1  0  0  0
  5 49  1  0  0  0
  6 50  1  0  0  0
  8 51  1  0  0  0
 10 52  1  0  0  0
 11 53  1  0  0  0
 12 54  1  0  0  0
 14 55  1  0  0  0
 19 56  1  0  0  0
 21 57  1  0  0  0
 21 58  1  0  0  0
 26 59  1  0  0  0
 28 60  1  0  0  0
 28 61  1  0  0  0
 29 62  1  0  0  0
 31 63  1  0  0  0
 33 64  1  0  0  0
 34 65  1  0  0  0
 35 66  1  0  0  0
 37 67  1  0  0  0
 42 68  1  0  0  0
 44 69  1  0  0  0
 44 70  1  0  0  0
M  END
$$$$
