### 
### Created by X-TOOL on Mon Sep 10 21:12:47 2018
### 

@<TRIPOS>MOLECULE
1qnh_ligand
  198   197     1     0     0
SMALL
GAST_HUCK


@<TRIPOS>ATOM
      1 N          29.0820   46.1100   15.9140 N.4       1 BMT         0.4374
      2 CN         30.0170   45.8480   17.0780 C.3       1 BMT        -0.0054
      3 CA         28.8970   45.1540   14.8020 C.3       1 BMT         0.1302
      4 C          28.1230   43.8970   15.1810 C.2       1 BMT         0.2307
      5 O          27.6910   43.6700   16.3370 O.2       1 BMT        -0.3906
      6 CB         30.2830   44.7780   14.0890 C.3       1 BMT         0.1202
      7 OG1        31.0850   43.9260   14.9550 O.3       1 BMT        -0.3833
      8 CG2        31.1580   46.0150   13.6450 C.3       1 BMT        -0.0037
      9 CD1        30.3730   46.9910   12.7180 C.3       1 BMT        -0.0581
     10 CD2        32.5060   45.6980   12.9540 C.3       1 BMT        -0.0312
     11 CE         32.4260   44.9450   11.6080 C.2       1 BMT        -0.0986
     12 CZ         33.1490   43.7330   11.4200 C.2       1 BMT        -0.1017
     13 CH         33.0620   42.9850   10.0960 C.3       1 BMT        -0.0486
     14 N          27.8740   43.0680   14.1550 N.am      1 ABA        -0.2609
     15 CA         27.1010   41.8380   14.3030 C.3       1 ABA         0.1310
     16 C          27.9670   40.6120   13.9840 C.2       1 ABA         0.2059
     17 O          27.9710   40.1600   12.8270 O.2       1 ABA        -0.3942
     18 CB         25.8630   41.9610   13.3830 C.3       1 ABA        -0.0152
     19 CG         24.9340   43.1760   13.6470 C.3       1 ABA        -0.0610
     20 N          28.7460   40.0070   14.9160 N.am      1 SAR        -0.2556
     21 CA         29.5650   38.8200   14.5510 C.3       1 SAR         0.1227
     22 C          31.0650   39.0430   14.7890 C.2       1 SAR         0.2032
     23 O          31.5970   38.3070   15.6320 O.2       1 SAR        -0.3945
     24 CN         28.9000   40.4280   16.3640 C.3       1 SAR         0.0252
     25 N          31.7970   40.0030   14.1370 N.am      1 MLE        -0.2531
     26 CN         31.2540   40.8450   13.0080 C.3       1 MLE         0.0254
     27 CA         33.1790   40.2370   14.5810 C.3       1 MLE         0.1336
     28 CB         34.0110   40.1890   13.2860 C.3       1 MLE        -0.0099
     29 CG         33.9800   38.8780   12.4910 C.3       1 MLE        -0.0425
     30 CD1        34.8710   39.0080   11.2520 C.3       1 MLE        -0.0625
     31 CD2        34.4440   37.7110   13.3470 C.3       1 MLE        -0.0625
     32 C          33.2910   41.5780   15.2990 C.2       1 MLE         0.2041
     33 O          33.4660   42.6190   14.6710 O.2       1 MLE        -0.3944
     34 N          33.1700   41.5400   16.6200 N.am      1 VAL        -0.2635
     35 CA         33.2610   42.7420   17.4420 C.3       1 VAL         0.1334
     36 C          34.6920   43.2800   17.4190 C.2       1 VAL         0.2064
     37 O          35.6180   42.5980   17.8570 O.2       1 VAL        -0.3942
     38 CB         32.8670   42.4450   18.9100 C.3       1 VAL        -0.0062
     39 CG1        33.0460   43.6910   19.7610 C.3       1 VAL        -0.0584
     40 CG2        31.4220   41.9640   18.9710 C.3       1 VAL        -0.0584
     41 N          34.8920   44.5130   16.9120 N.am      1 MLE        -0.2529
     42 CN         33.7970   45.5360   16.7240 C.3       1 MLE         0.0254
     43 CA         36.3020   44.9300   16.9370 C.3       1 MLE         0.1336
     44 CB         36.5220   45.5790   15.5690 C.3       1 MLE        -0.0099
     45 CG         36.2110   44.7220   14.3390 C.3       1 MLE        -0.0425
     46 CD1        36.5760   45.4940   13.0800 C.3       1 MLE        -0.0625
     47 CD2        36.9860   43.4180   14.3890 C.3       1 MLE        -0.0625
     48 C          36.6560   45.8710   18.0880 C.2       1 MLE         0.2041
     49 O          35.8830   46.0370   19.0350 O.2       1 MLE        -0.3944
     50 N          37.8310   46.4850   17.9950 N.am      1 ALA        -0.2640
     51 CA         38.3140   47.3930   19.0290 C.3       1 ALA         0.1282
     52 C          37.6480   48.7630   18.9750 C.2       1 ALA         0.2036
     53 O          37.1250   49.1740   17.9400 O.2       1 ALA        -0.3944
     54 CB         39.8330   47.5470   18.9200 C.3       1 ALA        -0.0244
     55 N          37.6770   49.4730   20.1100 N.am      1 DAL        -0.2640
     56 CA         37.2070   50.8510   20.1270 C.3       1 DAL         0.1284
     57 CB         37.9660   51.6450   21.1930 C.3       1 DAL        -0.0244
     58 C          35.7140   50.8760   20.4150 C.2       1 DAL         0.2059
     59 O          35.2600   50.0710   21.2340 O.2       1 DAL        -0.3942
     60 N          34.8830   51.7730   19.7770 N.am      1 MLE        -0.2529
     61 CN         35.2910   52.6030   18.5830 C.3       1 MLE         0.0254
     62 CA         33.4530   51.6930   20.1190 C.3       1 MLE         0.1338
     63 CB         33.1440   53.0560   20.7490 C.3       1 MLE        -0.0099
     64 CG         33.7230   53.3580   22.1320 C.3       1 MLE        -0.0425
     65 CD1        33.3440   54.7740   22.5360 C.3       1 MLE        -0.0625
     66 CD2        33.1940   52.3650   23.1520 C.3       1 MLE        -0.0625
     67 C          32.5990   51.4290   18.8760 C.2       1 MLE         0.2063
     68 O          32.0340   52.3540   18.2960 O.2       1 MLE        -0.3942
     69 N          32.4890   50.1560   18.4540 N.am      1 MLE        -0.2546
     70 CN         33.1290   48.9560   19.1250 C.3       1 MLE         0.0254
     71 CA         31.6600   49.9830   17.2550 C.3       1 MLE         0.1196
     72 CB         32.5830   49.2490   16.2670 C.3       1 MLE        -0.0116
     73 CG         33.8090   49.9850   15.7370 C.3       1 MLE        -0.0426
     74 CD1        34.5070   49.0980   14.7150 C.3       1 MLE        -0.0625
     75 CD2        33.4130   51.3170   15.1040 C.3       1 MLE        -0.0625
     76 C          30.4000   49.1660   17.5660 C.2       1 MLE         0.1585
     77 O          30.2620   48.6520   18.6780 O.2       1 MLE        -0.3744
     78 CN         29.4560   49.0710   16.6270 C.2       1 MVA         0.0090
     79 CA         29.5120   49.7530   15.4500 C.2       1 MVA        -0.0899
     80 CB         28.3080   48.2230   16.9390 C.3       1 MVA        -0.0097
     81 CG1        26.9850   49.0230   16.9900 C.3       1 MVA        -0.0365
     82 CG2        25.8380   48.1070   17.3940 C.3       1 MVA        -0.0608
     83 C          27.1130   50.1780   17.9610 C.3       1 MVA        -0.0608
     84 O          28.2650   47.2030   15.8070 O.3       1 MVA        -0.1598
     85 OXT        27.5020   47.3760   14.8550 O.3       1 MVA        -0.2107
     86 H1         29.8283   46.5836   15.4296 H         1 BMT         0.2448
     87 H2         29.9840   46.6995   17.7736 H         1 BMT         0.0790
     88 H3         31.0431   45.7208   16.7027 H         1 BMT         0.0790
     89 H4         29.7024   44.9337   17.6024 H         1 BMT         0.0790
     90 H5         28.2872   45.6768   14.0505 H         1 BMT         0.1139
     91 H6         30.0342   44.2093   13.1809 H         1 BMT         0.0681
     92 H7         31.9016   43.7124   14.5190 H         1 BMT         0.2103
     93 H8         31.3984   46.5585   14.5706 H         1 BMT         0.0346
     94 H9         31.0232   47.8327   12.4373 H         1 BMT         0.0235
     95 H10        29.4895   47.3721   13.2510 H         1 BMT         0.0235
     96 H11        30.0523   46.4572   11.8112 H         1 BMT         0.0235
     97 H12        33.1010   45.0842   13.6462 H         1 BMT         0.0391
     98 H13        33.0225   46.6523   12.7736 H         1 BMT         0.0391
     99 H14        31.8142   45.3426   10.7996 H         1 BMT         0.0450
    100 H15        33.7666   43.3392   12.2259 H         1 BMT         0.0447
    101 H16        33.6853   42.0799   10.1446 H         1 BMT         0.0353
    102 H17        33.4209   43.6342    9.2838 H         1 BMT         0.0353
    103 H18        32.0170   42.7006    9.9035 H         1 BMT         0.0353
    104 H19        28.2329   43.3026   13.2516 H         1 ABA         0.1884
    105 H20        26.7583   41.7503   15.3445 H         1 ABA         0.0800
    106 H21        25.2630   41.0469   13.5030 H         1 ABA         0.0310
    107 H22        26.2211   42.0310   12.3453 H         1 ABA         0.0310
    108 H23        24.0947   43.1570   12.9362 H         1 ABA         0.0232
    109 H24        25.5035   44.1081   13.5170 H         1 ABA         0.0232
    110 H25        24.5454   43.1240   14.6747 H         1 ABA         0.0232
    111 H26        29.4066   38.5966   13.4857 H         1 SAR         0.0765
    112 H27        29.2353   37.9641   15.1582 H         1 SAR         0.0765
    113 H28        28.2682   41.3070   16.5594 H         1 SAR         0.0488
    114 H29        29.9519   40.6811   16.5624 H         1 SAR         0.0488
    115 H30        28.5915   39.6015   17.0210 H         1 SAR         0.0488
    116 H31        30.2157   40.5495   12.7968 H         1 MLE         0.0488
    117 H32        31.8687   40.6928   12.1086 H         1 MLE         0.0488
    118 H33        31.2818   41.9063   13.2959 H         1 MLE         0.0488
    119 H34        33.5025   39.4396   15.2662 H         1 MLE         0.0802
    120 H35        35.0583   40.3894   13.5560 H         1 MLE         0.0315
    121 H36        33.6435   40.9876   12.6248 H         1 MLE         0.0315
    122 H37        32.9463   38.6863   12.1674 H         1 MLE         0.0298
    123 H38        34.8475   38.0668   10.6831 H         1 MLE         0.0232
    124 H39        35.9039   39.2222   11.5639 H         1 MLE         0.0232
    125 H40        34.5015   39.8283   10.6191 H         1 MLE         0.0232
    126 H41        33.7979   37.6267   14.2333 H         1 MLE         0.0232
    127 H42        35.4831   37.8803   13.6656 H         1 MLE         0.0232
    128 H43        34.3867   36.7814   12.7618 H         1 MLE         0.0232
    129 H44        33.0114   40.6593   17.0663 H         1 VAL         0.1883
    130 H45        32.5796   43.5032   17.0342 H         1 VAL         0.0803
    131 H46        33.5217   41.6522   19.3009 H         1 VAL         0.0343
    132 H47        32.7635   43.4686   20.8006 H         1 VAL         0.0234
    133 H48        32.4059   44.4962   19.3714 H         1 VAL         0.0234
    134 H49        34.0981   44.0101   19.7272 H         1 VAL         0.0234
    135 H50        31.3091   41.0626   18.3507 H         1 VAL         0.0234
    136 H51        30.7562   42.7543   18.5939 H         1 VAL         0.0234
    137 H52        31.1578   41.7278   20.0123 H         1 VAL         0.0234
    138 H53        32.8191   45.0323   16.7335 H         1 MLE         0.0488
    139 H54        33.9358   46.0490   15.7609 H         1 MLE         0.0488
    140 H55        33.8384   46.2717   17.5407 H         1 MLE         0.0488
    141 H56        36.9403   44.0389   17.0285 H         1 MLE         0.0802
    142 H57        37.5792   45.8765   15.5082 H         1 MLE         0.0315
    143 H58        35.8855   46.4748   15.5197 H         1 MLE         0.0315
    144 H59        35.1346   44.4959   14.3233 H         1 MLE         0.0298
    145 H60        36.3530   44.8793   12.1954 H         1 MLE         0.0232
    146 H61        37.6487   45.7368   13.0968 H         1 MLE         0.0232
    147 H62        35.9901   46.4240   13.0373 H         1 MLE         0.0232
    148 H63        36.7166   42.8662   15.3016 H         1 MLE         0.0232
    149 H64        38.0648   43.6326   14.3953 H         1 MLE         0.0232
    150 H65        36.7382   42.8101   13.5064 H         1 MLE         0.0232
    151 H66        38.4018   46.3192   17.1908 H         1 ALA         0.1883
    152 H67        38.0803   46.9443   20.0057 H         1 ALA         0.0797
    153 H68        40.1891   48.2329   19.7028 H         1 ALA         0.0277
    154 H69        40.0903   47.9541   17.9310 H         1 ALA         0.0277
    155 H70        40.3113   46.5647   19.0479 H         1 ALA         0.0277
    156 H71        38.0231   49.0548   20.9499 H         1 DAL         0.1883
    157 H72        37.3904   51.3068   19.1428 H         1 DAL         0.0797
    158 H73        37.6067   52.6846   21.2009 H         1 DAL         0.0277
    159 H74        39.0418   51.6307   20.9642 H         1 DAL         0.0277
    160 H75        37.7949   51.1904   22.1799 H         1 DAL         0.0277
    161 H76        36.3836   52.5602   18.4628 H         1 MLE         0.0488
    162 H77        34.9798   53.6466   18.7383 H         1 MLE         0.0488
    163 H78        34.8069   52.2067   17.6783 H         1 MLE         0.0488
    164 H79        33.2775   50.8881   20.8479 H         1 MLE         0.0802
    165 H80        32.0500   53.1390   20.8277 H         1 MLE         0.0315
    166 H81        33.5218   53.8269   20.0613 H         1 MLE         0.0315
    167 H82        34.8191   53.2762   22.0893 H         1 MLE         0.0298
    168 H83        33.7588   54.9950   23.5305 H         1 MLE         0.0232
    169 H84        32.2483   54.8656   22.5672 H         1 MLE         0.0232
    170 H85        33.7508   55.4859   21.8027 H         1 MLE         0.0232
    171 H86        33.4738   51.3450   22.8499 H         1 MLE         0.0232
    172 H87        32.0982   52.4437   23.2063 H         1 MLE         0.0232
    173 H88        33.6269   52.5869   24.1386 H         1 MLE         0.0232
    174 H89        33.7059   49.2897   20.0001 H         1 MLE         0.0488
    175 H90        33.8002   48.4528   18.4136 H         1 MLE         0.0488
    176 H91        32.3451   48.2552   19.4481 H         1 MLE         0.0488
    177 H92        31.3618   50.9604   16.8480 H         1 MLE         0.0783
    178 H93        31.9709   48.9682   15.3972 H         1 MLE         0.0314
    179 H94        32.9422   48.3399   16.7714 H         1 MLE         0.0314
    180 H95        34.4972   50.1827   16.5720 H         1 MLE         0.0298
    181 H96        35.3944   49.6174   14.3240 H         1 MLE         0.0232
    182 H97        33.8164   48.8785   13.8875 H         1 MLE         0.0232
    183 H98        34.8146   48.1574   15.1952 H         1 MLE         0.0232
    184 H99        32.9107   51.9448   15.8548 H         1 MLE         0.0232
    185 H100       32.7290   51.1340   14.2622 H         1 MLE         0.0232
    186 H101       34.3140   51.8318   14.7391 H         1 MLE         0.0232
    187 H102       28.7148   49.6400   14.7168 H         1 MVA         0.0466
    188 H103       30.3540   50.4115   15.2418 H         1 MVA         0.0466
    189 H104       28.4733   47.7497   17.9181 H         1 MVA         0.0436
    190 H105       28.2218   47.4455   16.1657 H         1 MVA         0.0436
    191 H106       26.7767   49.4271   15.9883 H         1 MVA         0.0318
    192 H107       24.9022   48.6842   17.4275 H         1 MVA         0.0234
    193 H108       26.0416   47.6807   18.3874 H         1 MVA         0.0234
    194 H109       25.7414   47.2944   16.6590 H         1 MVA         0.0234
    195 H110       27.9459   50.8265   17.6516 H         1 MVA         0.0234
    196 H111       27.3076   49.7881   18.9710 H         1 MVA         0.0234
    197 H112       26.1786   50.7584   17.9657 H         1 MVA         0.0234
    198 H113       27.0280   48.1907   14.9744 H         1 MVA         0.2585
@<TRIPOS>BOND
     1    1    2 1  
     2    1    3 1  
     3    1   84 1  
     4    3    4 1  
     5    3    6 1  
     6    4    5 2  
     7    4   14 am 
     8    6    7 1  
     9    6    8 1  
    10    8    9 1  
    11    8   10 1  
    12   10   11 1  
    13   11   12 2  
    14   12   13 1  
    15   14   15 1  
    16   15   16 1  
    17   15   18 1  
    18   16   17 2  
    19   16   20 am 
    20   18   19 1  
    21   20   21 1  
    22   20   24 1  
    23   21   22 1  
    24   22   23 2  
    25   22   25 am 
    26   25   26 1  
    27   25   27 1  
    28   27   28 1  
    29   27   32 1  
    30   28   29 1  
    31   29   30 1  
    32   29   31 1  
    33   32   33 2  
    34   32   34 am 
    35   34   35 1  
    36   35   36 1  
    37   35   38 1  
    38   36   37 2  
    39   36   41 am 
    40   38   39 1  
    41   38   40 1  
    42   41   42 1  
    43   41   43 1  
    44   43   44 1  
    45   43   48 1  
    46   44   45 1  
    47   45   46 1  
    48   45   47 1  
    49   48   49 2  
    50   48   50 am 
    51   50   51 1  
    52   51   52 1  
    53   51   54 1  
    54   52   53 2  
    55   52   55 am 
    56   55   56 1  
    57   56   57 1  
    58   56   58 1  
    59   58   59 2  
    60   58   60 am 
    61   60   61 1  
    62   60   62 1  
    63   62   63 1  
    64   62   67 1  
    65   63   64 1  
    66   64   65 1  
    67   64   66 1  
    68   67   68 2  
    69   67   69 am 
    70   69   70 1  
    71   69   71 1  
    72   71   72 1  
    73   71   76 1  
    74   72   73 1  
    75   73   74 1  
    76   73   75 1  
    77   76   77 2  
    78   76   78 1  
    79   78   79 2  
    80   78   80 1  
    81   80   81 1  
    82   81   82 1  
    83   81   83 1  
    84   84   85 1  
    85    1   86 1  
    86    2   87 1  
    87    2   88 1  
    88    2   89 1  
    89    3   90 1  
    90    6   91 1  
    91    7   92 1  
    92    8   93 1  
    93    9   94 1  
    94    9   95 1  
    95    9   96 1  
    96   10   97 1  
    97   10   98 1  
    98   11   99 1  
    99   12  100 1  
   100   13  101 1  
   101   13  102 1  
   102   13  103 1  
   103   14  104 1  
   104   15  105 1  
   105   18  106 1  
   106   18  107 1  
   107   19  108 1  
   108   19  109 1  
   109   19  110 1  
   110   21  111 1  
   111   21  112 1  
   112   24  113 1  
   113   24  114 1  
   114   24  115 1  
   115   26  116 1  
   116   26  117 1  
   117   26  118 1  
   118   27  119 1  
   119   28  120 1  
   120   28  121 1  
   121   29  122 1  
   122   30  123 1  
   123   30  124 1  
   124   30  125 1  
   125   31  126 1  
   126   31  127 1  
   127   31  128 1  
   128   34  129 1  
   129   35  130 1  
   130   38  131 1  
   131   39  132 1  
   132   39  133 1  
   133   39  134 1  
   134   40  135 1  
   135   40  136 1  
   136   40  137 1  
   137   42  138 1  
   138   42  139 1  
   139   42  140 1  
   140   43  141 1  
   141   44  142 1  
   142   44  143 1  
   143   45  144 1  
   144   46  145 1  
   145   46  146 1  
   146   46  147 1  
   147   47  148 1  
   148   47  149 1  
   149   47  150 1  
   150   50  151 1  
   151   51  152 1  
   152   54  153 1  
   153   54  154 1  
   154   54  155 1  
   155   55  156 1  
   156   56  157 1  
   157   57  158 1  
   158   57  159 1  
   159   57  160 1  
   160   61  161 1  
   161   61  162 1  
   162   61  163 1  
   163   62  164 1  
   164   63  165 1  
   165   63  166 1  
   166   64  167 1  
   167   65  168 1  
   168   65  169 1  
   169   65  170 1  
   170   66  171 1  
   171   66  172 1  
   172   66  173 1  
   173   70  174 1  
   174   70  175 1  
   175   70  176 1  
   176   71  177 1  
   177   72  178 1  
   178   72  179 1  
   179   73  180 1  
   180   74  181 1  
   181   74  182 1  
   182   74  183 1  
   183   75  184 1  
   184   75  185 1  
   185   75  186 1  
   186   79  187 1  
   187   79  188 1  
   188   80  189 1  
   189   80  190 1  
   190   81  191 1  
   191   82  192 1  
   192   82  193 1  
   193   82  194 1  
   194   83  195 1  
   195   83  196 1  
   196   83  197 1  
   197   85  198 1  
@<TRIPOS>SUBSTRUCTURE
     1 BMT         1

