1qnh_ligand
  -I-interpret- 

198197  0  0  0  0  0  0  0  0999 V2000
   29.0820   46.1100   15.9140 N   0  3  0  0  0
   30.0170   45.8480   17.0780 C   0  0  0  0  0
   28.8970   45.1540   14.8020 C   0  0  0  0  0
   28.1230   43.8970   15.1810 C   0  0  0  0  0
   27.6910   43.6700   16.3370 O   0  0  0  0  0
   30.2830   44.7780   14.0890 C   0  0  0  0  0
   31.0850   43.9260   14.9550 O   0  0  0  0  0
   31.1580   46.0150   13.6450 C   0  0  0  0  0
   30.3730   46.9910   12.7180 C   0  0  0  0  0
   32.5060   45.6980   12.9540 C   0  0  0  0  0
   32.4260   44.9450   11.6080 C   0  0  0  0  0
   33.1490   43.7330   11.4200 C   0  0  0  0  0
   33.0620   42.9850   10.0960 C   0  0  0  0  0
   27.8740   43.0680   14.1550 N   0  0  0  0  0
   27.1010   41.8380   14.3030 C   0  0  0  0  0
   27.9670   40.6120   13.9840 C   0  0  0  0  0
   27.9710   40.1600   12.8270 O   0  0  0  0  0
   25.8630   41.9610   13.3830 C   0  0  0  0  0
   24.9340   43.1760   13.6470 C   0  0  0  0  0
   28.7460   40.0070   14.9160 N   0  0  0  0  0
   29.5650   38.8200   14.5510 C   0  0  0  0  0
   31.0650   39.0430   14.7890 C   0  0  0  0  0
   31.5970   38.3070   15.6320 O   0  0  0  0  0
   28.9000   40.4280   16.3640 C   0  0  0  0  0
   31.7970   40.0030   14.1370 N   0  0  0  0  0
   31.2540   40.8450   13.0080 C   0  0  0  0  0
   33.1790   40.2370   14.5810 C   0  0  0  0  0
   34.0110   40.1890   13.2860 C   0  0  0  0  0
   33.9800   38.8780   12.4910 C   0  0  0  0  0
   34.8710   39.0080   11.2520 C   0  0  0  0  0
   34.4440   37.7110   13.3470 C   0  0  0  0  0
   33.2910   41.5780   15.2990 C   0  0  0  0  0
   33.4660   42.6190   14.6710 O   0  0  0  0  0
   33.1700   41.5400   16.6200 N   0  0  0  0  0
   33.2610   42.7420   17.4420 C   0  0  0  0  0
   34.6920   43.2800   17.4190 C   0  0  0  0  0
   35.6180   42.5980   17.8570 O   0  0  0  0  0
   32.8670   42.4450   18.9100 C   0  0  0  0  0
   33.0460   43.6910   19.7610 C   0  0  0  0  0
   31.4220   41.9640   18.9710 C   0  0  0  0  0
   34.8920   44.5130   16.9120 N   0  0  0  0  0
   33.7970   45.5360   16.7240 C   0  0  0  0  0
   36.3020   44.9300   16.9370 C   0  0  0  0  0
   36.5220   45.5790   15.5690 C   0  0  0  0  0
   36.2110   44.7220   14.3390 C   0  0  0  0  0
   36.5760   45.4940   13.0800 C   0  0  0  0  0
   36.9860   43.4180   14.3890 C   0  0  0  0  0
   36.6560   45.8710   18.0880 C   0  0  0  0  0
   35.8830   46.0370   19.0350 O   0  0  0  0  0
   37.8310   46.4850   17.9950 N   0  0  0  0  0
   38.3140   47.3930   19.0290 C   0  0  0  0  0
   37.6480   48.7630   18.9750 C   0  0  0  0  0
   37.1250   49.1740   17.9400 O   0  0  0  0  0
   39.8330   47.5470   18.9200 C   0  0  0  0  0
   37.6770   49.4730   20.1100 N   0  0  0  0  0
   37.2070   50.8510   20.1270 C   0  0  0  0  0
   37.9660   51.6450   21.1930 C   0  0  0  0  0
   35.7140   50.8760   20.4150 C   0  0  0  0  0
   35.2600   50.0710   21.2340 O   0  0  0  0  0
   34.8830   51.7730   19.7770 N   0  0  0  0  0
   35.2910   52.6030   18.5830 C   0  0  0  0  0
   33.4530   51.6930   20.1190 C   0  0  0  0  0
   33.1440   53.0560   20.7490 C   0  0  0  0  0
   33.7230   53.3580   22.1320 C   0  0  0  0  0
   33.3440   54.7740   22.5360 C   0  0  0  0  0
   33.1940   52.3650   23.1520 C   0  0  0  0  0
   32.5990   51.4290   18.8760 C   0  0  0  0  0
   32.0340   52.3540   18.2960 O   0  0  0  0  0
   32.4890   50.1560   18.4540 N   0  0  0  0  0
   33.1290   48.9560   19.1250 C   0  0  0  0  0
   31.6600   49.9830   17.2550 C   0  0  0  0  0
   32.5830   49.2490   16.2670 C   0  0  0  0  0
   33.8090   49.9850   15.7370 C   0  0  0  0  0
   34.5070   49.0980   14.7150 C   0  0  0  0  0
   33.4130   51.3170   15.1040 C   0  0  0  0  0
   30.4000   49.1660   17.5660 C   0  0  0  0  0
   30.2620   48.6520   18.6780 O   0  0  0  0  0
   29.4560   49.0710   16.6270 C   0  0  0  0  0
   29.5120   49.7530   15.4500 C   0  0  0  0  0
   28.3080   48.2230   16.9390 C   0  0  0  0  0
   26.9850   49.0230   16.9900 C   0  0  0  0  0
   25.8380   48.1070   17.3940 C   0  0  0  0  0
   27.1130   50.1780   17.9610 C   0  0  0  0  0
   28.2650   47.2030   15.8070 O   0  0  0  0  0
   27.5020   47.3760   14.8550 O   0  0  0  0  0
   29.9458   46.2833   16.4280 H   0  0  0  0  0
   30.7336   46.6654   17.1578 H   0  0  0  0  0
   29.4381   45.7794   17.9990 H   0  0  0  0  0
   30.5492   44.9115   16.9112 H   0  0  0  0  0
   28.2746   45.6870   14.0832 H   0  0  0  0  0
   29.9933   44.2573   13.1763 H   0  0  0  0  0
   30.5621   43.1698   15.2312 H   0  0  0  0  0
   31.3942   46.4724   14.6057 H   0  0  0  0  0
   30.9533   47.9031   12.5783 H   0  0  0  0  0
   30.2034   46.5152   11.7521 H   0  0  0  0  0
   29.4152   47.2350   13.1774 H   0  0  0  0  0
   33.0494   45.0436   13.6356 H   0  0  0  0  0
   32.9684   46.6606   12.7357 H   0  0  0  0  0
   31.8137   45.3430   10.7988 H   0  0  0  0  0
   33.7672   43.3389   12.2266 H   0  0  0  0  0
   32.0261   42.7038    9.9064 H   0  0  0  0  0
   33.4179   43.6293    9.2921 H   0  0  0  0  0
   33.6800   42.0885   10.1454 H   0  0  0  0  0
   28.2400   43.3072   13.2335 H   0  0  0  0  0
   26.7670   41.6982   15.3311 H   0  0  0  0  0
   25.2598   41.0710   13.5623 H   0  0  0  0  0
   26.2465   42.0844   12.3702 H   0  0  0  0  0
   24.5496   43.1233   14.6656 H   0  0  0  0  0
   25.4994   44.0989   13.5180 H   0  0  0  0  0
   24.1028   43.1561   12.9422 H   0  0  0  0  0
   29.4190   38.6252   13.4885 H   0  0  0  0  0
   29.2460   37.9867   15.1770 H   0  0  0  0  0
   29.2897   41.4451   16.4058 H   0  0  0  0  0
   27.9290   40.3890   16.8576 H   0  0  0  0  0
   29.5917   39.7516   16.8661 H   0  0  0  0  0
   30.9475   40.1962   12.1875 H   0  0  0  0  0
   30.3952   41.4152   13.3622 H   0  0  0  0  0
   32.0285   41.5295   12.6619 H   0  0  0  0  0
   33.5289   39.4981   15.3019 H   0  0  0  0  0
   35.0479   40.3287   13.5916 H   0  0  0  0  0
   33.5850   40.9471   12.6288 H   0  0  0  0  0
   32.9529   38.6834   12.1823 H   0  0  0  0  0
   34.5039   39.8211   10.6257 H   0  0  0  0  0
   35.8941   39.2202   11.5624 H   0  0  0  0  0
   34.8469   38.0749   10.6892 H   0  0  0  0  0
   35.4647   37.8923   13.6838 H   0  0  0  0  0
   33.7871   37.6122   14.2112 H   0  0  0  0  0
   34.4118   36.7945   12.7578 H   0  0  0  0  0
   33.0082   40.6417   17.0753 H   0  0  0  0  0
   32.5724   43.4802   17.0311 H   0  0  0  0  0
   33.5153   41.6611   19.3016 H   0  0  0  0  0
   34.0889   44.0062   19.7266 H   0  0  0  0  0
   32.4113   44.4881   19.3739 H   0  0  0  0  0
   32.7658   43.4694   20.7908 H   0  0  0  0  0
   30.7659   42.7370   18.5710 H   0  0  0  0  0
   31.3177   41.0549   18.3787 H   0  0  0  0  0
   31.1526   41.7573   20.0068 H   0  0  0  0  0
   33.0401   45.1363   16.0491 H   0  0  0  0  0
   33.3427   45.7615   17.6888 H   0  0  0  0  0
   34.2207   46.4459   16.2989 H   0  0  0  0  0
   36.9588   44.0785   17.1148 H   0  0  0  0  0
   37.5867   45.8060   15.5137 H   0  0  0  0  0
   35.8355   46.4245   15.5255 H   0  0  0  0  0
   35.1461   44.4897   14.3293 H   0  0  0  0  0
   35.9949   46.4153   13.0389 H   0  0  0  0  0
   37.6391   45.7340   13.0979 H   0  0  0  0  0
   36.3546   44.8839   12.2043 H   0  0  0  0  0
   38.0545   43.6324   14.4106 H   0  0  0  0  0
   36.7069   42.8651   15.2859 H   0  0  0  0  0
   36.7512   42.8232   13.5063 H   0  0  0  0  0
   38.4132   46.3159   17.1747 H   0  0  0  0  0
   38.0500   46.9495   19.9891 H   0  0  0  0  0
   40.3057   46.5731   19.0469 H   0  0  0  0  0
   40.0866   47.9504   17.9397 H   0  0  0  0  0
   40.1846   48.2268   19.6961 H   0  0  0  0  0
   38.0300   49.0465   20.9667 H   0  0  0  0  0
   37.3885   51.3085   19.1545 H   0  0  0  0  0
   37.7957   51.1935   22.1704 H   0  0  0  0  0
   39.0318   51.6300   20.9652 H   0  0  0  0  0
   37.6091   52.6749   21.1999 H   0  0  0  0  0
   36.1362   53.2358   18.8538 H   0  0  0  0  0
   35.5773   51.9430   17.7641 H   0  0  0  0  0
   34.4530   53.2270   18.2725 H   0  0  0  0  0
   33.2267   50.8690   20.7957 H   0  0  0  0  0
   32.0619   53.0750   20.8790 H   0  0  0  0  0
   33.5937   53.7909   20.0813 H   0  0  0  0  0
   34.8087   53.2691   22.0952 H   0  0  0  0  0
   33.7476   55.4783   21.8086 H   0  0  0  0  0
   32.2581   54.8634   22.5665 H   0  0  0  0  0
   33.7556   54.9917   23.5215 H   0  0  0  0  0
   32.1073   52.4362   23.1968 H   0  0  0  0  0
   33.4814   51.3557   22.8575 H   0  0  0  0  0
   33.6150   52.5929   24.1312 H   0  0  0  0  0
   34.2115   49.0827   19.1373 H   0  0  0  0  0
   32.7600   48.8733   20.1473 H   0  0  0  0  0
   32.8739   48.0526   18.5710 H   0  0  0  0  0
   31.2961   50.9292   16.8547 H   0  0  0  0  0
   31.9656   49.0534   15.3902 H   0  0  0  0  0
   32.9780   48.3985   16.8226 H   0  0  0  0  0
   34.4861   50.2009   16.5634 H   0  0  0  0  0
   34.8113   48.1663   15.1920 H   0  0  0  0  0
   33.8216   48.8813   13.8956 H   0  0  0  0  0
   35.3860   49.6137   14.3284 H   0  0  0  0  0
   32.7276   51.1349   14.2762 H   0  0  0  0  0
   32.9241   51.9419   15.8514 H   0  0  0  0  0
   34.3055   51.8216   14.7341 H   0  0  0  0  0
   30.3548   50.4121   15.2416 H   0  0  0  0  0
   28.7141   49.6399   14.7161 H   0  0  0  0  0
   28.4726   47.7781   17.9204 H   0  0  0  0  0
   28.2191   47.4715   16.1545 H   0  0  0  0  0
   26.7737   49.4267   15.9998 H   0  0  0  0  0
   25.7433   47.3022   16.6650 H   0  0  0  0  0
   26.0410   47.6852   18.3784 H   0  0  0  0  0
   24.9114   48.6800   17.4269 H   0  0  0  0  0
   27.3371   49.7919   18.9554 H   0  0  0  0  0
   27.9181   50.8369   17.6358 H   0  0  0  0  0
   26.1757   50.7336   17.9883 H   0  0  0  0  0
   27.0231   48.1992   14.9757 H   0  0  0  0  0
  1  2  1  0  0  0
  1  3  1  0  0  0
  1 84  1  0  0  0
  3  4  1  0  0  0
  3  6  1  0  0  0
  4  5  2  0  0  0
  4 14  1  0  0  0
  6  7  1  0  0  0
  6  8  1  0  0  0
  8  9  1  0  0  0
  8 10  1  0  0  0
 10 11  1  0  0  0
 11 12  2  0  0  0
 12 13  1  0  0  0
 14 15  1  0  0  0
 15 16  1  0  0  0
 15 18  1  0  0  0
 16 17  2  0  0  0
 16 20  1  0  0  0
 18 19  1  0  0  0
 20 21  1  0  0  0
 20 24  1  0  0  0
 21 22  1  0  0  0
 22 23  2  0  0  0
 22 25  1  0  0  0
 25 26  1  0  0  0
 25 27  1  0  0  0
 27 28  1  0  0  0
 27 32  1  0  0  0
 28 29  1  0  0  0
 29 30  1  0  0  0
 29 31  1  0  0  0
 32 33  2  0  0  0
 32 34  1  0  0  0
 34 35  1  0  0  0
 35 36  1  0  0  0
 35 38  1  0  0  0
 36 37  2  0  0  0
 36 41  1  0  0  0
 38 39  1  0  0  0
 38 40  1  0  0  0
 41 42  1  0  0  0
 41 43  1  0  0  0
 43 44  1  0  0  0
 43 48  1  0  0  0
 44 45  1  0  0  0
 45 46  1  0  0  0
 45 47  1  0  0  0
 48 49  2  0  0  0
 48 50  1  0  0  0
 50 51  1  0  0  0
 51 52  1  0  0  0
 51 54  1  0  0  0
 52 53  2  0  0  0
 52 55  1  0  0  0
 55 56  1  0  0  0
 56 57  1  0  0  0
 56 58  1  0  0  0
 58 59  2  0  0  0
 58 60  1  0  0  0
 60 61  1  0  0  0
 60 62  1  0  0  0
 62 63  1  0  0  0
 62 67  1  0  0  0
 63 64  1  0  0  0
 64 65  1  0  0  0
 64 66  1  0  0  0
 67 68  2  0  0  0
 67 69  1  0  0  0
 69 70  1  0  0  0
 69 71  1  0  0  0
 71 72  1  0  0  0
 71 76  1  0  0  0
 72 73  1  0  0  0
 73 74  1  0  0  0
 73 75  1  0  0  0
 76 77  2  0  0  0
 76 78  1  0  0  0
 78 79  2  0  0  0
 78 80  1  0  0  0
 80 81  1  0  0  0
 81 82  1  0  0  0
 81 83  1  0  0  0
 84 85  1  0  0  0
  1 86  1  0  0  0
  2 87  1  0  0  0
  2 88  1  0  0  0
  2 89  1  0  0  0
  3 90  1  0  0  0
  6 91  1  0  0  0
  7 92  1  0  0  0
  8 93  1  0  0  0
  9 94  1  0  0  0
  9 95  1  0  0  0
  9 96  1  0  0  0
 10 97  1  0  0  0
 10 98  1  0  0  0
 11 99  1  0  0  0
 12100  1  0  0  0
 13101  1  0  0  0
 13102  1  0  0  0
 13103  1  0  0  0
 14104  1  0  0  0
 15105  1  0  0  0
 18106  1  0  0  0
 18107  1  0  0  0
 19108  1  0  0  0
 19109  1  0  0  0
 19110  1  0  0  0
 21111  1  0  0  0
 21112  1  0  0  0
 24113  1  0  0  0
 24114  1  0  0  0
 24115  1  0  0  0
 26116  1  0  0  0
 26117  1  0  0  0
 26118  1  0  0  0
 27119  1  0  0  0
 28120  1  0  0  0
 28121  1  0  0  0
 29122  1  0  0  0
 30123  1  0  0  0
 30124  1  0  0  0
 30125  1  0  0  0
 31126  1  0  0  0
 31127  1  0  0  0
 31128  1  0  0  0
 34129  1  0  0  0
 35130  1  0  0  0
 38131  1  0  0  0
 39132  1  0  0  0
 39133  1  0  0  0
 39134  1  0  0  0
 40135  1  0  0  0
 40136  1  0  0  0
 40137  1  0  0  0
 42138  1  0  0  0
 42139  1  0  0  0
 42140  1  0  0  0
 43141  1  0  0  0
 44142  1  0  0  0
 44143  1  0  0  0
 45144  1  0  0  0
 46145  1  0  0  0
 46146  1  0  0  0
 46147  1  0  0  0
 47148  1  0  0  0
 47149  1  0  0  0
 47150  1  0  0  0
 50151  1  0  0  0
 51152  1  0  0  0
 54153  1  0  0  0
 54154  1  0  0  0
 54155  1  0  0  0
 55156  1  0  0  0
 56157  1  0  0  0
 57158  1  0  0  0
 57159  1  0  0  0
 57160  1  0  0  0
 61161  1  0  0  0
 61162  1  0  0  0
 61163  1  0  0  0
 62164  1  0  0  0
 63165  1  0  0  0
 63166  1  0  0  0
 64167  1  0  0  0
 65168  1  0  0  0
 65169  1  0  0  0
 65170  1  0  0  0
 66171  1  0  0  0
 66172  1  0  0  0
 66173  1  0  0  0
 70174  1  0  0  0
 70175  1  0  0  0
 70176  1  0  0  0
 71177  1  0  0  0
 72178  1  0  0  0
 72179  1  0  0  0
 73180  1  0  0  0
 74181  1  0  0  0
 74182  1  0  0  0
 74183  1  0  0  0
 75184  1  0  0  0
 75185  1  0  0  0
 75186  1  0  0  0
 79187  1  0  0  0
 79188  1  0  0  0
 80189  1  0  0  0
 80190  1  0  0  0
 81191  1  0  0  0
 82192  1  0  0  0
 82193  1  0  0  0
 82194  1  0  0  0
 83195  1  0  0  0
 83196  1  0  0  0
 83197  1  0  0  0
 85198  1  0  0  0
M  END
$$$$
