6fsy_ligand
  -I-interpret- 

 38 40  0  0  0  0  0  0  0  0999 V2000
   32.5000   15.1440   -0.9330 C   0  0  0  0  0
   27.6260   16.1080   -4.6230 C   0  0  0  0  0
   30.4190   18.8680    1.9890 C   0  0  0  0  0
   29.6140   16.1870    0.3770 C   0  0  0  0  0
   28.7630   16.0060    1.4810 C   0  0  0  0  0
   29.2310   15.7480   -0.8960 C   0  0  0  0  0
   28.0080   15.1490   -1.0960 C   0  0  0  0  0
   27.1360   15.0030    0.0130 C   0  0  0  0  0
   27.5180   15.4410    1.2970 C   0  0  0  0  0
   27.6860   14.7220   -2.5200 C   0  0  0  0  0
   27.1460   15.9010   -3.3310 C   0  0  0  0  0
   32.6570   18.1240    1.0050 N   0  0  0  0  0
   27.2150   17.1600   -5.3530 N   0  0  0  0  0
   31.3060   17.9520    1.1860 C   0  0  0  0  0
   33.1050   17.1210    0.2260 O   0  0  0  0  0
   32.1490   16.3200   -0.0520 C   0  0  0  0  0
   30.9600   16.7900    0.5120 C   0  0  0  0  0
   26.6700   15.3350    2.3800 O   0  0  0  0  0
   26.7300   13.7200   -2.4880 O   0  0  0  0  0
   26.2780   18.0050   -4.9390 C   0  0  0  0  0
   25.7830   17.8830   -3.6550 C   0  0  0  0  0
   26.2250   16.8070   -2.8600 C   0  0  0  0  0
   32.8767   15.5075   -1.8891 H   0  0  0  0  0
   33.2660   14.5416   -0.4446 H   0  0  0  0  0
   31.6097   14.5373   -1.0988 H   0  0  0  0  0
   28.3447   15.4072   -5.0478 H   0  0  0  0  0
   30.7706   18.9000    3.0202 H   0  0  0  0  0
   30.4516   19.8701    1.5614 H   0  0  0  0  0
   29.3954   18.4942    1.9642 H   0  0  0  0  0
   29.0850   16.3104    2.4769 H   0  0  0  0  0
   29.9093   15.8821   -1.7386 H   0  0  0  0  0
   26.1569   14.5457   -0.1297 H   0  0  0  0  0
   28.6001   14.3612   -2.9916 H   0  0  0  0  0
   25.8474   14.9256    2.1020 H   0  0  0  0  0
   26.5237   13.4474   -3.3850 H   0  0  0  0  0
   25.9045   18.7843   -5.6033 H   0  0  0  0  0
   25.0651   18.6045   -3.2649 H   0  0  0  0  0
   25.8289   16.6904   -1.8512 H   0  0  0  0  0
 16  1  1  0  0  0
 11  2  4  0  0  0
  2 13  4  0  0  0
 14  3  1  0  0  0
  4  5  4  0  0  0
  4  6  4  0  0  0
 17  4  1  0  0  0
  5  9  4  0  0  0
  6  7  4  0  0  0
  7  8  4  0  0  0
  7 10  1  0  0  0
  9  8  4  0  0  0
  9 18  1  0  0  0
 10 11  1  0  0  0
 10 19  1  0  0  0
 11 22  4  0  0  0
 12 14  4  0  0  0
 15 12  4  0  0  0
 13 20  4  0  0  0
 14 17  4  0  0  0
 15 16  4  0  0  0
 16 17  4  0  0  0
 20 21  4  0  0  0
 21 22  4  0  0  0
  1 23  1  0  0  0
  1 24  1  0  0  0
  1 25  1  0  0  0
  2 26  1  0  0  0
  3 27  1  0  0  0
  3 28  1  0  0  0
  3 29  1  0  0  0
  5 30  1  0  0  0
  6 31  1  0  0  0
  8 32  1  0  0  0
 10 33  1  0  0  0
 18 34  1  0  0  0
 19 35  1  0  0  0
 20 36  1  0  0  0
 21 37  1  0  0  0
 22 38  1  0  0  0
M  END
$$$$
