### 
### Created by X-TOOL on Mon Aug  2 16:17:02 2021
### 

@<TRIPOS>MOLECULE
5xvw_ligand
  183   184     1     0     0
SMALL
GAST_HUCK


@<TRIPOS>ATOM
      1 N           5.8360   -2.7920  -34.6570 N.4       1 ILE         0.2381
      2 CA          6.0010   -1.9760  -33.4600 C.3       1 ILE         0.0676
      3 C           5.0210   -2.4420  -32.3790 C.2       1 ILE         0.2270
      4 O           4.3790   -3.4800  -32.5390 O.2       1 ILE        -0.3907
      5 CB          5.8250   -0.4900  -33.7950 C.3       1 ILE         0.0164
      6 CG1         4.3440   -0.1590  -34.0040 C.3       1 ILE        -0.0460
      7 CG2         6.6400   -0.1340  -35.0330 C.3       1 ILE        -0.0551
      8 CD1         4.1030    1.1880  -34.6460 C.3       1 ILE        -0.0647
      9 N           4.9140   -1.7050  -31.2730 N.am      1 ILE        -0.2610
     10 CA          3.9860   -2.0650  -30.2000 C.3       1 ILE         0.1313
     11 C           2.6570   -1.3480  -30.4380 C.2       1 ILE         0.2039
     12 O           2.5650   -0.1250  -30.3010 O.2       1 ILE        -0.3944
     13 CB          4.5740   -1.7230  -28.8320 C.3       1 ILE        -0.0101
     14 CG          3.7640   -2.1170  -27.5840 C.3       1 ILE        -0.0425
     15 CD1         3.4700   -3.6080  -27.5730 C.3       1 ILE        -0.0625
     16 CD2         4.4480   -1.7070  -26.2690 C.3       1 ILE        -0.0625
     17 N           1.6280   -2.1030  -30.8070 N.am      1 ILE        -0.2640
     18 CA          0.3080   -1.5200  -31.0020 C.3       1 ILE         0.1282
     19 C          -0.7440   -2.5420  -30.6070 C.2       1 ILE         0.2037
     20 O          -0.4890   -3.7530  -30.6150 O.2       1 ILE        -0.3944
     21 CB          0.0970   -1.0690  -32.4520 C.3       1 ILE        -0.0244
     22 N          -1.9340   -2.0410  -30.2540 N.am      1 ILE        -0.2627
     23 CA         -3.0620   -2.9280  -29.9980 C.3       1 ILE         0.1352
     24 C          -3.3580   -3.7630  -31.2350 C.2       1 ILE         0.2050
     25 O          -3.4080   -3.2440  -32.3510 O.2       1 ILE        -0.3943
     26 CB         -4.3260   -2.1470  -29.6280 C.3       1 ILE         0.0042
     27 CG         -4.2880   -1.2180  -28.4260 C.2       1 ILE        -0.0418
     28 CD1        -4.4470    0.1390  -28.4530 C.2       1 ILE         0.0167
     29 CD2        -4.1910   -1.5820  -27.0280 C.ar      1 ILE        -0.0214
     30 NE1        -4.4360    0.6460  -27.1600 N.pl3     1 ILE        -0.2890
     31 CE2        -4.2640   -0.3860  -26.2750 C.ar      1 ILE         0.0603
     32 CE3        -4.0260   -2.7930  -26.3480 C.ar      1 ILE        -0.0747
     33 CZ2        -4.1760   -0.3670  -24.8710 C.ar      1 ILE        -0.0443
     34 CZ3        -3.9290   -2.7680  -24.9460 C.ar      1 ILE        -0.0792
     35 CH2        -4.0140   -1.5680  -24.2300 C.ar      1 ILE        -0.0768
     36 N          -3.6150   -5.0550  -31.0250 N.am      1 ILE        -0.2663
     37 CA         -3.8810   -5.9420  -32.1450 C.3       1 ILE         0.1201
     38 C          -5.1950   -5.6640  -32.8400 C.2       1 ILE         0.2007
     39 O          -5.3110   -5.8660  -34.0500 O.2       1 ILE        -0.3947
     40 N          -6.1960   -5.2030  -32.0950 N.am      1 ILE        -0.2640
     41 CA         -7.4930   -4.8310  -32.6450 C.3       1 ILE         0.1311
     42 C          -8.3330   -4.1960  -31.5470 C.2       1 ILE         0.2037
     43 O          -7.8280   -3.8990  -30.4570 O.2       1 ILE        -0.3944
     44 CB         -8.2190   -6.0380  -33.2450 C.3       1 ILE        -0.0092
     45 CG         -8.6120   -7.1060  -32.2340 C.3       1 ILE        -0.0156
     46 CD         -8.5850   -8.4830  -32.8910 C.3       1 ILE         0.0627
     47 NE         -9.2700   -9.5010  -32.0970 N.pl3     1 ILE        -0.2723
     48 CZ         -9.0310  -10.8060  -32.1870 C.cat     1 ILE         0.2882
     49 NH1        -9.7010  -11.6620  -31.4260 N.pl3     1 ILE        -0.2849
     50 NH2        -8.1220  -11.2570  -33.0420 N.pl3     1 ILE        -0.2849
     51 N          -9.6050   -3.9860  -31.8060 N.am      1 ILE        -0.2664
     52 CA        -10.4200   -3.2900  -30.8460 C.3       1 ILE         0.1201
     53 C         -11.8750   -3.5250  -31.0860 C.2       1 ILE         0.2005
     54 O         -12.2640   -4.5020  -31.7300 O.2       1 ILE        -0.3947
     55 N         -12.6820   -2.6120  -30.5590 N.am      1 ILE        -0.2666
     56 CA        -14.1240   -2.7240  -30.6480 C.3       1 ILE         0.1201
     57 C         -14.7590   -1.3610  -30.5440 C.2       1 ILE         0.2008
     58 O         -14.1250   -0.3860  -30.1330 O.2       1 ILE        -0.3947
     59 N         -16.0240   -1.2940  -30.9410 N.am      1 ILE        -0.2616
     60 CA        -16.7280   -0.0260  -30.9100 C.3       1 ILE         0.1565
     61 C         -17.0100    0.3600  -29.4650 C.2       1 ILE         0.2065
     62 O         -17.3990   -0.4860  -28.6560 O.2       1 ILE        -0.3943
     63 CB        -18.0330   -0.1230  -31.7060 C.3       1 ILE         0.0924
     64 OG1       -17.7240   -0.2790  -33.0950 O.3       1 ILE        -0.3874
     65 CG2       -18.8660    1.1250  -31.5180 C.3       1 ILE        -0.0346
     66 N         -16.7770    1.6330  -29.1450 N.am      1 ILE        -0.2636
     67 CA        -17.0950    2.1960  -27.8370 C.3       1 ILE         0.1311
     68 C         -18.5340    1.8870  -27.4450 C.2       1 ILE         0.2040
     69 O         -19.4610    2.0960  -28.2300 O.2       1 ILE        -0.3944
     70 CB        -16.8620    3.7060  -27.8980 C.3       1 ILE        -0.0092
     71 CG        -17.2360    4.4840  -26.6820 C.3       1 ILE        -0.0156
     72 CD        -16.9990    5.9670  -26.9260 C.3       1 ILE         0.0627
     73 NE        -15.6060    6.1980  -27.2710 N.pl3     1 ILE        -0.2723
     74 CZ        -14.6830    6.6430  -26.4270 C.cat     1 ILE         0.2882
     75 NH1       -15.0020    6.9430  -25.1720 N.pl3     1 ILE        -0.2849
     76 NH2       -13.4410    6.8150  -26.8570 N.pl3     1 ILE        -0.2849
     77 N         -18.7210    1.3830  -26.2290 N.am      1 ILE        -0.2616
     78 CA        -20.0550    0.9790  -25.7990 C.3       1 ILE         0.1539
     79 C         -20.9750    2.1940  -25.6750 C.2       1 ILE         0.2058
     80 O         -20.5600    3.2650  -25.2240 O.2       1 ILE        -0.3943
     81 CB        -19.9650    0.2200  -24.4720 C.3       1 ILE         0.0843
     82 OG        -19.0700   -0.8810  -24.6030 O.3       1 ILE        -0.3903
     83 N         -22.2270    2.0340  -26.1060 N.am      1 ILE        -0.2673
     84 CA        -23.2270    3.0960  -25.9540 C.3       1 ILE         0.1110
     85 C         -24.6430    2.5860  -26.2300 C.2       1 ILE         0.0624
     86 O         -25.2850    1.9940  -25.3610 O.co2     1 ILE        -0.5665
     87 CB        -22.9080    4.2950  -26.8670 C.3       1 ILE         0.0718
     88 CG        -22.9390    3.9460  -28.3460 C.2       1 ILE         0.1774
     89 OD1       -23.9420    3.4460  -28.8590 O.2       1 ILE        -0.3971
     90 ND2       -21.8350    4.2210  -29.0460 N.am      1 ILE        -0.3007
     91 OXT       -25.1760    2.7550  -27.3280 O.co2     1 ILE        -0.5665
     92 H1          5.9546   -3.7645  -34.4197 H         1 ILE         0.2015
     93 H2          6.5261   -2.5268  -35.3422 H         1 ILE         0.2015
     94 H3          4.9133   -2.6490  -35.0366 H         1 ILE         0.2015
     95 H4          7.0232   -2.1191  -33.0797 H         1 ILE         0.1101
     96 H5          6.1977    0.1060  -32.9489 H         1 ILE         0.0378
     97 H6          3.8448   -0.1699  -33.0239 H         1 ILE         0.0269
     98 H7          3.9034   -0.9338  -34.6486 H         1 ILE         0.0269
     99 H8          7.6978   -0.3803  -34.8589 H         1 ILE         0.0236
    100 H9          6.5432    0.9422  -35.2387 H         1 ILE         0.0236
    101 H10         6.2672   -0.7071  -35.8947 H         1 ILE         0.0236
    102 H11         3.0213    1.3508  -34.7615 H         1 ILE         0.0230
    103 H12         4.5854    1.2148  -35.6342 H         1 ILE         0.0230
    104 H13         4.5268    1.9787  -34.0095 H         1 ILE         0.0230
    105 H14         5.4810   -0.8872  -31.1743 H         1 ILE         0.1884
    106 H15         3.8097   -3.1502  -30.2353 H         1 ILE         0.0800
    107 H16         4.7170   -0.6328  -28.7996 H         1 ILE         0.0315
    108 H17         5.5510   -2.2233  -28.7604 H         1 ILE         0.0315
    109 H18         2.8033   -1.5839  -27.6366 H         1 ILE         0.0298
    110 H19         2.8915   -3.8610  -26.6723 H         1 ILE         0.0232
    111 H20         4.4165   -4.1684  -27.5702 H         1 ILE         0.0232
    112 H21         2.8891   -3.8738  -28.4685 H         1 ILE         0.0232
    113 H22         4.6570   -0.6272  -26.2856 H         1 ILE         0.0232
    114 H23         5.3916   -2.2614  -26.1581 H         1 ILE         0.0232
    115 H24         3.7847   -1.9391  -25.4228 H         1 ILE         0.0232
    116 H25         1.7616   -3.0833  -30.9526 H         1 ILE         0.1883
    117 H26         0.2125   -0.6401  -30.3488 H         1 ILE         0.0797
    118 H27        -0.9084   -0.6356  -32.5585 H         1 ILE         0.0277
    119 H28         0.1960   -1.9347  -33.1234 H         1 ILE         0.0277
    120 H29         0.8518   -0.3131  -32.7145 H         1 ILE         0.0277
    121 H30        -2.0499   -1.0517  -30.1653 H         1 ILE         0.1884
    122 H31        -2.7999   -3.5960  -29.1643 H         1 ILE         0.0815
    123 H32        -5.1190   -2.8858  -29.4403 H         1 ILE         0.0397
    124 H33        -4.5946   -1.5345  -30.5013 H         1 ILE         0.0397
    125 H34        -4.5651    0.7357  -29.3563 H         1 ILE         0.0795
    126 H35        -4.5404    1.6389  -26.9068 H         1 ILE         0.2216
    127 H36        -3.9741   -3.7302  -26.8903 H         1 ILE         0.0540
    128 H37        -4.2341    0.5627  -24.3166 H         1 ILE         0.0541
    129 H38        -3.7853   -3.6978  -24.4076 H         1 ILE         0.0510
    130 H39        -3.9505   -1.5888  -23.1481 H         1 ILE         0.0530
    131 H40        -3.6247   -5.4150  -30.0921 H         1 ILE         0.1881
    132 H41        -3.8970   -6.9769  -31.7726 H         1 ILE         0.0763
    133 H42        -3.0691   -5.8287  -32.8785 H         1 ILE         0.0763
    134 H43        -6.0514   -5.1071  -31.1102 H         1 ILE         0.1883
    135 H44        -7.3357   -4.0912  -33.4437 H         1 ILE         0.0800
    136 H45        -7.5575   -6.4998  -33.9927 H         1 ILE         0.0313
    137 H46        -9.1343   -5.6782  -33.7376 H         1 ILE         0.0313
    138 H47        -9.6265   -6.8998  -31.8623 H         1 ILE         0.0301
    139 H48        -7.9030   -7.0899  -31.3931 H         1 ILE         0.0301
    140 H49        -7.5368   -8.7882  -33.0254 H         1 ILE         0.0689
    141 H50        -9.0756   -8.4139  -33.8731 H         1 ILE         0.0689
    142 H51        -9.9841   -9.1873  -31.4242 H         1 ILE         0.2642
    143 H52        -9.5130  -12.6721  -31.4987 H         1 ILE         0.2615
    144 H53       -10.4091  -11.3164  -30.7626 H         1 ILE         0.2615
    145 H54        -7.5997  -10.5960  -33.6346 H         1 ILE         0.2615
    146 H55        -7.9387  -12.2681  -33.1131 H         1 ILE         0.2615
    147 H56       -10.0034   -4.3080  -32.6648 H         1 ILE         0.1881
    148 H57       -10.2158   -2.2116  -30.9196 H         1 ILE         0.0763
    149 H58       -10.1632   -3.6438  -29.8366 H         1 ILE         0.0763
    150 H59       -12.2837   -1.8252  -30.0875 H         1 ILE         0.1881
    151 H60       -14.4905   -3.3591  -29.8281 H         1 ILE         0.0763
    152 H61       -14.3944   -3.1782  -31.6127 H         1 ILE         0.0763
    153 H62       -16.4917   -2.1178  -31.2615 H         1 ILE         0.1884
    154 H63       -16.0925    0.7466  -31.3674 H         1 ILE         0.0826
    155 H64       -18.6054   -0.9952  -31.3573 H         1 ILE         0.0639
    156 H65       -17.2224    0.4708  -33.3928 H         1 ILE         0.2101
    157 H66       -19.7970    1.0350  -32.0969 H         1 ILE         0.0257
    158 H67       -18.2994    2.0003  -31.8685 H         1 ILE         0.0257
    159 H68       -19.1076    1.2475  -30.4519 H         1 ILE         0.0257
    160 H69       -16.3651    2.2299  -29.8335 H         1 ILE         0.1883
    161 H70       -16.4243    1.7575  -27.0835 H         1 ILE         0.0800
    162 H71       -17.4473    4.1012  -28.7413 H         1 ILE         0.0313
    163 H72       -15.7909    3.8721  -28.0853 H         1 ILE         0.0313
    164 H73       -16.6220    4.1511  -25.8322 H         1 ILE         0.0301
    165 H74       -18.2990    4.3168  -26.4541 H         1 ILE         0.0301
    166 H75       -17.2466    6.5303  -26.0142 H         1 ILE         0.0689
    167 H76       -17.6401    6.3071  -27.7526 H         1 ILE         0.0689
    168 H77       -15.3143    6.0025  -28.2393 H         1 ILE         0.2642
    169 H78       -14.2784    7.2876  -24.5250 H         1 ILE         0.2615
    170 H79       -15.9728    6.8309  -24.8465 H         1 ILE         0.2615
    171 H80       -13.1959    6.5819  -27.8299 H         1 ILE         0.2615
    172 H81       -12.7210    7.1817  -26.2182 H         1 ILE         0.2615
    173 H82       -17.9446    1.2806  -25.6072 H         1 ILE         0.1884
    174 H83       -20.4766    0.3036  -26.5580 H         1 ILE         0.0823
    175 H84       -20.9628   -0.1519  -24.1961 H         1 ILE         0.0606
    176 H85       -19.5967    0.8981  -23.6881 H         1 ILE         0.0606
    177 H86       -19.3881   -1.4676  -25.2793 H         1 ILE         0.2097
    178 H87       -22.4891    1.1728  -26.5415 H         1 ILE         0.1877
    179 H88       -23.1901    3.4433  -24.9109 H         1 ILE         0.0752
    180 H89       -21.9038    4.6677  -26.6167 H         1 ILE         0.0544
    181 H90       -23.6498    5.0851  -26.6786 H         1 ILE         0.0544
    182 H91       -21.7979    4.0130  -30.0234 H         1 ILE         0.1814
    183 H92       -21.0456    4.6349  -28.5926 H         1 ILE         0.1814
@<TRIPOS>BOND
     1    1    2 1  
     2    2    3 1  
     3    2    5 1  
     4    3    4 2  
     5    3    9 am 
     6    5    6 1  
     7    5    7 1  
     8    6    8 1  
     9    9   10 1  
    10   10   11 1  
    11   10   13 1  
    12   11   12 2  
    13   11   17 am 
    14   13   14 1  
    15   14   15 1  
    16   14   16 1  
    17   17   18 1  
    18   18   19 1  
    19   18   21 1  
    20   19   20 2  
    21   19   22 am 
    22   22   23 1  
    23   23   24 1  
    24   23   26 1  
    25   24   25 2  
    26   24   36 am 
    27   26   27 1  
    28   27   28 2  
    29   27   29 1  
    30   28   30 1  
    31   29   31 ar 
    32   29   32 ar 
    33   30   31 1  
    34   31   33 ar 
    35   32   34 ar 
    36   33   35 ar 
    37   34   35 ar 
    38   36   37 1  
    39   37   38 1  
    40   38   39 2  
    41   38   40 am 
    42   40   41 1  
    43   41   42 1  
    44   41   44 1  
    45   42   43 2  
    46   42   51 am 
    47   44   45 1  
    48   45   46 1  
    49   46   47 1  
    50   47   48 ar 
    51   48   49 ar 
    52   48   50 ar 
    53   51   52 1  
    54   52   53 1  
    55   53   54 2  
    56   53   55 am 
    57   55   56 1  
    58   56   57 1  
    59   57   58 2  
    60   57   59 am 
    61   59   60 1  
    62   60   61 1  
    63   60   63 1  
    64   61   62 2  
    65   61   66 am 
    66   63   64 1  
    67   63   65 1  
    68   66   67 1  
    69   67   68 1  
    70   67   70 1  
    71   68   69 2  
    72   68   77 am 
    73   70   71 1  
    74   71   72 1  
    75   72   73 1  
    76   73   74 ar 
    77   74   75 ar 
    78   74   76 ar 
    79   77   78 1  
    80   78   79 1  
    81   78   81 1  
    82   79   80 2  
    83   79   83 am 
    84   81   82 1  
    85   83   84 1  
    86   84   85 1  
    87   84   87 1  
    88   85   86 ar 
    89   85   91 ar 
    90   87   88 1  
    91   88   89 2  
    92   88   90 am 
    93    1   92 1  
    94    1   93 1  
    95    1   94 1  
    96    2   95 1  
    97    5   96 1  
    98    6   97 1  
    99    6   98 1  
   100    7   99 1  
   101    7  100 1  
   102    7  101 1  
   103    8  102 1  
   104    8  103 1  
   105    8  104 1  
   106    9  105 1  
   107   10  106 1  
   108   13  107 1  
   109   13  108 1  
   110   14  109 1  
   111   15  110 1  
   112   15  111 1  
   113   15  112 1  
   114   16  113 1  
   115   16  114 1  
   116   16  115 1  
   117   17  116 1  
   118   18  117 1  
   119   21  118 1  
   120   21  119 1  
   121   21  120 1  
   122   22  121 1  
   123   23  122 1  
   124   26  123 1  
   125   26  124 1  
   126   28  125 1  
   127   30  126 1  
   128   32  127 1  
   129   33  128 1  
   130   34  129 1  
   131   35  130 1  
   132   36  131 1  
   133   37  132 1  
   134   37  133 1  
   135   40  134 1  
   136   41  135 1  
   137   44  136 1  
   138   44  137 1  
   139   45  138 1  
   140   45  139 1  
   141   46  140 1  
   142   46  141 1  
   143   47  142 1  
   144   49  143 1  
   145   49  144 1  
   146   50  145 1  
   147   50  146 1  
   148   51  147 1  
   149   52  148 1  
   150   52  149 1  
   151   55  150 1  
   152   56  151 1  
   153   56  152 1  
   154   59  153 1  
   155   60  154 1  
   156   63  155 1  
   157   64  156 1  
   158   65  157 1  
   159   65  158 1  
   160   65  159 1  
   161   66  160 1  
   162   67  161 1  
   163   70  162 1  
   164   70  163 1  
   165   71  164 1  
   166   71  165 1  
   167   72  166 1  
   168   72  167 1  
   169   73  168 1  
   170   75  169 1  
   171   75  170 1  
   172   76  171 1  
   173   76  172 1  
   174   77  173 1  
   175   78  174 1  
   176   81  175 1  
   177   81  176 1  
   178   82  177 1  
   179   83  178 1  
   180   84  179 1  
   181   87  180 1  
   182   87  181 1  
   183   90  182 1  
   184   90  183 1  
@<TRIPOS>SUBSTRUCTURE
     1 ILE         1

