5xvw_ligand
  -I-interpret- 

181182  0  0  0  0  0  0  0  0999 V2000
    5.8360   -2.7920  -34.6570 N   0  3  0  0  0
    6.0010   -1.9760  -33.4600 C   0  0  0  0  0
    5.0210   -2.4420  -32.3790 C   0  0  0  0  0
    4.3790   -3.4800  -32.5390 O   0  0  0  0  0
    5.8250   -0.4900  -33.7950 C   0  0  0  0  0
    4.3440   -0.1590  -34.0040 C   0  0  0  0  0
    6.6400   -0.1340  -35.0330 C   0  0  0  0  0
    4.1030    1.1880  -34.6460 C   0  0  0  0  0
    4.9140   -1.7050  -31.2730 N   0  0  0  0  0
    3.9860   -2.0650  -30.2000 C   0  0  0  0  0
    2.6570   -1.3480  -30.4380 C   0  0  0  0  0
    2.5650   -0.1250  -30.3010 O   0  0  0  0  0
    4.5740   -1.7230  -28.8320 C   0  0  0  0  0
    3.7640   -2.1170  -27.5840 C   0  0  0  0  0
    3.4700   -3.6080  -27.5730 C   0  0  0  0  0
    4.4480   -1.7070  -26.2690 C   0  0  0  0  0
    1.6280   -2.1030  -30.8070 N   0  0  0  0  0
    0.3080   -1.5200  -31.0020 C   0  0  0  0  0
   -0.7440   -2.5420  -30.6070 C   0  0  0  0  0
   -0.4890   -3.7530  -30.6150 O   0  0  0  0  0
    0.0970   -1.0690  -32.4520 C   0  0  0  0  0
   -1.9340   -2.0410  -30.2540 N   0  0  0  0  0
   -3.0620   -2.9280  -29.9980 C   0  0  0  0  0
   -3.3580   -3.7630  -31.2350 C   0  0  0  0  0
   -3.4080   -3.2440  -32.3510 O   0  0  0  0  0
   -4.3260   -2.1470  -29.6280 C   0  0  0  0  0
   -4.2880   -1.2180  -28.4260 C   0  0  0  0  0
   -4.4470    0.1390  -28.4530 C   0  0  0  0  0
   -4.1910   -1.5820  -27.0280 C   0  0  0  0  0
   -4.4360    0.6460  -27.1600 N   0  0  0  0  0
   -4.2640   -0.3860  -26.2750 C   0  0  0  0  0
   -4.0260   -2.7930  -26.3480 C   0  0  0  0  0
   -4.1760   -0.3670  -24.8710 C   0  0  0  0  0
   -3.9290   -2.7680  -24.9460 C   0  0  0  0  0
   -4.0140   -1.5680  -24.2300 C   0  0  0  0  0
   -3.6150   -5.0550  -31.0250 N   0  0  0  0  0
   -3.8810   -5.9420  -32.1450 C   0  0  0  0  0
   -5.1950   -5.6640  -32.8400 C   0  0  0  0  0
   -5.3110   -5.8660  -34.0500 O   0  0  0  0  0
   -6.1960   -5.2030  -32.0950 N   0  0  0  0  0
   -7.4930   -4.8310  -32.6450 C   0  0  0  0  0
   -8.3330   -4.1960  -31.5470 C   0  0  0  0  0
   -7.8280   -3.8990  -30.4570 O   0  0  0  0  0
   -8.2190   -6.0380  -33.2450 C   0  0  0  0  0
   -8.6120   -7.1060  -32.2340 C   0  0  0  0  0
   -8.5850   -8.4830  -32.8910 C   0  0  0  0  0
   -9.2700   -9.5010  -32.0970 N   0  0  0  0  0
   -9.0310  -10.8060  -32.1870 C   0  0  0  0  0
   -9.7010  -11.6620  -31.4260 N   0  0  0  0  0
   -8.1220  -11.2570  -33.0420 N   0  0  0  0  0
   -9.6050   -3.9860  -31.8060 N   0  0  0  0  0
  -10.4200   -3.2900  -30.8460 C   0  0  0  0  0
  -11.8750   -3.5250  -31.0860 C   0  0  0  0  0
  -12.2640   -4.5020  -31.7300 O   0  0  0  0  0
  -12.6820   -2.6120  -30.5590 N   0  0  0  0  0
  -14.1240   -2.7240  -30.6480 C   0  0  0  0  0
  -14.7590   -1.3610  -30.5440 C   0  0  0  0  0
  -14.1250   -0.3860  -30.1330 O   0  0  0  0  0
  -16.0240   -1.2940  -30.9410 N   0  0  0  0  0
  -16.7280   -0.0260  -30.9100 C   0  0  0  0  0
  -17.0100    0.3600  -29.4650 C   0  0  0  0  0
  -17.3990   -0.4860  -28.6560 O   0  0  0  0  0
  -18.0330   -0.1230  -31.7060 C   0  0  0  0  0
  -17.7240   -0.2790  -33.0950 O   0  0  0  0  0
  -18.8660    1.1250  -31.5180 C   0  0  0  0  0
  -16.7770    1.6330  -29.1450 N   0  0  0  0  0
  -17.0950    2.1960  -27.8370 C   0  0  0  0  0
  -18.5340    1.8870  -27.4450 C   0  0  0  0  0
  -19.4610    2.0960  -28.2300 O   0  0  0  0  0
  -16.8620    3.7060  -27.8980 C   0  0  0  0  0
  -17.2360    4.4840  -26.6820 C   0  0  0  0  0
  -16.9990    5.9670  -26.9260 C   0  0  0  0  0
  -15.6060    6.1980  -27.2710 N   0  0  0  0  0
  -14.6830    6.6430  -26.4270 C   0  0  0  0  0
  -15.0020    6.9430  -25.1720 N   0  0  0  0  0
  -13.4410    6.8150  -26.8570 N   0  0  0  0  0
  -18.7210    1.3830  -26.2290 N   0  0  0  0  0
  -20.0550    0.9790  -25.7990 C   0  0  0  0  0
  -20.9750    2.1940  -25.6750 C   0  0  0  0  0
  -20.5600    3.2650  -25.2240 O   0  0  0  0  0
  -19.9650    0.2200  -24.4720 C   0  0  0  0  0
  -19.0700   -0.8810  -24.6030 O   0  0  0  0  0
  -22.2270    2.0340  -26.1060 N   0  0  0  0  0
  -23.2270    3.0960  -25.9540 C   0  0  0  0  0
  -24.6430    2.5860  -26.2300 C   0  0  0  0  0
  -25.2850    1.9940  -25.3610 O   0  0  0  0  0
  -22.9080    4.2950  -26.8670 C   0  0  0  0  0
  -22.9390    3.9460  -28.3460 C   0  0  0  0  0
  -23.9420    3.4460  -28.8590 O   0  0  0  0  0
  -21.8350    4.2210  -29.0460 N   0  0  0  0  0
  -25.1760    2.7550  -27.3280 O   0  0  0  0  0
    5.9562   -3.7757  -34.4157 H   0  0  0  0  0
    4.9020   -2.6464  -35.0402 H   0  0  0  0  0
    6.5348   -2.5227  -35.3496 H   0  0  0  0  0
    7.0119   -2.0985  -33.0713 H   0  0  0  0  0
    6.1889    0.1056  -32.9578 H   0  0  0  0  0
    3.8742   -0.1385  -33.0206 H   0  0  0  0  0
    3.9338   -0.9154  -34.6731 H   0  0  0  0  0
    6.2696   -0.7024  -35.8861 H   0  0  0  0  0
    6.5432    0.9326  -35.2358 H   0  0  0  0  0
    7.6879   -0.3785  -34.8592 H   0  0  0  0  0
    4.5235    1.9705  -34.0144 H   0  0  0  0  0
    4.5815    1.2133  -35.6250 H   0  0  0  0  0
    3.0309    1.3481  -34.7599 H   0  0  0  0  0
    5.4924   -0.8709  -31.1724 H   0  0  0  0  0
    3.8145   -3.1414  -30.2076 H   0  0  0  0  0
    4.6373   -0.6351  -28.8063 H   0  0  0  0  0
    5.5039   -2.2878  -28.7656 H   0  0  0  0  0
    2.8266   -1.5643  -27.6460 H   0  0  0  0  0
    2.8945   -3.8701  -28.4608 H   0  0  0  0  0
    4.4086   -4.1621  -27.5702 H   0  0  0  0  0
    2.8967   -3.8574  -26.6801 H   0  0  0  0  0
    5.4210   -2.1935  -26.2000 H   0  0  0  0  0
    4.5792   -0.6251  -26.2512 H   0  0  0  0  0
    3.8269   -2.0129  -25.4271 H   0  0  0  0  0
    1.7642   -3.1029  -30.9555 H   0  0  0  0  0
    0.2212   -0.6334  -30.3740 H   0  0  0  0  0
    0.8455   -0.3201  -32.7108 H   0  0  0  0  0
    0.1954   -1.9276  -33.1162 H   0  0  0  0  0
   -0.8995   -0.6397  -32.5563 H   0  0  0  0  0
   -2.0522   -1.0319  -30.1636 H   0  0  0  0  0
   -2.7857   -3.5675  -29.1596 H   0  0  0  0  0
   -5.0635   -2.9081  -29.3731 H   0  0  0  0  0
   -4.5156   -1.4963  -30.4816 H   0  0  0  0  0
   -4.5652    0.7362  -29.3571 H   0  0  0  0  0
   -3.9738   -3.7354  -26.8933 H   0  0  0  0  0
   -4.2344    0.5679  -24.3136 H   0  0  0  0  0
   -3.7845   -3.7030  -24.4046 H   0  0  0  0  0
   -3.9502   -1.5890  -23.1421 H   0  0  0  0  0
   -3.6249   -5.4222  -30.0735 H   0  0  0  0  0
   -3.9277   -6.9580  -31.7529 H   0  0  0  0  0
   -3.0868   -5.7917  -32.8762 H   0  0  0  0  0
   -6.0485   -5.1052  -31.0905 H   0  0  0  0  0
   -7.3374   -4.1158  -33.4527 H   0  0  0  0  0
   -7.5318   -6.5047  -33.9507 H   0  0  0  0  0
   -9.1416   -5.6659  -33.6904 H   0  0  0  0  0
   -9.6192   -6.9021  -31.8706 H   0  0  0  0  0
   -7.9055   -7.0911  -31.4041 H   0  0  0  0  0
   -7.5425   -8.7843  -32.9935 H   0  0  0  0  0
   -9.0973   -8.4061  -33.8500 H   0  0  0  0  0
   -9.9771   -9.1904  -31.4307 H   0  0  0  0  0
   -9.5164  -12.6625  -31.4996 H   0  0  0  0  0
  -10.4006  -11.3195  -30.7675 H   0  0  0  0  0
   -7.6063  -10.6026  -33.6304 H   0  0  0  0  0
  -10.0114   -4.3145  -32.6820 H   0  0  0  0  0
  -10.2241   -2.2217  -30.9384 H   0  0  0  0  0
  -10.1712   -3.6595  -29.8512 H   0  0  0  0  0
  -12.2757   -1.8094  -30.0781 H   0  0  0  0  0
  -14.4845   -3.3490  -29.8310 H   0  0  0  0  0
  -14.3889   -3.1689  -31.6071 H   0  0  0  0  0
  -16.5010   -2.1342  -31.2679 H   0  0  0  0  0
  -16.1071    0.7432  -31.3693 H   0  0  0  0  0
  -18.6018   -0.9807  -31.3470 H   0  0  0  0  0
  -18.5393   -0.3403  -33.5981 H   0  0  0  0  0
  -19.1046    1.2452  -30.4613 H   0  0  0  0  0
  -18.3035    1.9915  -31.8656 H   0  0  0  0  0
  -19.7882    1.0347  -32.0921 H   0  0  0  0  0
  -16.3568    2.2418  -29.8473 H   0  0  0  0  0
  -16.4526    1.7500  -27.0777 H   0  0  0  0  0
  -17.4965    4.0780  -28.7025 H   0  0  0  0  0
  -15.7881    3.8417  -28.0258 H   0  0  0  0  0
  -16.6250    4.1549  -25.8415 H   0  0  0  0  0
  -18.2901    4.3194  -26.4589 H   0  0  0  0  0
  -17.2408    6.5225  -26.0199 H   0  0  0  0  0
  -17.6320    6.3007  -27.7482 H   0  0  0  0  0
  -15.3171    6.0044  -28.2299 H   0  0  0  0  0
  -14.2905    7.3063  -24.5378 H   0  0  0  0  0
  -15.9583    6.8099  -24.8431 H   0  0  0  0  0
  -13.2035    6.6060  -27.8267 H   0  0  0  0  0
  -17.9291    1.2785  -25.5947 H   0  0  0  0  0
  -20.4829    0.3158  -26.5508 H   0  0  0  0  0
  -20.9539   -0.1506  -24.2019 H   0  0  0  0  0
  -19.5967    0.8926  -23.6973 H   0  0  0  0  0
  -19.0189   -1.3515  -23.7678 H   0  0  0  0  0
  -22.4943    1.1556  -26.5502 H   0  0  0  0  0
  -23.1838    3.4264  -24.9162 H   0  0  0  0  0
  -21.8996    4.6329  -26.6283 H   0  0  0  0  0
  -23.6685    5.0558  -26.6910 H   0  0  0  0  0
  -21.8004    4.0169  -30.0448 H   0  0  0  0  0
  -21.0267    4.6350  -28.5817 H   0  0  0  0  0
  -24.5716    3.2254  -27.9068 H   0  0  0  0  0
  1  2  1  0  0  0
  2  3  1  0  0  0
  2  5  1  0  0  0
  3  4  2  0  0  0
  3  9  1  0  0  0
  5  6  1  0  0  0
  5  7  1  0  0  0
  6  8  1  0  0  0
  9 10  1  0  0  0
 10 11  1  0  0  0
 10 13  1  0  0  0
 11 12  2  0  0  0
 11 17  1  0  0  0
 13 14  1  0  0  0
 14 15  1  0  0  0
 14 16  1  0  0  0
 17 18  1  0  0  0
 18 19  1  0  0  0
 18 21  1  0  0  0
 19 20  2  0  0  0
 19 22  1  0  0  0
 22 23  1  0  0  0
 23 24  1  0  0  0
 23 26  1  0  0  0
 24 25  2  0  0  0
 24 36  1  0  0  0
 26 27  1  0  0  0
 27 28  4  0  0  0
 27 29  4  0  0  0
 28 30  4  0  0  0
 29 31  4  0  0  0
 29 32  4  0  0  0
 30 31  4  0  0  0
 31 33  4  0  0  0
 32 34  4  0  0  0
 33 35  4  0  0  0
 34 35  4  0  0  0
 36 37  1  0  0  0
 37 38  1  0  0  0
 38 39  2  0  0  0
 38 40  1  0  0  0
 40 41  1  0  0  0
 41 42  1  0  0  0
 41 44  1  0  0  0
 42 43  2  0  0  0
 42 51  1  0  0  0
 44 45  1  0  0  0
 45 46  1  0  0  0
 46 47  1  0  0  0
 47 48  1  0  0  0
 48 49  1  0  0  0
 48 50  2  0  0  0
 51 52  1  0  0  0
 52 53  1  0  0  0
 53 54  2  0  0  0
 53 55  1  0  0  0
 55 56  1  0  0  0
 56 57  1  0  0  0
 57 58  2  0  0  0
 57 59  1  0  0  0
 59 60  1  0  0  0
 60 61  1  0  0  0
 60 63  1  0  0  0
 61 62  2  0  0  0
 61 66  1  0  0  0
 63 64  1  0  0  0
 63 65  1  0  0  0
 66 67  1  0  0  0
 67 68  1  0  0  0
 67 70  1  0  0  0
 68 69  2  0  0  0
 68 77  1  0  0  0
 70 71  1  0  0  0
 71 72  1  0  0  0
 72 73  1  0  0  0
 73 74  1  0  0  0
 74 75  1  0  0  0
 74 76  2  0  0  0
 77 78  1  0  0  0
 78 79  1  0  0  0
 78 81  1  0  0  0
 79 80  2  0  0  0
 79 83  1  0  0  0
 81 82  1  0  0  0
 83 84  1  0  0  0
 84 85  1  0  0  0
 84 87  1  0  0  0
 85 86  2  0  0  0
 85 91  1  0  0  0
 87 88  1  0  0  0
 88 89  2  0  0  0
 88 90  1  0  0  0
  1 92  1  0  0  0
  1 93  1  0  0  0
  1 94  1  0  0  0
  2 95  1  0  0  0
  5 96  1  0  0  0
  6 97  1  0  0  0
  6 98  1  0  0  0
  7 99  1  0  0  0
  7100  1  0  0  0
  7101  1  0  0  0
  8102  1  0  0  0
  8103  1  0  0  0
  8104  1  0  0  0
  9105  1  0  0  0
 10106  1  0  0  0
 13107  1  0  0  0
 13108  1  0  0  0
 14109  1  0  0  0
 15110  1  0  0  0
 15111  1  0  0  0
 15112  1  0  0  0
 16113  1  0  0  0
 16114  1  0  0  0
 16115  1  0  0  0
 17116  1  0  0  0
 18117  1  0  0  0
 21118  1  0  0  0
 21119  1  0  0  0
 21120  1  0  0  0
 22121  1  0  0  0
 23122  1  0  0  0
 26123  1  0  0  0
 26124  1  0  0  0
 28125  1  0  0  0
 32126  1  0  0  0
 33127  1  0  0  0
 34128  1  0  0  0
 35129  1  0  0  0
 36130  1  0  0  0
 37131  1  0  0  0
 37132  1  0  0  0
 40133  1  0  0  0
 41134  1  0  0  0
 44135  1  0  0  0
 44136  1  0  0  0
 45137  1  0  0  0
 45138  1  0  0  0
 46139  1  0  0  0
 46140  1  0  0  0
 47141  1  0  0  0
 49142  1  0  0  0
 49143  1  0  0  0
 50144  1  0  0  0
 51145  1  0  0  0
 52146  1  0  0  0
 52147  1  0  0  0
 55148  1  0  0  0
 56149  1  0  0  0
 56150  1  0  0  0
 59151  1  0  0  0
 60152  1  0  0  0
 63153  1  0  0  0
 64154  1  0  0  0
 65155  1  0  0  0
 65156  1  0  0  0
 65157  1  0  0  0
 66158  1  0  0  0
 67159  1  0  0  0
 70160  1  0  0  0
 70161  1  0  0  0
 71162  1  0  0  0
 71163  1  0  0  0
 72164  1  0  0  0
 72165  1  0  0  0
 73166  1  0  0  0
 75167  1  0  0  0
 75168  1  0  0  0
 76169  1  0  0  0
 77170  1  0  0  0
 78171  1  0  0  0
 81172  1  0  0  0
 81173  1  0  0  0
 82174  1  0  0  0
 83175  1  0  0  0
 84176  1  0  0  0
 87177  1  0  0  0
 87178  1  0  0  0
 90179  1  0  0  0
 90180  1  0  0  0
 91181  1  0  0  0
M  END
$$$$
