4r5y_ligand
  -I-interpret- 

 51 57  0  0  0  0  0  0  0  0999 V2000
   24.8590   13.2970  -18.4600 F   0  0  0  0  0
   24.0660   12.2460  -18.5740 C   0  0  0  0  0
   24.3900   11.5650  -19.6670 F   0  0  0  0  0
   24.2600   11.4660  -17.5250 F   0  0  0  0  0
   22.6120   12.6640  -18.6070 C   0  0  0  0  0
   22.1320   13.7160  -19.3950 C   0  0  0  0  0
   20.7750   14.0570  -19.3890 C   0  0  0  0  0
   21.7160   11.9560  -17.8200 C   0  0  0  0  0
   20.3670   12.2940  -17.8120 C   0  0  0  0  0
   19.8820   13.3390  -18.5910 C   0  0  0  0  0
   18.5360   13.4180  -18.3690 N   0  0  0  0  0
   19.3200   11.7740  -17.1530 N   0  0  0  0  0
   18.2030   12.4530  -17.4700 C   0  0  0  0  0
   16.8660   12.1090  -16.9120 C   0  0  0  0  0
   15.7410   12.7620  -17.7160 C   0  0  0  0  0
   14.4870   12.0650  -17.5360 O   0  0  0  0  0
   16.1110   13.2940  -16.3220 C   0  0  0  0  0
   15.0170   12.7620  -15.4730 C   0  0  0  0  0
   14.1210   12.0530  -16.2190 C   0  0  0  0  0
   13.0090   11.4470  -15.6540 C   0  0  0  0  0
   12.8370   11.5790  -14.2750 C   0  0  0  0  0
   14.8720   12.8890  -14.0980 C   0  0  0  0  0
   13.7640   12.2850  -13.4990 C   0  0  0  0  0
   13.5660   12.4110  -12.1450 O   0  0  0  0  0
   13.8100   11.3870  -11.2610 C   0  0  0  0  0
   14.1460   10.1070  -11.6930 C   0  0  0  0  0
   14.3890    9.1110  -10.7560 C   0  0  0  0  0
   14.3070    9.3790   -9.4440 N   0  0  0  0  0
   13.9900   10.6190   -9.0000 C   0  0  0  0  0
   13.9090   10.8880   -7.6750 N   0  0  0  0  0
   13.0320   11.7800   -7.2060 C   0  0  0  0  0
   12.6710   11.7930   -6.0410 O   0  0  0  0  0
   13.7370   11.6320   -9.9020 C   0  0  0  0  0
   13.3870   12.9970   -9.3730 C   0  0  0  0  0
   12.4770   12.8080   -8.1670 C   0  0  0  0  0
   22.8246   14.2774  -20.0220 H   0  0  0  0  0
   20.4159   14.8810  -20.0056 H   0  0  0  0  0
   22.0712   11.1298  -17.2041 H   0  0  0  0  0
   17.0987   11.1063  -16.5535 H   0  0  0  0  0
   15.6693   13.1318  -18.7388 H   0  0  0  0  0
   16.4173   14.2345  -15.8641 H   0  0  0  0  0
   12.2972   10.8895  -16.2628 H   0  0  0  0  0
   11.9690   11.1262  -13.7958 H   0  0  0  0  0
   15.5998   13.4425  -13.5047 H   0  0  0  0  0
   14.2178    9.8881  -12.7584 H   0  0  0  0  0
   14.6478    8.1058  -11.0885 H   0  0  0  0  0
   14.5271   10.4020   -7.0253 H   0  0  0  0  0
   12.8817   13.5828  -10.1408 H   0  0  0  0  0
   14.2903   13.5350   -9.0854 H   0  0  0  0  0
   12.3968   13.7607   -7.6435 H   0  0  0  0  0
   11.5058   12.4607   -8.5196 H   0  0  0  0  0
  1  2  1  0  0  0
  2  3  1  0  0  0
  2  4  1  0  0  0
  2  5  1  0  0  0
  5  6  4  0  0  0
  5  8  4  0  0  0
  6  7  4  0  0  0
  7 10  4  0  0  0
  8  9  4  0  0  0
  9 10  4  0  0  0
  9 12  4  0  0  0
 10 11  4  0  0  0
 11 13  4  0  0  0
 12 13  4  0  0  0
 13 14  1  0  0  0
 14 15  1  0  0  0
 14 17  1  0  0  0
 15 16  1  0  0  0
 15 17  1  0  0  0
 16 19  1  0  0  0
 17 18  1  0  0  0
 18 19  4  0  0  0
 18 22  4  0  0  0
 19 20  4  0  0  0
 20 21  4  0  0  0
 21 23  4  0  0  0
 22 23  4  0  0  0
 23 24  1  0  0  0
 24 25  1  0  0  0
 25 26  4  0  0  0
 25 33  4  0  0  0
 26 27  4  0  0  0
 27 28  4  0  0  0
 28 29  4  0  0  0
 29 30  1  0  0  0
 29 33  4  0  0  0
 30 31  1  0  0  0
 31 32  2  0  0  0
 31 35  1  0  0  0
 33 34  1  0  0  0
 34 35  1  0  0  0
  6 36  1  0  0  0
  7 37  1  0  0  0
  8 38  1  0  0  0
 14 39  1  0  0  0
 15 40  1  0  0  0
 17 41  1  0  0  0
 20 42  1  0  0  0
 21 43  1  0  0  0
 22 44  1  0  0  0
 26 45  1  0  0  0
 27 46  1  0  0  0
 30 47  1  0  0  0
 34 48  1  0  0  0
 34 49  1  0  0  0
 35 50  1  0  0  0
 35 51  1  0  0  0
M  END
$$$$
