3g30_ligand
  -I-interpret- 

 26 27  0  0  0  0  0  0  0  0999 V2000
   29.0860   41.1310   96.9280 F   0  0  0  0  0
   28.2640   41.1230   95.8540 C   0  0  0  0  0
   28.8170   41.0060   94.5780 C   0  0  0  0  0
   28.0130   41.0020   93.4450 C   0  0  0  0  0
   26.6260   41.1070   93.5820 C   0  0  0  0  0
   25.8390   41.0910   92.4970 F   0  0  0  0  0
   26.8730   41.2340   96.0350 C   0  0  0  0  0
   26.0120   41.2360   94.9280 C   0  0  0  0  0
   24.6590   41.3230   94.9960 N   0  0  0  0  0
   23.9540   42.0920   95.8330 C   0  0  0  0  0
   24.3470   42.3120   96.9770 O   0  0  0  0  0
   22.6670   42.7550   95.3370 C   0  0  0  0  0
   21.5450   42.0450   94.5160 C   0  0  0  0  0
   21.4750   42.1010   96.0400 C   0  0  0  0  0
   21.6680   40.6060   94.0400 C   0  0  0  0  0
   20.6420   39.8730   93.9640 O   0  0  0  0  0
   22.7930   40.1930   93.6830 O   0  0  0  0  0
   29.8978   40.9163   94.4685 H   0  0  0  0  0
   28.4612   40.9175   92.4550 H   0  0  0  0  0
   26.4624   41.3189   97.0411 H   0  0  0  0  0
   24.1278   40.7451   94.3447 H   0  0  0  0  0
   23.1465   43.7156   95.1489 H   0  0  0  0  0
   20.9963   42.3761   93.6343 H   0  0  0  0  0
   20.7445   42.3676   96.8038 H   0  0  0  0  0
   21.3066   41.4087   96.8649 H   0  0  0  0  0
   19.8779   40.3600   94.2812 H   0  0  0  0  0
  1  2  1  0  0  0
  2  3  4  0  0  0
  2  7  4  0  0  0
  3  4  4  0  0  0
  4  5  4  0  0  0
  5  6  1  0  0  0
  5  8  4  0  0  0
  7  8  4  0  0  0
  8  9  1  0  0  0
  9 10  1  0  0  0
 10 11  2  0  0  0
 10 12  1  0  0  0
 12 13  1  0  0  0
 12 14  1  0  0  0
 13 14  1  0  0  0
 13 15  1  0  0  0
 15 16  1  0  0  0
 15 17  2  0  0  0
  3 18  1  0  0  0
  4 19  1  0  0  0
  7 20  1  0  0  0
  9 21  1  0  0  0
 12 22  1  0  0  0
 13 23  1  0  0  0
 14 24  1  0  0  0
 14 25  1  0  0  0
 16 26  1  0  0  0
M  END
$$$$
