4rj7_ligand
  -I-interpret- 

 50 52  0  0  0  0  0  0  0  0999 V2000
  -52.9730    1.2320  -18.8220 C   0  0  0  0  0
  -51.0120    0.0600  -18.3110 C   0  0  0  0  0
  -48.1750   -1.1940  -20.3390 C   0  0  0  0  0
  -49.6770   -1.0330  -20.1450 C   0  0  0  0  0
  -50.3770   -2.3400  -20.5560 C   0  0  0  0  0
  -53.0790    1.6320  -17.4720 C   0  0  0  0  0
  -52.1690    1.5310  -15.1100 C   0  0  0  0  0
  -52.1120    1.1640  -16.5740 C   0  0  0  0  0
  -51.9410    0.4530  -19.1760 N   0  0  0  0  0
  -51.1100    0.3990  -17.0250 N   0  0  0  0  0
  -49.9470   -0.7330  -18.7310 N   0  0  0  0  0
  -50.6680   -2.3330  -21.9650 O   0  0  0  0  0
  -53.9080    1.6820  -19.7620 N   0  0  0  0  0
  -53.9230    1.4410  -21.1450 C   0  0  0  0  0
  -53.1010    0.4720  -21.7200 C   0  0  0  0  0
  -53.1460    0.2320  -23.0950 C   0  0  0  0  0
  -54.0820    0.9750  -23.8610 C   0  0  0  0  0
  -54.9140    1.8910  -23.2320 C   0  0  0  0  0
  -54.7980    2.1070  -21.9170 N   0  0  0  0  0
  -52.2980   -0.7870  -23.5810 N   0  0  0  0  0
  -52.3820   -1.3840  -24.7920 C   0  0  0  0  0
  -53.1960   -1.0180  -25.6450 O   0  0  0  0  0
  -51.4840   -2.4990  -25.1800 C   0  0  0  0  0
  -50.3880   -2.2380  -26.0150 C   0  0  0  0  0
  -49.6270   -3.2850  -26.5160 C   0  0  0  0  0
  -49.9700   -4.6010  -26.2220 C   0  0  0  0  0
  -51.0730   -4.8790  -25.4250 C   0  0  0  0  0
  -51.8350   -3.8390  -24.9200 C   0  0  0  0  0
  -53.1870   -4.2200  -23.9140 Cl  0  0  0  0  0
  -49.9570   -0.5950  -26.3520 Cl  0  0  0  0  0
  -47.6722   -0.2692  -20.0561 H   0  0  0  0  0
  -47.8147   -2.0109  -19.7138 H   0  0  0  0  0
  -47.9669   -1.4167  -21.3855 H   0  0  0  0  0
  -50.0546   -0.2169  -20.7611 H   0  0  0  0  0
  -51.3110   -2.4315  -20.0015 H   0  0  0  0  0
  -49.7185   -3.1798  -20.3342 H   0  0  0  0  0
  -53.8871    2.2837  -17.1398 H   0  0  0  0  0
  -52.1101    2.6144  -15.0058 H   0  0  0  0  0
  -53.1065    1.1741  -14.6835 H   0  0  0  0  0
  -51.3314    1.0684  -14.5879 H   0  0  0  0  0
  -49.3246   -1.1244  -18.0240 H   0  0  0  0  0
  -51.1039   -3.1541  -22.2047 H   0  0  0  0  0
  -54.6702    2.2539  -19.3981 H   0  0  0  0  0
  -52.4191   -0.1016  -21.0922 H   0  0  0  0  0
  -54.1472    0.8269  -24.9389 H   0  0  0  0  0
  -55.6619    2.4343  -23.8096 H   0  0  0  0  0
  -51.5522   -1.1026  -22.9609 H   0  0  0  0  0
  -48.7589   -3.0759  -27.1411 H   0  0  0  0  0
  -49.3693   -5.4190  -26.6197 H   0  0  0  0  0
  -51.3377   -5.9117  -25.1980 H   0  0  0  0  0
  1  6  4  0  0  0
  9  1  4  0  0  0
  1 13  1  0  0  0
  2  9  4  0  0  0
  2 10  4  0  0  0
 11  2  1  0  0  0
  4  3  1  0  0  0
  4  5  1  0  0  0
  4 11  1  0  0  0
  5 12  1  0  0  0
  6  8  4  0  0  0
  8  7  1  0  0  0
  8 10  4  0  0  0
 13 14  1  0  0  0
 14 15  4  0  0  0
 14 19  4  0  0  0
 15 16  4  0  0  0
 16 17  4  0  0  0
 16 20  1  0  0  0
 17 18  4  0  0  0
 18 19  4  0  0  0
 20 21  1  0  0  0
 21 22  2  0  0  0
 21 23  1  0  0  0
 23 24  4  0  0  0
 23 28  4  0  0  0
 24 25  4  0  0  0
 24 30  1  0  0  0
 25 26  4  0  0  0
 26 27  4  0  0  0
 27 28  4  0  0  0
 28 29  1  0  0  0
  3 31  1  0  0  0
  3 32  1  0  0  0
  3 33  1  0  0  0
  4 34  1  0  0  0
  5 35  1  0  0  0
  5 36  1  0  0  0
  6 37  1  0  0  0
  7 38  1  0  0  0
  7 39  1  0  0  0
  7 40  1  0  0  0
 11 41  1  0  0  0
 12 42  1  0  0  0
 13 43  1  0  0  0
 15 44  1  0  0  0
 17 45  1  0  0  0
 18 46  1  0  0  0
 20 47  1  0  0  0
 25 48  1  0  0  0
 26 49  1  0  0  0
 27 50  1  0  0  0
M  END
$$$$
