6euv_ligand
  -I-interpret- 

 47 51  0  0  0  0  0  0  0  0999 V2000
  -12.8100 -150.9640  175.0770 C   0  0  0  0  0
  -11.8900 -150.7940  174.0550 C   0  0  0  0  0
  -10.5440 -151.1360  174.2440 C   0  0  0  0  0
  -11.0230 -151.8060  176.4190 C   0  0  0  0  0
  -12.3410 -151.4780  176.2640 C   0  0  0  0  0
  -13.0030 -151.7910  177.5450 C   0  0  0  0  0
  -10.1180 -151.6410  175.4180 N   0  0  0  0  0
  -11.9970 -152.2900  178.3670 C   0  0  0  0  0
  -10.8210 -152.2900  177.6730 N   0  0  0  0  0
  -14.4480 -151.5940  177.8300 C   0  0  0  0  0
  -15.0170 -152.0840  178.9600 N   0  0  0  0  0
  -16.3240 -151.8990  179.1910 C   0  0  0  0  0
  -17.0900 -151.1990  178.2620 C   0  0  0  0  0
  -16.4900 -150.7120  177.1080 C   0  0  0  0  0
  -15.1750 -150.9220  176.9120 N   0  0  0  0  0
  -17.1740 -150.0330  176.1530 N   0  0  0  0  0
  -16.4060 -149.5730  174.9980 C   0  0  0  0  0
  -16.2210 -148.0810  175.1950 C   0  0  0  0  0
  -17.2520 -147.3460  174.3750 C   0  0  0  0  0
  -18.6280 -147.9900  174.5280 C   0  0  0  0  0
  -18.6030 -149.2990  173.7540 C   0  0  0  0  0
  -17.1560 -149.7720  173.6770 C   0  0  0  0  0
  -16.4760 -148.9270  172.6030 C   0  0  0  0  0
  -16.7110 -147.4570  172.9470 C   0  0  0  0  0
  -14.8980 -147.7240  174.6220 C   0  0  0  0  0
  -14.2880 -146.7690  175.1400 O   0  0  0  0  0
  -14.4860 -148.3880  173.6410 O   0  0  0  0  0
  -18.3990 -151.0100  178.4890 F   0  0  0  0  0
  -12.3150 -150.2930  172.8840 F   0  0  0  0  0
  -13.8599 -150.7019  174.9463 H   0  0  0  0  0
   -9.8328 -150.9915  173.4307 H   0  0  0  0  0
  -12.1265 -152.6257  179.3959 H   0  0  0  0  0
  -16.7834 -152.2928  180.0976 H   0  0  0  0  0
  -18.1744 -149.8526  176.2371 H   0  0  0  0  0
  -15.4744 -150.1356  174.9374 H   0  0  0  0  0
  -16.3060 -147.8254  176.2512 H   0  0  0  0  0
  -17.3953 -146.3094  174.6801 H   0  0  0  0  0
  -19.4047 -147.3307  174.1405 H   0  0  0  0  0
  -18.8515 -148.1709  175.5794 H   0  0  0  0  0
  -19.0053 -149.1520  172.7517 H   0  0  0  0  0
  -19.2175 -150.0459  174.2567 H   0  0  0  0  0
  -17.1407 -150.8385  173.4525 H   0  0  0  0  0
  -16.8908 -149.1570  171.6216 H   0  0  0  0  0
  -15.4079 -149.1423  172.5720 H   0  0  0  0  0
  -15.7701 -146.9118  172.8720 H   0  0  0  0  0
  -17.4344 -147.0325  172.2508 H   0  0  0  0  0
  -15.1273 -149.0689  173.4249 H   0  0  0  0  0
  1  2  4  0  0  0
  1  5  4  0  0  0
  2  3  4  0  0  0
  2 29  1  0  0  0
  3  7  4  0  0  0
  5  4  4  0  0  0
  4  7  4  0  0  0
  4  9  4  0  0  0
  5  6  4  0  0  0
  6  8  4  0  0  0
  6 10  1  0  0  0
  8  9  4  0  0  0
 10 11  4  0  0  0
 10 15  4  0  0  0
 11 12  4  0  0  0
 12 13  4  0  0  0
 13 14  4  0  0  0
 13 28  1  0  0  0
 14 15  4  0  0  0
 14 16  1  0  0  0
 16 17  1  0  0  0
 17 18  1  0  0  0
 17 22  1  0  0  0
 18 19  1  0  0  0
 18 25  1  0  0  0
 19 20  1  0  0  0
 19 24  1  0  0  0
 20 21  1  0  0  0
 21 22  1  0  0  0
 22 23  1  0  0  0
 23 24  1  0  0  0
 25 26  2  0  0  0
 25 27  1  0  0  0
  1 30  1  0  0  0
  3 31  1  0  0  0
  8 32  1  0  0  0
 12 33  1  0  0  0
 16 34  1  0  0  0
 17 35  1  0  0  0
 18 36  1  0  0  0
 19 37  1  0  0  0
 20 38  1  0  0  0
 20 39  1  0  0  0
 21 40  1  0  0  0
 21 41  1  0  0  0
 22 42  1  0  0  0
 23 43  1  0  0  0
 23 44  1  0  0  0
 24 45  1  0  0  0
 24 46  1  0  0  0
 27 47  1  0  0  0
M  END
$$$$
