2q88_ligand
  -I-interpret- 

 20 20  0  0  0  0  0  0  0  0999 V2000
   24.0780   41.6350   73.3820 O   0  0  0  0  0
   23.5290   40.8460   72.6130 C   0  0  0  0  0
   24.0220   40.6220   71.5010 O   0  0  0  0  0
   22.2270   40.1680   73.0190 C   0  0  0  0  0
   22.2010   39.7480   74.4760 C   0  0  0  0  0
   20.8430   39.1210   74.8070 C   0  0  0  0  0
   20.5780   37.9940   73.8750 N   0  0  0  0  0
   21.1280   37.9710   72.5840 C   0  0  0  0  0
   20.8530   36.7870   71.6410 C   0  0  0  0  0
   21.9620   39.0090   72.1470 N   0  0  0  0  0
   23.4744   39.9888   71.0311 H   0  0  0  0  0
   21.4375   40.9094   72.8957 H   0  0  0  0  0
   22.3594   40.6222   75.1074 H   0  0  0  0  0
   22.9901   39.0180   74.6563 H   0  0  0  0  0
   20.0603   39.8721   74.7011 H   0  0  0  0  0
   20.8539   38.7503   75.8320 H   0  0  0  0  0
   21.2213   35.8680   72.0968 H   0  0  0  0  0
   19.7801   36.7036   71.4679 H   0  0  0  0  0
   21.3635   36.9535   70.6924 H   0  0  0  0  0
   22.3877   38.9625   71.2213 H   0  0  0  0  0
  1  2  2  0  0  0
  2  3  1  0  0  0
  2  4  1  0  0  0
  4  5  1  0  0  0
  4 10  1  0  0  0
  5  6  1  0  0  0
  6  7  1  0  0  0
  7  8  2  0  0  0
  8  9  1  0  0  0
  8 10  1  0  0  0
  3 11  1  0  0  0
  4 12  1  0  0  0
  5 13  1  0  0  0
  5 14  1  0  0  0
  6 15  1  0  0  0
  6 16  1  0  0  0
  9 17  1  0  0  0
  9 18  1  0  0  0
  9 19  1  0  0  0
 10 20  1  0  0  0
M  END
$$$$
