3rv7_ligand
  -I-interpret- 

 33 33  0  0  0  0  0  0  0  0999 V2000
   41.5620   -1.7870   38.9920 C   0  0  0  0  0
   43.9080   -1.1790   38.9660 C   0  0  0  0  0
   40.8970    3.7960   39.2690 O   0  0  0  0  0
   40.0560    2.6620   33.0550 O   0  0  0  0  0
   40.4960    2.2320   40.6920 O   0  0  0  0  0
   37.9840    2.3730   32.9350 O   0  0  0  0  0
   41.2690    2.3280   34.9780 O   0  0  0  0  0
   42.2330    0.5590   39.3680 C   0  0  0  0  0
   37.9120    1.1060   36.8580 C   0  0  0  0  0
   39.1200    1.1120   37.5470 C   0  0  0  0  0
   37.8360    1.5060   35.5350 C   0  0  0  0  0
   41.5340    1.6050   37.4060 O   0  0  0  0  0
   40.9870    2.6110   39.6100 C   0  0  0  0  0
   39.0030    2.3320   33.5860 C   0  0  0  0  0
   41.7500    1.6260   38.7410 C   0  0  0  0  0
   40.1640    1.9260   35.5960 C   0  0  0  0  0
   40.2680    1.5400   36.8980 C   0  0  0  0  0
   38.9880    1.9210   34.8930 C   0  0  0  0  0
   42.5280   -0.6980   38.5880 C   0  0  0  0  0
   41.6692   -1.9890   40.0577 H   0  0  0  0  0
   40.5426   -1.4625   38.7832 H   0  0  0  0  0
   41.7797   -2.6925   38.4256 H   0  0  0  0  0
   44.6393   -0.4080   38.7232 H   0  0  0  0  0
   43.9386   -1.3868   40.0356 H   0  0  0  0  0
   44.1391   -2.0883   38.4112 H   0  0  0  0  0
   40.7724    2.5788   33.6886 H   0  0  0  0  0
   40.6535    1.2914   40.8016 H   0  0  0  0  0
   41.0583    2.5700   34.0732 H   0  0  0  0  0
   42.4155    0.5917   40.4421 H   0  0  0  0  0
   37.0068    0.7797   37.3701 H   0  0  0  0  0
   39.1638    0.7839   38.5855 H   0  0  0  0  0
   36.8823    1.4940   35.0073 H   0  0  0  0  0
   42.4464   -0.4856   37.5220 H   0  0  0  0  0
 19  1  1  0  0  0
 19  2  1  0  0  0
 13  3  2  0  0  0
 14  4  1  0  0  0
 13  5  1  0  0  0
 14  6  2  0  0  0
 16  7  1  0  0  0
 15  8  2  0  0  0
  8 19  1  0  0  0
 10  9  4  0  0  0
  9 11  4  0  0  0
 17 10  4  0  0  0
 11 18  4  0  0  0
 12 15  1  0  0  0
 17 12  1  0  0  0
 15 13  1  0  0  0
 18 14  1  0  0  0
 16 17  4  0  0  0
 16 18  4  0  0  0
  1 20  1  0  0  0
  1 21  1  0  0  0
  1 22  1  0  0  0
  2 23  1  0  0  0
  2 24  1  0  0  0
  2 25  1  0  0  0
  4 26  1  0  0  0
  5 27  1  0  0  0
  7 28  1  0  0  0
  8 29  1  0  0  0
  9 30  1  0  0  0
 10 31  1  0  0  0
 11 32  1  0  0  0
 19 33  1  0  0  0
M  END
$$$$
