4d1b_ligand
  -I-interpret- 

 24 25  0  0  0  0  0  0  0  0999 V2000
    4.5920   11.7070  -24.6860 N   0  0  0  0  0
    5.0900   13.0200  -25.0490 C   0  0  0  0  0
    6.0720   13.5750  -24.5770 O   0  0  0  0  0
    4.2150   13.5610  -26.0690 N   0  0  0  0  0
    3.1960   12.6010  -26.3330 C   0  0  0  0  0
    2.2860   12.7240  -27.1410 O   0  0  0  0  0
    3.4300   11.4350  -25.4700 C   0  0  0  0  0
    2.2360   11.2180  -24.6000 C   0  0  0  0  0
    2.4190    9.9930  -23.7640 C   0  0  0  0  0
    2.3990    7.5390  -23.4580 C   0  0  0  0  0
    2.8200   10.1260  -22.3360 C   0  0  0  0  0
    2.9850    9.0160  -21.5610 C   0  0  0  0  0
    2.7660    7.6630  -22.1490 C   0  0  0  0  0
    2.2180    8.7550  -24.3010 C   0  0  0  0  0
    5.0018   11.0844  -23.9897 H   0  0  0  0  0
    4.3117   14.4709  -26.5197 H   0  0  0  0  0
    3.5865   10.5302  -26.0573 H   0  0  0  0  0
    1.3554   11.0908  -25.2296 H   0  0  0  0  0
    2.1115   12.0804  -23.9451 H   0  0  0  0  0
    2.2382    6.5500  -23.8871 H   0  0  0  0  0
    2.9824   11.1153  -21.9081 H   0  0  0  0  0
    3.2759    9.1173  -20.5154 H   0  0  0  0  0
    2.8990    6.7732  -21.5336 H   0  0  0  0  0
    1.9251    8.6551  -25.3462 H   0  0  0  0  0
  1  2  1  0  0  0
  7  1  1  0  0  0
  2  3  2  0  0  0
  4  2  1  0  0  0
  5  4  1  0  0  0
  5  6  2  0  0  0
  7  5  1  0  0  0
  8  7  1  0  0  0
  9  8  1  0  0  0
  9 11  4  0  0  0
 14  9  4  0  0  0
 10 13  4  0  0  0
 10 14  4  0  0  0
 11 12  4  0  0  0
 12 13  4  0  0  0
  1 15  1  0  0  0
  4 16  1  0  0  0
  7 17  1  0  0  0
  8 18  1  0  0  0
  8 19  1  0  0  0
 10 20  1  0  0  0
 11 21  1  0  0  0
 12 22  1  0  0  0
 13 23  1  0  0  0
 14 24  1  0  0  0
M  END
$$$$
