5a3x_ligand
  -I-interpret- 

 22 23  0  0  0  0  0  0  0  0999 V2000
    3.1570   24.4550   15.6580 C   0  0  0  0  0
    5.5140   24.3170   15.2720 O   0  0  0  0  0
    7.8140   29.9100    9.4170 O   0  0  0  0  0
    8.7820   28.2190   10.7830 C   0  0  0  0  0
    8.6150   27.2450   11.7510 C   0  0  0  0  0
    6.4430   28.6520   10.9320 C   0  0  0  0  0
    5.1980   27.3170   12.4960 N   0  0  0  0  0
    4.3120   25.8700   14.0820 N   0  0  0  0  0
    6.9590   25.9060   13.4210 S   0  0  0  0  0
    4.4600   24.8770   14.9820 C   0  0  0  0  0
    7.6780   28.9430   10.3630 C   0  0  0  0  0
    5.3490   26.3470   13.3890 C   0  0  0  0  0
    6.3250   27.6990   11.8670 C   0  0  0  0  0
    7.4160   27.0010   12.2660 C   0  0  0  0  0
    2.9632   23.4035   15.4461 H   0  0  0  0  0
    3.2443   24.5999   16.7348 H   0  0  0  0  0
    2.3369   25.0615   15.2738 H   0  0  0  0  0
    6.9584   30.3095    9.2441 H   0  0  0  0  0
    9.7664   28.4137   10.3575 H   0  0  0  0  0
    9.4765   26.6722   12.0943 H   0  0  0  0  0
    5.5598   29.2059   10.6136 H   0  0  0  0  0
    3.3852   26.2666   13.9267 H   0  0  0  0  0
 10  1  1  0  0  0
 10  2  2  0  0  0
 11  3  1  0  0  0
  4  5  4  0  0  0
 11  4  4  0  0  0
  5 14  4  0  0  0
  6 11  4  0  0  0
 13  6  4  0  0  0
 12  7  4  0  0  0
  7 13  4  0  0  0
  8 10  1  0  0  0
  8 12  1  0  0  0
 12  9  4  0  0  0
  9 14  4  0  0  0
 13 14  4  0  0  0
  1 15  1  0  0  0
  1 16  1  0  0  0
  1 17  1  0  0  0
  3 18  1  0  0  0
  4 19  1  0  0  0
  5 20  1  0  0  0
  6 21  1  0  0  0
  8 22  1  0  0  0
M  END
$$$$
