3pd2_ligand
  -I-interpret- 

 45 47  0  0  0  0  0  0  0  0999 V2000
    7.7240    8.7410  -15.5640 O   0  0  0  0  0
    6.6080    7.9570  -15.9960 C   0  0  0  0  0
    7.0990    6.7880  -16.8520 C   0  0  0  0  0
    7.8430    7.2900  -17.9770 O   0  0  0  0  0
    9.0900    6.5770  -18.0760 C   0  0  0  0  0
   10.1820    7.5110  -17.7120 N   0  0  0  0  0
   11.4250    7.1940  -17.3550 C   0  0  0  0  0
   12.0500    6.0320  -17.1110 N   0  0  0  0  0
   13.3250    6.0070  -16.7610 C   0  0  0  0  0
   14.0220    7.1250  -16.6440 N   0  0  0  0  0
   13.4650    8.3230  -16.8750 C   0  0  0  0  0
   14.1860    9.4380  -16.7830 N   0  0  0  0  0
   12.1250    8.3860  -17.2390 C   0  0  0  0  0
   11.2880    9.3800  -17.5180 N   0  0  0  0  0
   10.1050    8.8360  -17.8010 C   0  0  0  0  0
    8.9600    5.3640  -17.1520 C   0  0  0  0  0
    8.2510    4.3230  -17.8300 O   0  0  0  0  0
    8.0860    5.9460  -16.0450 C   0  0  0  0  0
    7.3600    4.8860  -15.3260 N   0  0  0  0  0
    7.8150    2.1730  -12.9460 N   0  3  0  0  0
    6.9700    3.1460  -13.6540 C   0  0  0  0  0
    5.9660    3.7650  -12.6790 C   0  0  0  0  0
    5.0980    2.7380  -12.1920 O   0  0  0  0  0
    7.8450    4.2380  -14.2730 C   0  0  0  0  0
    9.0580    4.4870  -13.7090 O   0  0  0  0  0
    7.4109    9.4729  -15.0275 H   0  0  0  0  0
    5.9361    8.5798  -16.5865 H   0  0  0  0  0
    6.0798    7.5698  -15.1247 H   0  0  0  0  0
    6.2311    6.2089  -17.1674 H   0  0  0  0  0
    9.3237    6.2143  -19.0770 H   0  0  0  0  0
   13.8091    5.0501  -16.5659 H   0  0  0  0  0
   15.1739    9.3874  -16.5344 H   0  0  0  0  0
   13.7506   10.3430  -16.9611 H   0  0  0  0  0
    9.2071    9.3941  -18.0662 H   0  0  0  0  0
    9.9037    4.9358  -16.8140 H   0  0  0  0  0
    8.8049    3.9603  -18.5252 H   0  0  0  0  0
    8.6473    6.4915  -15.2864 H   0  0  0  0  0
    6.4285    4.6341  -15.6565 H   0  0  0  0  0
    8.4819    1.7639  -13.6005 H   0  0  0  0  0
    8.3193    2.6451  -12.1955 H   0  0  0  0  0
    7.2280    1.4374  -12.5526 H   0  0  0  0  0
    6.4240    2.6379  -14.4489 H   0  0  0  0  0
    5.3809    4.5300  -13.1895 H   0  0  0  0  0
    6.4975    4.2237  -11.8452 H   0  0  0  0  0
    4.4650    3.1195  -11.5793 H   0  0  0  0  0
  2  1  1  0  0  0
  3  2  1  0  0  0
  3  4  1  0  0  0
 18  3  1  0  0  0
  5  4  1  0  0  0
  5  6  1  0  0  0
 16  5  1  0  0  0
  6  7  4  0  0  0
  6 15  4  0  0  0
  7  8  4  0  0  0
  7 13  4  0  0  0
  8  9  4  0  0  0
  9 10  4  0  0  0
 11 10  4  0  0  0
 11 12  1  0  0  0
 13 11  4  0  0  0
 14 13  4  0  0  0
 15 14  4  0  0  0
 16 17  1  0  0  0
 18 16  1  0  0  0
 19 18  1  0  0  0
 24 19  1  0  0  0
 21 20  1  0  0  0
 21 22  1  0  0  0
 21 24  1  0  0  0
 22 23  1  0  0  0
 24 25  2  0  0  0
  1 26  1  0  0  0
  2 27  1  0  0  0
  2 28  1  0  0  0
  3 29  1  0  0  0
  5 30  1  0  0  0
  9 31  1  0  0  0
 12 32  1  0  0  0
 12 33  1  0  0  0
 15 34  1  0  0  0
 16 35  1  0  0  0
 17 36  1  0  0  0
 18 37  1  0  0  0
 19 38  1  0  0  0
 20 39  1  0  0  0
 20 40  1  0  0  0
 20 41  1  0  0  0
 21 42  1  0  0  0
 22 43  1  0  0  0
 22 44  1  0  0  0
 23 45  1  0  0  0
M  END
$$$$
