3dt1_ligand
  -I-interpret- 

 62 66  0  0  0  0  0  0  0  0999 V2000
   26.1570    7.6530   31.8850 C   0  0  0  0  0
   27.4880    7.1130   32.1160 C   0  0  0  0  0
   29.5840   10.0780   32.4770 C   0  0  0  0  0
   29.0720    8.9170   31.7600 C   0  0  0  0  0
   20.6310    9.8700   28.8660 C   0  0  0  0  0
   20.0940   11.1780   29.2480 C   0  0  0  0  0
   20.9400   11.9650   30.1370 C   0  0  0  0  0
   22.2380   11.4550   30.5750 C   0  0  0  0  0
   18.8730   11.8230   28.8090 C   0  0  0  0  0
   18.9440   12.8120   27.7450 C   0  0  0  0  0
   17.8160   13.6310   27.3090 C   0  0  0  0  0
   16.5310   13.4800   27.9630 C   0  0  0  0  0
   17.9290   14.5910   26.1380 C   0  0  0  0  0
   17.0720   16.3140   24.7570 C   0  0  0  0  0
   17.0930   15.6900   23.4470 C   0  0  0  0  0
   15.9370   16.4620   23.8560 C   0  0  0  0  0
   23.7880    7.6480   29.3340 N   0  0  0  0  0
   22.5040    8.0740   28.9130 C   0  0  0  0  0
   28.3710    8.0740   32.6630 N   0  3  0  0  0
   28.7940    7.8140   33.9930 C   0  0  0  0  0
   29.3840    9.0050   34.5860 C   0  0  0  0  0
   30.0920    9.6850   33.6650 O   0  0  0  0  0
   16.4470   12.4960   29.0310 C   0  0  0  0  0
   17.5750   11.6840   29.4490 C   0  0  0  0  0
   17.2820   10.7900   30.5520 C   0  0  0  0  0
   18.9130   14.5550   25.4100 O   0  0  0  0  0
   21.9270    9.3490   29.3120 C   0  0  0  0  0
   22.7870   10.1500   30.1940 C   0  0  0  0  0
   24.0660    9.6970   30.6010 N   0  0  0  0  0
   24.5920    8.4530   30.1790 C   0  0  0  0  0
   25.9130    8.1290   30.5740 N   0  0  0  0  0
   16.9630   15.4730   25.8940 N   0  0  0  0  0
   26.0485    8.5085   32.5516 H   0  0  0  0  0
   25.4561    6.8356   32.0545 H   0  0  0  0  0
   27.8926    6.7898   31.1568 H   0  0  0  0  0
   27.4005    6.2914   32.8269 H   0  0  0  0  0
   28.7740   10.7878   32.6450 H   0  0  0  0  0
   30.3669   10.5537   31.8864 H   0  0  0  0  0
   29.9032    8.3663   31.3197 H   0  0  0  0  0
   28.3958    9.2464   30.9711 H   0  0  0  0  0
   20.0286    9.2437   28.2080 H   0  0  0  0  0
   20.6013   12.9432   30.4784 H   0  0  0  0  0
   22.8382   12.0876   31.2290 H   0  0  0  0  0
   19.9003   12.9509   27.2407 H   0  0  0  0  0
   15.6676   14.0763   27.6680 H   0  0  0  0  0
   17.7088   17.0112   25.3016 H   0  0  0  0  0
   17.3091   14.7140   23.0125 H   0  0  0  0  0
   17.7623   15.6166   22.5898 H   0  0  0  0  0
   15.3029   17.2565   23.4626 H   0  0  0  0  0
   14.8522   16.3590   23.8829 H   0  0  0  0  0
   21.9239    7.4191   28.2628 H   0  0  0  0  0
   27.8501    8.9098   32.9287 H   0  0  0  0  0
   29.5413    7.0207   33.9768 H   0  0  0  0  0
   27.9296    7.5157   34.5862 H   0  0  0  0  0
   30.0491    8.7064   35.3963 H   0  0  0  0  0
   28.5874    9.6449   34.9656 H   0  0  0  0  0
   15.4929   12.3623   29.5409 H   0  0  0  0  0
   17.4804    9.7623   30.2476 H   0  0  0  0  0
   17.9127   11.0464   31.4032 H   0  0  0  0  0
   16.2333   10.8915   30.8315 H   0  0  0  0  0
   26.6854    8.2381   29.9168 H   0  0  0  0  0
   16.1568   15.5432   26.5149 H   0  0  0  0  0
  1  2  1  0  0  0
 31  1  1  0  0  0
  2 19  1  0  0  0
  4  3  1  0  0  0
  3 22  1  0  0  0
 19  4  1  0  0  0
  5  6  4  0  0  0
 27  5  4  0  0  0
  7  6  4  0  0  0
  6  9  1  0  0  0
  8  7  4  0  0  0
 28  8  4  0  0  0
  9 10  4  0  0  0
  9 24  4  0  0  0
 10 11  4  0  0  0
 11 12  4  0  0  0
 11 13  1  0  0  0
 23 12  4  0  0  0
 13 26  2  0  0  0
 13 32  1  0  0  0
 14 15  1  0  0  0
 14 16  1  0  0  0
 32 14  1  0  0  0
 16 15  1  0  0  0
 17 18  4  0  0  0
 30 17  4  0  0  0
 18 27  4  0  0  0
 19 20  1  0  0  0
 20 21  1  0  0  0
 21 22  1  0  0  0
 24 23  4  0  0  0
 24 25  1  0  0  0
 28 27  4  0  0  0
 29 28  4  0  0  0
 30 29  4  0  0  0
 30 31  1  0  0  0
  1 33  1  0  0  0
  1 34  1  0  0  0
  2 35  1  0  0  0
  2 36  1  0  0  0
  3 37  1  0  0  0
  3 38  1  0  0  0
  4 39  1  0  0  0
  4 40  1  0  0  0
  5 41  1  0  0  0
  7 42  1  0  0  0
  8 43  1  0  0  0
 10 44  1  0  0  0
 12 45  1  0  0  0
 14 46  1  0  0  0
 15 47  1  0  0  0
 15 48  1  0  0  0
 16 49  1  0  0  0
 16 50  1  0  0  0
 18 51  1  0  0  0
 19 52  1  0  0  0
 20 53  1  0  0  0
 20 54  1  0  0  0
 21 55  1  0  0  0
 21 56  1  0  0  0
 23 57  1  0  0  0
 25 58  1  0  0  0
 25 59  1  0  0  0
 25 60  1  0  0  0
 31 61  1  0  0  0
 32 62  1  0  0  0
M  END
$$$$
