3s1y_ligand
  -I-interpret- 

 56 57  0  0  0  0  0  0  0  0999 V2000
    1.3230    9.9260   17.7920 S   0  0  0  0  0
    1.0680   10.3550   16.5220 O   0  0  0  0  0
    0.5160   10.8830   18.7680 O   0  0  0  0  0
    1.0150    8.6060   17.9310 O   0  0  0  0  0
    2.9270    9.9870   18.1360 N   0  0  0  0  0
    3.3320   11.4040   18.4230 C   0  0  0  0  0
    3.2240   12.2920   17.1610 C   0  0  0  0  0
    4.3540   13.2730   17.3170 C   0  0  0  0  0
    5.3330   12.5400   18.0720 N   0  0  0  0  0
    4.8290   11.3170   18.6110 C   0  0  0  0  0
    5.3100   10.1330   17.8110 C   0  0  0  0  0
    5.5140   10.1860   16.6060 O   0  0  0  0  0
    6.6620   12.7290   18.1000 C   0  0  0  0  0
    7.4170   11.9350   18.5590 O   0  0  0  0  0
    7.1580   14.0150   17.7630 N   0  0  0  0  0
    8.6080   14.2400   17.7760 C   0  0  0  0  0
    8.9260   14.4510   16.2960 C   0  0  0  0  0
   10.4240   14.7030   16.1750 C   0  0  0  0  0
   10.7790   16.1650   16.3360 C   0  0  0  0  0
   10.4860   16.8010   17.6240 N   0  3  0  0  0
   12.0100   17.1840   17.8160 C   0  0  0  0  0
   13.0000   16.2310   17.0070 C   0  0  0  0  0
   14.2530   16.0970   17.8280 N   0  3  0  0  0
   10.2290   15.8840   18.7690 C   0  0  0  0  0
    8.7570   15.4550   18.6750 C   0  0  0  0  0
    0.6689   10.6140   19.6768 H   0  0  0  0  0
    3.5544    9.1829   18.1523 H   0  0  0  0  0
    2.7291   11.7997   19.2403 H   0  0  0  0  0
    2.2546   12.7839   17.0805 H   0  0  0  0  0
    3.2986   11.7151   16.2392 H   0  0  0  0  0
    4.0440   14.1915   17.8154 H   0  0  0  0  0
    4.7402   13.6211   16.3590 H   0  0  0  0  0
    5.1483   11.1883   19.6452 H   0  0  0  0  0
    4.4860    9.4243   17.8938 H   0  0  0  0  0
    6.3000    9.9385   18.2235 H   0  0  0  0  0
    5.8135    9.3285   16.2953 H   0  0  0  0  0
    6.5179   14.7698   17.5161 H   0  0  0  0  0
    9.2784   13.4685   18.1547 H   0  0  0  0  0
    8.3658   15.3004   15.9051 H   0  0  0  0  0
    8.6415   13.5718   15.7179 H   0  0  0  0  0
   10.7394   14.3873   15.1805 H   0  0  0  0  0
   10.9244   14.1457   16.9669 H   0  0  0  0  0
   10.1693   16.6950   15.6042 H   0  0  0  0  0
   11.8623   16.2154   16.2261 H   0  0  0  0  0
    9.6957   17.4457   17.6148 H   0  0  0  0  0
   12.2460   17.0846   18.8755 H   0  0  0  0  0
   12.1466   18.1986   17.4417 H   0  0  0  0  0
   13.2249   16.6522   16.0272 H   0  0  0  0  0
   12.5437   15.2555   16.8388 H   0  0  0  0  0
   14.9140   15.4917   17.3411 H   0  0  0  0  0
   14.6696   17.0182   17.9631 H   0  0  0  0  0
   14.0222   15.6906   18.7346 H   0  0  0  0  0
   10.4263   16.3843   19.7171 H   0  0  0  0  0
   10.8881   15.0169   18.7256 H   0  0  0  0  0
    8.3998   15.2008   19.6729 H   0  0  0  0  0
    8.1767   16.2768   18.2556 H   0  0  0  0  0
  1  2  2  0  0  0
  1  3  1  0  0  0
  1  4  2  0  0  0
  1  5  1  0  0  0
  5  6  1  0  0  0
  6  7  1  0  0  0
  6 10  1  0  0  0
  7  8  1  0  0  0
  8  9  1  0  0  0
  9 10  1  0  0  0
  9 13  1  0  0  0
 10 11  1  0  0  0
 11 12  1  0  0  0
 13 14  2  0  0  0
 13 15  1  0  0  0
 15 16  1  0  0  0
 16 17  1  0  0  0
 16 25  1  0  0  0
 17 18  1  0  0  0
 18 19  1  0  0  0
 19 20  1  0  0  0
 20 21  1  0  0  0
 20 24  1  0  0  0
 21 22  1  0  0  0
 22 23  1  0  0  0
 24 25  1  0  0  0
  3 26  1  0  0  0
  5 27  1  0  0  0
  6 28  1  0  0  0
  7 29  1  0  0  0
  7 30  1  0  0  0
  8 31  1  0  0  0
  8 32  1  0  0  0
 10 33  1  0  0  0
 11 34  1  0  0  0
 11 35  1  0  0  0
 12 36  1  0  0  0
 15 37  1  0  0  0
 16 38  1  0  0  0
 17 39  1  0  0  0
 17 40  1  0  0  0
 18 41  1  0  0  0
 18 42  1  0  0  0
 19 43  1  0  0  0
 19 44  1  0  0  0
 20 45  1  0  0  0
 21 46  1  0  0  0
 21 47  1  0  0  0
 22 48  1  0  0  0
 22 49  1  0  0  0
 23 50  1  0  0  0
 23 51  1  0  0  0
 23 52  1  0  0  0
 24 53  1  0  0  0
 24 54  1  0  0  0
 25 55  1  0  0  0
 25 56  1  0  0  0
M  END
$$$$
