2qu2_ligand
  -I-interpret- 

 41 43  0  0  0  0  0  0  0  0999 V2000
   18.3370  -11.6980   18.9170 C   0  0  0  0  0
   17.0480  -11.0490   19.0270 C   0  0  0  0  0
   16.1190  -11.1040   17.9210 C   0  0  0  0  0
   16.4850  -11.7870   16.7150 C   0  0  0  0  0
   17.7610  -12.4340   16.5950 C   0  0  0  0  0
   18.6960  -12.3870   17.6920 C   0  0  0  0  0
   14.8110  -10.4690   17.9760 C   0  0  0  0  0
   13.8240  -10.7770   18.8570 C   0  0  0  0  0
   12.6430   -9.9420   18.5990 C   0  0  0  0  0
   12.8860   -9.1040   17.5430 C   0  0  0  0  0
   14.2800   -9.3890   17.0880 N   0  0  0  0  0
   11.9070   -8.1160   16.9500 C   0  0  0  0  0
   12.2110   -6.6950   16.7440 C   0  0  0  0  0
   11.2440   -5.8120   16.1510 C   0  0  0  0  0
    9.9560   -6.3260   15.7640 C   0  0  0  0  0
    9.6490   -7.7050   15.9640 C   0  0  0  0  0
   10.5990   -8.5990   16.5500 C   0  0  0  0  0
   14.9770   -8.6830   15.9540 C   0  0  0  0  0
   15.5320   -7.3540   16.5190 C   0  0  0  0  0
   16.1700   -6.5730   15.5980 N   0  0  0  0  0
   15.3750   -7.0450   17.7310 O   0  0  0  0  0
   16.7230   -5.3640   15.8330 C   0  0  0  0  0
   16.6880   -4.7960   17.0640 N   0  0  0  0  0
   17.2880   -4.7770   14.7960 N   0  0  0  0  0
   19.0363  -11.6691   19.7526 H   0  0  0  0  0
   16.7786  -10.5203   19.9413 H   0  0  0  0  0
   15.7861  -11.8155   15.8790 H   0  0  0  0  0
   18.0226  -12.9597   15.6766 H   0  0  0  0  0
   19.6699  -12.8679   17.6009 H   0  0  0  0  0
   13.8973  -11.5321   19.6397 H   0  0  0  0  0
   11.7118   -9.9832   19.1640 H   0  0  0  0  0
   13.1830   -6.3040   17.0447 H   0  0  0  0  0
   11.4843   -4.7603   15.9954 H   0  0  0  0  0
    9.2155   -5.6618   15.3183 H   0  0  0  0  0
    8.6720   -8.0842   15.6645 H   0  0  0  0  0
   10.3392   -9.6474   16.6966 H   0  0  0  0  0
   14.2838   -8.4933   15.1345 H   0  0  0  0  0
   15.7834   -9.2983   15.5551 H   0  0  0  0  0
   16.2365   -5.2834   17.8379 H   0  0  0  0  0
   17.1132   -3.8814   17.2159 H   0  0  0  0  0
   17.2882   -5.2384   13.8863 H   0  0  0  0  0
  1  2  4  0  0  0
  1  6  4  0  0  0
  2  3  4  0  0  0
  3  4  4  0  0  0
  3  7  1  0  0  0
  4  5  4  0  0  0
  5  6  4  0  0  0
  7  8  4  0  0  0
  7 11  4  0  0  0
  8  9  4  0  0  0
  9 10  4  0  0  0
 10 11  4  0  0  0
 10 12  1  0  0  0
 11 18  1  0  0  0
 12 13  4  0  0  0
 12 17  4  0  0  0
 13 14  4  0  0  0
 14 15  4  0  0  0
 15 16  4  0  0  0
 16 17  4  0  0  0
 18 19  1  0  0  0
 19 20  1  0  0  0
 19 21  2  0  0  0
 20 22  4  0  0  0
 22 23  1  0  0  0
 22 24  2  0  0  0
  1 25  1  0  0  0
  2 26  1  0  0  0
  4 27  1  0  0  0
  5 28  1  0  0  0
  6 29  1  0  0  0
  8 30  1  0  0  0
  9 31  1  0  0  0
 13 32  1  0  0  0
 14 33  1  0  0  0
 15 34  1  0  0  0
 16 35  1  0  0  0
 17 36  1  0  0  0
 18 37  1  0  0  0
 18 38  1  0  0  0
 23 39  1  0  0  0
 23 40  1  0  0  0
 24 41  1  0  0  0
M  END
$$$$
