6c7g_ligand
  -I-interpret- 

 73 79  0  0  0  0  0  0  0  0999 V2000
    7.4110    5.3680    3.6300 C   0  0  0  0  0
    8.4820    6.1920    3.8760 C   0  0  0  0  0
    8.8790    6.5470    5.1450 C   0  0  0  0  0
    5.3900    3.9690    6.9570 C   0  0  0  0  0
    5.3150    3.4500    2.0240 C   0  0  0  0  0
    5.9100    3.3480   -0.7040 C   0  0  0  0  0
    6.7730    2.8030    0.2160 C   0  0  0  0  0
    6.4740    2.8480    1.5600 C   0  0  0  0  0
    2.4490    6.2140   -1.7100 C   0  0  0  0  0
    1.7530    7.4590   -1.2160 C   0  0  0  0  0
    8.1610    6.0370    6.2000 C   0  0  0  0  0
    4.4520    3.9940    1.0920 C   0  0  0  0  0
    7.0830    5.2040    5.9980 C   0  0  0  0  0
    6.7250    4.8730    4.7080 C   0  0  0  0  0
    4.7590    3.9470   -0.2550 C   0  0  0  0  0
    4.9840    3.4610    3.4500 C   0  0  0  0  0
    4.9650    3.5900    5.6420 C   0  0  0  0  0
    9.1920    6.7200    2.7120 C   0  0  0  0  0
   12.1020   10.9240    1.2610 C   0  0  0  0  0
   10.2600   10.5750   -0.3300 C   0  0  0  0  0
   12.1330    8.9850   -0.2510 C   0  0  0  0  0
    9.8840   10.2450    2.0740 C   0  0  0  0  0
   11.7510    8.6600    2.1540 C   0  0  0  0  0
    9.9120    8.3100    0.5630 C   0  0  0  0  0
   10.6160   11.0720    1.0480 C   0  0  0  0  0
   12.4980    9.4750    1.1280 C   0  0  0  0  0
   10.6470    9.1250   -0.4720 C   0  0  0  0  0
   10.2630    8.7900    1.9480 C   0  0  0  0  0
    4.6420    3.4430    8.1420 C   0  0  0  0  0
    1.4530    5.1020   -1.9070 C   0  0  0  0  0
    3.4870    5.7370   -0.7240 C   0  0  0  0  0
    3.9690    2.7520    3.9150 N   0  0  0  0  0
    3.9500    2.8410    5.2840 N   0  0  0  0  0
    6.4110    4.7360    7.1290 N   0  0  0  0  0
    5.6270    4.0230    4.5290 N   0  0  0  0  0
    9.5620    8.0200    2.9430 N   0  0  0  0  0
    9.3160    6.0770    1.6770 O   0  0  0  0  0
    3.9150    4.4720   -1.2170 O   0  0  0  0  0
    7.6410    2.1240    2.6180 Cl  0  0  0  0  0
    7.1165    5.1162    2.6112 H   0  0  0  0  0
    9.7307    7.2077    5.3072 H   0  0  0  0  0
    6.1348    3.3056   -1.7697 H   0  0  0  0  0
    7.6978    2.3332   -0.1190 H   0  0  0  0  0
    2.9316    6.4691   -2.6535 H   0  0  0  0  0
    1.0088    7.7725   -1.9482 H   0  0  0  0  0
    1.2628    7.2469   -0.2658 H   0  0  0  0  0
    2.4865    8.2535   -1.0786 H   0  0  0  0  0
    8.4508    6.2972    7.2180 H   0  0  0  0  0
    3.5244    4.4626    1.4206 H   0  0  0  0  0
   12.3588   11.2766    2.2599 H   0  0  0  0  0
   12.6327   11.5119    0.5121 H   0  0  0  0  0
   10.7977   11.1638   -1.0732 H   0  0  0  0  0
    9.1851   10.6753   -0.4805 H   0  0  0  0  0
   12.4120    7.9354   -0.3441 H   0  0  0  0  0
   12.6637    9.5793   -0.9948 H   0  0  0  0  0
    8.8111   10.3469    1.9110 H   0  0  0  0  0
   10.1538   10.5963    3.0699 H   0  0  0  0  0
   12.0044    9.0246    3.1495 H   0  0  0  0  0
   12.0334    7.6125    2.0489 H   0  0  0  0  0
   10.2004    7.2635    0.4641 H   0  0  0  0  0
    8.8387    8.4205    0.4082 H   0  0  0  0  0
   10.3333   12.1200    1.1470 H   0  0  0  0  0
   13.5718    9.3723    1.2846 H   0  0  0  0  0
   10.3876    8.7710   -1.4697 H   0  0  0  0  0
    3.6025    3.7661    8.0866 H   0  0  0  0  0
    4.6857    2.3539    8.1435 H   0  0  0  0  0
    5.0950    3.8273    9.0559 H   0  0  0  0  0
    0.9620    4.8835   -0.9587 H   0  0  0  0  0
    0.7080    5.4090   -2.6410 H   0  0  0  0  0
    1.9705    4.2113   -2.2634 H   0  0  0  0  0
    3.0791    5.6592    0.2838 H   0  0  0  0  0
    4.3169    6.4389   -0.6421 H   0  0  0  0  0
    9.3358    8.4512    3.8393 H   0  0  0  0  0
  1  2  4  0  0  0
 14  1  4  0  0  0
  2  3  4  0  0  0
  2 18  1  0  0  0
 11  3  4  0  0  0
 17  4  4  0  0  0
  4 29  1  0  0  0
  4 34  4  0  0  0
  5  8  4  0  0  0
 12  5  4  0  0  0
  5 16  1  0  0  0
  6  7  4  0  0  0
 15  6  4  0  0  0
  7  8  4  0  0  0
  8 39  1  0  0  0
  9 10  1  0  0  0
  9 30  1  0  0  0
 31  9  1  0  0  0
 13 11  4  0  0  0
 15 12  4  0  0  0
 14 13  4  0  0  0
 13 34  4  0  0  0
 35 14  4  0  0  0
 38 15  1  0  0  0
 16 32  4  0  0  0
 16 35  4  0  0  0
 17 33  4  0  0  0
 35 17  4  0  0  0
 18 36  1  0  0  0
 18 37  2  0  0  0
 25 19  1  0  0  0
 26 19  1  0  0  0
 25 20  1  0  0  0
 27 20  1  0  0  0
 26 21  1  0  0  0
 27 21  1  0  0  0
 22 25  1  0  0  0
 28 22  1  0  0  0
 23 26  1  0  0  0
 28 23  1  0  0  0
 24 27  1  0  0  0
 28 24  1  0  0  0
 36 28  1  0  0  0
 31 38  1  0  0  0
 32 33  4  0  0  0
  1 40  1  0  0  0
  3 41  1  0  0  0
  6 42  1  0  0  0
  7 43  1  0  0  0
  9 44  1  0  0  0
 10 45  1  0  0  0
 10 46  1  0  0  0
 10 47  1  0  0  0
 11 48  1  0  0  0
 12 49  1  0  0  0
 19 50  1  0  0  0
 19 51  1  0  0  0
 20 52  1  0  0  0
 20 53  1  0  0  0
 21 54  1  0  0  0
 21 55  1  0  0  0
 22 56  1  0  0  0
 22 57  1  0  0  0
 23 58  1  0  0  0
 23 59  1  0  0  0
 24 60  1  0  0  0
 24 61  1  0  0  0
 25 62  1  0  0  0
 26 63  1  0  0  0
 27 64  1  0  0  0
 29 65  1  0  0  0
 29 66  1  0  0  0
 29 67  1  0  0  0
 30 68  1  0  0  0
 30 69  1  0  0  0
 30 70  1  0  0  0
 31 71  1  0  0  0
 31 72  1  0  0  0
 36 73  1  0  0  0
M  END
$$$$
