6akw_ligand
  -I-interpret- 

 39 41  0  0  0  0  0  0  0  0999 V2000
   29.4680   -8.2570  -29.3920 C   0  0  0  0  0
   30.6460   -8.4670  -30.1030 C   0  0  0  0  0
   31.2750   -7.4080  -30.7460 C   0  0  0  0  0
   32.5270   -8.1670  -32.6530 C   0  0  0  0  0
   31.5070   -8.9610  -33.1690 C   0  0  0  0  0
   31.6450   -9.5570  -34.4170 C   0  0  0  0  0
   32.8040   -9.3580  -35.1570 C   0  0  0  0  0
   33.8240   -8.5660  -34.6440 C   0  0  0  0  0
   33.6830   -7.9760  -33.3940 C   0  0  0  0  0
   34.7890   -7.1200  -32.8510 C   0  0  0  0  0
   34.5250   -6.2910  -31.9540 O   0  0  0  0  0
   35.9440   -7.2570  -33.3090 O   0  0  0  0  0
   32.4280   -7.5800  -31.4360 N   0  0  0  0  0
   30.7280   -6.1390  -30.6580 C   0  0  0  0  0
   31.5240   -4.7490  -31.4670 Cl  0  0  0  0  0
   31.3310  -10.1260  -30.1860 Cl  0  0  0  0  0
   28.9090   -6.9860  -29.3130 C   0  0  0  0  0
   29.5570   -5.9310  -29.9440 C   0  0  0  0  0
   27.6460   -6.7650  -28.5360 C   0  0  0  0  0
   27.2550   -7.4310  -27.2690 C   0  0  0  0  0
   27.8520   -8.4580  -26.3430 C   0  0  0  0  0
   26.0460   -6.9220  -26.9340 O   0  0  0  0  0
   25.6230   -6.0230  -27.8280 N   0  0  0  0  0
   26.5670   -5.9050  -28.8090 C   0  0  0  0  0
   26.4240   -4.9760  -29.9880 C   0  0  0  0  0
   28.9801   -9.0947  -28.8936 H   0  0  0  0  0
   30.5956   -9.1162  -32.5916 H   0  0  0  0  0
   30.8443  -10.1803  -34.8151 H   0  0  0  0  0
   32.9128   -9.8219  -36.1373 H   0  0  0  0  0
   34.7344   -8.4076  -35.2220 H   0  0  0  0  0
   35.9402   -7.9386  -33.9850 H   0  0  0  0  0
   33.2886   -7.2412  -31.0058 H   0  0  0  0  0
   29.1395   -4.9264  -29.8770 H   0  0  0  0  0
   28.0112   -9.3882  -26.8884 H   0  0  0  0  0
   28.8050   -8.0912  -25.9617 H   0  0  0  0  0
   27.1703   -8.6352  -25.5111 H   0  0  0  0  0
   27.2459   -4.2601  -29.9866 H   0  0  0  0  0
   26.4470   -5.5558  -30.9107 H   0  0  0  0  0
   25.4760   -4.4429  -29.9160 H   0  0  0  0  0
  2  1  4  0  0  0
  1 17  4  0  0  0
  3  2  4  0  0  0
  2 16  1  0  0  0
 13  3  1  0  0  0
  3 14  4  0  0  0
  4  5  4  0  0  0
  4  9  4  0  0  0
  4 13  1  0  0  0
  5  6  4  0  0  0
  6  7  4  0  0  0
  7  8  4  0  0  0
  8  9  4  0  0  0
  9 10  1  0  0  0
 10 11  2  0  0  0
 10 12  1  0  0  0
 14 15  1  0  0  0
 14 18  4  0  0  0
 17 18  4  0  0  0
 17 19  1  0  0  0
 19 20  4  0  0  0
 19 24  4  0  0  0
 20 21  1  0  0  0
 20 22  4  0  0  0
 22 23  4  0  0  0
 23 24  4  0  0  0
 24 25  1  0  0  0
  1 26  1  0  0  0
  5 27  1  0  0  0
  6 28  1  0  0  0
  7 29  1  0  0  0
  8 30  1  0  0  0
 12 31  1  0  0  0
 13 32  1  0  0  0
 18 33  1  0  0  0
 21 34  1  0  0  0
 21 35  1  0  0  0
 21 36  1  0  0  0
 25 37  1  0  0  0
 25 38  1  0  0  0
 25 39  1  0  0  0
M  END
$$$$
