5qai_ligand
  -I-interpret- 

 31 32  0  0  0  0  0  0  0  0999 V2000
   97.1120  254.3860    6.8790 C   0  0  0  0  0
   97.6420  254.4590    5.7470 O   0  0  0  0  0
   96.5800  253.0420    7.3090 C   0  0  0  0  0
   97.7970  249.1180    5.6470 C   0  0  0  0  0
   95.6070  250.5590    8.0810 C   0  0  0  0  0
   95.4600  251.6520    8.9170 C   0  0  0  0  0
   95.9470  252.8880    8.5360 C   0  0  0  0  0
   96.7250  251.9370    6.4780 C   0  0  0  0  0
   96.2530  250.6800    6.8520 C   0  0  0  0  0
   96.5000  249.4920    5.9950 C   0  0  0  0  0
   95.4410  248.6750    5.5980 C   0  0  0  0  0
   95.6960  247.4970    4.9120 C   0  0  0  0  0
   94.7690  245.7700    2.9400 C   0  0  0  0  0
   96.9880  247.1290    4.5760 C   0  0  0  0  0
   98.0360  247.9510    4.9460 C   0  0  0  0  0
   94.3310  245.3510    5.4640 O   0  0  0  0  0
   93.1660  247.2230    4.3710 O   0  0  0  0  0
   96.9770  255.3560    7.6690 O   0  0  0  0  0
   94.3500  246.4240    4.5110 S   0  0  0  0  0
   98.6345  249.7549    5.9317 H   0  0  0  0  0
   95.2122  249.5904    8.3879 H   0  0  0  0  0
   94.9589  251.5378    9.8782 H   0  0  0  0  0
   95.8341  253.7447    9.2004 H   0  0  0  0  0
   97.2183  252.0562    5.5134 H   0  0  0  0  0
   94.4147  248.9622    5.8267 H   0  0  0  0  0
   95.7523  245.3027    2.9929 H   0  0  0  0  0
   94.0273  245.0267    2.6477 H   0  0  0  0  0
   94.7871  246.5753    2.2057 H   0  0  0  0  0
   97.1757  246.2055    4.0283 H   0  0  0  0  0
   99.0577  247.6770    4.6832 H   0  0  0  0  0
   96.5441  255.0558    8.4715 H   0  0  0  0  0
  1  2  2  0  0  0
  3  1  1  0  0  0
  1 18  1  0  0  0
  3  7  4  0  0  0
  8  3  4  0  0  0
 10  4  4  0  0  0
  4 15  4  0  0  0
  5  6  4  0  0  0
  9  5  4  0  0  0
  6  7  4  0  0  0
  9  8  4  0  0  0
  9 10  1  0  0  0
 10 11  4  0  0  0
 11 12  4  0  0  0
 12 14  4  0  0  0
 12 19  1  0  0  0
 19 13  1  0  0  0
 14 15  4  0  0  0
 19 16  2  0  0  0
 19 17  2  0  0  0
  4 20  1  0  0  0
  5 21  1  0  0  0
  6 22  1  0  0  0
  7 23  1  0  0  0
  8 24  1  0  0  0
 11 25  1  0  0  0
 13 26  1  0  0  0
 13 27  1  0  0  0
 13 28  1  0  0  0
 14 29  1  0  0  0
 15 30  1  0  0  0
 18 31  1  0  0  0
M  END
$$$$
