1alw_ligand
  -I-interpret- 

 22 22  0  0  0  0  0  0  0  0999 V2000
    8.6510  -49.7830   37.4240 C   0  0  0  0  0
    8.9710  -49.0630   36.2960 C   0  0  0  0  0
    9.8710  -49.5360   35.4390 C   0  0  0  0  0
    9.2470  -50.9610   37.7170 C   0  0  0  0  0
   10.1790  -51.4610   36.8290 C   0  0  0  0  0
   10.4930  -50.7460   35.6640 C   0  0  0  0  0
   11.3660  -51.2980   34.6640 C   0  0  0  0  0
   10.6520  -52.2670   33.6740 C   0  0  0  0  0
   11.8800  -53.0310   32.7030 S   0  0  0  0  0
    9.6110  -51.5540   32.8530 C   0  0  0  0  0
    9.9350  -50.4380   32.3120 O   0  0  0  0  0
    8.4560  -52.1140   32.7060 O   0  0  0  0  0
    7.8933  -49.3916   38.1028 H   0  0  0  0  0
    8.4869  -48.1052   36.1050 H   0  0  0  0  0
   10.1202  -48.9602   34.5477 H   0  0  0  0  0
    8.9983  -51.5017   38.6302 H   0  0  0  0  0
   10.6709  -52.4119   37.0337 H   0  0  0  0  0
   12.1346  -51.8707   35.1829 H   0  0  0  0  0
   11.7586  -50.4661   34.0793 H   0  0  0  0  0
   10.1017  -53.0335   34.2196 H   0  0  0  0  0
   11.3062  -53.8680   31.8433 H   0  0  0  0  0
    8.4362  -52.9381   33.1980 H   0  0  0  0  0
  1  4  4  0  0  0
  1  2  4  0  0  0
  2  3  4  0  0  0
  3  6  4  0  0  0
  6  7  1  0  0  0
  6  5  4  0  0  0
  5  4  4  0  0  0
  7  8  1  0  0  0
  8 10  1  0  0  0
  8  9  1  0  0  0
 10 12  1  0  0  0
 10 11  2  0  0  0
  1 13  1  0  0  0
  2 14  1  0  0  0
  3 15  1  0  0  0
  4 16  1  0  0  0
  5 17  1  0  0  0
  7 18  1  0  0  0
  7 19  1  0  0  0
  8 20  1  0  0  0
  9 21  1  0  0  0
 12 22  1  0  0  0
M  END
$$$$
