6hpg_ligand
  -I-interpret- 

122121  0  0  0  0  0  0  0  0999 V2000
    6.3800   20.0130  -19.1770 N   0  3  0  0  0
    6.4320   19.6800  -17.7200 C   0  0  0  0  0
    7.0370   18.3200  -17.3820 C   0  0  0  0  0
    6.5910   17.2910  -17.8700 O   0  0  0  0  0
    8.0550   18.3260  -16.5320 N   0  0  0  0  0
    8.6450   17.1140  -15.9530 C   0  0  0  0  0
    7.6280   16.3640  -15.1170 C   0  0  0  0  0
    7.2240   16.8470  -14.0770 O   0  0  0  0  0
    9.7940   17.4940  -15.0530 C   0  0  0  0  0
   10.7830   18.1650  -15.7870 O   0  0  0  0  0
    7.2190   15.2000  -15.5840 N   0  0  0  0  0
    6.2730   14.3650  -14.9020 C   0  0  0  0  0
    7.1070   13.3310  -14.1930 C   0  0  0  0  0
    7.8300   12.5390  -14.8100 O   0  0  0  0  0
    5.2960   13.7510  -15.9010 C   0  0  0  0  0
    4.4140   14.7740  -16.6250 C   0  0  0  0  0
    3.4500   15.5260  -15.6740 C   0  0  0  0  0
    2.7420   16.7300  -16.3130 C   0  0  0  0  0
    3.6780   17.8130  -16.7480 N   0  3  0  0  0
    7.0180   13.3680  -12.8780 N   0  0  0  0  0
    7.9120   12.6420  -12.0310 C   0  0  0  0  0
    7.6140   11.1490  -12.1000 C   0  0  0  0  0
    8.5050   10.3460  -11.8490 O   0  0  0  0  0
    7.7280   13.1330  -10.6080 C   0  0  0  0  0
    8.7780   12.6380   -9.6390 C   0  0  0  0  0
    8.1950   12.9650   -7.9860 S   0  0  0  0  0
    6.8420   11.8080   -7.7810 C   0  0  0  0  0
    6.3750   10.7890  -12.4530 N   0  0  0  0  0
    6.0080    9.3830  -12.6040 C   0  0  0  0  0
    6.5230    8.7250  -13.9040 C   0  0  0  0  0
    6.4880    7.5170  -14.0220 O   0  0  0  0  0
    4.4920    9.2060  -12.4540 C   0  0  0  0  0
    4.1010    7.8370  -11.9180 C   0  0  0  0  0
    3.1570    7.9200  -10.7400 C   0  0  0  0  0
    1.9640    8.2210  -10.9600 O   0  0  0  0  0
    3.6190    7.6740   -9.6000 O   0  0  0  0  0
    7.0520    9.5270  -14.8360 N   0  0  0  0  0
    7.5770    9.0500  -16.1060 C   0  0  0  0  0
    9.1120    9.0250  -16.0820 C   0  0  0  0  0
    9.7340   10.0080  -15.6560 O   0  0  0  0  0
    7.0480    9.9470  -17.2250 C   0  0  0  0  0
    5.5270    9.8460  -17.3550 C   0  0  0  0  0
    4.8680   10.8630  -18.3010 C   0  0  0  0  0
    5.5670   11.7230  -18.8850 O   0  0  0  0  0
    3.6160   10.8050  -18.4410 O   0  0  0  0  0
    9.6980    7.9010  -16.5020 N   0  0  0  0  0
   11.1590    7.7940  -16.7420 C   0  0  0  0  0
   11.4970    8.3370  -18.1430 C   0  0  0  0  0
   10.6250    8.4720  -18.9590 O   0  0  0  0  0
   11.6650    6.3580  -16.5540 C   0  0  0  0  0
   11.6020    5.9800  -15.0640 C   0  0  0  0  0
   10.8540    5.3490  -17.3620 C   0  0  0  0  0
   12.7590    8.6570  -18.4070 N   0  0  0  0  0
   13.1540    9.3850  -19.6030 C   0  0  0  0  0
   14.1840    8.5930  -20.3920 C   0  0  0  0  0
   14.4690    8.9600  -21.5460 O   0  0  0  0  0
   13.7820   10.7170  -19.2090 C   0  0  0  0  0
   12.7690   11.6890  -18.6790 C   0  0  0  0  0
   12.1430   12.3920  -19.4940 O   0  0  0  0  0
   12.6030   11.7330  -17.4580 O   0  0  0  0  0
   14.7110    7.5910  -19.9060 O   0  0  0  0  0
    5.9621   20.9354  -19.2990 H   0  0  0  0  0
    7.3260   20.0138  -19.5583 H   0  0  0  0  0
    5.8165   19.3160  -19.6639 H   0  0  0  0  0
    5.4006   19.6586  -17.3681 H   0  0  0  0  0
    7.0693   20.4299  -17.2513 H   0  0  0  0  0
    8.4514   19.2271  -16.2649 H   0  0  0  0  0
    8.9837   16.4801  -16.7725 H   0  0  0  0  0
   10.2225   16.5899  -14.6205 H   0  0  0  0  0
    9.4273   18.1513  -14.2646 H   0  0  0  0  0
   11.5079   18.4012  -15.2036 H   0  0  0  0  0
    7.5947   14.8773  -16.4757 H   0  0  0  0  0
    5.6543   14.9120  -14.1906 H   0  0  0  0  0
    4.6322   13.0935  -15.3397 H   0  0  0  0  0
    5.8894   13.2424  -16.6608 H   0  0  0  0  0
    3.8076   14.2332  -17.3516 H   0  0  0  0  0
    5.0715   15.5132  -17.0826 H   0  0  0  0  0
    4.0488   15.9081  -14.8472 H   0  0  0  0  0
    2.6753   14.8187  -15.3781 H   0  0  0  0  0
    2.0769   17.1550  -15.5612 H   0  0  0  0  0
    2.2227   16.3703  -17.2013 H   0  0  0  0  0
    3.1434   18.5771  -17.1611 H   0  0  0  0  0
    4.1967   18.1573  -15.9400 H   0  0  0  0  0
    4.3298   17.4404  -17.4384 H   0  0  0  0  0
    6.2856   13.9345  -12.4501 H   0  0  0  0  0
    8.9390   12.8034  -12.3586 H   0  0  0  0  0
    6.7666   12.7554  -10.2600 H   0  0  0  0  0
    7.8003   14.2203  -10.6318 H   0  0  0  0  0
    9.7244   13.1497   -9.8138 H   0  0  0  0  0
    8.9448   11.5696   -9.7762 H   0  0  0  0  0
    6.0805   12.0040   -8.5358 H   0  0  0  0  0
    7.2154   10.7904   -7.8955 H   0  0  0  0  0
    6.4101   11.9283   -6.7875 H   0  0  0  0  0
    5.6730   11.5099  -12.6199 H   0  0  0  0  0
    6.5164    8.8530  -11.7986 H   0  0  0  0  0
    4.0465    9.3140  -13.4429 H   0  0  0  0  0
    4.1402    9.9531  -11.7425 H   0  0  0  0  0
    5.0097    7.3360  -11.5842 H   0  0  0  0  0
    3.5927    7.2972  -12.7170 H   0  0  0  0  0
    4.5539    7.4682   -9.6724 H   0  0  0  0  0
    7.0890   10.5283  -14.6451 H   0  0  0  0  0
    7.2438    8.0276  -16.2843 H   0  0  0  0  0
    7.4964    9.6260  -18.1652 H   0  0  0  0  0
    7.3061   10.9796  -16.9901 H   0  0  0  0  0
    5.1195   10.0393  -16.3627 H   0  0  0  0  0
    5.3181    8.8597  -17.7692 H   0  0  0  0  0
    3.2694   10.0815  -17.9138 H   0  0  0  0  0
    9.1159    7.0795  -16.6651 H   0  0  0  0  0
   11.6757    8.4015  -15.9990 H   0  0  0  0  0
   12.6931    6.3248  -16.9146 H   0  0  0  0  0
   12.2280    6.6635  -14.4903 H   0  0  0  0  0
   10.5715    6.0502  -14.7159 H   0  0  0  0  0
   11.9621    4.9595  -14.9338 H   0  0  0  0  0
    9.8118    5.3851  -17.0448 H   0  0  0  0  0
   10.9214    5.5958  -18.4216 H   0  0  0  0  0
   11.2516    4.3480  -17.1948 H   0  0  0  0  0
   13.4820    8.3805  -17.7427 H   0  0  0  0  0
   12.2651    9.5454  -20.2131 H   0  0  0  0  0
   13.9701    9.7515  -21.7613 H   0  0  0  0  0
   14.2363   11.1532  -20.0986 H   0  0  0  0  0
   14.5125   10.5272  -18.4226 H   0  0  0  0  0
   12.4379   12.1872  -20.3843 H   0  0  0  0  0
  1  2  1  0  0  0
  2  3  1  0  0  0
  3  4  2  0  0  0
  3  5  1  0  0  0
  5  6  1  0  0  0
  6  7  1  0  0  0
  6  9  1  0  0  0
  7  8  2  0  0  0
  7 11  1  0  0  0
  9 10  1  0  0  0
 11 12  1  0  0  0
 12 13  1  0  0  0
 12 15  1  0  0  0
 13 14  2  0  0  0
 13 20  1  0  0  0
 15 16  1  0  0  0
 16 17  1  0  0  0
 17 18  1  0  0  0
 18 19  1  0  0  0
 20 21  1  0  0  0
 21 22  1  0  0  0
 21 24  1  0  0  0
 22 23  2  0  0  0
 22 28  1  0  0  0
 24 25  1  0  0  0
 25 26  1  0  0  0
 26 27  1  0  0  0
 28 29  1  0  0  0
 29 30  1  0  0  0
 29 32  1  0  0  0
 30 31  2  0  0  0
 30 37  1  0  0  0
 32 33  1  0  0  0
 33 34  1  0  0  0
 34 35  2  0  0  0
 34 36  1  0  0  0
 37 38  1  0  0  0
 38 39  1  0  0  0
 38 41  1  0  0  0
 39 40  2  0  0  0
 39 46  1  0  0  0
 41 42  1  0  0  0
 42 43  1  0  0  0
 43 44  2  0  0  0
 43 45  1  0  0  0
 46 47  1  0  0  0
 47 48  1  0  0  0
 47 50  1  0  0  0
 48 49  2  0  0  0
 48 53  1  0  0  0
 50 51  1  0  0  0
 50 52  1  0  0  0
 53 54  1  0  0  0
 54 55  1  0  0  0
 54 57  1  0  0  0
 55 56  1  0  0  0
 55 61  2  0  0  0
 57 58  1  0  0  0
 58 59  1  0  0  0
 58 60  2  0  0  0
  1 62  1  0  0  0
  1 63  1  0  0  0
  1 64  1  0  0  0
  2 65  1  0  0  0
  2 66  1  0  0  0
  5 67  1  0  0  0
  6 68  1  0  0  0
  9 69  1  0  0  0
  9 70  1  0  0  0
 10 71  1  0  0  0
 11 72  1  0  0  0
 12 73  1  0  0  0
 15 74  1  0  0  0
 15 75  1  0  0  0
 16 76  1  0  0  0
 16 77  1  0  0  0
 17 78  1  0  0  0
 17 79  1  0  0  0
 18 80  1  0  0  0
 18 81  1  0  0  0
 19 82  1  0  0  0
 19 83  1  0  0  0
 19 84  1  0  0  0
 20 85  1  0  0  0
 21 86  1  0  0  0
 24 87  1  0  0  0
 24 88  1  0  0  0
 25 89  1  0  0  0
 25 90  1  0  0  0
 27 91  1  0  0  0
 27 92  1  0  0  0
 27 93  1  0  0  0
 28 94  1  0  0  0
 29 95  1  0  0  0
 32 96  1  0  0  0
 32 97  1  0  0  0
 33 98  1  0  0  0
 33 99  1  0  0  0
 36100  1  0  0  0
 37101  1  0  0  0
 38102  1  0  0  0
 41103  1  0  0  0
 41104  1  0  0  0
 42105  1  0  0  0
 42106  1  0  0  0
 45107  1  0  0  0
 46108  1  0  0  0
 47109  1  0  0  0
 50110  1  0  0  0
 51111  1  0  0  0
 51112  1  0  0  0
 51113  1  0  0  0
 52114  1  0  0  0
 52115  1  0  0  0
 52116  1  0  0  0
 53117  1  0  0  0
 54118  1  0  0  0
 56119  1  0  0  0
 57120  1  0  0  0
 57121  1  0  0  0
 59122  1  0  0  0
M  END
$$$$
