### 
### Created by X-TOOL on Wed Jan  1 15:39:36 2020
### 

@<TRIPOS>MOLECULE
6hpg_ligand
  118   117     1     0     0
SMALL
GAST_HUCK


@<TRIPOS>ATOM
      1 N           6.3800   20.0130  -19.1770 N.4       1 GLY         0.2357
      2 CA          6.4320   19.6800  -17.7200 C.3       1 GLY         0.0545
      3 C           7.0370   18.3200  -17.3820 C.2       1 GLY         0.2237
      4 O           6.5910   17.2910  -17.8700 O.2       1 GLY        -0.3910
      5 N           8.0550   18.3260  -16.5320 N.am      1 SER        -0.2591
      6 CA          8.6450   17.1140  -15.9530 C.3       1 SER         0.1540
      7 C           7.6280   16.3640  -15.1170 C.2       1 SER         0.2062
      8 O           7.2240   16.8470  -14.0770 O.2       1 SER        -0.3943
      9 CB          9.7940   17.4940  -15.0530 C.3       1 SER         0.0843
     10 OG         10.7830   18.1650  -15.7870 O.3       1 SER        -0.3903
     11 N           7.2190   15.2000  -15.5840 N.am      1 LYS        -0.2637
     12 CA          6.2730   14.3650  -14.9020 C.3       1 LYS         0.1310
     13 C           7.1070   13.3310  -14.1930 C.2       1 LYS         0.2039
     14 O           7.8300   12.5390  -14.8100 O.2       1 LYS        -0.3944
     15 CB          5.2960   13.7510  -15.9010 C.3       1 LYS        -0.0122
     16 CG          4.4140   14.7740  -16.6250 C.3       1 LYS        -0.0440
     17 CD          3.4500   15.5260  -15.6740 C.3       1 LYS        -0.0124
     18 CE          2.7420   16.7300  -16.3130 C.3       1 LYS        -0.0354
     19 NZ          3.6780   17.8130  -16.7480 N.4       1 LYS         0.2185
     20 N           7.0180   13.3680  -12.8780 N.am      1 MET        -0.2637
     21 CA          7.9120   12.6420  -12.0310 C.3       1 MET         0.1317
     22 C           7.6140   11.1490  -12.1000 C.2       1 MET         0.2039
     23 O           8.5050   10.3460  -11.8490 O.2       1 MET        -0.3944
     24 CB          7.7280   13.1330  -10.6080 C.3       1 MET        -0.0034
     25 CG          8.7780   12.6380   -9.6390 C.3       1 MET        -0.0024
     26 SD          8.1950   12.9650   -7.9860 S.3       1 MET        -0.1639
     27 CE          6.8420   11.8080   -7.7810 C.3       1 MET        -0.0181
     28 N           6.3750   10.7890  -12.4530 N.am      1 GLU        -0.2636
     29 CA          6.0080    9.3830  -12.6040 C.3       1 GLU         0.1325
     30 C           6.5230    8.7250  -13.9040 C.2       1 GLU         0.2040
     31 O           6.4880    7.5170  -14.0220 O.2       1 GLU        -0.3944
     32 CB          4.4920    9.2060  -12.4540 C.3       1 GLU        -0.0008
     33 CG          4.1010    7.8370  -11.9180 C.3       1 GLU         0.0044
     34 CD          3.1570    7.9200  -10.7400 C.2       1 GLU         0.0350
     35 OE1         1.9640    8.2210  -10.9600 O.co2     1 GLU        -0.5690
     36 OE2         3.6190    7.6740   -9.6000 O.co2     1 GLU        -0.5690
     37 N           7.0520    9.5270  -14.8360 N.am      1 GLU        -0.2636
     38 CA          7.5770    9.0500  -16.1060 C.3       1 GLU         0.1325
     39 C           9.1120    9.0250  -16.0820 C.2       1 GLU         0.2040
     40 O           9.7340   10.0080  -15.6560 O.2       1 GLU        -0.3944
     41 CB          7.0480    9.9470  -17.2250 C.3       1 GLU        -0.0008
     42 CG          5.5270    9.8460  -17.3550 C.3       1 GLU         0.0044
     43 CD          4.8680   10.8630  -18.3010 C.2       1 GLU         0.0350
     44 OE1         5.5670   11.7230  -18.8850 O.co2     1 GLU        -0.5690
     45 OE2         3.6160   10.8050  -18.4410 O.co2     1 GLU        -0.5690
     46 N           9.6980    7.9010  -16.5020 N.am      1 VAL        -0.2635
     47 CA         11.1590    7.7940  -16.7420 C.3       1 VAL         0.1332
     48 C          11.4970    8.3370  -18.1430 C.2       1 VAL         0.2037
     49 O          10.6250    8.4720  -18.9590 O.2       1 VAL        -0.3944
     50 CB         11.6650    6.3580  -16.5540 C.3       1 VAL        -0.0063
     51 CG1        11.6020    5.9800  -15.0640 C.3       1 VAL        -0.0584
     52 CG2        10.8540    5.3490  -17.3620 C.3       1 VAL        -0.0584
     53 N          12.7590    8.6570  -18.4070 N.am      1 ASP        -0.2679
     54 CA         13.1540    9.3850  -19.6030 C.3       1 ASP         0.1057
     55 C          14.1840    8.5930  -20.3920 C.2       1 ASP         0.0618
     56 O          14.4690    8.9600  -21.5460 O.co2     1 ASP        -0.5665
     57 CB         13.7820   10.7170  -19.2090 C.3       1 ASP         0.0351
     58 CG         12.7690   11.6890  -18.6790 C.2       1 ASP         0.0387
     59 OD1        12.1430   12.3920  -19.4940 O.co2     1 ASP        -0.5688
     60 OD2        12.6030   11.7330  -17.4580 O.co2     1 ASP        -0.5688
     61 OXT        14.7110    7.5910  -19.9060 O.co2     1 ASP        -0.5665
     62 H1          5.9672   20.9245  -19.2988 H         1 GLY         0.2012
     63 H2          5.8233   19.3249  -19.6593 H         1 GLY         0.2012
     64 H3          7.3144   20.0142  -19.5550 H         1 GLY         0.2012
     65 H4          5.4037   19.7007  -17.3299 H         1 GLY         0.1061
     66 H5          7.0310   20.4528  -17.2161 H         1 GLY         0.1061
     67 H6          8.4436   19.2094  -16.2701 H         1 SER         0.1885
     68 H7          9.0057   16.4641  -16.7639 H         1 SER         0.0823
     69 H8         10.2249   16.5840  -14.6101 H         1 SER         0.0606
     70 H9          9.4261   18.1526  -14.2525 H         1 SER         0.0606
     71 H10        10.4130   18.9522  -16.1689 H         1 SER         0.2097
     72 H11         7.5873   14.8836  -16.4582 H         1 LYS         0.1883
     73 H12         5.7045   14.9533  -14.1667 H         1 LYS         0.0800
     74 H13         4.6411   13.0529  -15.3590 H         1 LYS         0.0312
     75 H14         5.8753   13.1992  -16.6559 H         1 LYS         0.0312
     76 H15         3.8168   14.2468  -17.3836 H         1 LYS         0.0269
     77 H16         5.0651   15.5110  -17.1179 H         1 LYS         0.0269
     78 H17         4.0289   15.8855  -14.8105 H         1 LYS         0.0317
     79 H18         2.6820   14.8171  -15.3311 H         1 LYS         0.0317
     80 H19         2.0403   17.1512  -15.5780 H         1 LYS         0.0813
     81 H20         2.1838   16.3784  -17.1932 H         1 LYS         0.0813
     82 H21         3.1507   18.5688  -17.1565 H         1 LYS         0.1994
     83 H22         4.3227   17.4459  -17.4304 H         1 LYS         0.1994
     84 H23         4.1912   18.1541  -15.9503 H         1 LYS         0.1994
     85 H24         6.3000   13.9234  -12.4584 H         1 MET         0.1883
     86 H25         8.9487   12.8202  -12.3527 H         1 MET         0.0800
     87 H26         6.7436   12.7955  -10.2515 H         1 MET         0.0320
     88 H27         7.7577   14.2326  -10.6162 H         1 MET         0.0320
     89 H28         9.7263   13.1677   -9.8125 H         1 MET         0.0378
     90 H29         8.9317   11.5572   -9.7742 H         1 MET         0.0378
     91 H30         6.4053   11.9285   -6.7786 H         1 MET         0.0340
     92 H31         7.2175   10.7805   -7.8962 H         1 MET         0.0340
     93 H32         6.0727   12.0048   -8.5422 H         1 MET         0.0340
     94 H33         5.6868   11.4958  -12.6167 H         1 GLU         0.1883
     95 H34         6.4831    8.8428  -11.7719 H         1 GLU         0.0801
     96 H35         4.0243    9.3424  -13.4402 H         1 GLU         0.0330
     97 H36         4.1168    9.9734  -11.7610 H         1 GLU         0.0330
     98 H37         5.0128    7.3092  -11.6018 H         1 GLU         0.0433
     99 H38         3.6101    7.2708  -12.7232 H         1 GLU         0.0433
    100 H39         7.0883   10.5087  -14.6488 H         1 GLU         0.1883
    101 H40         7.2173    8.0246  -16.2768 H         1 GLU         0.0801
    102 H41         7.5088    9.6412  -18.1759 H         1 GLU         0.0330
    103 H42         7.3191   10.9901  -17.0049 H         1 GLU         0.0330
    104 H43         5.0926    9.9853  -16.3541 H         1 GLU         0.0433
    105 H44         5.2857    8.8376  -17.7224 H         1 GLU         0.0433
    106 H45         9.1273    7.0956  -16.6620 H         1 VAL         0.1883
    107 H46        11.6709    8.4255  -16.0009 H         1 VAL         0.0802
    108 H47        12.7113    6.3125  -16.8905 H         1 VAL         0.0343
    109 H48        11.9652    4.9502  -14.9313 H         1 VAL         0.0234
    110 H49        10.5624    6.0504  -14.7115 H         1 VAL         0.0234
    111 H50        12.2334    6.6690  -14.4839 H         1 VAL         0.0234
    112 H51        10.8959    5.6149  -18.4285 H         1 VAL         0.0234
    113 H52         9.8081    5.3625  -17.0216 H         1 VAL         0.0234
    114 H53        11.2734    4.3423  -17.2184 H         1 VAL         0.0234
    115 H54        13.4678    8.3859  -17.7558 H         1 ASP         0.1876
    116 H55        12.2672    9.5630  -20.2290 H         1 ASP         0.0745
    117 H56        14.2645   11.1564  -20.0945 H         1 ASP         0.0471
    118 H57        14.5385   10.5353  -18.4314 H         1 ASP         0.0471
@<TRIPOS>BOND
     1    1    2 1  
     2    2    3 1  
     3    3    4 2  
     4    3    5 am 
     5    5    6 1  
     6    6    7 1  
     7    6    9 1  
     8    7    8 2  
     9    7   11 am 
    10    9   10 1  
    11   11   12 1  
    12   12   13 1  
    13   12   15 1  
    14   13   14 2  
    15   13   20 am 
    16   15   16 1  
    17   16   17 1  
    18   17   18 1  
    19   18   19 1  
    20   20   21 1  
    21   21   22 1  
    22   21   24 1  
    23   22   23 2  
    24   22   28 am 
    25   24   25 1  
    26   25   26 1  
    27   26   27 1  
    28   28   29 1  
    29   29   30 1  
    30   29   32 1  
    31   30   31 2  
    32   30   37 am 
    33   32   33 1  
    34   33   34 1  
    35   34   35 ar 
    36   34   36 ar 
    37   37   38 1  
    38   38   39 1  
    39   38   41 1  
    40   39   40 2  
    41   39   46 am 
    42   41   42 1  
    43   42   43 1  
    44   43   44 ar 
    45   43   45 ar 
    46   46   47 1  
    47   47   48 1  
    48   47   50 1  
    49   48   49 2  
    50   48   53 am 
    51   50   51 1  
    52   50   52 1  
    53   53   54 1  
    54   54   55 1  
    55   54   57 1  
    56   55   56 ar 
    57   55   61 ar 
    58   57   58 1  
    59   58   59 ar 
    60   58   60 ar 
    61    1   62 1  
    62    1   63 1  
    63    1   64 1  
    64    2   65 1  
    65    2   66 1  
    66    5   67 1  
    67    6   68 1  
    68    9   69 1  
    69    9   70 1  
    70   10   71 1  
    71   11   72 1  
    72   12   73 1  
    73   15   74 1  
    74   15   75 1  
    75   16   76 1  
    76   16   77 1  
    77   17   78 1  
    78   17   79 1  
    79   18   80 1  
    80   18   81 1  
    81   19   82 1  
    82   19   83 1  
    83   19   84 1  
    84   20   85 1  
    85   21   86 1  
    86   24   87 1  
    87   24   88 1  
    88   25   89 1  
    89   25   90 1  
    90   27   91 1  
    91   27   92 1  
    92   27   93 1  
    93   28   94 1  
    94   29   95 1  
    95   32   96 1  
    96   32   97 1  
    97   33   98 1  
    98   33   99 1  
    99   37  100 1  
   100   38  101 1  
   101   41  102 1  
   102   41  103 1  
   103   42  104 1  
   104   42  105 1  
   105   46  106 1  
   106   47  107 1  
   107   50  108 1  
   108   51  109 1  
   109   51  110 1  
   110   51  111 1  
   111   52  112 1  
   112   52  113 1  
   113   52  114 1  
   114   53  115 1  
   115   54  116 1  
   116   57  117 1  
   117   57  118 1  
@<TRIPOS>SUBSTRUCTURE
     1 GLY         1

