3mtb_ligand
  -I-interpret- 

 42 43  0  0  0  0  0  0  0  0999 V2000
   19.2530   15.1380   56.0450 C   0  0  0  0  0
   18.8210   13.8340   55.5510 N   0  0  0  0  0
   18.2320   13.0110   58.0260 S   0  0  0  0  0
   19.2830   11.6320   49.3320 Cl  0  0  0  0  0
   20.6610   15.4900   55.5110 C   0  0  0  0  0
   17.9490   11.7030   55.7790 N   0  0  0  0  0
   21.6710   14.6010   56.0220 O   0  0  0  0  0
   21.0010   16.9500   55.8590 C   0  0  0  0  0
   18.0010   11.5210   54.5460 N   0  0  0  0  0
   16.2880   17.5560   55.1190 O   0  0  0  0  0
   19.8890   17.8900   55.3770 C   0  0  0  0  0
   20.1100   19.2220   55.8410 O   0  0  0  0  0
   18.5410   17.4320   55.9170 C   0  0  0  0  0
   18.3020   16.0770   55.5140 O   0  0  0  0  0
   17.4350   18.3490   55.4090 C   0  0  0  0  0
   22.2470   17.3650   55.2830 O   0  0  0  0  0
   18.3420   12.8520   56.3330 C   0  0  0  0  0
   17.6200   10.4170   54.0820 C   0  0  0  0  0
   17.6510   10.1090   52.6340 C   0  0  0  0  0
   18.3660   10.9200   51.7720 C   0  0  0  0  0
   18.3770   10.5820   50.4250 C   0  0  0  0  0
   17.7060    9.4760   49.9050 C   0  0  0  0  0
   16.9920    8.6650   50.7690 C   0  0  0  0  0
   16.9670    8.9930   52.1290 C   0  0  0  0  0
   19.3013   15.1511   57.1338 H   0  0  0  0  0
   18.8870   13.6571   54.5486 H   0  0  0  0  0
   20.6467   15.3691   54.4278 H   0  0  0  0  0
   21.4432   13.6962   55.7962 H   0  0  0  0  0
   21.0898   17.0035   56.9441 H   0  0  0  0  0
   15.5822   18.1217   54.7975 H   0  0  0  0  0
   19.8950   17.8688   54.2872 H   0  0  0  0  0
   19.4028   19.7904   55.5273 H   0  0  0  0  0
   18.5491   17.4798   57.0059 H   0  0  0  0  0
   17.1909   19.0930   56.1673 H   0  0  0  0  0
   17.7658   18.8678   54.5093 H   0  0  0  0  0
   22.9469   16.7797   55.5815 H   0  0  0  0  0
   16.5568   10.3963   54.3214 H   0  0  0  0  0
   18.3299    9.7068   54.5060 H   0  0  0  0  0
   18.9030   11.7953   52.1375 H   0  0  0  0  0
   17.7432    9.2546   48.8384 H   0  0  0  0  0
   16.4601    7.7889   50.3980 H   0  0  0  0  0
   16.4002    8.3638   52.8153 H   0  0  0  0  0
  2  1  1  0  0  0
  1  5  1  0  0  0
  1 14  1  0  0  0
 17  2  1  0  0  0
 17  3  2  0  0  0
 21  4  1  0  0  0
  5  7  1  0  0  0
  5  8  1  0  0  0
  9  6  2  0  0  0
  6 17  1  0  0  0
  8 11  1  0  0  0
  8 16  1  0  0  0
 18  9  1  0  0  0
 15 10  1  0  0  0
 11 12  1  0  0  0
 13 11  1  0  0  0
 14 13  1  0  0  0
 13 15  1  0  0  0
 19 18  1  0  0  0
 20 19  4  0  0  0
 19 24  4  0  0  0
 20 21  4  0  0  0
 21 22  4  0  0  0
 22 23  4  0  0  0
 23 24  4  0  0  0
  1 25  1  0  0  0
  2 26  1  0  0  0
  5 27  1  0  0  0
  7 28  1  0  0  0
  8 29  1  0  0  0
 10 30  1  0  0  0
 11 31  1  0  0  0
 12 32  1  0  0  0
 13 33  1  0  0  0
 15 34  1  0  0  0
 15 35  1  0  0  0
 16 36  1  0  0  0
 18 37  1  0  0  0
 18 38  1  0  0  0
 20 39  1  0  0  0
 22 40  1  0  0  0
 23 41  1  0  0  0
 24 42  1  0  0  0
M  END
$$$$
