5als_ligand
  -I-interpret- 

 42 45  0  0  0  0  0  0  0  0999 V2000
   17.5990    9.4380   14.8840 C   0  0  0  0  0
   18.1770   11.8090   14.6940 C   0  0  0  0  0
   18.4400    9.0010   13.9030 C   0  0  0  0  0
   19.0820   11.5220   13.6570 C   0  0  0  0  0
   14.1300   11.9280   20.2900 C   0  0  0  0  0
   14.1410   13.2310   19.6320 C   0  0  0  0  0
   17.3820   10.8060   15.3470 C   0  0  0  0  0
   19.2180   10.0880   13.2520 C   0  0  0  0  0
   15.5290   11.1120   18.2490 C   0  0  0  0  0
   14.8480   10.7780   19.5850 C   0  0  0  0  0
   15.3950   12.4330   17.8350 C   0  0  0  0  0
   16.5700   11.1930   16.4040 C   0  0  0  0  0
   10.3070    8.5510   19.0380 C   0  0  0  0  0
   10.5550    8.5360   17.5510 C   0  0  0  0  0
   11.3270    9.3480   19.7850 C   0  0  0  0  0
   11.9540    8.7150   17.4370 C   0  0  0  0  0
   12.4330    9.2680   18.7840 C   0  0  0  0  0
   20.1720    9.7870   12.1620 C   0  0  0  0  0
   14.7310   13.5230   18.4330 N   0  0  0  0  0
   16.2830   10.4430   17.2780 N   0  0  0  0  0
   16.0620   12.3240   16.7350 N   0  0  0  0  0
   13.6400    8.5190   19.3590 N   0  0  0  0  0
   16.0720    8.4480   20.1820 O   0  0  0  0  0
   14.1760    9.1870   21.6080 O   0  0  0  0  0
   19.7780    9.6250   10.8930 F   0  0  0  0  0
   21.2900   10.4970   12.3110 F   0  0  0  0  0
   20.6210    8.6210   12.3210 F   0  0  0  0  0
   14.8450    9.1120   20.3820 S   0  0  0  0  0
   17.0141    8.6677   15.3866 H   0  0  0  0  0
   18.0733   12.8443   15.0188 H   0  0  0  0  0
   18.5331    7.9519   13.6223 H   0  0  0  0  0
   19.6585   12.3086   13.1701 H   0  0  0  0  0
   13.6292   11.7811   21.2469 H   0  0  0  0  0
   13.6315   14.0474   20.1439 H   0  0  0  0  0
   10.3579    7.5228   19.3961 H   0  0  0  0  0
    9.3329    9.0088   19.2102 H   0  0  0  0  0
    9.8259    8.4153   16.7498 H   0  0  0  0  0
   11.5705    8.9795   20.7815 H   0  0  0  0  0
   11.0204   10.3562   20.0637 H   0  0  0  0  0
   12.5698    8.5016   16.5633 H   0  0  0  0  0
   12.7710   10.2823   18.5718 H   0  0  0  0  0
   13.7262    7.5389   19.0898 H   0  0  0  0  0
  1  3  4  0  0  0
  7  1  4  0  0  0
  2  4  4  0  0  0
  7  2  4  0  0  0
  3  8  4  0  0  0
  4  8  4  0  0  0
  5  6  4  0  0  0
 10  5  4  0  0  0
  6 19  4  0  0  0
 12  7  1  0  0  0
  8 18  1  0  0  0
 10  9  4  0  0  0
  9 11  4  0  0  0
  9 20  4  0  0  0
 28 10  1  0  0  0
 11 19  4  0  0  0
 11 21  4  0  0  0
 20 12  4  0  0  0
 12 21  4  0  0  0
 14 13  1  0  0  0
 15 13  1  0  0  0
 16 14  2  0  0  0
 17 15  1  0  0  0
 17 16  1  0  0  0
 22 17  1  0  0  0
 18 25  1  0  0  0
 18 26  1  0  0  0
 18 27  1  0  0  0
 22 28  1  0  0  0
 28 23  2  0  0  0
 28 24  2  0  0  0
  1 29  1  0  0  0
  2 30  1  0  0  0
  3 31  1  0  0  0
  4 32  1  0  0  0
  5 33  1  0  0  0
  6 34  1  0  0  0
 13 35  1  0  0  0
 13 36  1  0  0  0
 14 37  1  0  0  0
 15 38  1  0  0  0
 15 39  1  0  0  0
 16 40  1  0  0  0
 17 41  1  0  0  0
 22 42  1  0  0  0
M  END
$$$$
