5ef7_ligand
  -I-interpret- 

 41 42  0  0  0  0  0  0  0  0999 V2000
   -8.8770   14.8870   27.8290 O   0  0  0  0  0
   -8.0650   15.7460   28.1160 C   0  0  0  0  0
   -7.4770   15.6770   29.4150 N   0  0  0  0  0
   -7.8250   14.6130   30.3880 C   0  0  0  0  0
   -7.1010   13.2500   30.0910 C   0  0  0  0  0
   -7.5790   12.3230   31.0220 O   0  0  0  0  0
   -6.4760   16.6690   29.8540 C   0  0  0  0  0
   -6.7870   18.0310   30.0840 C   0  0  0  0  0
   -5.8120   18.9380   30.5020 C   0  0  0  0  0
   -4.4940   18.5350   30.7210 C   0  0  0  0  0
   -4.1760   17.2020   30.5050 C   0  0  0  0  0
   -5.1400   16.2870   30.0800 C   0  0  0  0  0
   -7.7280   16.8260   27.0710 C   0  0  0  0  0
   -7.9550   16.4690   25.6050 C   0  0  0  0  0
   -8.6360   17.3130   24.7280 C   0  0  0  0  0
   -8.8510   16.9980   23.3940 C   0  0  0  0  0
   -7.5020   15.2760   25.0430 C   0  0  0  0  0
   -7.7080   14.9470   23.7090 C   0  0  0  0  0
   -8.3920   15.8030   22.8470 C   0  0  0  0  0
   -8.5690   15.4240   21.4130 C   0  0  0  0  0
   -8.7840   16.2070   20.5120 O   0  0  0  0  0
   -8.4060   14.0070   21.1380 N   0  0  0  0  0
   -8.5440   13.6470   19.8630 O   0  0  0  0  0
   -8.8992   14.4402   30.3216 H   0  0  0  0  0
   -7.5087   14.9492   31.3754 H   0  0  0  0  0
   -6.0200   13.3605   30.1763 H   0  0  0  0  0
   -7.3072   12.9170   29.0738 H   0  0  0  0  0
   -7.1575   11.4737   30.8716 H   0  0  0  0  0
   -7.8089   18.3783   29.9315 H   0  0  0  0  0
   -6.0853   19.9812   30.6604 H   0  0  0  0  0
   -3.7371   19.2462   31.0518 H   0  0  0  0  0
   -3.1534   16.8629   30.6705 H   0  0  0  0  0
   -4.8508   15.2485   29.9187 H   0  0  0  0  0
   -6.6583   17.0107   27.1694 H   0  0  0  0  0
   -8.3971   17.6607   27.2803 H   0  0  0  0  0
   -9.0160   18.2616   25.1072 H   0  0  0  0  0
   -9.3911   17.7016   22.7605 H   0  0  0  0  0
   -6.9635   14.5717   25.6771 H   0  0  0  0  0
   -7.3267   13.9995   23.3283 H   0  0  0  0  0
   -8.1992   13.3314   21.8737 H   0  0  0  0  0
   -8.4192   12.6984   19.7842 H   0  0  0  0  0
  1  2  2  0  0  0
  2  3  1  0  0  0
  2 13  1  0  0  0
  3  4  1  0  0  0
  3  7  1  0  0  0
  4  5  1  0  0  0
  5  6  1  0  0  0
  7  8  4  0  0  0
  7 12  4  0  0  0
  8  9  4  0  0  0
  9 10  4  0  0  0
 10 11  4  0  0  0
 11 12  4  0  0  0
 13 14  1  0  0  0
 14 15  4  0  0  0
 14 17  4  0  0  0
 15 16  4  0  0  0
 16 19  4  0  0  0
 17 18  4  0  0  0
 18 19  4  0  0  0
 19 20  1  0  0  0
 20 21  2  0  0  0
 20 22  1  0  0  0
 22 23  1  0  0  0
  4 24  1  0  0  0
  4 25  1  0  0  0
  5 26  1  0  0  0
  5 27  1  0  0  0
  6 28  1  0  0  0
  8 29  1  0  0  0
  9 30  1  0  0  0
 10 31  1  0  0  0
 11 32  1  0  0  0
 12 33  1  0  0  0
 13 34  1  0  0  0
 13 35  1  0  0  0
 15 36  1  0  0  0
 16 37  1  0  0  0
 17 38  1  0  0  0
 18 39  1  0  0  0
 22 40  1  0  0  0
 23 41  1  0  0  0
M  END
$$$$
