4kii_ligand
  -I-interpret- 

 58 61  0  0  0  0  0  0  0  0999 V2000
   32.7550   45.4460  111.5980 C   0  0  0  0  0
   32.8490   45.1920  112.7820 O   0  0  0  0  0
   33.9430   45.1680  110.7030 C   0  0  0  0  0
   35.1640   44.9260  111.5700 C   0  0  0  0  0
   35.7790   43.5770  111.2810 C   0  0  0  0  0
   37.2030   43.7470  110.8090 C   0  0  0  0  0
   37.9600   42.4430  110.9420 C   0  0  0  0  0
   39.2260   42.5590  110.1280 C   0  0  0  0  0
   40.1280   41.3610  110.3130 C   0  0  0  0  0
   41.2880   41.5760  109.3790 C   0  0  0  0  0
   42.2910   40.4610  109.4860 C   0  0  0  0  0
   43.6470   41.0740  109.2330 C   0  0  0  0  0
   30.1010   47.5270  112.2290 N   0  0  0  0  0
   31.5430   45.9880  111.0880 N   0  0  0  0  0
   31.5800   47.5810  109.2970 N   0  0  0  0  0
   29.0280   47.7830  113.0270 C   0  0  0  0  0
   28.2780   46.7310  113.5310 C   0  0  0  0  0
   28.6100   45.4410  113.2300 C   0  0  0  0  0
   29.6840   45.1880  112.4270 C   0  0  0  0  0
   30.4370   46.2400  111.9350 C   0  0  0  0  0
   31.3540   46.3080  109.7220 C   0  0  0  0  0
   30.8960   45.3450  108.8380 C   0  0  0  0  0
   30.6940   45.6640  107.5280 C   0  0  0  0  0
   30.9300   46.9390  107.1000 C   0  0  0  0  0
   31.3770   47.9040  107.9910 C   0  0  0  0  0
   44.4340   40.1960  108.2960 C   0  0  0  0  0
   31.8110   48.5030  111.1070 Rh  0  0  0  0  0
   34.1190   46.0213  110.0480 H   0  0  0  0  0
   33.7454   44.2884  110.0904 H   0  0  0  0  0
   34.8592   44.9530  112.6162 H   0  0  0  0  0
   35.9023   45.6986  111.3554 H   0  0  0  0  0
   35.2008   43.0795  110.5024 H   0  0  0  0  0
   35.7729   42.9783  112.1919 H   0  0  0  0  0
   37.6920   44.5061  111.4196 H   0  0  0  0  0
   37.1970   44.0497  109.7619 H   0  0  0  0  0
   37.3520   41.6140  110.5799 H   0  0  0  0  0
   38.1990   42.2492  111.9877 H   0  0  0  0  0
   39.7649   43.4465  110.4597 H   0  0  0  0  0
   38.9505   42.6195  109.0751 H   0  0  0  0  0
   39.6048   40.4313  110.0893 H   0  0  0  0  0
   40.4616   41.2707  111.3467 H   0  0  0  0  0
   41.7797   42.5113  109.6466 H   0  0  0  0  0
   40.9095   41.6048  108.3572 H   0  0  0  0  0
   42.0780   39.6752  108.7613 H   0  0  0  0  0
   42.2520   39.9958  110.4710 H   0  0  0  0  0
   44.1834   41.1669  110.1773 H   0  0  0  0  0
   43.5202   42.0592  108.7842 H   0  0  0  0  0
   28.7594   48.8113  113.2689 H   0  0  0  0  0
   27.4192   46.9348  114.1706 H   0  0  0  0  0
   28.0194   44.6166  113.6296 H   0  0  0  0  0
   29.9479   44.1611  112.1740 H   0  0  0  0  0
   30.6972   44.3326  109.1896 H   0  0  0  0  0
   30.3462   44.9058  106.8264 H   0  0  0  0  0
   30.7666   47.1996  106.0543 H   0  0  0  0  0
   31.5654   48.9203  107.6449 H   0  0  0  0  0
   44.5602   39.2102  108.7437 H   0  0  0  0  0
   43.8975   40.1017  107.3519 H   0  0  0  0  0
   45.4119   40.6429  108.1166 H   0  0  0  0  0
  1  2  2  0  0  0
  1  3  1  0  0  0
 14  1  1  0  0  0
  3  4  1  0  0  0
  4  5  1  0  0  0
  5  6  1  0  0  0
  6  7  1  0  0  0
  7  8  1  0  0  0
  8  9  1  0  0  0
  9 10  1  0  0  0
 10 11  1  0  0  0
 11 12  1  0  0  0
 12 26  1  0  0  0
 13 16  4  0  0  0
 20 13  4  0  0  0
 14 20  1  0  0  0
 14 21  1  0  0  0
 21 15  4  0  0  0
 15 25  4  0  0  0
 16 17  4  0  0  0
 17 18  4  0  0  0
 18 19  4  0  0  0
 19 20  4  0  0  0
 21 22  4  0  0  0
 22 23  4  0  0  0
 23 24  4  0  0  0
 24 25  4  0  0  0
 13 27  1  0  0  0
 27 14  1  0  0  0
 27 15  1  0  0  0
  3 28  1  0  0  0
  3 29  1  0  0  0
  4 30  1  0  0  0
  4 31  1  0  0  0
  5 32  1  0  0  0
  5 33  1  0  0  0
  6 34  1  0  0  0
  6 35  1  0  0  0
  7 36  1  0  0  0
  7 37  1  0  0  0
  8 38  1  0  0  0
  8 39  1  0  0  0
  9 40  1  0  0  0
  9 41  1  0  0  0
 10 42  1  0  0  0
 10 43  1  0  0  0
 11 44  1  0  0  0
 11 45  1  0  0  0
 12 46  1  0  0  0
 12 47  1  0  0  0
 16 48  1  0  0  0
 17 49  1  0  0  0
 18 50  1  0  0  0
 19 51  1  0  0  0
 22 52  1  0  0  0
 23 53  1  0  0  0
 24 54  1  0  0  0
 25 55  1  0  0  0
 26 56  1  0  0  0
 26 57  1  0  0  0
 26 58  1  0  0  0
M  END
$$$$
