### 
### Created by X-TOOL on Mon Sep 10 21:13:14 2018
### 

@<TRIPOS>MOLECULE
4kii_ligand
   58    61     1     0     0
SMALL
GAST_HUCK


@<TRIPOS>ATOM
      1 C1         32.7550   45.4460  111.5980 C.2       1 RHL         0.2372
      2 O1         32.8490   45.1920  112.7820 O.2       1 RHL        -0.3707
      3 C2         33.9430   45.1680  110.7030 C.3       1 RHL         0.0499
      4 C3         35.1640   44.9260  111.5700 C.3       1 RHL        -0.0350
      5 C4         35.7790   43.5770  111.2810 C.3       1 RHL        -0.0509
      6 C5         37.2030   43.7470  110.8090 C.3       1 RHL        -0.0529
      7 C6         37.9600   42.4430  110.9420 C.3       1 RHL        -0.0531
      8 C7         39.2260   42.5590  110.1280 C.3       1 RHL        -0.0531
      9 C8         40.1280   41.3610  110.3130 C.3       1 RHL        -0.0531
     10 C9         41.2880   41.5760  109.3790 C.3       1 RHL        -0.0531
     11 CA         42.2910   40.4610  109.4860 C.3       1 RHL        -0.0533
     12 CB         43.6470   41.0740  109.2330 C.3       1 RHL        -0.0559
     13 N4         30.1010   47.5270  112.2290 N.ar      1 RHL        -0.2784
     14 N5         31.5430   45.9880  111.0880 N.am      1 RHL        -0.1375
     15 N6         31.5800   47.5810  109.2970 N.ar      1 RHL        -0.2784
     16 C11        29.0280   47.7830  113.0270 C.ar      1 RHL        -0.0043
     17 C12        28.2780   46.7310  113.5310 C.ar      1 RHL        -0.0484
     18 C13        28.6100   45.4410  113.2300 C.ar      1 RHL        -0.0538
     19 C14        29.6840   45.1880  112.4270 C.ar      1 RHL        -0.0063
     20 C15        30.4370   46.2400  111.9350 C.ar      1 RHL         0.1683
     21 C16        31.3540   46.3080  109.7220 C.ar      1 RHL         0.1683
     22 C17        30.8960   45.3450  108.8380 C.ar      1 RHL        -0.0063
     23 C18        30.6940   45.6640  107.5280 C.ar      1 RHL        -0.0538
     24 C19        30.9300   46.9390  107.1000 C.ar      1 RHL        -0.0484
     25 C20        31.3770   47.9040  107.9910 C.ar      1 RHL        -0.0043
     26 C01        44.4340   40.1960  108.2960 C.3       1 RHL        -0.0653
     27 RH1        31.8110   48.5030  111.1070 Rh        1 RHL         1.0000
     28 H1         34.1215   46.0325  110.0467 H         1 RHL         0.0514
     29 H2         33.7430   44.2771  110.0896 H         1 RHL         0.0514
     30 H3         34.8665   44.9656  112.6282 H         1 RHL         0.0290
     31 H4         35.9084   45.7104  111.3688 H         1 RHL         0.0290
     32 H5         35.1944   43.0705  110.4989 H         1 RHL         0.0267
     33 H6         35.7696   42.9689  112.1975 H         1 RHL         0.0267
     34 H7         37.6978   44.5175  111.4185 H         1 RHL         0.0265
     35 H8         37.2008   44.0593  109.7543 H         1 RHL         0.0265
     36 H9         37.3457   41.6133  110.5622 H         1 RHL         0.0265
     37 H10        38.2094   42.2612  111.9978 H         1 RHL         0.0265
     38 H11        39.7680   43.4636  110.4408 H         1 RHL         0.0265
     39 H12        38.9583   42.6414  109.0643 H         1 RHL         0.0265
     40 H13        39.5937   40.4351  110.0539 H         1 RHL         0.0265
     41 H14        40.4794   41.3027  111.3537 H         1 RHL         0.0265
     42 H15        41.7806   42.5263  109.6326 H         1 RHL         0.0265
     43 H16        40.9124   41.6218  108.3461 H         1 RHL         0.0265
     44 H17        42.0787   39.6863  108.7345 H         1 RHL         0.0265
     45 H18        42.2576   40.0157  110.4913 H         1 RHL         0.0265
     46 H19        44.1885   41.1698  110.1857 H         1 RHL         0.0263
     47 H20        43.5200   42.0691  108.7816 H         1 RHL         0.0263
     48 H21        28.7608   48.8056  113.2676 H         1 RHL         0.0781
     49 H22        27.4239   46.9337  114.1671 H         1 RHL         0.0594
     50 H23        28.0227   44.6211  113.6274 H         1 RHL         0.0696
     51 H24        29.9465   44.1668  112.1754 H         1 RHL         0.0621
     52 H25        30.6983   44.3382  109.1876 H         1 RHL         0.0621
     53 H26        30.3481   44.9099  106.8303 H         1 RHL         0.0696
     54 H27        30.7675   47.1982  106.0601 H         1 RHL         0.0594
     55 H28        31.5644   48.9147  107.6468 H         1 RHL         0.0781
     56 H29        45.4212   40.6460  108.1142 H         1 RHL         0.0230
     57 H30        43.8937   40.1000  107.3427 H         1 RHL         0.0230
     58 H31        44.5621   39.2008  108.7467 H         1 RHL         0.0230
@<TRIPOS>BOND
     1    1    2 2  
     2    1    3 1  
     3   14    1 am 
     4    3    4 1  
     5    4    5 1  
     6    5    6 1  
     7    6    7 1  
     8    7    8 1  
     9    8    9 1  
    10    9   10 1  
    11   10   11 1  
    12   11   12 1  
    13   12   26 1  
    14   13   16 ar 
    15   20   13 ar 
    16   14   20 1  
    17   14   21 1  
    18   21   15 ar 
    19   15   25 ar 
    20   16   17 ar 
    21   17   18 ar 
    22   18   19 ar 
    23   19   20 ar 
    24   21   22 ar 
    25   22   23 ar 
    26   23   24 ar 
    27   24   25 ar 
    28   13   27 du 
    29   27   14 1  
    30   27   15 du 
    31    3   28 1  
    32    3   29 1  
    33    4   30 1  
    34    4   31 1  
    35    5   32 1  
    36    5   33 1  
    37    6   34 1  
    38    6   35 1  
    39    7   36 1  
    40    7   37 1  
    41    8   38 1  
    42    8   39 1  
    43    9   40 1  
    44    9   41 1  
    45   10   42 1  
    46   10   43 1  
    47   11   44 1  
    48   11   45 1  
    49   12   46 1  
    50   12   47 1  
    51   16   48 1  
    52   17   49 1  
    53   18   50 1  
    54   19   51 1  
    55   22   52 1  
    56   23   53 1  
    57   24   54 1  
    58   25   55 1  
    59   26   56 1  
    60   26   57 1  
    61   26   58 1  
@<TRIPOS>SUBSTRUCTURE
     1 RHL         1

