2f70_ligand
  -I-interpret- 

 47 48  0  0  0  0  0  0  0  0999 V2000
  -20.7290   49.8970   49.0850 O   0  0  0  0  0
  -20.5930   49.3700   47.7150 S   0  0  0  0  0
  -21.6840   49.8030   46.8180 O   0  0  0  0  0
  -19.4170   50.0460   47.1420 O   0  0  0  0  0
  -20.4840   47.7680   47.6600 N   0  0  0  0  0
  -19.5450   47.0300   48.3060 C   0  0  0  0  0
  -19.2520   45.7920   47.7420 C   0  0  0  0  0
  -18.3110   44.9450   48.3160 C   0  0  0  0  0
  -18.9360   47.4710   49.4910 C   0  0  0  0  0
  -17.9910   46.6420   50.1150 C   0  0  0  0  0
  -17.7270   45.4190   49.5010 C   0  0  0  0  0
  -17.3150   47.0880   51.4030 C   0  0  0  0  0
  -15.8630   47.1960   51.2690 N   0  0  0  0  0
  -15.0080   46.2830   51.7430 C   0  0  0  0  0
  -15.3940   45.2730   52.3370 O   0  0  0  0  0
  -13.5290   46.5180   51.4820 C   0  0  0  0  0
  -13.0880   45.5270   50.3780 C   0  0  0  0  0
  -11.5900   45.7680   50.2520 C   0  0  0  0  0
  -11.0980   46.7000   49.3410 C   0  0  0  0  0
   -9.7350   46.9760   49.2220 C   0  0  0  0  0
   -9.2960   47.9050   48.3250 N   0  0  0  0  0
   -8.7890   47.6070   46.8320 S   0  0  0  0  0
  -10.0170   47.0390   46.2150 O   0  0  0  0  0
   -8.5110   48.9790   46.3740 O   0  0  0  0  0
   -7.6920   46.6320   46.9610 O   0  0  0  0  0
   -8.8510   46.3040   50.0680 C   0  0  0  0  0
   -9.3050   45.3730   50.9920 C   0  0  0  0  0
  -10.6770   45.1210   51.0820 C   0  0  0  0  0
  -21.5443   49.4318   45.9438 H   0  0  0  0  0
  -21.1721   47.2676   47.0974 H   0  0  0  0  0
  -19.7693   45.4811   46.8344 H   0  0  0  0  0
  -18.0460   43.9828   47.8777 H   0  0  0  0  0
  -19.1924   48.4401   49.9191 H   0  0  0  0  0
  -16.9986   44.7696   49.9867 H   0  0  0  0  0
  -17.5262   46.3411   52.1682 H   0  0  0  0  0
  -17.7019   48.0740   51.6604 H   0  0  0  0  0
  -15.4818   48.0110   50.7885 H   0  0  0  0  0
  -12.9511   46.3566   52.3920 H   0  0  0  0  0
  -13.3570   47.5458   51.1624 H   0  0  0  0  0
  -13.6154   45.6906   49.4382 H   0  0  0  0  0
  -13.3225   44.4929   50.6304 H   0  0  0  0  0
  -11.8010   47.2315   48.6996 H   0  0  0  0  0
   -9.2894   48.8779   48.6312 H   0  0  0  0  0
  -10.1556   46.1475   46.5431 H   0  0  0  0  0
   -7.7836   46.5145   50.0017 H   0  0  0  0  0
   -8.6023   44.8463   51.6377 H   0  0  0  0  0
  -11.0403   44.4030   51.8172 H   0  0  0  0  0
  1  2  2  0  0  0
  2  3  1  0  0  0
  2  4  2  0  0  0
  2  5  1  0  0  0
  5  6  1  0  0  0
  6  7  4  0  0  0
  6  9  4  0  0  0
  7  8  4  0  0  0
  8 11  4  0  0  0
  9 10  4  0  0  0
 10 11  4  0  0  0
 10 12  1  0  0  0
 12 13  1  0  0  0
 13 14  1  0  0  0
 14 15  2  0  0  0
 14 16  1  0  0  0
 16 17  1  0  0  0
 17 18  1  0  0  0
 18 19  4  0  0  0
 18 28  4  0  0  0
 19 20  4  0  0  0
 20 21  1  0  0  0
 20 26  4  0  0  0
 21 22  1  0  0  0
 22 23  1  0  0  0
 22 24  2  0  0  0
 22 25  2  0  0  0
 26 27  4  0  0  0
 27 28  4  0  0  0
  3 29  1  0  0  0
  5 30  1  0  0  0
  7 31  1  0  0  0
  8 32  1  0  0  0
  9 33  1  0  0  0
 11 34  1  0  0  0
 12 35  1  0  0  0
 12 36  1  0  0  0
 13 37  1  0  0  0
 16 38  1  0  0  0
 16 39  1  0  0  0
 17 40  1  0  0  0
 17 41  1  0  0  0
 19 42  1  0  0  0
 21 43  1  0  0  0
 23 44  1  0  0  0
 26 45  1  0  0  0
 27 46  1  0  0  0
 28 47  1  0  0  0
M  END
$$$$
