4mx0_ligand
  -I-interpret- 

 51 51  0  0  0  0  0  0  0  0999 V2000
   24.6790  -63.0970   16.3200 C   0  0  0  0  0
   24.3520  -61.8120   15.7740 N   0  0  0  0  0
   23.9560  -61.6480   14.3540 C   0  0  0  0  0
   23.8580  -62.7120   13.5620 N   0  0  0  0  0
   23.6800  -60.4580   13.8490 N   0  0  0  0  0
   25.7480  -62.9690   17.3200 C   0  0  0  0  0
   27.1190  -62.6850   16.6130 C   0  0  0  0  0
   28.4470  -62.6740   17.5560 C   0  0  0  0  0
   28.2210  -61.7630   18.7760 C   0  0  0  0  0
   28.0380  -60.2960   18.4900 C   0  0  0  0  0
   29.7160  -62.3600   16.7990 C   0  0  0  0  0
   31.0490  -62.4820   17.5080 C   0  0  0  0  0
   27.1350  -61.4580   15.6420 N   0  0  0  0  0
   27.3120  -61.6280   14.2260 C   0  0  0  0  0
   27.3120  -60.4110   13.3640 C   0  0  0  0  0
   27.4530  -62.7400   13.7430 O   0  0  0  0  0
   25.6840  -64.2350   18.0760 C   0  0  0  0  0
   26.5210  -65.1980   17.5070 O   0  0  0  0  0
   24.2960  -64.6970   18.0030 C   0  0  0  0  0
   23.6860  -64.7070   19.3910 C   0  0  0  0  0
   22.3670  -65.1260   19.5220 O   0  0  0  0  0
   24.5140  -64.8880   20.4990 O   0  0  0  0  0
   23.5730  -63.7430   17.1220 C   0  0  0  0  0
   24.9259  -63.6874   15.4377 H   0  0  0  0  0
   24.3927  -60.9904   16.3771 H   0  0  0  0  0
   23.5752  -62.5989   12.5885 H   0  0  0  0  0
   24.0657  -63.6411   13.9281 H   0  0  0  0  0
   23.3993  -60.3711   12.8723 H   0  0  0  0  0
   25.6342  -62.1268   18.0026 H   0  0  0  0  0
   27.1909  -63.5881   16.0070 H   0  0  0  0  0
   28.6032  -63.6882   17.9237 H   0  0  0  0  0
   29.1215  -61.8430   19.3850 H   0  0  0  0  0
   27.2930  -62.0998   19.2380 H   0  0  0  0  0
   28.9262  -59.9113   17.9888 H   0  0  0  0  0
   27.1683  -60.1581   17.8475 H   0  0  0  0  0
   27.8874  -59.7604   19.4273 H   0  0  0  0  0
   29.6329  -61.3043   16.5407 H   0  0  0  0  0
   29.7555  -63.1013   16.0009 H   0  0  0  0  0
   31.0677  -61.8058   18.3627 H   0  0  0  0  0
   31.1839  -63.5076   17.8515 H   0  0  0  0  0
   31.8513  -62.2200   16.8182 H   0  0  0  0  0
   27.0174  -60.5186   16.0217 H   0  0  0  0  0
   28.2635  -60.3406   12.8370 H   0  0  0  0  0
   26.4990  -60.4793   12.6412 H   0  0  0  0  0
   27.1735  -59.5267   13.9861 H   0  0  0  0  0
   26.0079  -64.0790   19.1050 H   0  0  0  0  0
   27.4314  -64.8970   17.5539 H   0  0  0  0  0
   24.2333  -65.7102   17.6060 H   0  0  0  0  0
   25.3947  -64.5648   20.2951 H   0  0  0  0  0
   22.8322  -64.2351   16.4918 H   0  0  0  0  0
   22.9858  -63.0172   17.6846 H   0  0  0  0  0
  1  2  1  0  0  0
  1  6  1  0  0  0
  1 23  1  0  0  0
  2  3  1  0  0  0
  3  4  1  0  0  0
  3  5  2  0  0  0
  6  7  1  0  0  0
  6 17  1  0  0  0
  7  8  1  0  0  0
  7 13  1  0  0  0
  8  9  1  0  0  0
  8 11  1  0  0  0
  9 10  1  0  0  0
 11 12  1  0  0  0
 13 14  1  0  0  0
 14 15  1  0  0  0
 14 16  2  0  0  0
 17 18  1  0  0  0
 17 19  1  0  0  0
 19 20  1  0  0  0
 19 23  1  0  0  0
 20 21  2  0  0  0
 20 22  1  0  0  0
  1 24  1  0  0  0
  2 25  1  0  0  0
  4 26  1  0  0  0
  4 27  1  0  0  0
  5 28  1  0  0  0
  6 29  1  0  0  0
  7 30  1  0  0  0
  8 31  1  0  0  0
  9 32  1  0  0  0
  9 33  1  0  0  0
 10 34  1  0  0  0
 10 35  1  0  0  0
 10 36  1  0  0  0
 11 37  1  0  0  0
 11 38  1  0  0  0
 12 39  1  0  0  0
 12 40  1  0  0  0
 12 41  1  0  0  0
 13 42  1  0  0  0
 15 43  1  0  0  0
 15 44  1  0  0  0
 15 45  1  0  0  0
 17 46  1  0  0  0
 18 47  1  0  0  0
 19 48  1  0  0  0
 22 49  1  0  0  0
 23 50  1  0  0  0
 23 51  1  0  0  0
M  END
$$$$
