2gnl_ligand
  -I-interpret- 

 44 46  0  0  0  0  0  0  0  0999 V2000
    9.2980   11.0130    4.6250 O   0  0  0  0  0
    8.8560    9.7810    4.0710 S   0  0  0  0  0
    8.6700    8.8850    5.1560 O   0  0  0  0  0
    9.9830    9.1810    3.1940 N   0  0  0  0  0
   10.1930    7.7290    3.0850 C   0  0  0  0  0
    9.3500    7.0290    2.0070 C   0  0  0  0  0
   11.6570    7.4590    2.7740 C   0  0  0  0  0
   12.4710    8.2510    3.6530 N   0  3  0  0  0
   13.1230    9.4270    3.1740 C   0  0  0  0  0
   12.0480   10.4680    3.3050 C   0  0  0  0  0
   10.8660   10.0680    2.4230 C   0  0  0  0  0
    7.4690    9.9020    3.1890 C   0  0  0  0  0
    6.1170   10.0560    3.6370 C   0  0  0  0  0
    5.6630   10.1850    4.9710 C   0  0  0  0  0
    6.5300   10.1860    6.1950 C   0  0  0  0  0
    5.0830   10.0830    2.6730 C   0  0  0  0  0
    5.3200    9.9630    1.3170 C   0  0  0  0  0
    6.6030    9.8330    0.8810 C   0  0  0  0  0
    7.6420    9.8070    1.7980 C   0  0  0  0  0
    3.7450   10.2140    3.0170 C   0  0  0  0  0
    3.3870   10.3120    4.2850 N   0  0  0  0  0
    4.3030   10.2990    5.2490 C   0  0  0  0  0
    9.8795    7.3201    4.0455 H   0  0  0  0  0
    9.6103    7.4294    1.0272 H   0  0  0  0  0
    9.5516    5.9580    2.0285 H   0  0  0  0  0
    8.2924    7.2049    2.2036 H   0  0  0  0  0
   11.8689    7.7220    1.7376 H   0  0  0  0  0
   11.8766    6.4014    2.9203 H   0  0  0  0  0
   13.2358    7.6291    3.9152 H   0  0  0  0  0
   11.8184    8.5951    4.3574 H   0  0  0  0  0
   13.4972    9.3241    2.1554 H   0  0  0  0  0
   14.0267    9.6726    3.7317 H   0  0  0  0  0
   12.4325   11.4381    2.9901 H   0  0  0  0  0
   11.7265   10.5386    4.3441 H   0  0  0  0  0
   10.3180   10.9574    2.1118 H   0  0  0  0  0
   11.2256    9.5510    1.5333 H   0  0  0  0  0
    7.0752    9.2440    6.2532 H   0  0  0  0  0
    7.2370   11.0135    6.1372 H   0  0  0  0  0
    5.9055   10.3012    7.0809 H   0  0  0  0  0
    4.4926    9.9723    0.6075 H   0  0  0  0  0
    6.8125    9.7497   -0.1854 H   0  0  0  0  0
    8.6578    9.7065    1.4157 H   0  0  0  0  0
    2.9847   10.2362    2.2363 H   0  0  0  0  0
    3.9801   10.3799    6.2869 H   0  0  0  0  0
  1  2  2  0  0  0
  2  3  2  0  0  0
  2  4  1  0  0  0
  2 12  1  0  0  0
  4  5  1  0  0  0
  4 11  1  0  0  0
  5  6  1  0  0  0
  5  7  1  0  0  0
  7  8  1  0  0  0
  8  9  1  0  0  0
  9 10  1  0  0  0
 10 11  1  0  0  0
 12 13  4  0  0  0
 12 19  4  0  0  0
 13 14  4  0  0  0
 13 16  4  0  0  0
 14 15  1  0  0  0
 14 22  4  0  0  0
 16 17  4  0  0  0
 16 20  4  0  0  0
 17 18  4  0  0  0
 18 19  4  0  0  0
 20 21  4  0  0  0
 21 22  4  0  0  0
  5 23  1  0  0  0
  6 24  1  0  0  0
  6 25  1  0  0  0
  6 26  1  0  0  0
  7 27  1  0  0  0
  7 28  1  0  0  0
  8 29  1  0  0  0
  8 30  1  0  0  0
  9 31  1  0  0  0
  9 32  1  0  0  0
 10 33  1  0  0  0
 10 34  1  0  0  0
 11 35  1  0  0  0
 11 36  1  0  0  0
 15 37  1  0  0  0
 15 38  1  0  0  0
 15 39  1  0  0  0
 17 40  1  0  0  0
 18 41  1  0  0  0
 19 42  1  0  0  0
 20 43  1  0  0  0
 22 44  1  0  0  0
M  END
$$$$
