4wki_ligand
  -I-interpret- 

 41 44  0  0  0  0  0  0  0  0999 V2000
  -12.3310    4.7470   26.6310 C   0  0  0  0  0
  -11.7400    5.8310   27.2360 C   0  0  0  0  0
   -2.9740    0.8700   21.2020 C   0  0  0  0  0
   -4.8790    1.0570   23.0010 C   0  0  0  0  0
   -9.1960    3.2560   24.2280 C   0  0  0  0  0
   -4.9200    2.2520   21.1350 C   0  0  0  0  0
  -10.3080    4.7910   25.8910 C   0  0  0  0  0
   -6.8740    5.1760   25.5930 C   0  0  0  0  0
   -9.0610    4.4610   25.1470 C   0  0  0  0  0
   -9.5050    6.8620   27.1550 C   0  0  0  0  0
   -3.4740    2.3590   19.3590 C   0  0  0  0  0
   -4.6390    2.8120   19.9190 C   0  0  0  0  0
   -2.6690    1.4280   19.9710 C   0  0  0  0  0
   -4.1550    1.3110   21.7990 C   0  0  0  0  0
   -6.0110    1.8460   22.9760 C   0  0  0  0  0
   -8.6700    5.6150   24.2750 C   0  0  0  0  0
   -7.1010    2.0400   23.8830 C   0  0  0  0  0
  -11.4380    4.1160   25.8010 N   0  0  0  0  0
   -7.3670    5.9140   24.5630 N   0  0  0  0  0
   -7.9000    4.3720   26.0150 N   0  0  0  0  0
   -7.9930    3.0100   23.4640 N   0  0  0  0  0
  -10.4630    5.8440   26.7560 N   0  0  0  0  0
   -9.3980    6.1500   23.4550 O   0  0  0  0  0
   -5.7330    5.2490   26.0300 O   0  0  0  0  0
   -7.2030    1.4230   24.9350 O   0  0  0  0  0
   -6.0310    2.5770   21.8330 O   0  0  0  0  0
   -1.2520    1.0100   19.0770 Cl  0  0  0  0  0
  -13.3629    4.4330   26.7882 H   0  0  0  0  0
  -12.1920    6.5265   27.9431 H   0  0  0  0  0
   -2.3291    0.1300   21.6760 H   0  0  0  0  0
   -4.5912    0.3666   23.7938 H   0  0  0  0  0
  -10.0067    3.4548   23.5270 H   0  0  0  0  0
   -9.3887    2.3793   24.8464 H   0  0  0  0  0
   -9.8834    7.8450   26.8746 H   0  0  0  0  0
   -9.3617    6.8209   28.2348 H   0  0  0  0  0
   -8.5542    6.6807   26.6538 H   0  0  0  0  0
   -3.1729    2.7529   18.3883 H   0  0  0  0  0
   -5.2824    3.5501   19.4402 H   0  0  0  0  0
   -6.8236    6.6151   24.0594 H   0  0  0  0  0
   -7.8537    3.7790   26.8436 H   0  0  0  0  0
   -7.8033    3.5498   22.6196 H   0  0  0  0  0
  2  1  4  0  0  0
 18  1  4  0  0  0
 22  2  4  0  0  0
  3 13  4  0  0  0
 14  3  4  0  0  0
  4 14  4  0  0  0
 15  4  4  0  0  0
  5  9  1  0  0  0
 21  5  1  0  0  0
  6 12  4  0  0  0
  6 14  4  0  0  0
 26  6  4  0  0  0
  9  7  1  0  0  0
  7 18  4  0  0  0
  7 22  4  0  0  0
  8 19  1  0  0  0
 20  8  1  0  0  0
  8 24  2  0  0  0
  9 16  1  0  0  0
  9 20  1  0  0  0
 22 10  1  0  0  0
 12 11  4  0  0  0
 11 13  4  0  0  0
 13 27  1  0  0  0
 17 15  1  0  0  0
 15 26  4  0  0  0
 16 19  1  0  0  0
 16 23  2  0  0  0
 17 21  1  0  0  0
 17 25  2  0  0  0
  1 28  1  0  0  0
  2 29  1  0  0  0
  3 30  1  0  0  0
  4 31  1  0  0  0
  5 32  1  0  0  0
  5 33  1  0  0  0
 10 34  1  0  0  0
 10 35  1  0  0  0
 10 36  1  0  0  0
 11 37  1  0  0  0
 12 38  1  0  0  0
 19 39  1  0  0  0
 20 40  1  0  0  0
 21 41  1  0  0  0
M  END
$$$$
