### 
### Created by X-TOOL on Mon Sep 10 21:13:23 2018
### 

@<TRIPOS>MOLECULE
4xub_ligand
   47    50     1     0     0
SMALL
GAST_HUCK


@<TRIPOS>ATOM
      1 CAA        72.0600   37.2560    4.3280 C.3       1 43D        -0.0305
      2 CAS        71.9590   38.5440    3.5010 C.2       1 43D         0.0339
      3 CAK        72.7200   38.8960    2.4680 C.2       1 43D         0.0692
      4 NAQ        71.0480   39.5000    3.7110 N.2       1 43D        -0.2268
      5 NAR        71.2500   40.4430    2.8300 N.2       1 43D        -0.1019
      6 NAZ        72.2440   40.0940    2.0640 N.pl3     1 43D        -0.1785
      7 CAM        72.6390   41.0320    0.9740 C.3       1 43D         0.1030
      8 CAN        72.3350   40.4860   -0.4560 C.3       1 43D         0.0878
      9 NBA        70.8230   40.5360   -0.6650 N.pl3     1 43D        -0.2405
     10 CAJ        70.2100   41.6420   -1.0870 C.2       1 43D         0.1023
     11 NAO        68.8790   41.4320   -1.1510 N.2       1 43D        -0.3129
     12 CAW        68.6600   40.1800   -0.6920 C.2       1 43D         0.0256
     13 CAV        67.3910   39.6480   -0.6970 C.2       1 43D        -0.0007
     14 CAL        67.1060   38.3500   -0.8210 C.2       1 43D         0.0590
     15 CAI        66.2440   40.3250   -0.7250 C.2       1 43D         0.0039
     16 NAP        65.2210   39.4470   -0.8120 N.2       1 43D        -0.2150
     17 NAY        65.7960   38.2210   -0.8740 N.pl3     1 43D        -0.2086
     18 CAB        65.0560   36.9700   -0.9860 C.3       1 43D         0.0605
     19 CAX        69.8610   39.6170   -0.4000 C.2       1 43D         0.0887
     20 CAU        70.1050   38.3540    0.0900 C.ar      1 43D         0.0035
     21 CAG        69.4470   37.9430    1.2470 C.ar      1 43D        -0.0504
     22 CAE        69.6110   36.6930    1.8220 C.ar      1 43D        -0.0475
     23 CAT        70.4700   35.7980    1.2380 C.ar      1 43D         0.0060
     24 CAD        70.6850   34.5310    1.7560 C.2       1 43D         0.0093
     25 NAC        70.8520   33.4060    2.2390 N.2       1 43D        -0.3561
     26 CAF        71.1920   36.1800    0.0740 C.ar      1 43D        -0.0475
     27 CAH        71.0110   37.4620   -0.4790 C.ar      1 43D        -0.0504
     28 H1         72.8911   36.6422    3.9506 H         1 43D         0.0345
     29 H2         71.1197   36.6915    4.2439 H         1 43D         0.0345
     30 H3         72.2417   37.5106    5.3826 H         1 43D         0.0345
     31 H4         73.5504   38.3370    2.0391 H         1 43D         0.0898
     32 H5         73.7197   41.2215    1.0520 H         1 43D         0.0676
     33 H6         72.0904   41.9756    1.1105 H         1 43D         0.0676
     34 H7         72.6904   39.4487   -0.5435 H         1 43D         0.0648
     35 H8         72.8374   41.1106   -1.2093 H         1 43D         0.0648
     36 H9         70.7092   42.5757   -1.3420 H         1 43D         0.1280
     37 H10        67.8305   37.5385   -0.8699 H         1 43D         0.0996
     38 H11        66.1469   41.4089   -0.6844 H         1 43D         0.0664
     39 H12        63.9770   37.1829   -1.0074 H         1 43D         0.0606
     40 H13        65.2862   36.3292   -0.1221 H         1 43D         0.0606
     41 H14        65.3463   36.4539   -1.9130 H         1 43D         0.0606
     42 H15        68.7683   38.6405    1.7245 H         1 43D         0.0601
     43 H16        69.0676   36.4263    2.7213 H         1 43D         0.0674
     44 H17        71.5050   34.3689    1.0579 H         1 43D         0.1075
     45 H18        71.5790   32.8066    1.8809 H         1 43D         0.1184
     46 H19        71.8823   35.4835   -0.3879 H         1 43D         0.0674
     47 H20        71.5803   37.7568   -1.3531 H         1 43D         0.0601
@<TRIPOS>BOND
     1    1    2 1  
     2    2    3 2  
     3    2    4 1  
     4    3    6 1  
     5    4    5 2  
     6    5    6 1  
     7    6    7 1  
     8    7    8 1  
     9    8    9 1  
    10    9   10 1  
    11    9   19 1  
    12   10   11 2  
    13   11   12 1  
    14   12   13 1  
    15   12   19 2  
    16   13   14 2  
    17   13   15 1  
    18   14   17 1  
    19   15   16 2  
    20   16   17 1  
    21   17   18 1  
    22   19   20 1  
    23   20   21 ar 
    24   20   27 ar 
    25   21   22 ar 
    26   22   23 ar 
    27   23   24 1  
    28   23   26 ar 
    29   24   25 2  
    30   26   27 ar 
    31    1   28 1  
    32    1   29 1  
    33    1   30 1  
    34    3   31 1  
    35    7   32 1  
    36    7   33 1  
    37    8   34 1  
    38    8   35 1  
    39   10   36 1  
    40   14   37 1  
    41   15   38 1  
    42   18   39 1  
    43   18   40 1  
    44   18   41 1  
    45   21   42 1  
    46   22   43 1  
    47   24   44 1  
    48   25   45 1  
    49   26   46 1  
    50   27   47 1  
@<TRIPOS>SUBSTRUCTURE
     1 43D         1

