4l7g_ligand
  -I-interpret- 

 38 41  0  0  0  0  0  0  0  0999 V2000
   11.9300   -5.2610   15.9790 C   0  0  0  0  0
   12.5780   -6.3590   16.5120 C   0  0  0  0  0
   11.8280   -7.4350   16.9700 C   0  0  0  0  0
   14.0980   -6.3620   16.5990 C   0  0  0  0  0
   14.6210   -7.7070   17.0760 C   0  0  0  0  0
    9.8860   -3.9890   15.3730 C   0  0  0  0  0
    8.7170   -1.7270   14.5070 C   0  0  0  0  0
    8.7650   -3.4520   16.0200 C   0  0  0  0  0
   10.4410   -7.3980   16.8970 C   0  0  0  0  0
    9.7920   -6.2940   16.3740 C   0  0  0  0  0
   10.5350   -5.2170   15.9000 C   0  0  0  0  0
   16.1640   -7.5820   17.1370 C   0  0  0  0  0
   16.5420   -6.5190   18.0010 O   0  0  0  0  0
   15.4400   -5.9250   18.7190 C   0  0  0  0  0
   14.5450   -5.2960   17.6750 C   0  0  0  0  0
   15.1880   -4.2860   16.9140 O   0  0  0  0  0
   15.3550   -4.7470   15.6530 C   0  0  0  0  0
   14.7460   -5.8750   15.3990 N   0  0  0  0  0
   16.0960   -4.0740   14.7380 N   0  0  0  0  0
   10.3820   -3.3030   14.2630 C   0  0  0  0  0
    9.7820   -2.1880   13.8740 N   0  0  0  0  0
    8.2160   -2.3360   15.5650 N   0  0  0  0  0
   12.5153   -4.4167   15.6148 H   0  0  0  0  0
   12.3282   -8.3091   17.3870 H   0  0  0  0  0
   14.3205   -8.5056   16.3977 H   0  0  0  0  0
   14.2109   -7.9610   18.0535 H   0  0  0  0  0
    8.2387   -0.8172   14.1444 H   0  0  0  0  0
    8.3466   -3.9508   16.8942 H   0  0  0  0  0
    9.8587   -8.2470   17.2552 H   0  0  0  0  0
    8.7031   -6.2678   16.3333 H   0  0  0  0  0
   16.5431   -7.3772   16.1358 H   0  0  0  0  0
   16.5806   -8.5143   17.5184 H   0  0  0  0  0
   15.7924   -5.1812   19.4336 H   0  0  0  0  0
   14.9004   -6.6735   19.2992 H   0  0  0  0  0
   13.7154   -4.8834   18.2491 H   0  0  0  0  0
   14.7296   -6.3420   14.4923 H   0  0  0  0  0
   16.5458   -3.1948   14.9930 H   0  0  0  0  0
   11.2511   -3.6797   13.7238 H   0  0  0  0  0
  1  2  4  0  0  0
 11  1  4  0  0  0
  2  3  4  0  0  0
  2  4  1  0  0  0
  3  9  4  0  0  0
  4  5  1  0  0  0
  4 15  1  0  0  0
  4 18  1  0  0  0
  5 12  1  0  0  0
  8  6  4  0  0  0
  6 11  1  0  0  0
  6 20  4  0  0  0
  7 21  4  0  0  0
 22  7  4  0  0  0
  8 22  4  0  0  0
  9 10  4  0  0  0
 10 11  4  0  0  0
 12 13  1  0  0  0
 13 14  1  0  0  0
 14 15  1  0  0  0
 15 16  1  0  0  0
 16 17  1  0  0  0
 17 18  1  0  0  0
 17 19  2  0  0  0
 20 21  4  0  0  0
  1 23  1  0  0  0
  3 24  1  0  0  0
  5 25  1  0  0  0
  5 26  1  0  0  0
  7 27  1  0  0  0
  8 28  1  0  0  0
  9 29  1  0  0  0
 10 30  1  0  0  0
 12 31  1  0  0  0
 12 32  1  0  0  0
 14 33  1  0  0  0
 14 34  1  0  0  0
 15 35  1  0  0  0
 18 36  1  0  0  0
 19 37  1  0  0  0
 20 38  1  0  0  0
M  END
$$$$
