5oku_ligand
  -I-interpret- 

 20 19  0  0  0  0  0  0  0  0999 V2000
   54.2870  355.6900   84.3180 O   0  0  0  0  0
   53.9170  356.8620   83.9830 C   0  0  0  0  0
   52.8960  357.0990   83.2930 O   0  0  0  0  0
   54.6620  358.0980   84.4690 C   0  0  0  0  0
   56.0490  357.7860   85.0660 C   0  0  0  0  0
   56.8890  359.0550   85.3100 C   0  0  0  0  0
   58.3140  358.6990   85.8780 C   0  0  0  0  0
   59.2660  359.9210   85.9540 C   0  0  0  0  0
   60.0300  360.2090   84.9710 O   0  0  0  0  0
   59.2570  360.6310   87.0070 O   0  0  0  0  0
   55.0897  355.7465   84.8415 H   0  0  0  0  0
   54.0616  358.5535   85.2565 H   0  0  0  0  0
   54.8152  358.7478   83.6073 H   0  0  0  0  0
   56.5870  357.1596   84.3545 H   0  0  0  0  0
   55.8974  357.2944   86.0270 H   0  0  0  0  0
   56.3712  359.6785   86.0389 H   0  0  0  0  0
   57.0145  359.5754   84.3605 H   0  0  0  0  0
   58.7652  357.9709   85.2039 H   0  0  0  0  0
   58.1800  358.3218   86.8919 H   0  0  0  0  0
   59.9020  359.5669   84.2689 H   0  0  0  0  0
  1  2  1  0  0  0
  2  3  2  0  0  0
  2  4  1  0  0  0
  4  5  1  0  0  0
  5  6  1  0  0  0
  6  7  1  0  0  0
  7  8  1  0  0  0
  8  9  1  0  0  0
  8 10  2  0  0  0
  1 11  1  0  0  0
  4 12  1  0  0  0
  4 13  1  0  0  0
  5 14  1  0  0  0
  5 15  1  0  0  0
  6 16  1  0  0  0
  6 17  1  0  0  0
  7 18  1  0  0  0
  7 19  1  0  0  0
  9 20  1  0  0  0
M  END
$$$$
