### 
### Created by X-TOOL on Mon Sep 10 21:12:55 2018
### 

@<TRIPOS>MOLECULE
2rcx_ligand
   39    40     1     0     0
SMALL
GAST_HUCK


@<TRIPOS>ATOM
      1 O24        19.9790    8.9750   17.9530 O.co2     1 SM4        -0.5633
      2 C22        20.5380    7.8840   18.1810 C.2       1 SM4         0.0525
      3 O23        20.0410    7.0750   18.9750 O.co2     1 SM4        -0.5633
      4 C21        21.8050    7.5480   17.5030 C.2       1 SM4        -0.0277
      5 CAU        22.5300    8.5440   16.9920 C.2       1 SM4        -0.0470
      6 CAR        23.7790    8.3660   16.2240 C.ar      1 SM4        -0.0258
      7 CAQ        24.3560    7.1200   15.9620 C.ar      1 SM4        -0.0501
      8 CAS        24.3870    9.5180   15.7540 C.ar      1 SM4        -0.0587
      9 CAN        25.5650    9.4440   15.0320 C.ar      1 SM4        -0.0658
     10 CAM        26.1550    8.2240   14.7600 C.ar      1 SM4        -0.0576
     11 CAL        25.5410    7.0760   15.2190 C.ar      1 SM4        -0.0266
     12 CAK        26.1950    5.8050   14.9360 C.3       1 SM4         0.0852
     13 B          26.5010    5.2470   16.4040 B         1 SM4         0.7343
     14 OAT        27.1180    6.1910   17.4580 O.3       1 SM4        -0.4949
     15 OAO        25.7120    4.0390   16.8950 O.3       1 SM4        -0.4949
     16 N          25.2830    4.9740   14.1740 N.am      1 SM4        -0.2815
     17 CAH        24.9020    5.3260   12.9530 C.2       1 SM4         0.1904
     18 OAI        25.2850    6.3350   12.3570 O.2       1 SM4        -0.3936
     19 CAG        23.9420    4.3650   12.3230 C.3       1 SM4         0.0818
     20 CAE        22.5870    4.9740   12.1220 C.2       1 SM4         0.0307
     21 CAF        21.7300    5.0040   11.0350 C.2       1 SM4        -0.0791
     22 CAC        20.5400    5.6740   11.3230 C.2       1 SM4        -0.0924
     23 CAB        20.3960    6.1860   12.6050 C.2       1 SM4        -0.0189
     24 SAD        21.8420    5.7830   13.4560 S.3       1 SM4        -0.0419
     25 H1         22.1390    6.5146   17.4221 H         1 SM4         0.0638
     26 H2         22.1758    9.5612   17.1525 H         1 SM4         0.0696
     27 H3         23.8959    6.2085   16.3261 H         1 SM4         0.0574
     28 H4         23.9371   10.4840   15.9530 H         1 SM4         0.0583
     29 H5         26.0314   10.3550   14.6749 H         1 SM4         0.0605
     30 H6         27.0804    8.1698   14.1981 H         1 SM4         0.0574
     31 H7         27.1276    5.9423   14.3691 H         1 SM4         0.0582
     32 H8         27.7266    5.7034   18.0006 H         1 SM4         0.1668
     33 H9         26.2773    3.4853   17.4206 H         1 SM4         0.1668
     34 H10        24.9371    4.1252   14.5738 H         1 SM4         0.1866
     35 H11        23.8422    3.4844   12.9746 H         1 SM4         0.0685
     36 H12        24.3402    4.0548   11.3457 H         1 SM4         0.0685
     37 H13        21.9578    4.5571   10.0684 H         1 SM4         0.0284
     38 H14        19.7580    5.7901   10.5740 H         1 SM4         0.0373
     39 H15        19.5399    6.7336   12.9963 H         1 SM4         0.0603
@<TRIPOS>BOND
     1    1    2 ar 
     2    2    3 ar 
     3    2    4 1  
     4    4    5 2  
     5    5    6 1  
     6    6    7 ar 
     7    6    8 ar 
     8    7   11 ar 
     9    8    9 ar 
    10    9   10 ar 
    11   10   11 ar 
    12   11   12 1  
    13   12   13 1  
    14   12   16 1  
    15   13   14 1  
    16   13   15 1  
    17   16   17 am 
    18   17   18 2  
    19   17   19 1  
    20   19   20 1  
    21   20   21 2  
    22   20   24 1  
    23   21   22 1  
    24   22   23 2  
    25   23   24 1  
    26    4   25 1  
    27    5   26 1  
    28    7   27 1  
    29    8   28 1  
    30    9   29 1  
    31   10   30 1  
    32   12   31 1  
    33   14   32 1  
    34   15   33 1  
    35   16   34 1  
    36   19   35 1  
    37   19   36 1  
    38   21   37 1  
    39   22   38 1  
    40   23   39 1  
@<TRIPOS>SUBSTRUCTURE
     1 SM4         1

