2rcx_ligand
  -I-interpret- 

 40 41  0  0  0  0  0  0  0  0999 V2000
   19.9790    8.9750   17.9530 O   0  0  0  0  0
   20.5380    7.8840   18.1810 C   0  0  0  0  0
   20.0410    7.0750   18.9750 O   0  0  0  0  0
   21.8050    7.5480   17.5030 C   0  0  0  0  0
   22.5300    8.5440   16.9920 C   0  0  0  0  0
   23.7790    8.3660   16.2240 C   0  0  0  0  0
   24.3560    7.1200   15.9620 C   0  0  0  0  0
   24.3870    9.5180   15.7540 C   0  0  0  0  0
   25.5650    9.4440   15.0320 C   0  0  0  0  0
   26.1550    8.2240   14.7600 C   0  0  0  0  0
   25.5410    7.0760   15.2190 C   0  0  0  0  0
   26.1950    5.8050   14.9360 C   0  0  0  0  0
   26.5010    5.2470   16.4040 B   0  0  0  0  0
   27.1180    6.1910   17.4580 O   0  0  0  0  0
   25.7120    4.0390   16.8950 O   0  0  0  0  0
   25.2830    4.9740   14.1740 N   0  0  0  0  0
   24.9020    5.3260   12.9530 C   0  0  0  0  0
   25.2850    6.3350   12.3570 O   0  0  0  0  0
   23.9420    4.3650   12.3230 C   0  0  0  0  0
   22.5870    4.9740   12.1220 C   0  0  0  0  0
   21.7300    5.0040   11.0350 C   0  0  0  0  0
   20.5400    5.6740   11.3230 C   0  0  0  0  0
   20.3960    6.1860   12.6050 C   0  0  0  0  0
   21.8420    5.7830   13.4560 S   0  0  0  0  0
   20.4987    9.4729   17.3177 H   0  0  0  0  0
   22.1393    6.5137   17.4220 H   0  0  0  0  0
   22.1754    9.5621   17.1526 H   0  0  0  0  0
   23.8934    6.2035   16.3281 H   0  0  0  0  0
   23.9347   10.4893   15.9541 H   0  0  0  0  0
   26.0340   10.3601   14.6729 H   0  0  0  0  0
   27.0855    8.1695   14.1950 H   0  0  0  0  0
   27.1032    5.8557   14.3354 H   0  0  0  0  0
   27.2408    5.7129   18.2813 H   0  0  0  0  0
   25.9951    3.8131   17.7841 H   0  0  0  0  0
   24.9301    4.1082   14.5818 H   0  0  0  0  0
   23.8346    3.5068   12.9864 H   0  0  0  0  0
   24.3358    4.0808   11.3471 H   0  0  0  0  0
   21.9580    4.5567   10.0675 H   0  0  0  0  0
   19.7573    5.7902   10.5733 H   0  0  0  0  0
   19.5391    6.7341   12.9967 H   0  0  0  0  0
  1  2  1  0  0  0
  2  3  2  0  0  0
  2  4  1  0  0  0
  4  5  2  0  0  0
  5  6  1  0  0  0
  6  7  4  0  0  0
  6  8  4  0  0  0
  7 11  4  0  0  0
  8  9  4  0  0  0
  9 10  4  0  0  0
 10 11  4  0  0  0
 11 12  1  0  0  0
 12 13  1  0  0  0
 12 16  1  0  0  0
 13 14  1  0  0  0
 13 15  1  0  0  0
 16 17  1  0  0  0
 17 18  2  0  0  0
 17 19  1  0  0  0
 19 20  1  0  0  0
 20 21  4  0  0  0
 20 24  4  0  0  0
 21 22  4  0  0  0
 22 23  4  0  0  0
 23 24  4  0  0  0
  1 25  1  0  0  0
  4 26  1  0  0  0
  5 27  1  0  0  0
  7 28  1  0  0  0
  8 29  1  0  0  0
  9 30  1  0  0  0
 10 31  1  0  0  0
 12 32  1  0  0  0
 14 33  1  0  0  0
 15 34  1  0  0  0
 16 35  1  0  0  0
 19 36  1  0  0  0
 19 37  1  0  0  0
 21 38  1  0  0  0
 22 39  1  0  0  0
 23 40  1  0  0  0
M  END
$$$$
