1s4d_ligand
  -I-interpret- 

 47 49  0  0  0  0  0  0  0  0999 V2000
   81.6350   90.0850    9.8730 N   0  3  0  0  0
   82.2770   91.3110    9.4220 C   0  0  0  0  0
   83.7900   91.2960    9.6630 C   0  0  0  0  0
   84.2470   91.4610   11.1180 C   0  0  0  0  0
   86.0440   91.5690   11.3810 S   0  0  0  0  0
   81.9460   91.5410    7.9550 C   0  0  0  0  0
   81.4580   90.6390    7.2710 O   0  0  0  0  0
   82.1400   92.6350    7.4300 O   0  0  0  0  0
   86.0730   93.3900   11.3730 C   0  0  0  0  0
   86.8000   93.9460   10.1500 C   0  0  0  0  0
   85.8770   94.0850    9.0920 O   0  0  0  0  0
   87.4220   95.3240   10.2980 C   0  0  0  0  0
   88.7430   95.3200   10.7710 O   0  0  0  0  0
   87.3690   95.8810    8.8950 C   0  0  0  0  0
   88.4520   95.4500    8.1080 O   0  0  0  0  0
   86.1270   95.2390    8.3310 C   0  0  0  0  0
   84.9670   96.1560    8.3730 N   0  0  0  0  0
   83.8230   96.0020    9.0910 C   0  0  0  0  0
   83.0230   97.0430    8.8460 N   0  0  0  0  0
   83.6210   97.8630    7.9700 C   0  0  0  0  0
   83.2430   99.0680    7.3770 C   0  0  0  0  0
   82.0750   99.6380    7.6210 N   0  0  0  0  0
   84.1190   99.6820    6.5170 N   0  0  0  0  0
   85.3390   99.1140    6.2230 C   0  0  0  0  0
   85.7140   97.9320    6.8070 N   0  0  0  0  0
   84.8610   97.3190    7.6680 C   0  0  0  0  0
   81.8557   89.9290   10.8565 H   0  0  0  0  0
   80.6249   90.1699    9.7593 H   0  0  0  0  0
   81.9760   89.3000    9.3181 H   0  0  0  0  0
   81.8874   92.1413   10.0109 H   0  0  0  0  0
   84.1929   92.1504    9.1191 H   0  0  0  0  0
   84.1388   90.3137    9.3444 H   0  0  0  0  0
   83.9130   90.5685   11.6472 H   0  0  0  0  0
   83.8292   92.4060   11.4651 H   0  0  0  0  0
   81.3636   89.8480    7.8067 H   0  0  0  0  0
   86.6012   93.7262   12.2652 H   0  0  0  0  0
   85.0434   93.7469   11.3487 H   0  0  0  0  0
   87.6047   93.2296    9.9846 H   0  0  0  0  0
   86.8843   95.9096   11.0437 H   0  0  0  0  0
   89.0612   96.2234   10.8360 H   0  0  0  0  0
   87.3875   96.9708    8.8998 H   0  0  0  0  0
   88.3770   95.8271    7.2284 H   0  0  0  0  0
   86.2808   94.9897    7.2811 H   0  0  0  0  0
   83.5965   95.1683    9.7556 H   0  0  0  0  0
   81.4157   99.1960    8.2616 H   0  0  0  0  0
   81.8334  100.5197    7.1686 H   0  0  0  0  0
   86.0109   99.6079    5.5211 H   0  0  0  0  0
  1  2  1  0  0  0
  2  3  1  0  0  0
  2  6  1  0  0  0
  3  4  1  0  0  0
  4  5  1  0  0  0
  5  9  1  0  0  0
  6  7  1  0  0  0
  6  8  2  0  0  0
  9 10  1  0  0  0
 10 11  1  0  0  0
 10 12  1  0  0  0
 11 16  1  0  0  0
 12 13  1  0  0  0
 12 14  1  0  0  0
 14 15  1  0  0  0
 14 16  1  0  0  0
 16 17  1  0  0  0
 17 18  4  0  0  0
 17 26  4  0  0  0
 18 19  4  0  0  0
 19 20  4  0  0  0
 20 21  4  0  0  0
 20 26  4  0  0  0
 21 22  1  0  0  0
 21 23  4  0  0  0
 23 24  4  0  0  0
 24 25  4  0  0  0
 25 26  4  0  0  0
  1 27  1  0  0  0
  1 28  1  0  0  0
  1 29  1  0  0  0
  2 30  1  0  0  0
  3 31  1  0  0  0
  3 32  1  0  0  0
  4 33  1  0  0  0
  4 34  1  0  0  0
  7 35  1  0  0  0
  9 36  1  0  0  0
  9 37  1  0  0  0
 10 38  1  0  0  0
 12 39  1  0  0  0
 13 40  1  0  0  0
 14 41  1  0  0  0
 15 42  1  0  0  0
 16 43  1  0  0  0
 18 44  1  0  0  0
 22 45  1  0  0  0
 22 46  1  0  0  0
 24 47  1  0  0  0
M  END
$$$$
