4qkd_ligand
  -I-interpret- 

 16 15  0  0  0  0  0  0  0  0999 V2000
    0.6150    0.1650    7.3680 C   0  0  0  0  0
    1.1910    1.2740    7.3030 O   0  0  0  0  0
    1.1360   -0.9060    6.8900 O   0  0  0  0  0
   -0.6650    0.0380    8.1030 C   0  0  0  0  0
   -1.3230   -1.0250    8.0050 O   0  0  0  0  0
   -1.1560    1.1450    9.0070 C   0  0  0  0  0
   -1.9890    0.5520   10.1260 C   0  0  0  0  0
   -2.6370    1.5960   11.0150 C   0  0  0  0  0
   -2.8130    2.7550   10.5850 O   0  0  0  0  0
   -2.9910    1.2820   12.1720 O   0  0  0  0  0
    0.5409   -1.6443    7.0395 H   0  0  0  0  0
   -1.7651    1.8414    8.4306 H   0  0  0  0  0
   -0.3021    1.6735    9.4308 H   0  0  0  0  0
   -1.3229   -0.0430   10.7508 H   0  0  0  0  0
   -2.7884   -0.0297    9.6669 H   0  0  0  0  0
   -2.7799    0.3590   12.3306 H   0  0  0  0  0
  1  2  2  0  0  0
  1  3  1  0  0  0
  1  4  1  0  0  0
  4  5  2  0  0  0
  4  6  1  0  0  0
  6  7  1  0  0  0
  7  8  1  0  0  0
  8  9  2  0  0  0
  8 10  1  0  0  0
  3 11  1  0  0  0
  6 12  1  0  0  0
  6 13  1  0  0  0
  7 14  1  0  0  0
  7 15  1  0  0  0
 10 16  1  0  0  0
M  END
$$$$
