4hym_ligand
  -I-interpret- 

 49 53  0  0  0  0  0  0  0  0999 V2000
    4.0690   -2.5920  -10.9570 O   0  0  0  0  0
    4.7870   -1.8580  -11.6790 C   0  0  0  0  0
    4.3380   -1.5180  -12.9650 C   0  0  0  0  0
    5.9750   -1.4070  -11.2080 N   0  0  0  0  0
    6.7430   -0.6100  -11.9710 C   0  0  0  0  0
    6.2670   -0.2520  -13.3440 C   0  0  0  0  0
    5.0690   -0.7300  -13.7770 N   0  0  0  0  0
    7.0360    0.5470  -14.1270 N   0  0  0  0  0
    8.2140    1.0050  -13.6730 C   0  0  0  0  0
    8.7060    0.6970  -12.4000 C   0  0  0  0  0
    7.9660   -0.1190  -11.5350 C   0  0  0  0  0
   10.2150    1.3420  -11.9480 S   0  0  0  0  0
   10.2250    1.8400  -10.3400 C   0  0  0  0  0
    9.0580    1.9260   -9.6660 N   0  0  0  0  0
    9.0080    2.3900   -8.3960 C   0  0  0  0  0
    7.7510    2.3370   -7.7800 N   0  0  0  0  0
    6.5470    2.1090   -8.5690 C   0  0  0  0  0
    5.7370    1.2200   -7.6140 C   0  0  0  0  0
    6.4580    1.1530   -6.2620 C   0  0  0  0  0
    7.0300   -0.1890   -6.0450 N   0  3  0  0  0
    7.5660    2.2190   -6.3390 C   0  0  0  0  0
   10.3330    2.7680   -7.7950 C   0  0  0  0  0
   11.5740    2.6540   -8.5960 C   0  0  0  0  0
   11.4220    2.1620   -9.8270 N   0  0  0  0  0
   12.6830    3.0830   -7.9210 N   0  0  0  0  0
   12.3810    3.4890   -6.6620 C   0  0  0  0  0
   10.9300    3.2950   -6.5720 C   0  0  0  0  0
    9.9950    3.8340   -5.1370 Cl  0  0  0  0  0
   13.2730    3.9990   -5.5470 C   0  0  0  0  0
   14.2360    5.0160   -6.1370 C   0  0  0  0  0
    3.3783   -1.8994  -13.3136 H   0  0  0  0  0
    6.2867   -1.6725  -10.2738 H   0  0  0  0  0
    8.8118    1.6434  -14.3235 H   0  0  0  0  0
    8.3421   -0.3631  -10.5415 H   0  0  0  0  0
    6.7358    1.6549   -9.5418 H   0  0  0  0  0
    6.0326    3.0235   -8.8642 H   0  0  0  0  0
    5.6468    0.2176   -8.0325 H   0  0  0  0  0
    4.7399    1.6390   -7.4785 H   0  0  0  0  0
    5.7805    1.3377   -5.4283 H   0  0  0  0  0
    7.5043   -0.2132   -5.1423 H   0  0  0  0  0
    6.2817   -0.8821   -6.0559 H   0  0  0  0  0
    7.6982   -0.3966   -6.7872 H   0  0  0  0  0
    7.3038    3.1587   -5.8529 H   0  0  0  0  0
    8.4743    1.9458   -5.8020 H   0  0  0  0  0
   13.8270    3.1722   -5.1025 H   0  0  0  0  0
   12.6695    4.4630   -4.7668 H   0  0  0  0  0
   14.8378    4.5386   -6.9103 H   0  0  0  0  0
   13.6706    5.8402   -6.5719 H   0  0  0  0  0
   14.8879    5.3961   -5.3504 H   0  0  0  0  0
  1  2  2  0  0  0
  2  3  1  0  0  0
  2  4  1  0  0  0
  3  7  2  0  0  0
  4  5  1  0  0  0
  5  6  4  0  0  0
  5 11  4  0  0  0
  6  7  1  0  0  0
  6  8  4  0  0  0
  8  9  4  0  0  0
  9 10  4  0  0  0
 10 11  4  0  0  0
 10 12  1  0  0  0
 12 13  1  0  0  0
 13 14  4  0  0  0
 13 24  4  0  0  0
 14 15  4  0  0  0
 15 16  1  0  0  0
 15 22  4  0  0  0
 16 17  1  0  0  0
 16 21  1  0  0  0
 17 18  1  0  0  0
 18 19  1  0  0  0
 19 20  1  0  0  0
 19 21  1  0  0  0
 22 23  4  0  0  0
 22 27  4  0  0  0
 23 24  4  0  0  0
 23 25  4  0  0  0
 25 26  4  0  0  0
 26 27  4  0  0  0
 26 29  1  0  0  0
 27 28  1  0  0  0
 29 30  1  0  0  0
  3 31  1  0  0  0
  4 32  1  0  0  0
  9 33  1  0  0  0
 11 34  1  0  0  0
 17 35  1  0  0  0
 17 36  1  0  0  0
 18 37  1  0  0  0
 18 38  1  0  0  0
 19 39  1  0  0  0
 20 40  1  0  0  0
 20 41  1  0  0  0
 20 42  1  0  0  0
 21 43  1  0  0  0
 21 44  1  0  0  0
 29 45  1  0  0  0
 29 46  1  0  0  0
 30 47  1  0  0  0
 30 48  1  0  0  0
 30 49  1  0  0  0
M  END
$$$$
