5ezz_ligand
  -I-interpret- 

 48 51  0  0  0  0  0  0  0  0999 V2000
  -17.0600   38.0700   94.4120 C   0  0  0  0  0
  -18.8540   39.3070   93.2990 C   0  0  0  0  0
  -16.8830   40.5490   94.0970 C   0  0  0  0  0
  -16.5710   35.8730   96.0770 C   0  0  0  0  0
  -19.3990   40.0960   92.2880 C   0  0  0  0  0
  -20.7730   40.1960   92.1020 C   0  0  0  0  0
  -21.2810   41.0840   91.0250 C   0  0  0  0  0
  -17.0100   36.7850   93.8910 C   0  0  0  0  0
  -22.4720   41.7910   91.2170 C   0  0  0  0  0
  -22.2630   42.8000   89.1060 C   0  0  0  0  0
  -21.6460   39.5130   92.9390 C   0  0  0  0  0
  -14.1410   35.0120   97.1570 F   0  0  0  0  0
  -15.2330   34.2260   97.4190 C   0  0  0  0  0
  -15.1590   32.9590   96.9260 F   0  0  0  0  0
  -16.3920   34.7460   96.8240 O   0  0  0  0  0
  -16.6460   37.1470   96.6300 C   0  0  0  0  0
  -16.4530   37.3880   98.1100 C   0  0  0  0  0
  -16.8830   38.2400   95.7890 C   0  0  0  0  0
  -16.7690   35.6940   94.7110 C   0  0  0  0  0
  -17.3540   39.2320   93.4850 C   0  0  0  0  0
  -16.6410   39.1180   92.1980 N   0  0  0  0  0
  -15.8130   40.0620   92.0500 C   0  0  0  0  0
  -14.9650   40.1890   91.0190 N   0  0  0  0  0
  -15.8890   40.9920   93.1590 O   0  0  0  0  0
  -19.7390   38.6090   94.1320 C   0  0  0  0  0
  -21.1230   38.7050   93.9500 C   0  0  0  0  0
  -20.5640   41.2550   89.8290 C   0  0  0  0  0
  -22.9240   42.6150   90.2550 N   0  0  0  0  0
  -21.0720   42.1180   88.8660 C   0  0  0  0  0
  -20.2060   42.3750   87.3210 Cl  0  0  0  0  0
  -16.4934   40.4339   95.1085 H   0  0  0  0  0
  -17.6904   41.2683   94.2341 H   0  0  0  0  0
  -18.7315   40.6484   91.6267 H   0  0  0  0  0
  -17.1623   36.6315   92.8227 H   0  0  0  0  0
  -23.0329   41.6745   92.1443 H   0  0  0  0  0
  -22.6574   43.4859   88.3562 H   0  0  0  0  0
  -22.7241   39.6066   92.8083 H   0  0  0  0  0
  -15.2606   34.2109   98.5085 H   0  0  0  0  0
  -17.2072   36.8335   98.6685 H   0  0  0  0  0
  -15.4594   37.0507   98.4052 H   0  0  0  0  0
  -16.5538   38.4529   98.3196 H   0  0  0  0  0
  -16.9305   39.2423   96.2148 H   0  0  0  0  0
  -16.7344   34.6916   94.2844 H   0  0  0  0  0
  -16.7959   38.3748   91.5168 H   0  0  0  0  0
  -14.9570   39.4901   90.2761 H   0  0  0  0  0
  -19.3439   37.9831   94.9322 H   0  0  0  0  0
  -21.7958   38.1463   94.6006 H   0  0  0  0  0
  -19.6285   40.7216   89.6601 H   0  0  0  0  0
  8  1  4  0  0  0
  1 18  4  0  0  0
  1 20  1  0  0  0
  2  5  4  0  0  0
 20  2  1  0  0  0
  2 25  4  0  0  0
 20  3  1  0  0  0
  3 24  1  0  0  0
 15  4  1  0  0  0
  4 16  4  0  0  0
  4 19  4  0  0  0
  5  6  4  0  0  0
  6  7  1  0  0  0
  6 11  4  0  0  0
  7  9  4  0  0  0
  7 27  4  0  0  0
 19  8  4  0  0  0
  9 28  4  0  0  0
 28 10  4  0  0  0
 10 29  4  0  0  0
 11 26  4  0  0  0
 13 12  1  0  0  0
 13 14  1  0  0  0
 13 15  1  0  0  0
 16 17  1  0  0  0
 16 18  4  0  0  0
 20 21  1  0  0  0
 21 22  1  0  0  0
 22 23  2  0  0  0
 22 24  1  0  0  0
 25 26  4  0  0  0
 27 29  4  0  0  0
 29 30  1  0  0  0
  3 31  1  0  0  0
  3 32  1  0  0  0
  5 33  1  0  0  0
  8 34  1  0  0  0
  9 35  1  0  0  0
 10 36  1  0  0  0
 11 37  1  0  0  0
 13 38  1  0  0  0
 17 39  1  0  0  0
 17 40  1  0  0  0
 17 41  1  0  0  0
 18 42  1  0  0  0
 19 43  1  0  0  0
 21 44  1  0  0  0
 23 45  1  0  0  0
 25 46  1  0  0  0
 26 47  1  0  0  0
 27 48  1  0  0  0
M  END
$$$$
