5f5z_ligand
  -I-interpret- 

 72 75  0  0  0  0  0  0  0  0999 V2000
   63.6010   81.4140   81.5350 C   0  0  0  0  0
   61.8060   84.7230   81.8690 C   0  0  0  0  0
   61.5130   86.0650   83.9390 C   0  0  0  0  0
   63.9610   83.1880   83.1180 C   0  0  0  0  0
   62.9410   76.3490   77.2190 C   0  0  0  0  0
   59.7880   78.0080   76.3990 C   0  0  0  0  0
   57.0550   78.7830   73.5600 C   0  0  0  0  0
   63.3470   74.3040   75.7240 C   0  0  0  0  0
   63.7800   75.3260   76.7250 C   0  0  0  0  0
   65.0980   75.3000   77.2140 C   0  0  0  0  0
   65.5360   76.2090   78.0880 N   0  0  0  0  0
   64.7430   77.1790   78.5830 C   0  0  0  0  0
   65.2180   78.0590   79.5030 N   0  0  0  0  0
   64.6290   79.1260   80.1250 C   0  0  0  0  0
   63.3330   79.6160   79.8620 C   0  0  0  0  0
   62.8410   80.7430   80.5500 C   0  0  0  0  0
   63.0700   82.5270   82.1770 N   0  0  0  0  0
   62.2580   83.3600   81.3070 C   0  0  0  0  0
   62.0530   84.8270   83.3330 N   0  3  0  0  0
   63.4240   84.4780   83.7860 C   0  0  0  0  0
   64.9030   80.9190   81.7900 C   0  0  0  0  0
   65.4040   79.7890   81.1000 C   0  0  0  0  0
   63.4650   77.2210   78.1420 N   0  0  0  0  0
   61.6370   76.4560   76.8200 N   0  0  0  0  0
   60.7000   77.3690   77.2470 C   0  0  0  0  0
   58.8480   78.9190   76.8900 C   0  0  0  0  0
   57.9580   79.5630   76.1010 N   0  0  0  0  0
   58.1550   79.9340   74.4560 S   0  0  0  0  0
   57.6250   77.3440   73.7600 C   0  0  0  0  0
   55.6130   78.9310   74.1370 C   0  0  0  0  0
   57.1690   79.2860   72.0980 C   0  0  0  0  0
   59.6680   79.7790   74.0060 O   0  0  0  0  0
   57.5450   81.3780   74.2560 O   0  0  0  0  0
   58.8040   79.2030   78.2730 C   0  0  0  0  0
   59.6940   78.5600   79.1510 C   0  0  0  0  0
   60.6310   77.6560   78.6380 C   0  0  0  0  0
   60.7352   84.8275   81.6941 H   0  0  0  0  0
   62.3764   85.5058   81.3690 H   0  0  0  0  0
   61.4742   85.9508   85.0223 H   0  0  0  0  0
   62.1593   86.9048   83.6838 H   0  0  0  0  0
   60.5092   86.2478   83.5555 H   0  0  0  0  0
   64.8384   83.4871   82.5446 H   0  0  0  0  0
   64.1291   82.4763   83.9263 H   0  0  0  0  0
   59.8112   77.7903   75.3312 H   0  0  0  0  0
   62.5105   73.7336   76.1277 H   0  0  0  0  0
   63.0380   74.8043   74.8062 H   0  0  0  0  0
   64.1778   73.6314   75.5107 H   0  0  0  0  0
   65.7777   74.5197   76.8716 H   0  0  0  0  0
   66.1861   77.8950   79.7791 H   0  0  0  0  0
   62.7071   79.1191   79.1208 H   0  0  0  0  0
   61.8417   81.1094   80.3150 H   0  0  0  0  0
   62.8822   83.5859   80.4424 H   0  0  0  0  0
   61.3440   82.7958   81.1215 H   0  0  0  0  0
   61.4922   84.0670   83.7181 H   0  0  0  0  0
   64.0870   85.2987   83.5123 H   0  0  0  0  0
   63.3890   84.3091   84.8623 H   0  0  0  0  0
   65.5300   81.4164   82.5300 H   0  0  0  0  0
   66.4062   79.4247   81.3259 H   0  0  0  0  0
   61.3222   75.7797   76.1243 H   0  0  0  0  0
   57.0830   79.8542   76.5368 H   0  0  0  0  0
   58.6373   77.2965   73.3586 H   0  0  0  0  0
   57.6430   77.1063   74.8236 H   0  0  0  0  0
   56.9914   76.6277   73.2370 H   0  0  0  0  0
   55.6216   78.6886   75.1997 H   0  0  0  0  0
   55.2717   79.9571   73.9998 H   0  0  0  0  0
   54.9418   78.2504   73.6132 H   0  0  0  0  0
   56.8342   80.3219   72.0444 H   0  0  0  0  0
   58.2073   79.2211   71.7727 H   0  0  0  0  0
   56.5454   78.6674   71.4526 H   0  0  0  0  0
   58.0802   79.9205   78.6594 H   0  0  0  0  0
   59.6546   78.7636   80.2211 H   0  0  0  0  0
   61.3230   77.1611   79.3195 H   0  0  0  0  0
 16  1  4  0  0  0
  1 17  1  0  0  0
 21  1  4  0  0  0
 18  2  1  0  0  0
  2 19  1  0  0  0
 19  3  1  0  0  0
 17  4  1  0  0  0
  4 20  1  0  0  0
  5  9  4  0  0  0
  5 23  4  0  0  0
 24  5  1  0  0  0
  6 25  4  0  0  0
 26  6  4  0  0  0
 28  7  1  0  0  0
  7 29  1  0  0  0
  7 30  1  0  0  0
  7 31  1  0  0  0
  9  8  1  0  0  0
  9 10  4  0  0  0
 10 11  4  0  0  0
 12 11  4  0  0  0
 12 13  1  0  0  0
 23 12  4  0  0  0
 13 14  1  0  0  0
 14 15  4  0  0  0
 14 22  4  0  0  0
 15 16  4  0  0  0
 17 18  1  0  0  0
 20 19  1  0  0  0
 22 21  4  0  0  0
 25 24  1  0  0  0
 25 36  4  0  0  0
 27 26  1  0  0  0
 26 34  4  0  0  0
 27 28  1  0  0  0
 28 32  2  0  0  0
 28 33  2  0  0  0
 34 35  4  0  0  0
 35 36  4  0  0  0
  2 37  1  0  0  0
  2 38  1  0  0  0
  3 39  1  0  0  0
  3 40  1  0  0  0
  3 41  1  0  0  0
  4 42  1  0  0  0
  4 43  1  0  0  0
  6 44  1  0  0  0
  8 45  1  0  0  0
  8 46  1  0  0  0
  8 47  1  0  0  0
 10 48  1  0  0  0
 13 49  1  0  0  0
 15 50  1  0  0  0
 16 51  1  0  0  0
 18 52  1  0  0  0
 18 53  1  0  0  0
 19 54  1  0  0  0
 20 55  1  0  0  0
 20 56  1  0  0  0
 21 57  1  0  0  0
 22 58  1  0  0  0
 24 59  1  0  0  0
 27 60  1  0  0  0
 29 61  1  0  0  0
 29 62  1  0  0  0
 29 63  1  0  0  0
 30 64  1  0  0  0
 30 65  1  0  0  0
 30 66  1  0  0  0
 31 67  1  0  0  0
 31 68  1  0  0  0
 31 69  1  0  0  0
 34 70  1  0  0  0
 35 71  1  0  0  0
 36 72  1  0  0  0
M  END
$$$$
