5zh2_ligand
  -I-interpret- 

 41 43  0  0  0  0  0  0  0  0999 V2000
   18.6600   12.7830   31.4570 C   0  0  0  0  0
   17.4790   15.6320   27.5550 C   0  0  0  0  0
   16.4180   16.6310   27.2750 C   0  0  0  0  0
   15.8210   15.0950   25.4950 C   0  0  0  0  0
   13.5120   15.0090   24.8140 C   0  0  0  0  0
   21.5110   14.9710   30.1290 C   0  0  0  0  0
   20.6090   16.0020   29.6350 C   0  0  0  0  0
   17.1400   14.6460   25.3760 C   0  0  0  0  0
   15.4720   16.0710   26.4360 C   0  0  0  0  0
   14.1600   16.5100   26.5580 C   0  0  0  0  0
   19.4990   13.4880   30.4120 C   0  0  0  0  0
   13.1660   15.9670   25.7480 C   0  0  0  0  0
   18.5910   16.3370   28.3120 C   0  0  0  0  0
   14.8130   14.5810   24.6880 C   0  0  0  0  0
   20.7600   14.0370   31.0820 C   0  0  0  0  0
   18.7010   14.5850   29.8880 O   0  0  0  0  0
   19.5010   15.3040   28.9340 C   0  0  0  0  0
   18.0040   15.0820   26.3070 O   0  0  0  0  0
   17.4820   13.8070   24.5440 O   0  0  0  0  0
   11.8570   16.3800   25.8620 O   0  0  0  0  0
   15.1550   13.6640   23.7330 O   0  0  0  0  0
   19.2348   11.9649   31.8912 H   0  0  0  0  0
   18.3856   13.4910   32.2390 H   0  0  0  0  0
   17.7579   12.3873   30.9904 H   0  0  0  0  0
   17.0721   14.8095   28.1432 H   0  0  0  0  0
   16.8580   17.5057   26.7961 H   0  0  0  0  0
   15.9443   16.9315   28.2096 H   0  0  0  0  0
   12.7426   14.5864   24.1678 H   0  0  0  0  0
   22.3375   15.4409   30.6622 H   0  0  0  0  0
   21.8943   14.3943   29.2872 H   0  0  0  0  0
   21.1292   16.6799   28.9583 H   0  0  0  0  0
   20.2267   16.6081   30.4564 H   0  0  0  0  0
   13.9084   17.2796   27.2878 H   0  0  0  0  0
   19.7903   12.8107   29.6091 H   0  0  0  0  0
   18.1613   16.9638   29.0934 H   0  0  0  0  0
   19.1622   16.9615   27.6251 H   0  0  0  0  0
   20.4728   14.5962   31.9724 H   0  0  0  0  0
   21.4110   13.2040   31.3473 H   0  0  0  0  0
   19.9259   14.6312   28.1891 H   0  0  0  0  0
   11.7910   17.0438   26.5524 H   0  0  0  0  0
   14.3684   13.3955   23.2526 H   0  0  0  0  0
 11  1  1  0  0  0
  2  3  1  0  0  0
 13  2  1  0  0  0
  2 18  1  0  0  0
  3  9  1  0  0  0
  8  4  1  0  0  0
  9  4  4  0  0  0
  4 14  4  0  0  0
 12  5  4  0  0  0
 14  5  4  0  0  0
  7  6  1  0  0  0
  6 15  1  0  0  0
 17  7  1  0  0  0
 18  8  1  0  0  0
  8 19  2  0  0  0
  9 10  4  0  0  0
 10 12  4  0  0  0
 15 11  1  0  0  0
 11 16  1  0  0  0
 12 20  1  0  0  0
 13 17  1  0  0  0
 14 21  1  0  0  0
 16 17  1  0  0  0
  1 22  1  0  0  0
  1 23  1  0  0  0
  1 24  1  0  0  0
  2 25  1  0  0  0
  3 26  1  0  0  0
  3 27  1  0  0  0
  5 28  1  0  0  0
  6 29  1  0  0  0
  6 30  1  0  0  0
  7 31  1  0  0  0
  7 32  1  0  0  0
 10 33  1  0  0  0
 11 34  1  0  0  0
 13 35  1  0  0  0
 13 36  1  0  0  0
 15 37  1  0  0  0
 15 38  1  0  0  0
 17 39  1  0  0  0
 20 40  1  0  0  0
 21 41  1  0  0  0
M  END
$$$$
