3h8c_ligand
  -I-interpret- 

102105  0  0  0  0  0  0  0  0999 V2000
   -6.8200   -5.2030  -42.7250 C   0  0  0  0  0
   -5.8730   -4.3780  -42.4130 C   0  0  0  0  0
   -6.0600   -3.2540  -42.9040 O   0  0  0  0  0
   -6.2550   -9.4690  -44.0410 C   0  0  0  0  0
   -7.2440   -9.0830  -42.9070 C   0  0  0  0  0
   -7.4330   -7.6850  -42.4840 C   0  0  0  0  0
   -6.6130   -6.6070  -43.2030 C   0  0  0  0  0
   -5.6460   -6.9260  -44.3140 C   0  0  0  0  0
   -5.4770   -8.3340  -44.7220 C   0  0  0  0  0
   -5.8540  -13.8810  -45.1340 C   0  0  0  0  0
   -6.9210  -11.9730  -43.6600 C   0  0  0  0  0
   -6.0730  -10.8980  -44.4520 C   0  0  0  0  0
   -6.7950  -13.4100  -44.0110 C   0  0  0  0  0
   -5.1200  -11.3370  -45.5760 C   0  0  0  0  0
   -5.0350  -12.8210  -45.8930 C   0  0  0  0  0
   -4.7720   -4.5900  -41.6720 N   0  0  0  0  0
   -3.8570   -3.5700  -41.4430 C   0  0  0  0  0
   -4.1690   -2.4030  -40.6160 C   0  0  0  0  0
   -3.6230   -1.3240  -41.0930 O   0  0  0  0  0
   -2.5800   -3.6920  -42.1030 C   0  0  0  0  0
   -1.0260   -4.7910  -44.3320 C   0  0  0  0  0
   -4.9610   -2.3210  -39.4890 N   0  0  0  0  0
   -5.2340   -1.1550  -38.8140 C   0  0  0  0  0
   -6.3090   -0.1200  -39.3650 C   0  0  0  0  0
   -6.0220    0.6010  -40.8270 C   0  0  0  0  0
   -5.0170    1.8020  -40.8010 C   0  0  0  0  0
   -4.5760    2.5940  -41.9690 N   0  0  0  0  0
   -4.3340    2.1220  -43.3200 C   0  0  0  0  0
   -4.4790    0.8140  -43.7840 N   0  0  0  0  0
   -3.9130    2.9620  -44.3160 N   0  0  0  0  0
   -4.4740   -0.9070  -37.5770 C   0  0  0  0  0
   -5.2350   -0.4200  -36.5980 O   0  0  0  0  0
   -3.0830   -1.1880  -37.5980 N   0  0  0  0  0
   -2.4260   -0.8950  -36.3880 C   0  0  0  0  0
   -2.2420    0.6860  -36.5620 C   0  0  0  0  0
   -1.7790    1.1620  -37.6660 O   0  0  0  0  0
   -1.0710   -1.3830  -36.0940 C   0  0  0  0  0
   -0.2870   -0.8910  -35.0870 C   0  0  0  0  0
   -0.5750   -1.3680  -33.6760 C   0  0  0  0  0
    0.9170    0.1680  -35.2480 C   0  0  0  0  0
    0.2110   -0.8690  -32.5970 C   0  0  0  0  0
    1.6300    0.6110  -34.2220 C   0  0  0  0  0
    1.3270    0.1310  -32.8570 C   0  0  0  0  0
   -4.8840    3.5880  -35.4060 C   0  0  0  0  0
   -5.0600    3.8140  -33.8900 C   0  0  0  0  0
   -6.4160    3.8010  -33.2720 C   0  0  0  0  0
   -7.6240    3.5700  -34.1280 C   0  0  0  0  0
   -7.4580    3.3470  -35.6140 C   0  0  0  0  0
   -6.0930    3.3550  -36.2510 C   0  0  0  0  0
   -3.4910    3.6130  -36.0280 C   0  0  0  0  0
   -2.4940    2.9460  -35.4240 C   0  0  0  0  0
   -2.6290    1.5020  -35.3630 N   0  0  0  0  0
   -1.9600   -5.0840  -42.8930 S   0  0  0  0  0
   -7.2675   -4.7245  -43.5961 H   0  0  0  0  0
   -7.3208   -5.3545  -41.7688 H   0  0  0  0  0
   -7.8138   -9.8685  -42.4106 H   0  0  0  0  0
   -8.1311   -7.4258  -41.6880 H   0  0  0  0  0
   -5.0830   -6.1329  -44.8061 H   0  0  0  0  0
   -4.7825   -8.5743  -45.5270 H   0  0  0  0  0
   -5.7695  -14.9382  -45.3856 H   0  0  0  0  0
   -7.5938  -11.6606  -42.8613 H   0  0  0  0  0
   -7.3812  -14.1468  -43.4619 H   0  0  0  0  0
   -4.5253  -10.6084  -46.1270 H   0  0  0  0  0
   -4.3672  -13.1481  -46.6900 H   0  0  0  0  0
   -4.6057   -5.5134  -41.2719 H   0  0  0  0  0
   -4.0903   -3.1950  -40.4465 H   0  0  0  0  0
   -1.8903   -3.5908  -41.2651 H   0  0  0  0  0
   -2.6986   -3.0014  -42.9379 H   0  0  0  0  0
   -1.6447   -4.2754  -45.0665 H   0  0  0  0  0
   -0.1631   -4.1730  -44.0839 H   0  0  0  0  0
   -0.6874   -5.7418  -44.7437 H   0  0  0  0  0
   -5.3717   -3.1840  -39.1327 H   0  0  0  0  0
   -6.1041   -0.5008  -38.8692 H   0  0  0  0  0
   -6.3222    0.6942  -38.6404 H   0  0  0  0  0
   -7.2214   -0.6998  -39.5044 H   0  0  0  0  0
   -6.9764    1.0024  -41.1677 H   0  0  0  0  0
   -5.5780   -0.1614  -41.4671 H   0  0  0  0  0
   -4.0908    1.3126  -40.4997 H   0  0  0  0  0
   -5.5689    2.5434  -40.2231 H   0  0  0  0  0
   -4.4239    3.5894  -41.8062 H   0  0  0  0  0
   -4.2763    0.5933  -44.7590 H   0  0  0  0  0
   -4.7877    0.0786  -43.1482 H   0  0  0  0  0
   -3.7605    3.9510  -44.1185 H   0  0  0  0  0
   -2.6036   -1.5673  -38.4145 H   0  0  0  0  0
   -3.0144   -1.3567  -35.5950 H   0  0  0  0  0
   -0.5150   -1.1074  -36.9901 H   0  0  0  0  0
   -1.2470   -2.4126  -35.7824 H   0  0  0  0  0
   -1.3747   -2.0848  -33.4894 H   0  0  0  0  0
    1.1559    0.5367  -36.2456 H   0  0  0  0  0
    0.0112   -1.2059  -31.5798 H   0  0  0  0  0
    2.4364    1.3262  -34.3842 H   0  0  0  0  0
    1.9164    0.5019  -32.0185 H   0  0  0  0  0
   -4.1837    3.9849  -33.2647 H   0  0  0  0  0
   -6.5289    3.9592  -32.1995 H   0  0  0  0  0
   -8.6182    3.5628  -33.6812 H   0  0  0  0  0
   -8.3388    3.1780  -36.2334 H   0  0  0  0  0
   -5.9882    3.1915  -37.3236 H   0  0  0  0  0
   -3.1882    4.6596  -35.9946 H   0  0  0  0  0
   -3.6078    3.1256  -36.9960 H   0  0  0  0  0
   -2.4796    3.2930  -34.3908 H   0  0  0  0  0
   -1.5979    3.1420  -36.0128 H   0  0  0  0  0
   -2.9810    1.0493  -34.5194 H   0  0  0  0  0
  2  1  1  0  0  0
  1  7  1  0  0  0
  2  3  2  0  0  0
 16  2  1  0  0  0
  5  4  4  0  0  0
  9  4  4  0  0  0
  4 12  1  0  0  0
  6  5  4  0  0  0
  7  6  4  0  0  0
  7  8  4  0  0  0
  8  9  4  0  0  0
 13 10  4  0  0  0
 15 10  4  0  0  0
 12 11  4  0  0  0
 11 13  4  0  0  0
 12 14  4  0  0  0
 14 15  4  0  0  0
 17 16  1  0  0  0
 18 17  1  0  0  0
 17 20  1  0  0  0
 18 19  2  0  0  0
 22 18  1  0  0  0
 20 53  1  0  0  0
 53 21  1  0  0  0
 23 22  1  0  0  0
 23 24  1  0  0  0
 31 23  1  0  0  0
 24 25  1  0  0  0
 25 26  1  0  0  0
 26 27  1  0  0  0
 27 28  1  0  0  0
 28 29  1  0  0  0
 28 30  2  0  0  0
 31 32  2  0  0  0
 33 31  1  0  0  0
 34 33  1  0  0  0
 35 34  1  0  0  0
 34 37  1  0  0  0
 35 36  2  0  0  0
 52 35  1  0  0  0
 37 38  1  0  0  0
 38 39  4  0  0  0
 38 40  4  0  0  0
 39 41  4  0  0  0
 40 42  4  0  0  0
 41 43  4  0  0  0
 42 43  4  0  0  0
 44 45  4  0  0  0
 44 49  4  0  0  0
 50 44  1  0  0  0
 45 46  4  0  0  0
 46 47  4  0  0  0
 48 47  4  0  0  0
 49 48  4  0  0  0
 51 50  1  0  0  0
 51 52  1  0  0  0
  1 54  1  0  0  0
  1 55  1  0  0  0
  5 56  1  0  0  0
  6 57  1  0  0  0
  8 58  1  0  0  0
  9 59  1  0  0  0
 10 60  1  0  0  0
 11 61  1  0  0  0
 13 62  1  0  0  0
 14 63  1  0  0  0
 15 64  1  0  0  0
 16 65  1  0  0  0
 17 66  1  0  0  0
 20 67  1  0  0  0
 20 68  1  0  0  0
 21 69  1  0  0  0
 21 70  1  0  0  0
 21 71  1  0  0  0
 22 72  1  0  0  0
 23 73  1  0  0  0
 24 74  1  0  0  0
 24 75  1  0  0  0
 25 76  1  0  0  0
 25 77  1  0  0  0
 26 78  1  0  0  0
 26 79  1  0  0  0
 27 80  1  0  0  0
 29 81  1  0  0  0
 29 82  1  0  0  0
 30 83  1  0  0  0
 33 84  1  0  0  0
 34 85  1  0  0  0
 37 86  1  0  0  0
 37 87  1  0  0  0
 39 88  1  0  0  0
 40 89  1  0  0  0
 41 90  1  0  0  0
 42 91  1  0  0  0
 43 92  1  0  0  0
 45 93  1  0  0  0
 46 94  1  0  0  0
 47 95  1  0  0  0
 48 96  1  0  0  0
 49 97  1  0  0  0
 50 98  1  0  0  0
 50 99  1  0  0  0
 51100  1  0  0  0
 51101  1  0  0  0
 52102  1  0  0  0
M  END
$$$$
