### 
### Created by X-TOOL on Mon Sep 10 21:13:02 2018
### 

@<TRIPOS>MOLECULE
3h8c_ligand
  103   106     1     0     0
SMALL
GAST_HUCK


@<TRIPOS>ATOM
      1 C1         -6.8200   -5.2030  -42.7250 C.3       1 NSZ         0.0709
      2 C2         -5.8730   -4.3780  -42.4130 C.2       1 NSZ         0.1900
      3 O3         -6.0600   -3.2540  -42.9040 O.2       1 NSZ        -0.3939
      4 C4         -6.2550   -9.4690  -44.0410 C.ar      1 NSZ        -0.0239
      5 C5         -7.2440   -9.0830  -42.9070 C.ar      1 NSZ        -0.0596
      6 C6         -7.4330   -7.6850  -42.4840 C.ar      1 NSZ        -0.0566
      7 C7         -6.6130   -6.6070  -43.2030 C.ar      1 NSZ        -0.0233
      8 C8         -5.6460   -6.9260  -44.3140 C.ar      1 NSZ        -0.0566
      9 C9         -5.4770   -8.3340  -44.7220 C.ar      1 NSZ        -0.0596
     10 C10        -5.8540  -13.8810  -45.1340 C.ar      1 NSZ        -0.0626
     11 C11        -6.9210  -11.9730  -43.6600 C.ar      1 NSZ        -0.0556
     12 C12        -6.0730  -10.8980  -44.4520 C.ar      1 NSZ        -0.0219
     13 C13        -6.7950  -13.4100  -44.0110 C.ar      1 NSZ        -0.0622
     14 C14        -5.1200  -11.3370  -45.5760 C.ar      1 NSZ        -0.0556
     15 C15        -5.0350  -12.8210  -45.8930 C.ar      1 NSZ        -0.0622
     16 N16        -4.7720   -4.5900  -41.6720 N.am      1 NSZ        -0.2632
     17 C17        -3.8570   -3.5700  -41.4430 C.3       1 NSZ         0.1399
     18 C18        -4.1690   -2.4030  -40.6160 C.2       1 NSZ         0.2047
     19 O19        -3.6230   -1.3240  -41.0930 O.2       1 NSZ        -0.3944
     20 C20        -2.5800   -3.6920  -42.1030 C.3       1 NSZ         0.0338
     21 C22        -1.0260   -4.7910  -44.3320 C.3       1 NSZ        -0.0179
     22 N29        -4.9610   -2.3210  -39.4890 N.am      1 NSZ        -0.2637
     23 C30        -5.2340   -1.1550  -38.8140 C.3       1 NSZ         0.1311
     24 C31        -6.3090   -0.1200  -39.3650 C.3       1 NSZ        -0.0092
     25 C32        -6.0220    0.6010  -40.8270 C.3       1 NSZ        -0.0156
     26 C33        -5.0170    1.8020  -40.8010 C.3       1 NSZ         0.0627
     27 N34        -4.5760    2.5940  -41.9690 N.pl3     1 NSZ        -0.2723
     28 C35        -4.3340    2.1220  -43.3200 C.cat     1 NSZ         0.2882
     29 N36        -4.4790    0.8140  -43.7840 N.pl3     1 NSZ        -0.2849
     30 N37        -3.9130    2.9620  -44.3160 N.pl3     1 NSZ        -0.2849
     31 C38        -4.4740   -0.9070  -37.5770 C.2       1 NSZ         0.2040
     32 O39        -5.2350   -0.4200  -36.5980 O.2       1 NSZ        -0.3944
     33 N40        -3.0830   -1.1880  -37.5980 N.am      1 NSZ        -0.2619
     34 C41        -2.4260   -0.8950  -36.3880 C.3       1 NSZ         0.1403
     35 C42        -2.2420    0.6860  -36.5620 C.2       1 NSZ         0.2039
     36 O43        -1.7790    1.1620  -37.6660 O.2       1 NSZ        -0.3943
     37 C44        -1.0710   -1.3830  -36.0940 C.3       1 NSZ         0.0214
     38 C45        -0.2870   -0.8910  -35.0870 C.ar      1 NSZ        -0.0386
     39 C46        -0.5750   -1.3680  -33.6760 C.ar      1 NSZ        -0.0601
     40 C47         0.9170    0.1680  -35.2480 C.ar      1 NSZ        -0.0601
     41 C48         0.2110   -0.8690  -32.5970 C.ar      1 NSZ        -0.0686
     42 C49         1.6300    0.6110  -34.2220 C.ar      1 NSZ        -0.0686
     43 C50         1.3270    0.1310  -32.8570 C.ar      1 NSZ        -0.0687
     44 C52        -4.8840    3.5880  -35.4060 C.ar      1 NSZ        -0.0411
     45 C53        -5.0600    3.8140  -33.8900 C.ar      1 NSZ        -0.0603
     46 C54        -6.4160    3.8010  -33.2720 C.ar      1 NSZ        -0.0686
     47 C55        -7.6240    3.5700  -34.1280 C.ar      1 NSZ        -0.0687
     48 C56        -7.4580    3.3470  -35.6140 C.ar      1 NSZ        -0.0686
     49 C57        -6.0930    3.3550  -36.2510 C.ar      1 NSZ        -0.0603
     50 C58        -3.4910    3.6130  -36.0280 C.3       1 NSZ         0.0011
     51 C59        -2.4940    2.9460  -35.4240 C.3       1 NSZ         0.0405
     52 N60        -2.6290    1.5020  -35.3630 N.am      1 NSZ        -0.2830
     53 SG2        -1.9600   -5.0840  -42.8930 S.3       1 NSZ        -0.1594
     54 H1         -7.3935   -4.7041  -43.5201 H         1 NSZ         0.0662
     55 H2         -7.4429   -5.2893  -41.8225 H         1 NSZ         0.0662
     56 H3         -7.8107   -9.8642  -42.4134 H         1 NSZ         0.0610
     57 H4         -8.1272   -7.4272  -41.6924 H         1 NSZ         0.0564
     58 H5         -5.0861   -6.1373  -44.8034 H         1 NSZ         0.0564
     59 H6         -4.7863   -8.5729  -45.5225 H         1 NSZ         0.0610
     60 H7         -5.7700  -14.9324  -45.3843 H         1 NSZ         0.0610
     61 H8         -7.5901  -11.6623  -42.8657 H         1 NSZ         0.0615
     62 H9         -7.3780  -14.1428  -43.4649 H         1 NSZ         0.0615
     63 H10        -4.5286  -10.6124  -46.1239 H         1 NSZ         0.0615
     64 H11        -4.3709  -13.1463  -46.6856 H         1 NSZ         0.0615
     65 H12        -4.6090   -5.4953  -41.2797 H         1 NSZ         0.1884
     66 H13        -3.4724   -4.0936  -40.5553 H         1 NSZ         0.0808
     67 H14        -1.8360   -3.4486  -41.3302 H         1 NSZ         0.0424
     68 H15        -2.5809   -2.9054  -42.8719 H         1 NSZ         0.0424
     69 H16        -0.6836   -5.7498  -44.7484 H         1 NSZ         0.0341
     70 H17        -0.1547   -4.1674  -44.0830 H         1 NSZ         0.0341
     71 H18        -1.6493   -4.2707  -45.0741 H         1 NSZ         0.0341
     72 H19        -5.3636   -3.1671  -39.1396 H         1 NSZ         0.1883
     73 H20        -6.0244   -1.6585  -38.2380 H         1 NSZ         0.0800
     74 H21        -6.4021    0.6823  -38.6183 H         1 NSZ         0.0313
     75 H22        -7.2657   -0.6564  -39.4481 H         1 NSZ         0.0313
     76 H23        -6.9819    0.9708  -41.2167 H         1 NSZ         0.0301
     77 H24        -5.6194   -0.1630  -41.5084 H         1 NSZ         0.0301
     78 H25        -4.0933    1.3950  -40.3638 H         1 NSZ         0.0689
     79 H26        -5.4596    2.5328  -40.1082 H         1 NSZ         0.0689
     80 H27        -4.4224    3.5991  -41.8046 H         1 NSZ         0.2642
     81 H28        -4.2781    0.5919  -44.7695 H         1 NSZ         0.2615
     82 H29        -4.7869    0.0706  -43.1410 H         1 NSZ         0.2615
     83 H30        -3.7627    3.9615  -44.1175 H         1 NSZ         0.2615
     84 H31        -3.7467    2.5944  -45.2637 H         1 NSZ         0.2615
     85 H32        -2.6130   -1.5598  -38.3985 H         1 NSZ         0.1885
     86 H33        -3.0814   -1.1633  -35.5463 H         1 NSZ         0.0823
     87 H34        -0.4940   -1.2397  -37.0195 H         1 NSZ         0.0474
     88 H35        -1.1779   -2.4589  -35.8914 H         1 NSZ         0.0474
     89 H36        -1.3703   -2.0809  -33.4904 H         1 NSZ         0.0557
     90 H37         1.1546    0.5346  -36.2401 H         1 NSZ         0.0557
     91 H38         0.0123   -1.2040  -31.5854 H         1 NSZ         0.0599
     92 H39         2.4319    1.3223  -34.3833 H         1 NSZ         0.0599
     93 H40         1.9131    0.4999  -32.0231 H         1 NSZ         0.0559
     94 H41        -4.1885    3.9840  -33.2681 H         1 NSZ         0.0557
     95 H42        -6.5282    3.9583  -32.2054 H         1 NSZ         0.0599
     96 H43        -8.6127    3.5628  -33.6836 H         1 NSZ         0.0559
     97 H44        -8.3340    3.1789  -36.2300 H         1 NSZ         0.0599
     98 H45        -5.9888    3.1924  -37.3177 H         1 NSZ         0.0557
     99 H46        -3.1835    4.6675  -36.0866 H         1 NSZ         0.0446
    100 H47        -3.5846    3.2013  -37.0437 H         1 NSZ         0.0446
    101 H48        -2.4184    3.3191  -34.3920 H         1 NSZ         0.0542
    102 H49        -1.5634    3.1727  -35.9650 H         1 NSZ         0.0542
    103 H50        -2.9741    1.0582  -34.5360 H         1 NSZ         0.1853
@<TRIPOS>BOND
     1    2    1 1  
     2    1    7 1  
     3    2    3 2  
     4   16    2 am 
     5    5    4 ar 
     6    9    4 ar 
     7    4   12 1  
     8    6    5 ar 
     9    7    6 ar 
    10    7    8 ar 
    11    8    9 ar 
    12   13   10 ar 
    13   15   10 ar 
    14   12   11 ar 
    15   11   13 ar 
    16   12   14 ar 
    17   14   15 ar 
    18   17   16 1  
    19   18   17 1  
    20   17   20 1  
    21   18   19 2  
    22   22   18 am 
    23   20   53 1  
    24   53   21 1  
    25   23   22 1  
    26   23   24 1  
    27   31   23 1  
    28   24   25 1  
    29   25   26 1  
    30   26   27 1  
    31   27   28 ar 
    32   28   29 ar 
    33   28   30 ar 
    34   31   32 2  
    35   33   31 am 
    36   34   33 1  
    37   35   34 1  
    38   34   37 1  
    39   35   36 2  
    40   52   35 am 
    41   37   38 1  
    42   38   39 ar 
    43   38   40 ar 
    44   39   41 ar 
    45   40   42 ar 
    46   41   43 ar 
    47   42   43 ar 
    48   44   45 ar 
    49   44   49 ar 
    50   50   44 1  
    51   45   46 ar 
    52   46   47 ar 
    53   48   47 ar 
    54   49   48 ar 
    55   51   50 1  
    56   51   52 1  
    57    1   54 1  
    58    1   55 1  
    59    5   56 1  
    60    6   57 1  
    61    8   58 1  
    62    9   59 1  
    63   10   60 1  
    64   11   61 1  
    65   13   62 1  
    66   14   63 1  
    67   15   64 1  
    68   16   65 1  
    69   17   66 1  
    70   20   67 1  
    71   20   68 1  
    72   21   69 1  
    73   21   70 1  
    74   21   71 1  
    75   22   72 1  
    76   23   73 1  
    77   24   74 1  
    78   24   75 1  
    79   25   76 1  
    80   25   77 1  
    81   26   78 1  
    82   26   79 1  
    83   27   80 1  
    84   29   81 1  
    85   29   82 1  
    86   30   83 1  
    87   30   84 1  
    88   33   85 1  
    89   34   86 1  
    90   37   87 1  
    91   37   88 1  
    92   39   89 1  
    93   40   90 1  
    94   41   91 1  
    95   42   92 1  
    96   43   93 1  
    97   45   94 1  
    98   46   95 1  
    99   47   96 1  
   100   48   97 1  
   101   49   98 1  
   102   50   99 1  
   103   50  100 1  
   104   51  101 1  
   105   51  102 1  
   106   52  103 1  
@<TRIPOS>SUBSTRUCTURE
     1 NSZ         1

