4yyt_ligand
  -I-interpret- 

 24 24  0  0  0  0  0  0  0  0999 V2000
   -4.0410    2.5880   86.7010 O   0  0  0  0  0
   -2.6170    2.5220   86.8500 S   0  0  0  0  0
   -2.0760    2.6250   88.1750 O   0  0  0  0  0
   -2.1110    1.1520   86.2110 N   0  0  0  0  0
   -1.9400    3.8570   85.9060 C   0  0  0  0  0
   -2.7470    4.9280   85.5560 C   0  0  0  0  0
   -0.5850    3.8800   85.6170 C   0  0  0  0  0
   -0.0450    4.9840   84.9800 C   0  0  0  0  0
   -0.8340    6.0680   84.6250 C   0  0  0  0  0
   -2.1880    6.0230   84.9200 C   0  0  0  0  0
   -0.2330    7.2730   83.9390 C   0  0  0  0  0
    0.3250    6.9090   82.5790 C   0  0  0  0  0
   -0.7200    6.7630   81.6410 O   0  0  0  0  0
   -2.7808    0.5061   85.7931 H   0  0  0  0  0
   -1.1175    0.9213   86.2201 H   0  0  0  0  0
   -3.8136    4.9082   85.7798 H   0  0  0  0  0
    0.0498    3.0366   85.8887 H   0  0  0  0  0
    1.0210    5.0017   84.7530 H   0  0  0  0  0
   -2.8237    6.8650   84.6462 H   0  0  0  0  0
    0.5795    7.6553   84.5569 H   0  0  0  0  0
   -1.0136    8.0219   83.8051 H   0  0  0  0  0
    0.8654    5.9657   82.6580 H   0  0  0  0  0
    0.9930    7.7030   82.2454 H   0  0  0  0  0
   -0.3506    6.5326   80.7854 H   0  0  0  0  0
  1  2  2  0  0  0
  2  3  2  0  0  0
  2  4  1  0  0  0
  2  5  1  0  0  0
  5  6  4  0  0  0
  5  7  4  0  0  0
  6 10  4  0  0  0
  7  8  4  0  0  0
  8  9  4  0  0  0
  9 10  4  0  0  0
  9 11  1  0  0  0
 11 12  1  0  0  0
 12 13  1  0  0  0
  4 14  1  0  0  0
  4 15  1  0  0  0
  6 16  1  0  0  0
  7 17  1  0  0  0
  8 18  1  0  0  0
 10 19  1  0  0  0
 11 20  1  0  0  0
 11 21  1  0  0  0
 12 22  1  0  0  0
 12 23  1  0  0  0
 13 24  1  0  0  0
M  END
$$$$
