4y2j_ligand
  -I-interpret- 

 34 35  0  0  0  0  0  0  0  0999 V2000
  -16.9500  -13.0250   70.0960 C   0  0  0  0  0
  -16.8970  -13.3380   68.7360 C   0  0  0  0  0
  -17.5810  -11.8720   70.5220 C   0  0  0  0  0
  -17.4820  -12.4930   67.8060 C   0  0  0  0  0
  -18.1880  -11.0670   69.5620 C   0  0  0  0  0
  -18.6640   -6.8450   63.0680 C   0  0  0  0  0
  -18.3620   -6.5390   61.7600 C   0  0  0  0  0
  -18.1460  -11.3460   68.2050 C   0  0  0  0  0
  -17.4580   -7.2410   63.6790 C   0  0  0  0  0
  -16.2380   -6.5800   60.4290 C   0  0  0  0  0
  -18.7990  -10.4140   67.2010 C   0  0  0  0  0
  -17.2340   -7.6700   65.0910 C   0  0  0  0  0
  -17.9130   -9.2220   66.7910 C   0  0  0  0  0
  -16.4560   -7.1570   62.7930 N   0  0  0  0  0
  -17.0280   -6.7440   61.6430 N   0  0  0  0  0
  -18.0190   -8.8790   65.3630 N   0  3  0  0  0
  -16.4915  -13.6934   70.8248 H   0  0  0  0  0
  -16.3952  -14.2475   68.4056 H   0  0  0  0  0
  -17.6029  -11.6010   71.5775 H   0  0  0  0  0
  -17.4182  -12.7353   66.7452 H   0  0  0  0  0
  -18.7211  -10.1758   69.8930 H   0  0  0  0  0
  -19.6454   -6.7913   63.5392 H   0  0  0  0  0
  -19.0498   -6.2033   60.9839 H   0  0  0  0  0
  -16.6146   -7.2526   59.6584 H   0  0  0  0  0
  -16.3156   -5.5493   60.0830 H   0  0  0  0  0
  -15.1952   -6.8159   60.6410 H   0  0  0  0  0
  -19.6947  -10.0069   67.6702 H   0  0  0  0  0
  -18.9991  -10.9949   66.3007 H   0  0  0  0  0
  -17.5455   -6.8739   65.7672 H   0  0  0  0  0
  -16.1756   -7.8811   65.2438 H   0  0  0  0  0
  -16.8773   -9.4998   66.9863 H   0  0  0  0  0
  -18.2435   -8.3548   67.3627 H   0  0  0  0  0
  -17.6608   -9.6507   64.8004 H   0  0  0  0  0
  -18.9965   -8.7103   65.1255 H   0  0  0  0  0
  2  1  4  0  0  0
  3  1  4  0  0  0
  4  2  4  0  0  0
  5  3  4  0  0  0
  8  4  4  0  0  0
  8  5  4  0  0  0
  6  7  4  0  0  0
  9  6  4  0  0  0
  7 15  4  0  0  0
 11  8  1  0  0  0
 12  9  1  0  0  0
  9 14  4  0  0  0
 15 10  1  0  0  0
 13 11  1  0  0  0
 16 12  1  0  0  0
 13 16  1  0  0  0
 14 15  4  0  0  0
  1 17  1  0  0  0
  2 18  1  0  0  0
  3 19  1  0  0  0
  4 20  1  0  0  0
  5 21  1  0  0  0
  6 22  1  0  0  0
  7 23  1  0  0  0
 10 24  1  0  0  0
 10 25  1  0  0  0
 10 26  1  0  0  0
 11 27  1  0  0  0
 11 28  1  0  0  0
 12 29  1  0  0  0
 12 30  1  0  0  0
 13 31  1  0  0  0
 13 32  1  0  0  0
 16 33  1  0  0  0
 16 34  1  0  0  0
M  END
$$$$
