2ybp_ligand
  -I-interpret- 

 18 17  0  0  0  0  0  0  0  0999 V2000
   39.4000  -55.7770   -1.5500 C   0  0  0  0  0
   38.4050  -55.6990   -2.3080 O   0  0  0  0  0
   40.5730  -54.8430   -1.8450 C   0  0  0  0  0
   39.5170  -56.5370   -0.5660 O   0  0  0  0  0
   41.8450  -55.3780   -1.1870 C   0  0  0  0  0
   40.7940  -54.7200   -3.2520 O   0  0  0  0  0
   43.0190  -54.4630   -1.5350 C   0  0  0  0  0
   44.2210  -55.0580    0.4130 O   0  0  0  0  0
   44.2890  -54.9390   -0.8300 C   0  0  0  0  0
   45.2820  -55.1770   -1.5490 O   0  0  0  0  0
   38.5706  -55.0384   -2.9846 H   0  0  0  0  0
   40.3273  -53.8612   -1.4402 H   0  0  0  0  0
   42.0477  -56.3852   -1.5512 H   0  0  0  0  0
   41.7121  -55.4048   -0.1055 H   0  0  0  0  0
   39.9985  -54.3843   -3.6716 H   0  0  0  0  0
   42.7891  -53.4489   -1.2081 H   0  0  0  0  0
   43.1804  -54.4852   -2.6128 H   0  0  0  0  0
   43.3426  -54.8090    0.7096 H   0  0  0  0  0
  1  2  1  0  0  0
  1  3  1  0  0  0
  1  4  2  0  0  0
  3  5  1  0  0  0
  3  6  1  0  0  0
  5  7  1  0  0  0
  7  9  1  0  0  0
  9  8  1  0  0  0
  9 10  2  0  0  0
  2 11  1  0  0  0
  3 12  1  0  0  0
  5 13  1  0  0  0
  5 14  1  0  0  0
  6 15  1  0  0  0
  7 16  1  0  0  0
  7 17  1  0  0  0
  8 18  1  0  0  0
M  END
$$$$
