5icz_ligand
  -I-interpret- 

194196  0  0  0  0  0  0  0  0999 V2000
  -16.5630   32.1400  -29.6420 N   0  0  0  0  0
  -16.2930   32.6230  -28.2980 C   0  0  0  0  0
  -17.0150   33.9140  -27.9620 C   0  0  0  0  0
  -17.1770   34.2550  -26.7900 O   0  0  0  0  0
  -17.4490   34.6340  -28.9920 N   0  0  0  0  0
  -18.1300   35.9080  -28.7990 C   0  0  0  0  0
  -19.6370   35.8020  -28.9900 C   0  0  0  0  0
  -20.1300   34.9330  -29.7100 O   0  0  0  0  0
  -17.5690   36.9730  -29.7410 C   0  0  0  0  0
  -16.3870   37.7390  -29.1810 C   0  0  0  0  0
  -16.2280   39.1040  -29.8250 C   0  0  0  0  0
  -15.5320   39.9730  -29.2990 O   0  0  0  0  0
  -16.8800   39.3020  -30.9690 N   0  0  0  0  0
  -20.3600   36.7060  -28.3360 N   0  0  0  0  0
  -21.8090   36.7800  -28.4540 C   0  0  0  0  0
  -22.2050   37.4740  -29.7560 C   0  0  0  0  0
  -21.7010   38.5510  -30.0740 O   0  0  0  0  0
  -22.3970   37.5240  -27.2530 C   0  0  0  0  0
  -23.8930   37.6150  -27.2690 C   0  0  0  0  0
  -24.6710   36.4890  -27.0470 C   0  0  0  0  0
  -24.5250   38.8270  -27.4930 C   0  0  0  0  0
  -26.0490   36.5690  -27.0580 C   0  0  0  0  0
  -25.9060   38.9140  -27.5030 C   0  0  0  0  0
  -26.6680   37.7850  -27.2850 C   0  0  0  0  0
  -23.1060   36.8480  -30.5040 N   0  0  0  0  0
  -23.5590   37.3850  -31.7800 C   0  0  0  0  0
  -24.9580   37.9760  -31.6350 C   0  0  0  0  0
  -25.9140   37.2580  -31.3470 O   0  0  0  0  0
  -23.5390   36.2830  -32.8450 C   0  0  0  0  0
  -23.9970   36.7680  -34.2090 C   0  0  0  0  0
  -24.0210   37.9950  -34.4420 O   0  0  0  0  0
  -24.3250   35.9120  -35.0570 O   0  0  0  0  0
  -25.0640   39.2870  -31.8370 N   0  0  0  0  0
  -26.3260   40.0100  -31.6800 C   0  0  0  0  0
  -27.4140   39.5300  -32.6330 C   0  0  0  0  0
  -28.6010   39.6300  -32.3270 O   0  0  0  0  0
  -26.1070   41.5070  -31.8950 C   0  0  0  0  0
  -25.1290   42.2030  -30.9540 C   0  0  0  0  0
  -24.7030   43.5380  -31.5400 C   0  0  0  0  0
  -25.7580   42.3890  -29.5860 C   0  0  0  0  0
  -27.0070   39.0220  -33.7910 N   0  0  0  0  0
  -27.9560   38.6010  -34.8170 C   0  0  0  0  0
  -28.7140   37.3320  -34.4360 C   0  0  0  0  0
  -29.8810   37.1720  -34.7890 O   0  0  0  0  0
  -27.2440   38.3970  -36.1550 C   0  0  0  0  0
  -26.6640   39.6050  -36.6140 O   0  0  0  0  0
  -28.0510   36.4340  -33.7140 N   0  0  0  0  0
  -28.6490   35.1460  -33.3830 C   0  0  0  0  0
  -28.8450   34.9480  -31.8860 C   0  0  0  0  0
  -29.5180   34.0050  -31.4650 O   0  0  0  0  0
  -27.8060   33.9780  -33.9320 C   0  0  0  0  0
  -26.4580   34.0900  -33.4580 O   0  0  0  0  0
  -27.8060   33.9950  -35.4510 C   0  0  0  0  0
  -28.2610   35.8430  -31.0940 N   0  0  0  0  0
  -28.2320   35.7070  -29.6380 C   0  0  0  0  0
  -27.5540   34.4130  -29.2110 C   0  0  0  0  0
  -27.8880   33.8350  -28.1800 O   0  0  0  0  0
  -29.6320   35.7930  -29.0290 C   0  0  0  0  0
  -30.3380   37.0980  -29.2850 C   0  0  0  0  0
  -31.5220   37.2400  -28.3620 C   0  0  0  0  0
  -32.2960   38.4450  -28.6350 N   0  0  0  0  0
  -33.3340   38.8390  -27.9070 C   0  0  0  0  0
  -33.7160   38.1230  -26.8580 N   0  0  0  0  0
  -33.9850   39.9490  -28.2240 N   0  0  0  0  0
  -26.5990   33.9630  -30.0150 N   0  0  0  0  0
  -25.8490   32.7580  -29.7070 C   0  0  0  0  0
  -24.3600   33.0560  -29.7350 C   0  0  0  0  0
  -23.9320   34.0770  -30.2790 O   0  0  0  0  0
  -26.1780   31.6540  -30.7090 C   0  0  0  0  0
  -27.6130   31.1700  -30.6500 C   0  0  0  0  0
  -27.9020   30.4640  -29.3370 C   0  0  0  0  0
  -26.9100   29.4330  -29.0510 N   0  0  0  0  0
  -26.9080   28.2230  -29.6010 C   0  0  0  0  0
  -27.8440   27.8850  -30.4780 N   0  0  0  0  0
  -25.9620   27.3530  -29.2770 N   0  0  0  0  0
  -23.5760   32.1630  -29.1410 N   0  0  0  0  0
  -22.1260   32.2960  -29.1400 C   0  0  0  0  0
  -21.5530   31.8140  -30.4670 C   0  0  0  0  0
  -21.8910   30.7290  -30.9400 O   0  0  0  0  0
  -21.5160   31.5080  -27.9790 C   0  0  0  0  0
  -21.8300   32.0220  -26.5720 C   0  0  0  0  0
  -21.4170   31.0120  -25.5120 C   0  0  0  0  0
  -21.1480   33.3570  -26.3290 C   0  0  0  0  0
  -20.6970   32.6360  -31.0670 N   0  0  0  0  0
  -20.0350   32.2920  -32.3220 C   0  0  0  0  0
  -18.5700   32.7020  -32.2570 C   0  0  0  0  0
  -18.2480   33.8900  -32.2960 O   0  0  0  0  0
  -20.7280   32.9670  -33.5070 C   0  0  0  0  0
  -20.1410   32.6010  -34.8610 C   0  0  0  0  0
  -20.9050   33.2650  -35.9930 C   0  0  0  0  0
  -20.3040   32.9190  -37.3450 C   0  0  0  0  0
  -21.0430   33.5640  -38.4640 N   0  3  0  0  0
  -17.6860   31.7150  -32.1510 N   0  0  0  0  0
  -16.2630   31.9790  -32.0370 C   0  0  0  0  0
  -15.9020   32.6000  -30.7000 C   0  0  0  0  0
  -15.0480   33.4850  -30.6260 O   0  0  0  0  0
  -16.4560   32.2310  -29.6630 O   0  0  0  0  0
  -15.8351   32.4787  -27.3194 H   0  0  0  0  0
  -17.3019   34.2865  -29.9396 H   0  0  0  0  0
  -17.9462   36.2001  -27.7651 H   0  0  0  0  0
  -18.3651   37.6960  -29.9189 H   0  0  0  0  0
  -17.2228   36.4587  -30.6375 H   0  0  0  0  0
  -15.4842   37.1626  -29.3828 H   0  0  0  0  0
  -16.5540   37.8859  -28.1139 H   0  0  0  0  0
  -16.8137   40.2019  -31.4447 H   0  0  0  0  0
  -17.4458   38.5538  -31.3697 H   0  0  0  0  0
  -19.8818   37.3721  -27.7293 H   0  0  0  0  0
  -22.2099   35.7665  -28.4695 H   0  0  0  0  0
  -22.0097   38.5425  -27.2809 H   0  0  0  0  0
  -22.1152   36.9693  -26.3580 H   0  0  0  0  0
  -24.1888   35.5292  -26.8616 H   0  0  0  0  0
  -23.9276   39.7226  -27.6634 H   0  0  0  0  0
  -26.6488   35.6749  -26.8880 H   0  0  0  0  0
  -26.3911   39.8734  -27.6829 H   0  0  0  0  0
  -27.7560   37.8510  -27.2916 H   0  0  0  0  0
  -23.4930   35.9635  -30.1748 H   0  0  0  0  0
  -22.8845   38.1816  -32.0941 H   0  0  0  0  0
  -24.2244   35.4985  -32.5241 H   0  0  0  0  0
  -22.5106   35.9356  -32.9441 H   0  0  0  0  0
  -23.7330   38.4735  -33.6612 H   0  0  0  0  0
  -24.2319   39.8087  -32.1124 H   0  0  0  0  0
  -26.6659   39.8117  -30.6635 H   0  0  0  0  0
  -27.0745   41.9782  -31.7219 H   0  0  0  0  0
  -25.6822   41.6062  -32.8939 H   0  0  0  0  0
  -24.2424   41.5796  -30.8385 H   0  0  0  0  0
  -24.2189   43.3729  -32.5025 H   0  0  0  0  0
  -25.5805   44.1699  -31.6768 H   0  0  0  0  0
  -24.0049   44.0258  -30.8597 H   0  0  0  0  0
  -26.6569   42.9982  -29.6806 H   0  0  0  0  0
  -26.0194   41.4151  -29.1723 H   0  0  0  0  0
  -25.0480   42.8870  -28.9257 H   0  0  0  0  0
  -26.0072   38.9238  -33.9674 H   0  0  0  0  0
  -28.6894   39.4021  -34.9089 H   0  0  0  0  0
  -27.9742   38.0594  -36.8905 H   0  0  0  0  0
  -26.4527   37.6596  -36.0199 H   0  0  0  0  0
  -26.2247   39.4491  -37.4533 H   0  0  0  0  0
  -27.1093   36.6493  -33.3865 H   0  0  0  0  0
  -29.6305   35.1512  -33.8570 H   0  0  0  0  0
  -28.2415   33.0408  -33.5856 H   0  0  0  0  0
  -25.9373   33.3608  -33.8024 H   0  0  0  0  0
  -28.8291   33.8973  -35.8142 H   0  0  0  0  0
  -27.3826   34.9359  -35.8025 H   0  0  0  0  0
  -27.2064   33.1640  -35.8224 H   0  0  0  0  0
  -27.8157   36.6564  -31.5189 H   0  0  0  0  0
  -27.6464   36.5448  -29.2595 H   0  0  0  0  0
  -29.5194   35.6950  -27.9493 H   0  0  0  0  0
  -30.2315   35.0076  -29.4893 H   0  0  0  0  0
  -30.6864   37.1184  -30.3176 H   0  0  0  0  0
  -29.6449   37.9197  -29.1049 H   0  0  0  0  0
  -31.1481   37.3029  -27.3401 H   0  0  0  0  0
  -32.1731   36.3789  -28.5127 H   0  0  0  0  0
  -32.0239   39.0195  -29.4327 H   0  0  0  0  0
  -34.5107   38.4267  -26.2953 H   0  0  0  0  0
  -33.2151   37.2687  -26.6139 H   0  0  0  0  0
  -33.6888   40.5020  -29.0283 H   0  0  0  0  0
  -26.3864   34.4761  -30.8705 H   0  0  0  0  0
  -26.1284   32.4176  -28.7099 H   0  0  0  0  0
  -25.5410   30.8023  -30.4703 H   0  0  0  0  0
  -26.0178   32.0656  -31.7055 H   0  0  0  0  0
  -27.7763   30.4663  -31.4662 H   0  0  0  0  0
  -28.2744   32.0324  -30.7338 H   0  0  0  0  0
  -28.8805   29.9893  -29.4097 H   0  0  0  0  0
  -27.8720   31.2021  -28.5355 H   0  0  0  0  0
  -26.1697   29.6553  -28.3855 H   0  0  0  0  0
  -27.8348   26.9572  -30.9016 H   0  0  0  0  0
  -28.5729   28.5529  -30.7288 H   0  0  0  0  0
  -25.2380   27.6128  -28.6071 H   0  0  0  0  0
  -24.0013   31.3626  -28.6730 H   0  0  0  0  0
  -21.8738   33.3486  -29.0113 H   0  0  0  0  0
  -20.4349   31.5835  -28.0956 H   0  0  0  0  0
  -21.9389   30.5051  -28.0373 H   0  0  0  0  0
  -22.9084   32.1626  -26.4992 H   0  0  0  0  0
  -21.9578   30.0790  -25.6706 H   0  0  0  0  0
  -20.3450   30.8289  -25.5846 H   0  0  0  0  0
  -21.6533   31.4070  -24.5240 H   0  0  0  0  0
  -20.0694   33.2363  -26.4300 H   0  0  0  0  0
  -21.5036   34.0835  -27.0596 H   0  0  0  0  0
  -21.3832   33.7060  -25.3235 H   0  0  0  0  0
  -20.4960   33.5381  -30.6355 H   0  0  0  0  0
  -20.0985   31.2136  -32.4675 H   0  0  0  0  0
  -20.6045   34.0428  -33.3824 H   0  0  0  0  0
  -21.7661   32.6345  -33.5053 H   0  0  0  0  0
  -20.2063   31.5202  -34.9862 H   0  0  0  0  0
  -19.1065   32.9428  -34.8939 H   0  0  0  0  0
  -20.8544   34.3454  -35.8579 H   0  0  0  0  0
  -21.9351   32.9094  -35.9708 H   0  0  0  0  0
  -20.3603   31.8385  -37.4769 H   0  0  0  0  0
  -19.2753   33.2789  -37.3632 H   0  0  0  0  0
  -20.6083   33.3065  -39.3501 H   0  0  0  0  0
  -22.0131   33.2489  -38.4556 H   0  0  0  0  0
  -21.0124   34.5772  -38.3507 H   0  0  0  0  0
  -18.0151   30.7496  -32.1497 H   0  0  0  0  0
  -15.9835   32.6799  -32.8236 H   0  0  0  0  0
  -15.7334   31.0304  -32.1250 H   0  0  0  0  0
  1  2  1  0  0  0
  1 95  1  0  0  0
  1 97  1  0  0  0
  2  3  1  0  0  0
  2 97  1  0  0  0
  3  4  2  0  0  0
  3  5  1  0  0  0
  5  6  1  0  0  0
  6  7  1  0  0  0
  6  9  1  0  0  0
  7  8  2  0  0  0
  7 14  1  0  0  0
  9 10  1  0  0  0
 10 11  1  0  0  0
 11 12  2  0  0  0
 11 13  1  0  0  0
 14 15  1  0  0  0
 15 16  1  0  0  0
 15 18  1  0  0  0
 16 17  2  0  0  0
 16 25  1  0  0  0
 18 19  1  0  0  0
 19 20  4  0  0  0
 19 21  4  0  0  0
 20 22  4  0  0  0
 21 23  4  0  0  0
 22 24  4  0  0  0
 23 24  4  0  0  0
 25 26  1  0  0  0
 26 27  1  0  0  0
 26 29  1  0  0  0
 27 28  2  0  0  0
 27 33  1  0  0  0
 29 30  1  0  0  0
 30 31  1  0  0  0
 30 32  2  0  0  0
 33 34  1  0  0  0
 34 35  1  0  0  0
 34 37  1  0  0  0
 35 36  2  0  0  0
 35 41  1  0  0  0
 37 38  1  0  0  0
 38 39  1  0  0  0
 38 40  1  0  0  0
 41 42  1  0  0  0
 42 43  1  0  0  0
 42 45  1  0  0  0
 43 44  2  0  0  0
 43 47  1  0  0  0
 45 46  1  0  0  0
 47 48  1  0  0  0
 48 49  1  0  0  0
 48 51  1  0  0  0
 49 50  2  0  0  0
 49 54  1  0  0  0
 51 52  1  0  0  0
 51 53  1  0  0  0
 54 55  1  0  0  0
 55 56  1  0  0  0
 55 58  1  0  0  0
 56 57  2  0  0  0
 56 65  1  0  0  0
 58 59  1  0  0  0
 59 60  1  0  0  0
 60 61  1  0  0  0
 61 62  1  0  0  0
 62 63  1  0  0  0
 62 64  2  0  0  0
 65 66  1  0  0  0
 66 67  1  0  0  0
 66 69  1  0  0  0
 67 68  2  0  0  0
 67 76  1  0  0  0
 69 70  1  0  0  0
 70 71  1  0  0  0
 71 72  1  0  0  0
 72 73  1  0  0  0
 73 74  1  0  0  0
 73 75  2  0  0  0
 76 77  1  0  0  0
 77 78  1  0  0  0
 77 80  1  0  0  0
 78 79  2  0  0  0
 78 84  1  0  0  0
 80 81  1  0  0  0
 81 82  1  0  0  0
 81 83  1  0  0  0
 84 85  1  0  0  0
 85 86  1  0  0  0
 85 88  1  0  0  0
 86 87  2  0  0  0
 86 93  1  0  0  0
 88 89  1  0  0  0
 89 90  1  0  0  0
 90 91  1  0  0  0
 91 92  1  0  0  0
 93 94  1  0  0  0
 94 95  1  0  0  0
 95 96  2  0  0  0
  2 98  1  0  0  0
  5 99  1  0  0  0
  6100  1  0  0  0
  9101  1  0  0  0
  9102  1  0  0  0
 10103  1  0  0  0
 10104  1  0  0  0
 13105  1  0  0  0
 13106  1  0  0  0
 14107  1  0  0  0
 15108  1  0  0  0
 18109  1  0  0  0
 18110  1  0  0  0
 20111  1  0  0  0
 21112  1  0  0  0
 22113  1  0  0  0
 23114  1  0  0  0
 24115  1  0  0  0
 25116  1  0  0  0
 26117  1  0  0  0
 29118  1  0  0  0
 29119  1  0  0  0
 31120  1  0  0  0
 33121  1  0  0  0
 34122  1  0  0  0
 37123  1  0  0  0
 37124  1  0  0  0
 38125  1  0  0  0
 39126  1  0  0  0
 39127  1  0  0  0
 39128  1  0  0  0
 40129  1  0  0  0
 40130  1  0  0  0
 40131  1  0  0  0
 41132  1  0  0  0
 42133  1  0  0  0
 45134  1  0  0  0
 45135  1  0  0  0
 46136  1  0  0  0
 47137  1  0  0  0
 48138  1  0  0  0
 51139  1  0  0  0
 52140  1  0  0  0
 53141  1  0  0  0
 53142  1  0  0  0
 53143  1  0  0  0
 54144  1  0  0  0
 55145  1  0  0  0
 58146  1  0  0  0
 58147  1  0  0  0
 59148  1  0  0  0
 59149  1  0  0  0
 60150  1  0  0  0
 60151  1  0  0  0
 61152  1  0  0  0
 63153  1  0  0  0
 63154  1  0  0  0
 64155  1  0  0  0
 65156  1  0  0  0
 66157  1  0  0  0
 69158  1  0  0  0
 69159  1  0  0  0
 70160  1  0  0  0
 70161  1  0  0  0
 71162  1  0  0  0
 71163  1  0  0  0
 72164  1  0  0  0
 74165  1  0  0  0
 74166  1  0  0  0
 75167  1  0  0  0
 76168  1  0  0  0
 77169  1  0  0  0
 80170  1  0  0  0
 80171  1  0  0  0
 81172  1  0  0  0
 82173  1  0  0  0
 82174  1  0  0  0
 82175  1  0  0  0
 83176  1  0  0  0
 83177  1  0  0  0
 83178  1  0  0  0
 84179  1  0  0  0
 85180  1  0  0  0
 88181  1  0  0  0
 88182  1  0  0  0
 89183  1  0  0  0
 89184  1  0  0  0
 90185  1  0  0  0
 90186  1  0  0  0
 91187  1  0  0  0
 91188  1  0  0  0
 92189  1  0  0  0
 92190  1  0  0  0
 92191  1  0  0  0
 93192  1  0  0  0
 94193  1  0  0  0
 94194  1  0  0  0
M  END
$$$$
