### 
### Created by X-TOOL on Mon Sep 10 21:13:27 2018
### 

@<TRIPOS>MOLECULE
5icz_ligand
  195   197     1     0     0
SMALL
GAST_HUCK


@<TRIPOS>ATOM
      1 N         -16.5630   32.1400  -29.6420 N.am      1 GLY        -0.0895
      2 CA        -16.2930   32.6230  -28.2980 C.3       1 GLY         0.2896
      3 C         -17.0150   33.9140  -27.9620 C.2       1 GLY         0.2370
      4 O         -17.1770   34.2550  -26.7900 O.2       1 GLY        -0.3915
      5 N         -17.4490   34.6340  -28.9920 N.am      1 GLN        -0.2614
      6 CA        -18.1300   35.9080  -28.7990 C.3       1 GLN         0.1331
      7 C         -19.6370   35.8020  -28.9900 C.2       1 GLN         0.2042
      8 O         -20.1300   34.9330  -29.7100 O.2       1 GLN        -0.3944
      9 CB        -17.5690   36.9730  -29.7410 C.3       1 GLN         0.0045
     10 CG        -16.3870   37.7390  -29.1810 C.3       1 GLN         0.0412
     11 CD        -16.2280   39.1040  -29.8250 C.2       1 GLN         0.1737
     12 OE1       -15.5320   39.9730  -29.2990 O.2       1 GLN        -0.3973
     13 NE2       -16.8800   39.3020  -30.9690 N.am      1 GLN        -0.3009
     14 N         -20.3600   36.7060  -28.3360 N.am      1 PHE        -0.2619
     15 CA        -21.8090   36.7800  -28.4540 C.3       1 PHE         0.1404
     16 C         -22.2050   37.4740  -29.7560 C.2       1 PHE         0.2060
     17 O         -21.7010   38.5510  -30.0740 O.2       1 PHE        -0.3942
     18 CB        -22.3970   37.5240  -27.2530 C.3       1 PHE         0.0214
     19 CG        -23.8930   37.6150  -27.2690 C.ar      1 PHE        -0.0386
     20 CD1       -24.6710   36.4890  -27.0470 C.ar      1 PHE        -0.0601
     21 CD2       -24.5250   38.8270  -27.4930 C.ar      1 PHE        -0.0601
     22 CE1       -26.0490   36.5690  -27.0580 C.ar      1 PHE        -0.0686
     23 CE2       -25.9060   38.9140  -27.5030 C.ar      1 PHE        -0.0686
     24 CZ        -26.6680   37.7850  -27.2850 C.ar      1 PHE        -0.0687
     25 N         -23.1060   36.8480  -30.5040 N.am      1 ASP        -0.2620
     26 CA        -23.5590   37.3850  -31.7800 C.3       1 ASP         0.1423
     27 C         -24.9580   37.9760  -31.6350 C.2       1 ASP         0.2056
     28 O         -25.9140   37.2580  -31.3470 O.2       1 ASP        -0.3943
     29 CB        -23.5390   36.2830  -32.8450 C.3       1 ASP         0.0406
     30 CG        -23.9970   36.7680  -34.2090 C.2       1 ASP         0.0393
     31 OD1       -24.0210   37.9950  -34.4420 O.co2     1 ASP        -0.5688
     32 OD2       -24.3250   35.9120  -35.0570 O.co2     1 ASP        -0.5688
     33 N         -25.0640   39.2870  -31.8370 N.am      1 LEU        -0.2636
     34 CA        -26.3260   40.0100  -31.6800 C.3       1 LEU         0.1312
     35 C         -27.4140   39.5300  -32.6330 C.2       1 LEU         0.2040
     36 O         -28.6010   39.6300  -32.3270 O.2       1 LEU        -0.3944
     37 CB        -26.1070   41.5070  -31.8950 C.3       1 LEU        -0.0101
     38 CG        -25.1290   42.2030  -30.9540 C.3       1 LEU        -0.0425
     39 CD1       -24.7030   43.5380  -31.5400 C.3       1 LEU        -0.0625
     40 CD2       -25.7580   42.3890  -29.5860 C.3       1 LEU        -0.0625
     41 N         -27.0070   39.0220  -33.7910 N.am      1 SER        -0.2616
     42 CA        -27.9560   38.6010  -34.8170 C.3       1 SER         0.1539
     43 C         -28.7140   37.3320  -34.4360 C.2       1 SER         0.2063
     44 O         -29.8810   37.1720  -34.7890 O.2       1 SER        -0.3943
     45 CB        -27.2440   38.3970  -36.1550 C.3       1 SER         0.0843
     46 OG        -26.6640   39.6050  -36.6140 O.3       1 SER        -0.3903
     47 N         -28.0510   36.4340  -33.7140 N.am      1 THR        -0.2613
     48 CA        -28.6490   35.1460  -33.3830 C.3       1 THR         0.1565
     49 C         -28.8450   34.9480  -31.8860 C.2       1 THR         0.2065
     50 O         -29.5180   34.0050  -31.4650 O.2       1 THR        -0.3943
     51 CB        -27.8060   33.9780  -33.9320 C.3       1 THR         0.0924
     52 OG1       -26.4580   34.0900  -33.4580 O.3       1 THR        -0.3874
     53 CG2       -27.8060   33.9950  -35.4510 C.3       1 THR        -0.0346
     54 N         -28.2610   35.8430  -31.0940 N.am      1 ARG        -0.2636
     55 CA        -28.2320   35.7070  -29.6380 C.3       1 ARG         0.1311
     56 C         -27.5540   34.4130  -29.2110 C.2       1 ARG         0.2039
     57 O         -27.8880   33.8350  -28.1800 O.2       1 ARG        -0.3944
     58 CB        -29.6320   35.7930  -29.0290 C.3       1 ARG        -0.0092
     59 CG        -30.3380   37.0980  -29.2850 C.3       1 ARG        -0.0156
     60 CD        -31.5220   37.2400  -28.3620 C.3       1 ARG         0.0627
     61 NE        -32.2960   38.4450  -28.6350 N.pl3     1 ARG        -0.2723
     62 CZ        -33.3340   38.8390  -27.9070 C.cat     1 ARG         0.2882
     63 NH1       -33.7160   38.1230  -26.8580 N.pl3     1 ARG        -0.2849
     64 NH2       -33.9850   39.9490  -28.2240 N.pl3     1 ARG        -0.2849
     65 N         -26.5990   33.9630  -30.0150 N.am      1 ARG        -0.2637
     66 CA        -25.8490   32.7580  -29.7070 C.3       1 ARG         0.1311
     67 C         -24.3600   33.0560  -29.7350 C.2       1 ARG         0.2039
     68 O         -23.9320   34.0770  -30.2790 O.2       1 ARG        -0.3944
     69 CB        -26.1780   31.6540  -30.7090 C.3       1 ARG        -0.0092
     70 CG        -27.6130   31.1700  -30.6500 C.3       1 ARG        -0.0156
     71 CD        -27.9020   30.4640  -29.3370 C.3       1 ARG         0.0627
     72 NE        -26.9100   29.4330  -29.0510 N.pl3     1 ARG        -0.2723
     73 CZ        -26.9080   28.2230  -29.6010 C.cat     1 ARG         0.2882
     74 NH1       -27.8440   27.8850  -30.4780 N.pl3     1 ARG        -0.2849
     75 NH2       -25.9620   27.3530  -29.2770 N.pl3     1 ARG        -0.2849
     76 N         -23.5760   32.1630  -29.1410 N.am      1 LEU        -0.2637
     77 CA        -22.1260   32.2960  -29.1400 C.3       1 LEU         0.1312
     78 C         -21.5530   31.8140  -30.4670 C.2       1 LEU         0.2039
     79 O         -21.8910   30.7290  -30.9400 O.2       1 LEU        -0.3944
     80 CB        -21.5160   31.5080  -27.9790 C.3       1 LEU        -0.0101
     81 CG        -21.8300   32.0220  -26.5720 C.3       1 LEU        -0.0425
     82 CD1       -21.4170   31.0120  -25.5120 C.3       1 LEU        -0.0625
     83 CD2       -21.1480   33.3570  -26.3290 C.3       1 LEU        -0.0625
     84 N         -20.6970   32.6360  -31.0670 N.am      1 LYS        -0.2637
     85 CA        -20.0350   32.2920  -32.3220 C.3       1 LYS         0.1310
     86 C         -18.5700   32.7020  -32.2570 C.2       1 LYS         0.2037
     87 O         -18.2480   33.8900  -32.2960 O.2       1 LYS        -0.3944
     88 CB        -20.7280   32.9670  -33.5070 C.3       1 LYS        -0.0122
     89 CG        -20.1410   32.6010  -34.8610 C.3       1 LYS        -0.0440
     90 CD        -20.9050   33.2650  -35.9930 C.3       1 LYS        -0.0124
     91 CE        -20.3040   32.9190  -37.3450 C.3       1 LYS        -0.0354
     92 NZ        -21.0430   33.5640  -38.4640 N.4       1 LYS         0.2185
     93 N         -17.6860   31.7150  -32.1510 N.am      1 GLY        -0.2664
     94 CA        -16.2630   31.9790  -32.0370 C.3       1 GLY         0.1222
     95 C         -15.9020   32.6000  -30.7000 C.2       1 GLY         0.2295
     96 O         -15.0480   33.4850  -30.6260 O.2       1 GLY        -0.3942
     97 OXT       -16.4560   32.2310  -29.6630 O.3       1 GLY        -0.1970
     98 H1        -15.6910   32.1848  -27.4884 H         1 GLY         0.1177
     99 H2        -17.3048   34.2934  -29.9211 H         1 GLN         0.1884
    100 H3        -17.9432   36.2315  -27.7644 H         1 GLN         0.0801
    101 H4        -18.3708   37.6920  -29.9651 H         1 GLN         0.0337
    102 H5        -17.2501   36.4780  -30.6701 H         1 GLN         0.0337
    103 H6        -15.4714   37.1556  -29.3580 H         1 GLN         0.0504
    104 H7        -16.5329   37.8732  -28.0990 H         1 GLN         0.0504
    105 H8        -16.8115   40.1828  -31.4376 H         1 GLN         0.1814
    106 H9        -17.4382   38.5699  -31.3596 H         1 GLN         0.1814
    107 H10       -19.8912   37.3591  -27.7412 H         1 PHE         0.1885
    108 H11       -22.2130   35.7570  -28.4658 H         1 PHE         0.0823
    109 H12       -21.9879   38.5450  -27.2437 H         1 PHE         0.0474
    110 H13       -22.0917   36.9982  -26.3363 H         1 PHE         0.0474
    111 H14       -24.1914   35.5345  -26.8626 H         1 PHE         0.0557
    112 H15       -23.9309   39.7177  -27.6624 H         1 PHE         0.0557
    113 H16       -26.6455   35.6798  -26.8889 H         1 PHE         0.0599
    114 H17       -26.3884   39.8681  -27.6819 H         1 PHE         0.0599
    115 H18       -27.7500   37.8506  -27.2916 H         1 PHE         0.0559
    116 H19       -23.4854   35.9809  -30.1813 H         1 ASP         0.1884
    117 H20       -22.8716   38.1856  -32.0907 H         1 ASP         0.0819
    118 H21       -24.2047   35.4697  -32.5205 H         1 ASP         0.0478
    119 H22       -22.5112   35.9016  -32.9355 H         1 ASP         0.0478
    120 H23       -24.2482   39.7985  -32.1070 H         1 LEU         0.1883
    121 H24       -26.6793   39.8503  -30.6506 H         1 LEU         0.0800
    122 H25       -27.0823   42.0044  -31.7880 H         1 LEU         0.0315
    123 H26       -25.7358   41.6446  -32.9213 H         1 LEU         0.0315
    124 H27       -24.2365   41.5695  -30.8437 H         1 LEU         0.0298
    125 H28       -23.9984   44.0313  -30.8543 H         1 LEU         0.0232
    126 H29       -25.5878   44.1767  -31.6785 H         1 LEU         0.0232
    127 H30       -24.2142   43.3728  -32.5115 H         1 LEU         0.0232
    128 H31       -26.0573   41.4099  -29.1839 H         1 LEU         0.0232
    129 H32       -26.6437   43.0353  -29.6744 H         1 LEU         0.0232
    130 H33       -25.0291   42.8566  -28.9078 H         1 LEU         0.0232
    131 H34       -26.0268   38.9257  -33.9640 H         1 SER         0.1884
    132 H35       -28.6933   39.4081  -34.9397 H         1 SER         0.0823
    133 H36       -27.9725   38.0429  -36.8992 H         1 SER         0.0606
    134 H37       -26.4524   37.6436  -36.0294 H         1 SER         0.0606
    135 H38       -27.3442   40.2584  -36.7279 H         1 SER         0.2097
    136 H39       -27.1278   36.6451  -33.3929 H         1 THR         0.1884
    137 H40       -29.6390   35.1104  -33.8612 H         1 THR         0.0826
    138 H41       -28.2365   33.0283  -33.5817 H         1 THR         0.0639
    139 H42       -26.0869   34.9130  -33.7537 H         1 THR         0.2101
    140 H43       -27.2011   33.1567  -35.8270 H         1 THR         0.0257
    141 H44       -27.3788   34.9441  -35.8071 H         1 THR         0.0257
    142 H45       -28.8380   33.8964  -35.8188 H         1 THR         0.0257
    143 H46       -27.8245   36.6404  -31.5106 H         1 ARG         0.1883
    144 H47       -27.6407   36.5446  -29.2395 H         1 ARG         0.0800
    145 H48       -29.5438   35.6563  -27.9411 H         1 ARG         0.0313
    146 H49       -30.2426   34.9818  -29.4522 H         1 ARG         0.0313
    147 H50       -30.6856   37.1244  -30.3283 H         1 ARG         0.0301
    148 H51       -29.6393   37.9294  -29.1101 H         1 ARG         0.0301
    149 H52       -31.1587   37.2806  -27.3245 H         1 ARG         0.0689
    150 H53       -32.1754   36.3641  -28.4877 H         1 ARG         0.0689
    151 H54       -32.0212   39.0251  -29.4405 H         1 ARG         0.2642
    152 H55       -34.5211   38.4274  -26.2923 H         1 ARG         0.2615
    153 H56       -33.2076   37.2625  -26.6091 H         1 ARG         0.2615
    154 H57       -33.6884   40.5052  -29.0386 H         1 ARG         0.2615
    155 H58       -34.7875   40.2555  -27.6557 H         1 ARG         0.2615
    156 H59       -26.3906   34.4660  -30.8538 H         1 ARG         0.1883
    157 H60       -26.1255   32.4157  -28.6988 H         1 ARG         0.0800
    158 H61       -25.5167   30.7981  -30.5090 H         1 ARG         0.0313
    159 H62       -25.9847   32.0380  -31.7215 H         1 ARG         0.0313
    160 H63       -27.7898   30.4701  -31.4799 H         1 ARG         0.0301
    161 H64       -28.2871   32.0336  -30.7487 H         1 ARG         0.0301
    162 H65       -28.8961   29.9965  -29.3944 H         1 ARG         0.0689
    163 H66       -27.8915   31.2046  -28.5238 H         1 ARG         0.0689
    164 H67       -26.1624   29.6575  -28.3790 H         1 ARG         0.2642
    165 H68       -27.8381   26.9461  -30.9014 H         1 ARG         0.2615
    166 H69       -28.5768   28.5615  -30.7356 H         1 ARG         0.2615
    167 H70       -25.2342   27.6133  -28.5962 H         1 ARG         0.2615
    168 H71       -25.9547   26.4166  -29.7060 H         1 ARG         0.2615
    169 H72       -23.9929   31.3783  -28.6822 H         1 LEU         0.1883
    170 H73       -21.8717   33.3586  -29.0132 H         1 LEU         0.0800
    171 H74       -20.4232   31.5192  -28.1038 H         1 LEU         0.0315
    172 H75       -21.8823   30.4730  -28.0472 H         1 LEU         0.0315
    173 H76       -22.9172   32.1716  -26.4970 H         1 LEU         0.0298
    174 H77       -21.6550   31.4095  -24.5143 H         1 LEU         0.0232
    175 H78       -20.3352   30.8263  -25.5842 H         1 LEU         0.0232
    176 H79       -21.9622   30.0699  -25.6709 H         1 LEU         0.0232
    177 H80       -21.4581   34.0735  -27.1039 H         1 LEU         0.0232
    178 H81       -20.0568   33.2239  -26.3683 H         1 LEU         0.0232
    179 H82       -21.4352   33.7406  -25.3389 H         1 LEU         0.0232
    180 H83       -20.4999   33.5204  -30.6439 H         1 LYS         0.1883
    181 H84       -20.0903   31.2022  -32.4611 H         1 LYS         0.0800
    182 H85       -20.6478   34.0566  -33.3790 H         1 LYS         0.0312
    183 H86       -21.7882   32.6740  -33.4997 H         1 LYS         0.0312
    184 H87       -20.1888   31.5095  -34.9888 H         1 LYS         0.0269
    185 H88       -19.0916   32.9288  -34.8967 H         1 LYS         0.0269
    186 H89       -20.8723   34.3559  -35.8554 H         1 LYS         0.0317
    187 H90       -21.9503   32.9234  -35.9680 H         1 LYS         0.0317
    188 H91       -20.3370   31.8278  -37.4798 H         1 LYS         0.0813
    189 H92       -19.2583   33.2597  -37.3667 H         1 LYS         0.0813
    190 H93       -20.6142   33.3102  -39.3402 H         1 LYS         0.1994
    191 H94       -21.0134   34.5654  -38.3531 H         1 LYS         0.1994
    192 H95       -22.0019   33.2533  -38.4567 H         1 LYS         0.1994
    193 H96       -18.0087   30.7685  -32.1498 H         1 GLY         0.1880
    194 H97       -15.9649   32.6688  -32.8403 H         1 GLY         0.0763
    195 H98       -15.7166   31.0306  -32.1465 H         1 GLY         0.0763
@<TRIPOS>BOND
     1    1    2 1  
     2    1   95 am 
     3    1   97 1  
     4    2    3 1  
     5    2   97 1  
     6    3    4 2  
     7    3    5 am 
     8    5    6 1  
     9    6    7 1  
    10    6    9 1  
    11    7    8 2  
    12    7   14 am 
    13    9   10 1  
    14   10   11 1  
    15   11   12 2  
    16   11   13 am 
    17   14   15 1  
    18   15   16 1  
    19   15   18 1  
    20   16   17 2  
    21   16   25 am 
    22   18   19 1  
    23   19   20 ar 
    24   19   21 ar 
    25   20   22 ar 
    26   21   23 ar 
    27   22   24 ar 
    28   23   24 ar 
    29   25   26 1  
    30   26   27 1  
    31   26   29 1  
    32   27   28 2  
    33   27   33 am 
    34   29   30 1  
    35   30   31 ar 
    36   30   32 ar 
    37   33   34 1  
    38   34   35 1  
    39   34   37 1  
    40   35   36 2  
    41   35   41 am 
    42   37   38 1  
    43   38   39 1  
    44   38   40 1  
    45   41   42 1  
    46   42   43 1  
    47   42   45 1  
    48   43   44 2  
    49   43   47 am 
    50   45   46 1  
    51   47   48 1  
    52   48   49 1  
    53   48   51 1  
    54   49   50 2  
    55   49   54 am 
    56   51   52 1  
    57   51   53 1  
    58   54   55 1  
    59   55   56 1  
    60   55   58 1  
    61   56   57 2  
    62   56   65 am 
    63   58   59 1  
    64   59   60 1  
    65   60   61 1  
    66   61   62 ar 
    67   62   63 ar 
    68   62   64 ar 
    69   65   66 1  
    70   66   67 1  
    71   66   69 1  
    72   67   68 2  
    73   67   76 am 
    74   69   70 1  
    75   70   71 1  
    76   71   72 1  
    77   72   73 ar 
    78   73   74 ar 
    79   73   75 ar 
    80   76   77 1  
    81   77   78 1  
    82   77   80 1  
    83   78   79 2  
    84   78   84 am 
    85   80   81 1  
    86   81   82 1  
    87   81   83 1  
    88   84   85 1  
    89   85   86 1  
    90   85   88 1  
    91   86   87 2  
    92   86   93 am 
    93   88   89 1  
    94   89   90 1  
    95   90   91 1  
    96   91   92 1  
    97   93   94 1  
    98   94   95 1  
    99   95   96 2  
   100    2   98 1  
   101    5   99 1  
   102    6  100 1  
   103    9  101 1  
   104    9  102 1  
   105   10  103 1  
   106   10  104 1  
   107   13  105 1  
   108   13  106 1  
   109   14  107 1  
   110   15  108 1  
   111   18  109 1  
   112   18  110 1  
   113   20  111 1  
   114   21  112 1  
   115   22  113 1  
   116   23  114 1  
   117   24  115 1  
   118   25  116 1  
   119   26  117 1  
   120   29  118 1  
   121   29  119 1  
   122   33  120 1  
   123   34  121 1  
   124   37  122 1  
   125   37  123 1  
   126   38  124 1  
   127   39  125 1  
   128   39  126 1  
   129   39  127 1  
   130   40  128 1  
   131   40  129 1  
   132   40  130 1  
   133   41  131 1  
   134   42  132 1  
   135   45  133 1  
   136   45  134 1  
   137   46  135 1  
   138   47  136 1  
   139   48  137 1  
   140   51  138 1  
   141   52  139 1  
   142   53  140 1  
   143   53  141 1  
   144   53  142 1  
   145   54  143 1  
   146   55  144 1  
   147   58  145 1  
   148   58  146 1  
   149   59  147 1  
   150   59  148 1  
   151   60  149 1  
   152   60  150 1  
   153   61  151 1  
   154   63  152 1  
   155   63  153 1  
   156   64  154 1  
   157   64  155 1  
   158   65  156 1  
   159   66  157 1  
   160   69  158 1  
   161   69  159 1  
   162   70  160 1  
   163   70  161 1  
   164   71  162 1  
   165   71  163 1  
   166   72  164 1  
   167   74  165 1  
   168   74  166 1  
   169   75  167 1  
   170   75  168 1  
   171   76  169 1  
   172   77  170 1  
   173   80  171 1  
   174   80  172 1  
   175   81  173 1  
   176   82  174 1  
   177   82  175 1  
   178   82  176 1  
   179   83  177 1  
   180   83  178 1  
   181   83  179 1  
   182   84  180 1  
   183   85  181 1  
   184   88  182 1  
   185   88  183 1  
   186   89  184 1  
   187   89  185 1  
   188   90  186 1  
   189   90  187 1  
   190   91  188 1  
   191   91  189 1  
   192   92  190 1  
   193   92  191 1  
   194   92  192 1  
   195   93  193 1  
   196   94  194 1  
   197   94  195 1  
@<TRIPOS>SUBSTRUCTURE
     1 GLY         1

