3udd_ligand
  -I-interpret- 

 48 51  0  0  0  0  0  0  0  0999 V2000
  -23.9700   -3.1720   10.6020 S   0  0  0  0  0
  -24.0280   -3.6140   12.3730 C   0  0  0  0  0
  -23.3060   -2.6320   13.2250 C   0  0  0  0  0
  -22.6890   -1.5880   12.9300 N   0  0  0  0  0
  -22.1330   -1.0080   14.0980 C   0  0  0  0  0
  -22.5120   -1.6960   15.1040 N   0  0  0  0  0
  -23.2660   -2.7610   14.5660 O   0  0  0  0  0
  -21.3910    0.2990   14.1490 C   0  0  0  0  0
  -20.8700    0.7460   15.3700 C   0  0  0  0  0
  -20.2360    1.9990   15.4360 C   0  0  0  0  0
  -20.1890    2.8280   14.3000 C   0  0  0  0  0
  -20.7500    2.3710   13.0800 C   0  0  0  0  0
  -21.3850    1.1230   13.0090 C   0  0  0  0  0
  -19.5310    4.0720   14.4280 O   0  0  0  0  0
  -19.5260    5.0570   13.3690 C   0  0  0  0  0
  -24.8900   -4.5650   10.0290 C   0  0  0  0  0
  -25.0700   -4.8720    8.7550 N   0  0  0  0  0
  -25.7690   -5.9780    8.7820 C   0  0  0  0  0
  -25.9920   -6.4060    9.9520 N   0  0  0  0  0
  -25.3740   -5.4420   10.8030 N   0  0  0  0  0
  -26.2870   -6.7560    7.5960 C   0  0  0  0  0
  -24.6530   -4.1600    7.6690 C   0  0  0  0  0
  -23.6900   -4.6820    6.7770 C   0  0  0  0  0
  -23.2590   -3.9210    5.6810 C   0  0  0  0  0
  -23.7880   -2.6340    5.4560 C   0  0  0  0  0
  -24.7470   -2.1060    6.3580 C   0  0  0  0  0
  -25.1940   -2.8800    7.4380 C   0  0  0  0  0
  -23.2710   -1.9070    4.3830 O   0  0  0  0  0
  -23.4980   -0.5030    4.1560 C   0  0  0  0  0
  -23.5471   -4.5846   12.4948 H   0  0  0  0  0
  -25.0727   -3.6270   12.6838 H   0  0  0  0  0
  -20.9556    0.1266   16.2628 H   0  0  0  0  0
  -19.7798    2.3291   16.3693 H   0  0  0  0  0
  -20.6868    2.9960   12.1892 H   0  0  0  0  0
  -21.8656    0.7970   12.0866 H   0  0  0  0  0
  -19.0627    4.6300   12.4796 H   0  0  0  0  0
  -20.5512    5.3492   13.1415 H   0  0  0  0  0
  -18.9604    5.9315   13.6906 H   0  0  0  0  0
  -26.9526   -6.1222    7.0100 H   0  0  0  0  0
  -25.4479   -7.0740    6.9772 H   0  0  0  0  0
  -26.8330   -7.6314    7.9477 H   0  0  0  0  0
  -23.2809   -5.6789    6.9411 H   0  0  0  0  0
  -22.5112   -4.3267    4.9996 H   0  0  0  0  0
  -25.1364   -1.0985    6.2114 H   0  0  0  0  0
  -25.9644   -2.4892    8.1027 H   0  0  0  0  0
  -24.5671   -0.3227    4.0433 H   0  0  0  0  0
  -23.1196    0.0668    5.0047 H   0  0  0  0  0
  -22.9786   -0.1943    3.2488 H   0  0  0  0  0
  1  2  1  0  0  0
  1 16  1  0  0  0
  2  3  1  0  0  0
  3  4  4  0  0  0
  3  7  4  0  0  0
  4  5  4  0  0  0
  5  6  4  0  0  0
  5  8  1  0  0  0
  6  7  4  0  0  0
  8  9  4  0  0  0
  8 13  4  0  0  0
  9 10  4  0  0  0
 10 11  4  0  0  0
 11 12  4  0  0  0
 11 14  1  0  0  0
 12 13  4  0  0  0
 14 15  1  0  0  0
 16 17  4  0  0  0
 16 20  4  0  0  0
 17 18  4  0  0  0
 17 22  1  0  0  0
 18 19  4  0  0  0
 18 21  1  0  0  0
 19 20  4  0  0  0
 22 23  4  0  0  0
 22 27  4  0  0  0
 23 24  4  0  0  0
 24 25  4  0  0  0
 25 26  4  0  0  0
 25 28  1  0  0  0
 26 27  4  0  0  0
 28 29  1  0  0  0
  2 30  1  0  0  0
  2 31  1  0  0  0
  9 32  1  0  0  0
 10 33  1  0  0  0
 12 34  1  0  0  0
 13 35  1  0  0  0
 15 36  1  0  0  0
 15 37  1  0  0  0
 15 38  1  0  0  0
 21 39  1  0  0  0
 21 40  1  0  0  0
 21 41  1  0  0  0
 23 42  1  0  0  0
 24 43  1  0  0  0
 26 44  1  0  0  0
 27 45  1  0  0  0
 29 46  1  0  0  0
 29 47  1  0  0  0
 29 48  1  0  0  0
M  END
$$$$
