4mbp_ligand
  -I-interpret- 

 87 90  0  0  0  0  0  0  0  0999 V2000
    9.7690   24.4750   40.2340 C   0  0  0  0  0
    8.8510   24.3510   38.9850 C   0  0  0  0  0
    9.6210   24.0810   37.7540 C   0  0  0  0  0
   10.6010   25.2840   37.5690 C   0  0  0  0  0
   11.4420   25.6590   38.7620 C   0  0  0  0  0
   11.8090   27.1020   38.5630 C   0  0  0  0  0
    8.0180   23.2330   39.1270 O   0  0  0  0  0
    8.7260   23.8070   36.6470 O   0  0  0  0  0
   11.6000   24.8260   36.6220 O   0  0  0  0  0
   10.7280   25.5230   40.0920 O   0  0  0  0  0
   12.5080   27.4940   39.7270 O   0  0  0  0  0
   11.7860   20.6510   43.4410 C   0  0  0  0  0
   10.6240   21.4490   43.8680 C   0  0  0  0  0
    9.9910   22.1520   42.6020 C   0  0  0  0  0
   11.0290   22.9390   41.7420 C   0  0  0  0  0
   12.2730   22.1290   41.5090 C   0  0  0  0  0
   13.5030   22.9820   41.0500 C   0  0  0  0  0
    9.7190   20.4990   44.4970 O   0  0  0  0  0
    8.9760   23.1470   42.9850 O   0  0  0  0  0
   10.4080   23.1840   40.4480 O   0  0  0  0  0
   12.6720   21.4350   42.7350 O   0  0  0  0  0
   14.3560   21.9910   40.5250 O   0  0  0  0  0
   11.8270   15.5020   41.9730 C   0  0  0  0  0
   11.2230   15.9680   43.3800 C   0  0  0  0  0
   10.7170   17.3690   43.2040 C   0  0  0  0  0
   11.8760   18.2890   42.7800 C   0  0  0  0  0
   12.5320   17.7740   41.4790 C   0  0  0  0  0
   13.8960   18.4540   41.2530 C   0  0  0  0  0
   10.1280   15.0440   43.6340 O   0  0  0  0  0
   10.1180   17.9470   44.5340 O   0  0  0  0  0
   11.3110   19.5910   42.5640 O   0  0  0  0  0
   12.8380   16.4190   41.5810 O   0  0  0  0  0
   14.2380   18.0360   39.7960 O   0  0  0  0  0
    9.0230   13.0360   38.0450 C   0  0  0  0  0
    9.2270   12.4600   39.6130 C   0  0  0  0  0
    9.4290   13.5370   40.5980 C   0  0  0  0  0
   10.5120   14.4930   40.2080 C   0  0  0  0  0
   10.2640   15.1240   38.7320 C   0  0  0  0  0
   11.5610   15.8780   38.2510 C   0  0  0  0  0
    7.9070   13.9670   38.0220 O   0  0  0  0  0
    8.0160   11.7690   39.8340 O   0  0  0  0  0
    9.8620   13.0090   41.9460 O   0  0  0  0  0
   10.7120   15.5950   41.0970 O   0  0  0  0  0
   10.0180   14.0260   37.9230 O   0  0  0  0  0
   11.0910   16.4510   37.0520 O   0  0  0  0  0
    9.1699   24.7424   41.1044 H   0  0  0  0  0
    8.3095   25.2940   38.9107 H   0  0  0  0  0
   10.2268   23.1767   37.8114 H   0  0  0  0  0
    9.9713   26.1344   37.3076 H   0  0  0  0  0
   12.2953   24.9827   38.8126 H   0  0  0  0  0
   10.9215   27.7164   38.4115 H   0  0  0  0  0
   12.4237   27.2324   37.6724 H   0  0  0  0  0
    7.4792   23.3348   39.9150 H   0  0  0  0  0
    8.1716   23.0539   36.8640 H   0  0  0  0  0
   11.1680   24.5565   35.8081 H   0  0  0  0  0
   12.7663   28.4153   39.6488 H   0  0  0  0  0
   12.2883   20.2441   44.3186 H   0  0  0  0  0
   10.8724   22.2464   44.5684 H   0  0  0  0  0
    9.5688   21.3264   42.0291 H   0  0  0  0  0
   11.3058   23.8576   42.2594 H   0  0  0  0  0
   12.0105   21.4336   40.7118 H   0  0  0  0  0
   13.9542   23.5628   41.8544 H   0  0  0  0  0
   13.2482   23.7617   40.3321 H   0  0  0  0  0
    8.9335   20.9599   44.8005 H   0  0  0  0  0
    8.6134   23.5532   42.1944 H   0  0  0  0  0
   15.1625   22.4015   40.2046 H   0  0  0  0  0
   12.2735   14.5077   41.9863 H   0  0  0  0  0
   11.9370   15.9601   44.2036 H   0  0  0  0  0
    9.9363   17.3337   42.4442 H   0  0  0  0  0
   12.6493   18.3147   43.5478 H   0  0  0  0  0
   11.8225   17.9807   40.6778 H   0  0  0  0  0
   14.6525   18.1477   41.9755 H   0  0  0  0  0
   13.8645   19.5346   41.3927 H   0  0  0  0  0
    9.7127   15.2641   44.4711 H   0  0  0  0  0
    9.8061   18.8419   44.3808 H   0  0  0  0  0
   15.0852   18.4126   39.5467 H   0  0  0  0  0
    8.9730   12.1976   37.3503 H   0  0  0  0  0
   10.1180   11.8423   39.7259 H   0  0  0  0  0
    8.4569   14.0284   40.6393 H   0  0  0  0  0
   11.4020   13.8645   40.2399 H   0  0  0  0  0
    9.4456   15.8437   38.7119 H   0  0  0  0  0
   12.4322   15.2347   38.1276 H   0  0  0  0  0
   11.9506   16.5999   38.9688 H   0  0  0  0  0
    7.7866   14.2985   37.1291 H   0  0  0  0  0
    8.0211   11.3909   40.7164 H   0  0  0  0  0
    9.9809   13.7433   42.5529 H   0  0  0  0  0
   11.7976   16.9539   36.6405 H   0  0  0  0  0
  1  2  1  0  0  0
  1 10  1  0  0  0
 20  1  1  0  0  0
  2  3  1  0  0  0
  2  7  1  0  0  0
  3  4  1  0  0  0
  3  8  1  0  0  0
  5  4  1  0  0  0
  4  9  1  0  0  0
  5  6  1  0  0  0
 10  5  1  0  0  0
  6 11  1  0  0  0
 12 13  1  0  0  0
 12 21  1  0  0  0
 31 12  1  0  0  0
 13 14  1  0  0  0
 13 18  1  0  0  0
 14 15  1  0  0  0
 14 19  1  0  0  0
 16 15  1  0  0  0
 15 20  1  0  0  0
 16 17  1  0  0  0
 21 16  1  0  0  0
 17 22  1  0  0  0
 23 24  1  0  0  0
 23 32  1  0  0  0
 43 23  1  0  0  0
 24 25  1  0  0  0
 24 29  1  0  0  0
 25 26  1  0  0  0
 25 30  1  0  0  0
 27 26  1  0  0  0
 26 31  1  0  0  0
 27 28  1  0  0  0
 32 27  1  0  0  0
 28 33  1  0  0  0
 35 34  1  0  0  0
 34 40  1  0  0  0
 34 44  1  0  0  0
 36 35  1  0  0  0
 35 41  1  0  0  0
 37 36  1  0  0  0
 36 42  1  0  0  0
 37 38  1  0  0  0
 37 43  1  0  0  0
 38 39  1  0  0  0
 38 44  1  0  0  0
 39 45  1  0  0  0
  1 46  1  0  0  0
  2 47  1  0  0  0
  3 48  1  0  0  0
  4 49  1  0  0  0
  5 50  1  0  0  0
  6 51  1  0  0  0
  6 52  1  0  0  0
  7 53  1  0  0  0
  8 54  1  0  0  0
  9 55  1  0  0  0
 11 56  1  0  0  0
 12 57  1  0  0  0
 13 58  1  0  0  0
 14 59  1  0  0  0
 15 60  1  0  0  0
 16 61  1  0  0  0
 17 62  1  0  0  0
 17 63  1  0  0  0
 18 64  1  0  0  0
 19 65  1  0  0  0
 22 66  1  0  0  0
 23 67  1  0  0  0
 24 68  1  0  0  0
 25 69  1  0  0  0
 26 70  1  0  0  0
 27 71  1  0  0  0
 28 72  1  0  0  0
 28 73  1  0  0  0
 29 74  1  0  0  0
 30 75  1  0  0  0
 33 76  1  0  0  0
 34 77  1  0  0  0
 35 78  1  0  0  0
 36 79  1  0  0  0
 37 80  1  0  0  0
 38 81  1  0  0  0
 39 82  1  0  0  0
 39 83  1  0  0  0
 40 84  1  0  0  0
 41 85  1  0  0  0
 42 86  1  0  0  0
 45 87  1  0  0  0
M  END
$$$$
