6qmt_ligand
  -I-interpret- 

 48 50  0  0  0  0  0  0  0  0999 V2000
   -7.4750    6.0020    2.2260 C   0  0  0  0  0
   -7.3700    5.2840    3.4450 C   0  0  0  0  0
   -7.8740    3.9820    3.5820 C   0  0  0  0  0
   -6.2500   11.3390    4.9460 C   0  0  0  0  0
   -5.2400   11.9450    4.1680 C   0  0  0  0  0
   -4.6740   11.2370    3.0890 C   0  0  0  0  0
   -5.1100    9.9250    2.7900 C   0  0  0  0  0
   -7.8020    9.4420    5.5340 C   0  0  0  0  0
   -7.4430    8.1200    6.1640 C   0  0  0  0  0
   -7.8280    3.2660    4.9030 C   0  0  0  0  0
   -7.7970    1.8530    4.9580 C   0  0  0  0  0
   -7.8130    1.1370    6.1690 C   0  0  0  0  0
   -7.8150    1.8600    7.3670 C   0  0  0  0  0
   -7.8370    3.2730    7.3540 C   0  0  0  0  0
   -7.8900    3.9810    6.1320 C   0  0  0  0  0
   -7.7330   -0.4090    6.1470 C   0  0  0  0  0
   -8.4950    3.3960    2.4650 C   0  0  0  0  0
   -8.5540    4.0610    1.2170 C   0  0  0  0  0
   -8.0440    5.3680    1.0970 C   0  0  0  0  0
   -6.9570    7.4220    2.1830 C   0  0  0  0  0
   -6.5630    7.9950    3.3350 N   0  0  0  0  0
   -6.1220    9.3260    3.5750 C   0  0  0  0  0
   -6.6560   10.0210    4.6790 C   0  0  0  0  0
   -6.3980    7.5260    5.9920 O   0  0  0  0  0
   -8.3550    7.6060    6.9710 O   0  0  0  0  0
   -6.9330    8.0260    1.1200 O   0  0  0  0  0
   -7.7520   -0.9920    7.5220 N   0  3  0  0  0
   -6.8844    5.7569    4.2986 H   0  0  0  0  0
   -6.7171   11.8965    5.7579 H   0  0  0  0  0
   -4.9000   12.9542    4.4004 H   0  0  0  0  0
   -3.8971   11.7023    2.4824 H   0  0  0  0  0
   -4.6675    9.3778    1.9576 H   0  0  0  0  0
   -8.0135   10.1496    6.3356 H   0  0  0  0  0
   -8.6598    9.2809    4.8811 H   0  0  0  0  0
   -7.7591    1.2951    4.0224 H   0  0  0  0  0
   -7.7995    1.3287    8.3186 H   0  0  0  0  0
   -7.8129    3.8220    8.2954 H   0  0  0  0  0
   -7.9778    5.0675    6.1308 H   0  0  0  0  0
   -6.7955   -0.6942    5.6696 H   0  0  0  0  0
   -8.6003   -0.7867    5.6055 H   0  0  0  0  0
   -8.9414    2.4064    2.5624 H   0  0  0  0  0
   -8.9925    3.5633    0.3521 H   0  0  0  0  0
   -8.0875    5.8879    0.1400 H   0  0  0  0  0
   -6.5835    7.3875    4.1541 H   0  0  0  0  0
   -9.1178    8.1881    7.0020 H   0  0  0  0  0
   -7.6977   -2.0086    7.4597 H   0  0  0  0  0
   -6.9540   -0.6394    8.0505 H   0  0  0  0  0
   -8.6172   -0.7247    7.9914 H   0  0  0  0  0
  1  2  4  0  0  0
  1 19  4  0  0  0
 20  1  1  0  0  0
  2  3  4  0  0  0
  3 10  1  0  0  0
  3 17  4  0  0  0
  5  4  4  0  0  0
  4 23  4  0  0  0
  6  5  4  0  0  0
  7  6  4  0  0  0
 22  7  4  0  0  0
  8  9  1  0  0  0
 23  8  1  0  0  0
  9 24  2  0  0  0
  9 25  1  0  0  0
 10 11  4  0  0  0
 10 15  4  0  0  0
 11 12  4  0  0  0
 12 13  4  0  0  0
 12 16  1  0  0  0
 14 13  4  0  0  0
 15 14  4  0  0  0
 16 27  1  0  0  0
 18 17  4  0  0  0
 19 18  4  0  0  0
 21 20  1  0  0  0
 20 26  2  0  0  0
 21 22  1  0  0  0
 22 23  4  0  0  0
  2 28  1  0  0  0
  4 29  1  0  0  0
  5 30  1  0  0  0
  6 31  1  0  0  0
  7 32  1  0  0  0
  8 33  1  0  0  0
  8 34  1  0  0  0
 11 35  1  0  0  0
 13 36  1  0  0  0
 14 37  1  0  0  0
 15 38  1  0  0  0
 16 39  1  0  0  0
 16 40  1  0  0  0
 17 41  1  0  0  0
 18 42  1  0  0  0
 19 43  1  0  0  0
 21 44  1  0  0  0
 25 45  1  0  0  0
 27 46  1  0  0  0
 27 47  1  0  0  0
 27 48  1  0  0  0
M  END
$$$$
