5vdu_ligand
  -I-interpret- 

 19 20  0  0  0  0  0  0  0  0999 V2000
  -30.6570   18.8680  -24.3650 N   0  0  0  0  0
  -30.2750   16.5340  -23.8920 C   0  0  0  0  0
  -31.2580   17.2240  -25.9840 N   0  0  0  0  0
  -31.6930   18.2090  -26.7810 C   0  0  0  0  0
  -30.7580   17.6070  -24.8030 C   0  0  0  0  0
  -31.1070   19.8140  -25.2020 C   0  0  0  0  0
  -31.6410   19.5390  -26.4380 C   0  0  0  0  0
  -29.8360   14.2430  -23.4100 C   0  0  0  0  0
  -29.3950   14.6170  -22.1620 C   0  0  0  0  0
  -29.4170   15.9570  -21.8410 C   0  0  0  0  0
  -29.8450   16.9170  -22.6770 N   0  0  0  0  0
  -30.2830   15.2060  -24.2940 C   0  0  0  0  0
  -32.1099   17.9418  -27.7520 H   0  0  0  0  0
  -31.0461   20.8553  -24.8856 H   0  0  0  0  0
  -32.0000   20.3245  -27.1031 H   0  0  0  0  0
  -29.8328   13.1923  -23.7000 H   0  0  0  0  0
  -29.0384   13.8750  -21.4476 H   0  0  0  0  0
  -29.0672   16.2546  -20.8525 H   0  0  0  0  0
  -30.6350   14.9281  -25.2875 H   0  0  0  0  0
  5  1  4  0  0  0
  1  6  4  0  0  0
  2  5  1  0  0  0
  2 11  4  0  0  0
 12  2  4  0  0  0
  3  4  4  0  0  0
  5  3  4  0  0  0
  4  7  4  0  0  0
  6  7  4  0  0  0
  8  9  4  0  0  0
  8 12  4  0  0  0
  9 10  4  0  0  0
 10 11  4  0  0  0
  4 13  1  0  0  0
  6 14  1  0  0  0
  7 15  1  0  0  0
  8 16  1  0  0  0
  9 17  1  0  0  0
 10 18  1  0  0  0
 12 19  1  0  0  0
M  END
$$$$
