6ggd_ligand
  -I-interpret- 

 43 46  0  0  0  0  0  0  0  0999 V2000
   91.4650   94.3150  -42.5340 N   0  0  0  0  0
   89.6380  100.2700  -40.9930 N   0  3  0  0  0
   91.1810   93.2470  -44.7930 C   0  0  0  0  0
   91.2120   94.3130  -43.8880 C   0  0  0  0  0
   90.9700   95.6330  -44.2630 C   0  0  0  0  0
   91.4000   95.6020  -42.0250 C   0  0  0  0  0
   91.0880   96.4440  -43.0960 C   0  0  0  0  0
   91.1380   98.3380  -41.5740 C   0  0  0  0  0
   91.7740   93.1090  -41.7820 C   0  0  0  0  0
   90.8560   92.4250  -47.0810 C   0  0  0  0  0
   90.4480   92.3570  -48.4280 C   0  0  0  0  0
   90.6800   95.9110  -45.6100 C   0  0  0  0  0
   90.6380   94.8470  -46.5280 C   0  0  0  0  0
   90.8780   93.5210  -46.1340 C   0  0  0  0  0
   90.9620   97.8260  -42.8680 C   0  0  0  0  0
   91.4610   97.4690  -40.5190 C   0  0  0  0  0
   91.5900   96.0910  -40.7210 C   0  0  0  0  0
   93.2760   92.9050  -41.6730 C   0  0  0  0  0
   91.3080   91.1520  -46.8170 C   0  0  0  0  0
   91.1650   90.3750  -47.9230 O   0  0  0  0  0
   90.6210   91.1400  -48.9490 N   0  0  0  0  0
   91.0100   99.8170  -41.3540 C   0  0  0  0  0
   89.5870  101.7090  -40.6270 C   0  0  0  0  0
   89.3328   99.7299  -40.1833 H   0  0  0  0  0
   89.0385  100.1324  -41.8067 H   0  0  0  0  0
   91.3873   92.2286  -44.4638 H   0  0  0  0  0
   91.3416   92.2532  -42.3004 H   0  0  0  0  0
   91.3607   93.2073  -40.7782 H   0  0  0  0  0
   90.0379   93.2017  -48.9815 H   0  0  0  0  0
   90.4910   96.9335  -45.9370 H   0  0  0  0  0
   90.4131   95.0572  -47.5736 H   0  0  0  0  0
   90.7283   98.4973  -43.6944 H   0  0  0  0  0
   91.6146   97.8777  -39.5203 H   0  0  0  0  0
   91.8295   95.4199  -39.8961 H   0  0  0  0  0
   93.7024   92.8137  -42.6720 H   0  0  0  0  0
   93.7214   93.7593  -41.1632 H   0  0  0  0  0
   93.4777   91.9962  -41.1060 H   0  0  0  0  0
   91.7188   90.8174  -45.8644 H   0  0  0  0  0
   91.6612  100.0732  -40.5183 H   0  0  0  0  0
   91.2700  100.3035  -42.2941 H   0  0  0  0  0
   90.2348  101.8875  -39.7688 H   0  0  0  0  0
   89.9263  102.3095  -41.4710 H   0  0  0  0  0
   88.5626  101.9821  -40.3736 H   0  0  0  0  0
  4  1  4  0  0  0
  1  6  4  0  0  0
  1  9  1  0  0  0
 22  2  1  0  0  0
  2 23  1  0  0  0
  3  4  4  0  0  0
 14  3  4  0  0  0
  4  5  4  0  0  0
  5  7  4  0  0  0
  5 12  4  0  0  0
  7  6  4  0  0  0
  6 17  4  0  0  0
  7 15  4  0  0  0
 15  8  4  0  0  0
  8 16  4  0  0  0
  8 22  1  0  0  0
  9 18  1  0  0  0
 10 11  4  0  0  0
 10 14  1  0  0  0
 10 19  4  0  0  0
 11 21  4  0  0  0
 12 13  4  0  0  0
 13 14  4  0  0  0
 16 17  4  0  0  0
 19 20  4  0  0  0
 20 21  4  0  0  0
  2 24  1  0  0  0
  2 25  1  0  0  0
  3 26  1  0  0  0
  9 27  1  0  0  0
  9 28  1  0  0  0
 11 29  1  0  0  0
 12 30  1  0  0  0
 13 31  1  0  0  0
 15 32  1  0  0  0
 16 33  1  0  0  0
 17 34  1  0  0  0
 18 35  1  0  0  0
 18 36  1  0  0  0
 18 37  1  0  0  0
 19 38  1  0  0  0
 22 39  1  0  0  0
 22 40  1  0  0  0
 23 41  1  0  0  0
 23 42  1  0  0  0
 23 43  1  0  0  0
M  END
$$$$
