4uco_ligand
  -I-interpret- 

 40 42  0  0  0  0  0  0  0  0999 V2000
  112.1760   85.9380   28.5990 O   0  0  0  0  0
  111.6810   87.0460   28.8500 C   0  0  0  0  0
  111.7880   87.6090   30.0520 N   0  0  0  0  0
  110.9240   87.7780   27.7810 C   0  0  0  0  0
  110.8070   89.1440   27.8220 C   0  0  0  0  0
  110.3120   87.0760   26.6010 C   0  0  0  0  0
  110.4050   85.7440   26.5170 N   0  0  0  0  0
  109.6350   87.7190   25.6560 N   0  0  0  0  0
  109.5220   89.0770   25.7500 C   0  0  0  0  0
  108.8280   89.6620   24.7300 N   0  0  0  0  0
  108.6930   90.9840   24.8160 C   0  0  0  0  0
  107.8840   91.6220   23.6530 C   0  0  0  0  0
  107.8080   93.1510   23.7510 C   0  0  0  0  0
  106.4490   91.0710   23.6180 C   0  0  0  0  0
  108.5400   91.2760   22.3110 C   0  0  0  0  0
  110.0750   89.8250   26.8210 C   0  0  0  0  0
  109.8500   91.2430   26.7680 C   0  0  0  0  0
  109.1660   91.8080   25.7550 N   0  0  0  0  0
  110.3360   92.2470   27.7240 C   0  0  0  0  0
  110.0330   93.5580   27.4480 N   0  0  0  0  0
  110.5670   94.3630   28.4000 C   0  0  0  0  0
  111.2080   93.5840   29.3150 C   0  0  0  0  0
  111.1030   92.2520   28.8780 C   0  0  0  0  0
  112.2889   87.1268   30.7983 H   0  0  0  0  0
  111.3691   88.5225   30.2264 H   0  0  0  0  0
  111.2791   89.7062   28.6277 H   0  0  0  0  0
  110.8861   85.2193   27.2475 H   0  0  0  0  0
  109.9948   85.2532   25.7225 H   0  0  0  0  0
  107.3238   93.4302   24.6868 H   0  0  0  0  0
  108.8155   93.5661   23.7237 H   0  0  0  0  0
  107.2308   93.5393   22.9119 H   0  0  0  0  0
  106.4793   89.9910   23.4741 H   0  0  0  0  0
  105.9504   91.2995   24.5599 H   0  0  0  0  0
  105.9036   91.5333   22.7952 H   0  0  0  0  0
  109.5590   91.6625   22.2958 H   0  0  0  0  0
  108.5588   90.1934   22.1856 H   0  0  0  0  0
  107.9669   91.7270   21.5009 H   0  0  0  0  0
  110.4952   95.4503   28.4281 H   0  0  0  0  0
  111.7096   93.9295   30.2189 H   0  0  0  0  0
  111.5453   91.3802   29.3601 H   0  0  0  0  0
  1  2  2  0  0  0
  2  3  1  0  0  0
  2  4  1  0  0  0
  4  5  4  0  0  0
  4  6  4  0  0  0
  5 16  4  0  0  0
  6  7  1  0  0  0
  6  8  4  0  0  0
  8  9  4  0  0  0
  9 10  4  0  0  0
  9 16  4  0  0  0
 10 11  4  0  0  0
 11 12  1  0  0  0
 11 18  4  0  0  0
 12 13  1  0  0  0
 12 14  1  0  0  0
 12 15  1  0  0  0
 16 17  4  0  0  0
 17 18  4  0  0  0
 17 19  1  0  0  0
 19 20  4  0  0  0
 19 23  4  0  0  0
 20 21  4  0  0  0
 21 22  4  0  0  0
 22 23  4  0  0  0
  3 24  1  0  0  0
  3 25  1  0  0  0
  5 26  1  0  0  0
  7 27  1  0  0  0
  7 28  1  0  0  0
 13 29  1  0  0  0
 13 30  1  0  0  0
 13 31  1  0  0  0
 14 32  1  0  0  0
 14 33  1  0  0  0
 14 34  1  0  0  0
 15 35  1  0  0  0
 15 36  1  0  0  0
 15 37  1  0  0  0
 21 38  1  0  0  0
 22 39  1  0  0  0
 23 40  1  0  0  0
M  END
$$$$
