4nkt_ligand
  -I-interpret- 

 45 46  0  0  0  0  0  0  0  0999 V2000
   63.6670   19.2900   93.6550 P   0  0  0  0  0
   65.0990   18.8440   94.1920 O   0  0  0  0  0
   62.8440   19.7890   94.8050 O   0  0  0  0  0
   62.9310   18.0020   92.9080 N   0  0  0  0  0
   63.9070   20.4890   92.6320 O   0  0  0  0  0
   61.5380   17.4750   93.6130 P   0  0  0  0  0
   60.6270   18.6880   94.0670 O   0  0  0  0  0
   60.8360   16.7370   92.5270 O   0  0  0  0  0
   61.7110   16.3910   94.7960 O   0  0  0  0  0
   61.6050   16.6820   96.3400 P   0  0  0  0  0
   60.3740   16.1090   96.8020 O   0  0  0  0  0
   61.6170   18.1410   96.6620 O   0  0  0  0  0
   62.7430   16.0420   97.0820 O   0  0  0  0  0
   62.8670   20.9490   91.7790 C   0  0  0  0  0
   63.2620   21.8670   90.7040 C   0  0  0  0  0
   63.8890   23.0500   91.2240 O   0  0  0  0  0
   64.9530   23.3870   90.3610 C   0  0  0  0  0
   64.8730   22.4230   89.2540 C   0  0  0  0  0
   64.0450   22.8760   88.2140 O   0  0  0  0  0
   64.2730   21.2570   89.8760 C   0  0  0  0  0
   63.7100   20.3410   88.9530 O   0  0  0  0  0
   66.2180   23.3130   91.0300 N   0  0  0  0  0
   66.3670   22.5720   92.1720 C   0  0  0  0  0
   67.2990   23.9780   90.5080 C   0  0  0  0  0
   67.1580   24.6730   89.4300 O   0  0  0  0  0
   68.5020   23.9200   91.1020 N   0  0  0  0  0
   68.6980   23.2050   92.2230 C   0  0  0  0  0
   69.9420   23.1390   92.8210 O   0  0  0  0  0
   67.6050   22.4930   92.8070 C   0  0  0  0  0
   65.6291   18.5238   93.4585 H   0  0  0  0  0
   63.3153   17.5666   92.0695 H   0  0  0  0  0
   61.0682   19.1733   94.7680 H   0  0  0  0  0
   62.4396   18.5287   96.3544 H   0  0  0  0  0
   63.5727   16.4189   96.7800 H   0  0  0  0  0
   62.1785   21.5059   92.4146 H   0  0  0  0  0
   62.4647   20.0631   91.2877 H   0  0  0  0  0
   62.3492   22.1033   90.1571 H   0  0  0  0  0
   64.8724   24.4149   90.0074 H   0  0  0  0  0
   65.8478   22.2432   88.8007 H   0  0  0  0  0
   64.0219   22.2181   87.5152 H   0  0  0  0  0
   64.9977   20.6434   90.4112 H   0  0  0  0  0
   64.4090   19.9551   88.4200 H   0  0  0  0  0
   65.5110   22.0401   92.5873 H   0  0  0  0  0
   69.2848   24.4302   90.6931 H   0  0  0  0  0
   67.7352   21.9083   93.7177 H   0  0  0  0  0
  1  2  1  0  0  0
  1  3  2  0  0  0
  1  4  1  0  0  0
  1  5  1  0  0  0
  4  6  1  0  0  0
  5 14  1  0  0  0
  6  7  1  0  0  0
  6  8  2  0  0  0
  6  9  1  0  0  0
  9 10  1  0  0  0
 10 11  2  0  0  0
 10 12  1  0  0  0
 10 13  1  0  0  0
 14 15  1  0  0  0
 15 16  1  0  0  0
 15 20  1  0  0  0
 16 17  1  0  0  0
 17 18  1  0  0  0
 17 22  1  0  0  0
 18 19  1  0  0  0
 18 20  1  0  0  0
 20 21  1  0  0  0
 22 23  1  0  0  0
 22 24  1  0  0  0
 23 29  2  0  0  0
 24 25  2  0  0  0
 24 26  1  0  0  0
 26 27  1  0  0  0
 27 28  2  0  0  0
 27 29  1  0  0  0
  2 30  1  0  0  0
  4 31  1  0  0  0
  7 32  1  0  0  0
 12 33  1  0  0  0
 13 34  1  0  0  0
 14 35  1  0  0  0
 14 36  1  0  0  0
 15 37  1  0  0  0
 17 38  1  0  0  0
 18 39  1  0  0  0
 19 40  1  0  0  0
 20 41  1  0  0  0
 21 42  1  0  0  0
 23 43  1  0  0  0
 26 44  1  0  0  0
 29 45  1  0  0  0
M  END
$$$$
