3p44_ligand
  -I-interpret- 

 35 45  0  0  0  0  0  0  0  0999 V2000
   17.3150    8.5670   12.2170 N   0  0  0  0  0
   16.7120    7.7070   12.8610 N   0  0  0  0  0
   17.8710    5.0970   14.7890 C   0  0  0  0  0
   17.4060    4.0510   15.5790 C   0  0  0  0  0
   13.9940    2.7550   17.0240 O   0  0  0  0  0
   18.5770    8.5090   12.6240 C   0  0  0  0  0
   17.4590    7.1090   13.6400 N   0  0  0  0  0
   17.0120    6.1200   14.4080 C   0  0  0  0  0
   16.0770    4.0270   15.9850 C   0  0  0  0  0
   15.4920    2.7100   16.9770 S   0  0  0  0  0
   15.9730    1.2920   16.3350 N   0  0  0  0  0
   18.7020    7.5770   13.5590 C   0  0  0  0  0
   15.6850    6.1000   14.8220 C   0  0  0  0  0
   15.2180    5.0530   15.6090 C   0  0  0  0  0
   16.0360    2.8430   18.3680 O   0  0  0  0  0
   19.5710    9.2490   12.1390 C   0  0  0  0  0
   20.8660    9.0870   12.3960 C   0  0  0  0  0
   21.5410    9.9850   11.6830 C   0  0  0  0  0
   20.6640   10.7020   10.9870 C   0  0  0  0  0
   19.4460   10.2480   11.2690 C   0  0  0  0  0
   19.3000   11.8430   15.1500 C   0  0  0  0  0
   19.1780   12.8410   14.2800 C   0  0  0  0  0
   20.3980   13.2920   14.0010 C   0  0  0  0  0
   21.2730   12.5730   14.6980 C   0  0  0  0  0
   20.5940   11.6760   15.4080 C   0  0  0  0  0
   20.2830   11.1500   13.2000 Ru  0  0  0  0  0
   18.9125    5.1141   14.4679 H   0  0  0  0  0
   18.0829    3.2512   15.8793 H   0  0  0  0  0
   15.2797    0.6043   16.0403 H   0  0  0  0  0
   16.9674    1.0919   16.2278 H   0  0  0  0  0
   19.5893    7.2740   14.1148 H   0  0  0  0  0
   15.0107    6.9050   14.5297 H   0  0  0  0  0
   14.1769    5.0369   15.9315 H   0  0  0  0  0
   18.6496   10.2570   10.5248 H   0  0  0  0  0
   20.9404   11.3458   16.3873 H   0  0  0  0  0
  1  2  4  0  0  0
  6  1  4  0  0  0
  7  2  4  0  0  0
  3  4  4  0  0  0
  8  3  4  0  0  0
  4  9  4  0  0  0
 10  5  2  0  0  0
  6 12  4  0  0  0
 16  6  1  0  0  0
  7  8  1  0  0  0
 12  7  4  0  0  0
  8 13  4  0  0  0
  9 10  1  0  0  0
 14  9  4  0  0  0
 10 11  1  0  0  0
 10 15  2  0  0  0
 13 14  4  0  0  0
 17 16  2  0  0  0
 20 16  1  0  0  0
 18 17  1  0  0  0
 19 18  2  0  0  0
 20 19  1  0  0  0
 21 22  2  0  0  0
 21 25  1  0  0  0
 22 23  1  0  0  0
 24 23  2  0  0  0
 25 24  1  0  0  0
 26 17  1  0  0  0
 26 18  1  0  0  0
 26 19  1  0  0  0
 26 20  1  0  0  0
 26 21  1  0  0  0
 26 22  1  0  0  0
 26 23  1  0  0  0
 26 24  1  0  0  0
 26 25  1  0  0  0
  3 27  1  0  0  0
  4 28  1  0  0  0
 11 29  1  0  0  0
 11 30  1  0  0  0
 12 31  1  0  0  0
 13 32  1  0  0  0
 14 33  1  0  0  0
 20 34  1  0  0  0
 25 35  1  0  0  0
M  END
$$$$
