3qts_ligand
  -I-interpret- 

 40 42  0  0  0  0  0  0  0  0999 V2000
   94.6970   77.1150  -45.9280 C   0  0  0  0  0
   91.5880   81.7670  -51.0210 N   0  0  0  0  0
   91.9990   80.7250  -48.6970 S   0  0  0  0  0
   94.6490   78.6040  -45.9850 C   0  0  0  0  0
   93.1730   80.5960  -52.3660 N   0  0  0  0  0
   94.4070   79.2600  -47.2610 C   0  0  0  0  0
   90.1470   82.6800  -49.3430 N   0  0  0  0  0
   94.6470   78.7150  -50.9120 O   0  0  0  0  0
   94.2590   76.9840  -48.4130 C   0  0  0  0  0
   94.5010   76.3100  -47.1560 C   0  0  0  0  0
   94.8310   79.4290  -44.8390 O   0  0  0  0  0
   95.0620   79.0020  -43.5900 C   0  0  0  0  0
   94.2060   78.4580  -48.5010 C   0  0  0  0  0
   93.9560   79.1040  -49.8330 C   0  0  0  0  0
   92.9190   80.1850  -49.9980 C   0  0  0  0  0
   92.5840   80.8460  -51.1720 C   0  0  0  0  0
   91.1660   81.8130  -49.7360 C   0  0  0  0  0
   89.3870   82.6670  -48.1580 C   0  0  0  0  0
   89.5380   81.6480  -47.0320 C   0  0  0  0  0
   88.7290   81.7050  -45.8450 C   0  0  0  0  0
   87.7360   82.7710  -45.7110 C   0  0  0  0  0
   87.5680   83.7710  -46.7920 C   0  0  0  0  0
   88.3730   83.7200  -47.9870 C   0  0  0  0  0
   94.8775   76.6153  -44.9763 H   0  0  0  0  0
   92.8753   81.1053  -53.1981 H   0  0  0  0  0
   93.9142   79.8985  -52.4329 H   0  0  0  0  0
   94.3724   80.3483  -47.3105 H   0  0  0  0  0
   89.9218   83.4241  -50.0033 H   0  0  0  0  0
   94.3643   79.2269  -51.6733 H   0  0  0  0  0
   94.1124   76.3910  -49.3157 H   0  0  0  0  0
   94.5387   75.2215  -47.1130 H   0  0  0  0  0
   94.2310   78.3780  -43.2612 H   0  0  0  0  0
   95.9841   78.4211  -43.5707 H   0  0  0  0  0
   95.1581   79.8608  -42.9257 H   0  0  0  0  0
   94.1658   79.2357  -48.7715 H   0  0  0  0  0
   90.2796   80.8552  -47.1305 H   0  0  0  0  0
   88.8538   80.9640  -45.0555 H   0  0  0  0  0
   87.1186   82.8299  -44.8146 H   0  0  0  0  0
   86.8228   84.5588  -46.6816 H   0  0  0  0  0
   88.2297   84.4660  -48.7687 H   0  0  0  0  0
  4  1  4  0  0  0
 10  1  4  0  0  0
  2 16  4  0  0  0
 17  2  4  0  0  0
 15  3  4  0  0  0
  3 17  4  0  0  0
  6  4  4  0  0  0
  4 11  1  0  0  0
 16  5  1  0  0  0
 13  6  4  0  0  0
 17  7  1  0  0  0
  7 18  1  0  0  0
 14  8  1  0  0  0
  9 10  4  0  0  0
 13  9  4  0  0  0
 11 12  1  0  0  0
 14 13  1  0  0  0
 14 15  1  0  0  0
 15 16  4  0  0  0
 18 19  4  0  0  0
 18 23  4  0  0  0
 19 20  4  0  0  0
 20 21  4  0  0  0
 21 22  4  0  0  0
 22 23  4  0  0  0
  1 24  1  0  0  0
  5 25  1  0  0  0
  5 26  1  0  0  0
  6 27  1  0  0  0
  7 28  1  0  0  0
  8 29  1  0  0  0
  9 30  1  0  0  0
 10 31  1  0  0  0
 12 32  1  0  0  0
 12 33  1  0  0  0
 12 34  1  0  0  0
 14 35  1  0  0  0
 19 36  1  0  0  0
 20 37  1  0  0  0
 21 38  1  0  0  0
 22 39  1  0  0  0
 23 40  1  0  0  0
M  END
$$$$
