5ho7_ligand
  -I-interpret- 

 23 23  0  0  0  0  0  0  0  0999 V2000
   41.0060   14.9350    2.9950 C   0  0  0  0  0
   42.1030   14.3910    3.6370 C   0  0  0  0  0
   41.3310   16.3590    2.8270 C   0  0  0  0  0
   42.2200   13.0740    4.0140 N   0  0  0  0  0
   44.2190   15.3430    4.3920 C   0  0  0  0  0
   40.1740   18.7970    3.4110 C   0  0  0  0  0
   39.8040   14.1930    2.5840 C   0  0  0  0  0
   43.0060   15.4030    3.8200 N   0  0  0  0  0
   42.5040   16.5830    3.3100 N   0  0  0  0  0
   40.4370   17.6280    2.0430 S   0  0  0  0  0
   38.8230   14.8040    1.8840 N   0  0  0  0  0
   39.6970   13.0070    2.8630 O   0  0  0  0  0
   44.9770   16.4630    4.4790 N   0  0  0  0  0
   44.6300   14.2900    4.8380 O   0  0  0  0  0
   41.4615   12.4194    3.8227 H   0  0  0  0  0
   43.0653   12.7515    4.4850 H   0  0  0  0  0
   39.6132   18.3045    4.2054 H   0  0  0  0  0
   41.1389   19.1265    3.7962 H   0  0  0  0  0
   39.6128   19.6582    3.0485 H   0  0  0  0  0
   38.0003   14.2764    1.5920 H   0  0  0  0  0
   38.9051   15.7928    1.6476 H   0  0  0  0  0
   45.8959   16.4239    4.9200 H   0  0  0  0  0
   44.6286   17.3450    4.1035 H   0  0  0  0  0
  1  2  4  0  0  0
  1  3  4  0  0  0
  1  7  1  0  0  0
  2  4  1  0  0  0
  2  8  4  0  0  0
  3  9  4  0  0  0
  3 10  1  0  0  0
  8  5  1  0  0  0
  5 13  1  0  0  0
  5 14  2  0  0  0
 10  6  1  0  0  0
  7 11  1  0  0  0
  7 12  2  0  0  0
  8  9  4  0  0  0
  4 15  1  0  0  0
  4 16  1  0  0  0
  6 17  1  0  0  0
  6 18  1  0  0  0
  6 19  1  0  0  0
 11 20  1  0  0  0
 11 21  1  0  0  0
 13 22  1  0  0  0
 13 23  1  0  0  0
M  END
$$$$
