1amk_ligand
  -I-interpret- 

 14 13  0  0  0  0  0  0  0  0999 V2000
    8.0940   -1.7350   18.4460 P   0  0  0  0  0
    8.9420   -0.5090   18.7230 O   0  0  0  0  0
    8.4690   -3.1080   18.9080 O   0  0  0  0  0
    6.5410   -1.3810   18.5750 O   0  0  0  0  0
    7.9310   -2.0970   16.8860 O   0  0  0  0  0
    9.1670   -2.4150   16.2890 C   0  0  0  0  0
    8.9070   -2.4510   14.7910 C   0  0  0  0  0
    9.8920   -2.1350   13.9990 O   0  0  0  0  0
    7.8380   -2.8150   14.3180 O   0  0  0  0  0
    8.5201    0.2637   18.3401 H   0  0  0  0  0
    6.3903   -0.4873   18.2584 H   0  0  0  0  0
    9.5464   -3.3715   16.6485 H   0  0  0  0  0
    9.9301   -1.6787   16.5413 H   0  0  0  0  0
   10.6519   -1.8733   14.5240 H   0  0  0  0  0
  1  2  1  0  0  0
  1  3  2  0  0  0
  1  4  1  0  0  0
  1  5  1  0  0  0
  5  6  1  0  0  0
  6  7  1  0  0  0
  7  8  1  0  0  0
  7  9  2  0  0  0
  2 10  1  0  0  0
  4 11  1  0  0  0
  6 12  1  0  0  0
  6 13  1  0  0  0
  8 14  1  0  0  0
M  END
$$$$
