4rrr_ligand
  -I-interpret- 

 48 50  0  0  0  0  0  0  0  0999 V2000
   -7.9850    4.1970   14.1550 C   0  0  0  0  0
   -7.9310    2.0520   12.9710 N   0  3  0  0  0
   -9.2100    4.4690   13.6320 O   0  0  0  0  0
  -14.0350    7.2120   16.6140 N   0  0  0  0  0
  -13.3870    6.0640   16.6980 C   0  0  0  0  0
  -12.1200    6.0040   17.0710 N   0  0  0  0  0
  -11.4460    7.1210   17.3760 C   0  0  0  0  0
  -12.0910    8.3470   17.2970 C   0  0  0  0  0
  -13.4250    8.3700   16.9070 C   0  0  0  0  0
  -14.0870    9.5210   16.8460 N   0  0  0  0  0
  -11.2160    9.2880   17.6320 N   0  0  0  0  0
  -10.0640    8.6840   17.9140 C   0  0  0  0  0
   -7.5020    4.7720   15.2530 N   0  0  0  0  0
  -10.1990    7.3670   17.7680 N   0  0  0  0  0
   -7.1000    3.1680   13.4470 C   0  0  0  0  0
   -6.3950    3.8210   12.2560 C   0  0  0  0  0
   -5.4170    2.9180   11.7330 O   0  0  0  0  0
   -9.1510    6.3770   18.1070 C   0  0  0  0  0
   -9.0640    5.1800   17.1580 C   0  0  0  0  0
   -8.3280    4.1320   17.7950 O   0  0  0  0  0
   -8.2330    5.7850   16.0290 C   0  0  0  0  0
   -7.2290    6.6450   16.7970 C   0  0  0  0  0
   -7.8810    7.0450   18.0150 O   0  0  0  0  0
   -6.8700    7.8670   15.9470 C   0  0  0  0  0
   -8.0610    8.5560   15.5560 O   0  0  0  0  0
   -5.7620    5.1590   12.6440 C   0  0  0  0  0
   -8.4009    1.6168   13.7649 H   0  0  0  0  0
   -8.6270    2.4041   12.3137 H   0  0  0  0  0
   -7.3395    1.3637   12.5054 H   0  0  0  0  0
  -13.9115    5.1404   16.4530 H   0  0  0  0  0
  -15.0700    9.5302   16.5740 H   0  0  0  0  0
  -13.6120   10.3951   17.0712 H   0  0  0  0  0
   -9.1482    9.1907   18.2185 H   0  0  0  0  0
   -6.5743    4.4953   15.5741 H   0  0  0  0  0
   -6.3524    2.7956   14.1474 H   0  0  0  0  0
   -7.1337    4.0341   11.4833 H   0  0  0  0  0
   -4.9736    3.3260   10.9856 H   0  0  0  0  0
   -9.4030    5.9968   19.0970 H   0  0  0  0  0
  -10.0185    4.7552   16.8473 H   0  0  0  0  0
   -8.2703    3.3779   17.2037 H   0  0  0  0  0
   -8.8513    6.3151   15.3046 H   0  0  0  0  0
   -6.3084    6.1050   17.0184 H   0  0  0  0  0
   -6.3352    7.5398   15.0554 H   0  0  0  0  0
   -6.2417    8.5391   16.5315 H   0  0  0  0  0
   -7.8273    9.3201   15.0239 H   0  0  0  0  0
   -6.5377    5.8367   13.0005 H   0  0  0  0  0
   -5.0283    4.9970   13.4336 H   0  0  0  0  0
   -5.2707    5.5931   11.7732 H   0  0  0  0  0
  1  3  2  0  0  0
 13  1  1  0  0  0
  1 15  1  0  0  0
 15  2  1  0  0  0
  5  4  4  0  0  0
  9  4  4  0  0  0
  6  5  4  0  0  0
  7  6  4  0  0  0
  7  8  4  0  0  0
 14  7  4  0  0  0
  8  9  4  0  0  0
 11  8  4  0  0  0
  9 10  1  0  0  0
 12 11  4  0  0  0
 14 12  4  0  0  0
 21 13  1  0  0  0
 18 14  1  0  0  0
 15 16  1  0  0  0
 16 17  1  0  0  0
 16 26  1  0  0  0
 19 18  1  0  0  0
 18 23  1  0  0  0
 19 20  1  0  0  0
 19 21  1  0  0  0
 21 22  1  0  0  0
 22 23  1  0  0  0
 22 24  1  0  0  0
 24 25  1  0  0  0
  2 27  1  0  0  0
  2 28  1  0  0  0
  2 29  1  0  0  0
  5 30  1  0  0  0
 10 31  1  0  0  0
 10 32  1  0  0  0
 12 33  1  0  0  0
 13 34  1  0  0  0
 15 35  1  0  0  0
 16 36  1  0  0  0
 17 37  1  0  0  0
 18 38  1  0  0  0
 19 39  1  0  0  0
 20 40  1  0  0  0
 21 41  1  0  0  0
 22 42  1  0  0  0
 24 43  1  0  0  0
 24 44  1  0  0  0
 25 45  1  0  0  0
 26 46  1  0  0  0
 26 47  1  0  0  0
 26 48  1  0  0  0
M  END
$$$$
