### 
### Created by X-TOOL on Mon Sep 10 21:12:49 2018
### 

@<TRIPOS>MOLECULE
1g7p_ligand
  147   148     1     0     0
SMALL
GAST_HUCK


@<TRIPOS>ATOM
      1 N          49.7200   56.9760    4.6870 N.4       1 SER         0.2396
      2 CA         48.6050   57.9230    4.4000 C.3       1 SER         0.0885
      3 C          48.1220   57.7360    2.9690 C.2       1 SER         0.2290
      4 O          48.9240   57.6130    2.0450 O.2       1 SER        -0.3906
      5 CB         49.0770   59.3660    4.6050 C.3       1 SER         0.1041
      6 OG         48.0310   60.2860    4.3560 O.3       1 SER        -0.3870
      7 N          46.8030   57.7290    2.8010 N.am      1 ARG        -0.2609
      8 CA         46.1700   57.5430    1.5010 C.3       1 ARG         0.1312
      9 C          46.2080   58.7420    0.5620 C.2       1 ARG         0.2040
     10 O          46.2950   59.8900    0.9920 O.2       1 ARG        -0.3944
     11 CB         44.7120   57.1250    1.7060 C.3       1 ARG        -0.0092
     12 CG         44.5370   55.6510    1.9850 C.3       1 ARG        -0.0156
     13 CD         44.6570   54.8580    0.6970 C.3       1 ARG         0.0627
     14 NE         43.4640   54.9950   -0.1350 N.pl3     1 ARG        -0.2723
     15 CZ         43.4790   55.1250   -1.4570 C.cat     1 ARG         0.2882
     16 NH1        44.6320   55.1450   -2.1130 N.pl3     1 ARG        -0.2849
     17 NH2        42.3390   55.2230   -2.1260 N.pl3     1 ARG        -0.2849
     18 N          46.1310   58.4520   -0.7320 N.am      1 ASP        -0.2622
     19 CA         46.1120   59.4810   -1.7640 C.3       1 ASP         0.1423
     20 C          44.6730   60.0040   -1.8200 C.2       1 ASP         0.2057
     21 O          43.7720   59.3930   -1.2430 O.2       1 ASP        -0.3943
     22 CB         46.4910   58.8650   -3.1110 C.3       1 ASP         0.0406
     23 CG         46.5680   59.8900   -4.2250 C.2       1 ASP         0.0393
     24 OD1        46.4680   59.4840   -5.4020 O.co2     1 ASP        -0.5688
     25 OD2        46.7380   61.0940   -3.9310 O.co2     1 ASP        -0.5688
     26 N          44.4550   61.1280   -2.4980 N.am      1 HIS        -0.2618
     27 CA         43.1110   61.6950   -2.6160 C.3       1 HIS         0.1421
     28 C          43.0260   62.7070   -3.7560 C.2       1 HIS         0.2061
     29 O          44.0470   63.1250   -4.3020 O.2       1 HIS        -0.3942
     30 CB         42.6920   62.3710   -1.3040 C.3       1 HIS         0.0427
     31 CG         43.4820   63.6000   -0.9750 C.2       1 HIS         0.0561
     32 ND1        44.8050   63.5570   -0.5930 N.pl3     1 HIS        -0.2623
     33 CD2        43.1380   64.9100   -0.9880 C.2       1 HIS        -0.0276
     34 CE1        45.2430   64.7860   -0.3840 C.2       1 HIS         0.0875
     35 NE2        44.2500   65.6260   -0.6170 N.2       1 HIS        -0.3437
     36 N          41.8020   63.1020   -4.1030 N.am      1 SER        -0.2614
     37 CA         41.5630   64.0630   -5.1800 C.3       1 SER         0.1539
     38 C          42.1030   63.5400   -6.5080 C.2       1 SER         0.2062
     39 O          42.7230   64.2740   -7.2760 O.2       1 SER        -0.3943
     40 CB         42.2100   65.4130   -4.8480 C.3       1 SER         0.0843
     41 OG         41.6180   65.9970   -3.6970 O.3       1 SER        -0.3903
     42 N          41.8520   62.2630   -6.7710 N.am      1 ARG        -0.2637
     43 CA         42.3040   61.6140   -7.9960 C.3       1 ARG         0.1311
     44 C          41.4080   61.9930   -9.1790 C.2       1 ARG         0.2040
     45 O          40.2640   62.4120   -8.9950 O.2       1 ARG        -0.3944
     46 CB         42.3040   60.0940   -7.7830 C.3       1 ARG        -0.0092
     47 CG         42.8780   59.2670   -8.9220 C.3       1 ARG        -0.0156
     48 CD         41.7860   58.5470   -9.6990 C.3       1 ARG         0.0627
     49 NE         40.9190   57.7480   -8.8350 N.pl3     1 ARG        -0.2723
     50 CZ         39.9320   56.9750   -9.2800 C.cat     1 ARG         0.2882
     51 NH1        39.1900   56.2830   -8.4250 N.pl3     1 ARG        -0.2849
     52 NH2        39.6880   56.8930  -10.5810 N.pl3     1 ARG        -0.2849
     53 N          41.9390   61.8650  -10.3910 N.am      1 THR        -0.2613
     54 CA         41.1750   62.1830  -11.5930 C.3       1 THR         0.1567
     55 C          40.2350   61.0100  -11.8690 C.2       1 THR         0.2090
     56 O          40.6520   59.8580  -11.8360 O.2       1 THR        -0.3941
     57 CB         42.1120   62.3820  -12.8110 C.3       1 THR         0.0924
     58 OG1        43.1060   63.3680  -12.4970 O.3       1 THR        -0.3874
     59 CG2        41.3200   62.8480  -14.0270 C.3       1 THR        -0.0346
     60 N          38.9500   61.2870  -12.1420 N.am      1 PRO        -0.2498
     61 CA         38.0100   60.1940  -12.4100 C.3       1 PRO         0.1337
     62 C          38.3540   59.4080  -13.6740 C.2       1 PRO         0.2035
     63 O          39.0460   59.9120  -14.5560 O.2       1 PRO        -0.3944
     64 CB         36.6710   60.9180  -12.5300 C.3       1 PRO        -0.0104
     65 CG         37.0710   62.2290  -13.1390 C.3       1 PRO        -0.0281
     66 CD         38.3030   62.5980  -12.3350 C.3       1 PRO         0.0369
     67 N          37.8630   58.1770  -13.7550 N.am      1 MET        -0.2695
     68 CA         38.1050   57.3270  -14.9180 C.3       1 MET         0.0951
     69 C          37.2990   57.7760  -16.1350 C.2       1 MET         0.0601
     70 O          37.6840   57.3990  -17.2650 O.co2     1 MET        -0.5666
     71 CB         37.7700   55.8700  -14.5950 C.3       1 MET        -0.0089
     72 CG         38.7910   55.1780  -13.7170 C.3       1 MET        -0.0030
     73 SD         38.3290   53.4670  -13.4050 S.3       1 MET        -0.1639
     74 CE         38.5160   53.3840  -11.6410 C.3       1 MET        -0.0181
     75 OXT        36.2810   58.4790  -15.9510 O.co2     1 MET        -0.5666
     76 H1         50.0348   57.1053    5.6358 H         1 SER         0.2016
     77 H2         50.4831   57.1533    4.0528 H         1 SER         0.2016
     78 H3         49.3961   56.0291    4.5666 H         1 SER         0.2016
     79 H4         47.7731   57.7166    5.0895 H         1 SER         0.1122
     80 H5         49.9087   59.5730    3.9156 H         1 SER         0.0640
     81 H6         49.4219   59.4869    5.6425 H         1 SER         0.0640
     82 H7         47.3112   60.1142    4.9517 H         1 SER         0.2099
     83 H8         46.2189   57.8571    3.6025 H         1 ARG         0.1884
     84 H9         46.7011   56.7211    0.9986 H         1 ARG         0.0800
     85 H10        44.1475   57.3756    0.7958 H         1 ARG         0.0313
     86 H11        44.3049   57.6903    2.5573 H         1 ARG         0.0313
     87 H12        43.5441   55.4797    2.4263 H         1 ARG         0.0301
     88 H13        45.3137   55.3195    2.6898 H         1 ARG         0.0301
     89 H14        44.7990   53.7956    0.9443 H         1 ARG         0.0689
     90 H15        45.5284   55.2229    0.1335 H         1 ARG         0.0689
     91 H16        42.5480   54.9905    0.3359 H         1 ARG         0.2642
     92 H17        44.6397   55.2459   -3.1380 H         1 ARG         0.2615
     93 H18        45.5195   55.0596   -1.5973 H         1 ARG         0.2615
     94 H19        41.4420   55.2078   -1.6200 H         1 ARG         0.2615
     95 H20        42.3501   55.3143   -3.1519 H         1 ARG         0.2615
     96 H21        46.0843   57.4921   -1.0083 H         1 ASP         0.1884
     97 H22        46.8098   60.2937   -1.5139 H         1 ASP         0.0819
     98 H23        45.7351   58.1118   -3.3781 H         1 ASP         0.0478
     99 H24        47.4731   58.3797   -3.0116 H         1 ASP         0.0478
    100 H25        45.2241   61.5941   -2.9352 H         1 HIS         0.1885
    101 H26        42.4100   60.8741   -2.8272 H         1 HIS         0.0824
    102 H27        42.8202   61.6476   -0.4854 H         1 HIS         0.0491
    103 H28        41.6314   62.6519   -1.3825 H         1 HIS         0.0491
    104 H29        45.3658   62.6996   -0.4868 H         1 HIS         0.2386
    105 H30        42.1620   65.3192   -1.2447 H         1 HIS         0.0324
    106 H31        46.2501   65.0598   -0.0729 H         1 HIS         0.1149
    107 H32        41.0173   62.7277   -3.6089 H         1 SER         0.1884
    108 H33        40.4773   64.2099   -5.2788 H         1 SER         0.0823
    109 H34        42.0798   66.0931   -5.7026 H         1 SER         0.0606
    110 H35        43.2832   65.2603   -4.6611 H         1 SER         0.0606
    111 H36        40.6914   66.1350   -3.8543 H         1 SER         0.2097
    112 H37        41.3340   61.7267   -6.1046 H         1 ARG         0.1883
    113 H38        43.3303   61.9435   -8.2152 H         1 ARG         0.0800
    114 H39        41.2631   59.7751   -7.6255 H         1 ARG         0.0313
    115 H40        42.8938   59.8797   -6.8796 H         1 ARG         0.0313
    116 H41        43.5714   58.5208   -8.5068 H         1 ARG         0.0301
    117 H42        43.4231   59.9331   -9.6070 H         1 ARG         0.0301
    118 H43        42.2581   57.8820  -10.4372 H         1 ARG         0.0689
    119 H44        41.1714   59.2958  -10.2201 H         1 ARG         0.0689
    120 H45        41.0824   57.7858   -7.8187 H         1 ARG         0.2642
    121 H46        38.4264   55.6853   -8.7722 H         1 ARG         0.2615
    122 H47        39.3776   56.3435   -7.4140 H         1 ARG         0.2615
    123 H48        40.2621   57.4289  -11.2474 H         1 ARG         0.2615
    124 H49        38.9244   56.2934  -10.9250 H         1 ARG         0.2615
    125 H50        42.8818   61.5440  -10.4809 H         1 THR         0.1884
    126 H51        40.5923   63.1013  -11.4282 H         1 THR         0.0826
    127 H52        42.6054   61.4271  -13.0449 H         1 THR         0.0639
    128 H53        43.6789   63.4880  -13.2453 H         1 THR         0.2101
    129 H54        42.0023   62.9831  -14.8792 H         1 THR         0.0257
    130 H55        40.8254   63.8035  -13.7983 H         1 THR         0.0257
    131 H56        40.5608   62.0937  -14.2812 H         1 THR         0.0257
    132 H57        37.9911   59.4941  -11.5616 H         1 PRO         0.0802
    133 H58        36.2061   61.0622  -11.5436 H         1 PRO         0.0313
    134 H59        35.9785   60.3691  -13.1851 H         1 PRO         0.0313
    135 H60        36.2778   62.9818  -13.0200 H         1 PRO         0.0287
    136 H61        37.3115   62.1153  -14.2063 H         1 PRO         0.0287
    137 H62        38.9537   63.2859  -12.8947 H         1 PRO         0.0524
    138 H63        38.0295   63.0539  -11.3720 H         1 PRO         0.0524
    139 H64        37.3126   57.8222  -12.9993 H         1 MET         0.1875
    140 H65        39.1737   57.3922  -15.1703 H         1 MET         0.0726
    141 H66        37.6966   55.3149  -15.5418 H         1 MET         0.0313
    142 H67        36.7987   55.8456  -14.0794 H         1 MET         0.0313
    143 H68        38.8596   55.7116  -12.7576 H         1 MET         0.0378
    144 H69        39.7694   55.1994  -14.2193 H         1 MET         0.0378
    145 H70        38.2623   52.3719  -11.2926 H         1 MET         0.0340
    146 H71        37.8442   54.1143  -11.1663 H         1 MET         0.0340
    147 H72        39.5573   53.6143  -11.3714 H         1 MET         0.0340
@<TRIPOS>BOND
     1    1    2 1  
     2    2    3 1  
     3    2    5 1  
     4    3    4 2  
     5    3    7 am 
     6    5    6 1  
     7    7    8 1  
     8    8    9 1  
     9    8   11 1  
    10    9   10 2  
    11    9   18 am 
    12   11   12 1  
    13   12   13 1  
    14   13   14 1  
    15   14   15 ar 
    16   15   16 ar 
    17   15   17 ar 
    18   18   19 1  
    19   19   20 1  
    20   19   22 1  
    21   20   21 2  
    22   20   26 am 
    23   22   23 1  
    24   23   24 ar 
    25   23   25 ar 
    26   26   27 1  
    27   27   28 1  
    28   27   30 1  
    29   28   29 2  
    30   28   36 am 
    31   30   31 1  
    32   31   32 1  
    33   31   33 2  
    34   32   34 1  
    35   33   35 1  
    36   34   35 2  
    37   36   37 1  
    38   37   38 1  
    39   37   40 1  
    40   38   39 2  
    41   38   42 am 
    42   40   41 1  
    43   42   43 1  
    44   43   44 1  
    45   43   46 1  
    46   44   45 2  
    47   44   53 am 
    48   46   47 1  
    49   47   48 1  
    50   48   49 1  
    51   49   50 ar 
    52   50   51 ar 
    53   50   52 ar 
    54   53   54 1  
    55   54   55 1  
    56   54   57 1  
    57   55   56 2  
    58   55   60 am 
    59   57   58 1  
    60   57   59 1  
    61   60   61 1  
    62   60   66 1  
    63   61   62 1  
    64   61   64 1  
    65   62   63 2  
    66   62   67 am 
    67   64   65 1  
    68   65   66 1  
    69   67   68 1  
    70   68   69 1  
    71   68   71 1  
    72   69   70 ar 
    73   69   75 ar 
    74   71   72 1  
    75   72   73 1  
    76   73   74 1  
    77    1   76 1  
    78    1   77 1  
    79    1   78 1  
    80    2   79 1  
    81    5   80 1  
    82    5   81 1  
    83    6   82 1  
    84    7   83 1  
    85    8   84 1  
    86   11   85 1  
    87   11   86 1  
    88   12   87 1  
    89   12   88 1  
    90   13   89 1  
    91   13   90 1  
    92   14   91 1  
    93   16   92 1  
    94   16   93 1  
    95   17   94 1  
    96   17   95 1  
    97   18   96 1  
    98   19   97 1  
    99   22   98 1  
   100   22   99 1  
   101   26  100 1  
   102   27  101 1  
   103   30  102 1  
   104   30  103 1  
   105   32  104 1  
   106   33  105 1  
   107   34  106 1  
   108   36  107 1  
   109   37  108 1  
   110   40  109 1  
   111   40  110 1  
   112   41  111 1  
   113   42  112 1  
   114   43  113 1  
   115   46  114 1  
   116   46  115 1  
   117   47  116 1  
   118   47  117 1  
   119   48  118 1  
   120   48  119 1  
   121   49  120 1  
   122   51  121 1  
   123   51  122 1  
   124   52  123 1  
   125   52  124 1  
   126   53  125 1  
   127   54  126 1  
   128   57  127 1  
   129   58  128 1  
   130   59  129 1  
   131   59  130 1  
   132   59  131 1  
   133   61  132 1  
   134   64  133 1  
   135   64  134 1  
   136   65  135 1  
   137   65  136 1  
   138   66  137 1  
   139   66  138 1  
   140   67  139 1  
   141   68  140 1  
   142   71  141 1  
   143   71  142 1  
   144   72  143 1  
   145   72  144 1  
   146   74  145 1  
   147   74  146 1  
   148   74  147 1  
@<TRIPOS>SUBSTRUCTURE
     1 SER         1

