1g7p_ligand
  -I-interpret- 

146147  0  0  0  0  0  0  0  0999 V2000
   49.7200   56.9760    4.6870 N   0  3  0  0  0
   48.6050   57.9230    4.4000 C   0  0  0  0  0
   48.1220   57.7360    2.9690 C   0  0  0  0  0
   48.9240   57.6130    2.0450 O   0  0  0  0  0
   49.0770   59.3660    4.6050 C   0  0  0  0  0
   48.0310   60.2860    4.3560 O   0  0  0  0  0
   46.8030   57.7290    2.8010 N   0  0  0  0  0
   46.1700   57.5430    1.5010 C   0  0  0  0  0
   46.2080   58.7420    0.5620 C   0  0  0  0  0
   46.2950   59.8900    0.9920 O   0  0  0  0  0
   44.7120   57.1250    1.7060 C   0  0  0  0  0
   44.5370   55.6510    1.9850 C   0  0  0  0  0
   44.6570   54.8580    0.6970 C   0  0  0  0  0
   43.4640   54.9950   -0.1350 N   0  0  0  0  0
   43.4790   55.1250   -1.4570 C   0  0  0  0  0
   44.6320   55.1450   -2.1130 N   0  0  0  0  0
   42.3390   55.2230   -2.1260 N   0  0  0  0  0
   46.1310   58.4520   -0.7320 N   0  0  0  0  0
   46.1120   59.4810   -1.7640 C   0  0  0  0  0
   44.6730   60.0040   -1.8200 C   0  0  0  0  0
   43.7720   59.3930   -1.2430 O   0  0  0  0  0
   46.4910   58.8650   -3.1110 C   0  0  0  0  0
   46.5680   59.8900   -4.2250 C   0  0  0  0  0
   46.4680   59.4840   -5.4020 O   0  0  0  0  0
   46.7380   61.0940   -3.9310 O   0  0  0  0  0
   44.4550   61.1280   -2.4980 N   0  0  0  0  0
   43.1110   61.6950   -2.6160 C   0  0  0  0  0
   43.0260   62.7070   -3.7560 C   0  0  0  0  0
   44.0470   63.1250   -4.3020 O   0  0  0  0  0
   42.6920   62.3710   -1.3040 C   0  0  0  0  0
   43.4820   63.6000   -0.9750 C   0  0  0  0  0
   44.8050   63.5570   -0.5930 N   0  0  0  0  0
   43.1380   64.9100   -0.9880 C   0  0  0  0  0
   45.2430   64.7860   -0.3840 C   0  0  0  0  0
   44.2500   65.6260   -0.6170 N   0  0  0  0  0
   41.8020   63.1020   -4.1030 N   0  0  0  0  0
   41.5630   64.0630   -5.1800 C   0  0  0  0  0
   42.1030   63.5400   -6.5080 C   0  0  0  0  0
   42.7230   64.2740   -7.2760 O   0  0  0  0  0
   42.2100   65.4130   -4.8480 C   0  0  0  0  0
   41.6180   65.9970   -3.6970 O   0  0  0  0  0
   41.8520   62.2630   -6.7710 N   0  0  0  0  0
   42.3040   61.6140   -7.9960 C   0  0  0  0  0
   41.4080   61.9930   -9.1790 C   0  0  0  0  0
   40.2640   62.4120   -8.9950 O   0  0  0  0  0
   42.3040   60.0940   -7.7830 C   0  0  0  0  0
   42.8780   59.2670   -8.9220 C   0  0  0  0  0
   41.7860   58.5470   -9.6990 C   0  0  0  0  0
   40.9190   57.7480   -8.8350 N   0  0  0  0  0
   39.9320   56.9750   -9.2800 C   0  0  0  0  0
   39.1900   56.2830   -8.4250 N   0  0  0  0  0
   39.6880   56.8930  -10.5810 N   0  0  0  0  0
   41.9390   61.8650  -10.3910 N   0  0  0  0  0
   41.1750   62.1830  -11.5930 C   0  0  0  0  0
   40.2350   61.0100  -11.8690 C   0  0  0  0  0
   40.6520   59.8580  -11.8360 O   0  0  0  0  0
   42.1120   62.3820  -12.8110 C   0  0  0  0  0
   43.1060   63.3680  -12.4970 O   0  0  0  0  0
   41.3200   62.8480  -14.0270 C   0  0  0  0  0
   38.9500   61.2870  -12.1420 N   0  0  0  0  0
   38.0100   60.1940  -12.4100 C   0  0  0  0  0
   38.3540   59.4080  -13.6740 C   0  0  0  0  0
   39.0460   59.9120  -14.5560 O   0  0  0  0  0
   36.6710   60.9180  -12.5300 C   0  0  0  0  0
   37.0710   62.2290  -13.1390 C   0  0  0  0  0
   38.3030   62.5980  -12.3350 C   0  0  0  0  0
   37.8630   58.1770  -13.7550 N   0  0  0  0  0
   38.1050   57.3270  -14.9180 C   0  0  0  0  0
   37.2990   57.7760  -16.1350 C   0  0  0  0  0
   37.6840   57.3990  -17.2650 O   0  0  0  0  0
   37.7700   55.8700  -14.5950 C   0  0  0  0  0
   38.7910   55.1780  -13.7170 C   0  0  0  0  0
   38.3290   53.4670  -13.4050 S   0  0  0  0  0
   38.5160   53.3840  -11.6410 C   0  0  0  0  0
   36.2810   58.4790  -15.9510 O   0  0  0  0  0
   49.3959   56.0189    4.5478 H   0  0  0  0  0
   50.4983   57.1679    4.0562 H   0  0  0  0  0
   50.0260   57.0956    5.6527 H   0  0  0  0  0
   47.7817   57.7182    5.0843 H   0  0  0  0  0
   49.8915   59.5681    3.9094 H   0  0  0  0  0
   49.4041   59.4819    5.6383 H   0  0  0  0  0
   48.3536   61.1800    4.4915 H   0  0  0  0  0
   46.2072   57.8597    3.6185 H   0  0  0  0  0
   46.7630   56.7720    1.0091 H   0  0  0  0  0
   44.1760   57.3482    0.7835 H   0  0  0  0  0
   44.3360   57.6679    2.5731 H   0  0  0  0  0
   43.5505   55.4837    2.4172 H   0  0  0  0  0
   45.3110   55.3243    2.6794 H   0  0  0  0  0
   44.7789   53.8053    0.9519 H   0  0  0  0  0
   45.5114   55.2388    0.1376 H   0  0  0  0  0
   42.5569   54.9905    0.3314 H   0  0  0  0  0
   44.6392   55.2356   -3.1289 H   0  0  0  0  0
   45.5112   55.0698   -1.6014 H   0  0  0  0  0
   41.4504   55.1986   -1.6258 H   0  0  0  0  0
   46.0834   57.4729   -1.0139 H   0  0  0  0  0
   46.8191   60.2812   -1.5456 H   0  0  0  0  0
   45.7200   58.1415   -3.3759 H   0  0  0  0  0
   47.4769   58.4122   -3.0054 H   0  0  0  0  0
   46.7878   61.1852   -2.9766 H   0  0  0  0  0
   45.2395   61.6035   -2.9439 H   0  0  0  0  0
   42.4321   60.8705   -2.8337 H   0  0  0  0  0
   42.8604   61.6530   -0.5013 H   0  0  0  0  0
   41.6510   62.6747   -1.4140 H   0  0  0  0  0
   42.1611   65.3196   -1.2449 H   0  0  0  0  0
   46.2510   65.0600   -0.0727 H   0  0  0  0  0
   41.0016   62.7202   -3.5990 H   0  0  0  0  0
   40.4857   64.1997   -5.2745 H   0  0  0  0  0
   42.0646   66.0857   -5.6933 H   0  0  0  0  0
   43.2697   65.2517   -4.6503 H   0  0  0  0  0
   42.0413   66.8388   -3.5130 H   0  0  0  0  0
   41.3237   61.7160   -6.0913 H   0  0  0  0  0
   43.3143   61.9502   -8.2291 H   0  0  0  0  0
   41.2601   59.7971   -7.6824 H   0  0  0  0  0
   42.9363   59.9045   -6.9156 H   0  0  0  0  0
   43.5495   58.5194   -8.4997 H   0  0  0  0  0
   43.4005   59.9374   -9.6044 H   0  0  0  0  0
   42.2663   57.8737  -10.4090 H   0  0  0  0  0
   41.1699   59.3003  -10.1900 H   0  0  0  0  0
   41.0808   57.7855   -7.8286 H   0  0  0  0  0
   38.4346   55.6902   -8.7689 H   0  0  0  0  0
   39.3750   56.3438   -7.4238 H   0  0  0  0  0
   40.2573   57.4228  -11.2410 H   0  0  0  0  0
   42.9007   61.5376  -10.4827 H   0  0  0  0  0
   40.6207   63.1087  -11.4386 H   0  0  0  0  0
   42.5880   61.4284  -13.0394 H   0  0  0  0  0
   43.6849   63.4892  -13.2531 H   0  0  0  0  0
   40.5681   62.0998  -14.2778 H   0  0  0  0  0
   40.8304   63.7948  -13.7991 H   0  0  0  0  0
   41.9971   62.9815  -14.8707 H   0  0  0  0  0
   38.0215   59.4332  -11.6296 H   0  0  0  0  0
   36.1553   61.0275  -11.5760 H   0  0  0  0  0
   35.9402   60.3726  -13.1271 H   0  0  0  0  0
   36.2849   62.9824  -13.0883 H   0  0  0  0  0
   37.2624   62.1631  -14.2100 H   0  0  0  0  0
   38.9427   63.3246  -12.8360 H   0  0  0  0  0
   38.0704   63.1057  -11.3989 H   0  0  0  0  0
   37.3016   57.8151  -12.9842 H   0  0  0  0  0
   39.1636   57.4160  -15.1622 H   0  0  0  0  0
   38.4816   56.8731  -17.1711 H   0  0  0  0  0
   37.7406   55.3295  -15.5411 H   0  0  0  0  0
   36.8256   55.8703  -14.0508 H   0  0  0  0  0
   38.8429   55.7036  -12.7635 H   0  0  0  0  0
   39.7540   55.1906  -14.2274 H   0  0  0  0  0
   39.5481   53.6124  -11.3752 H   0  0  0  0  0
   37.8499   54.1081  -11.1718 H   0  0  0  0  0
   38.2644   52.3808  -11.2970 H   0  0  0  0  0
  1  2  1  0  0  0
  2  3  1  0  0  0
  2  5  1  0  0  0
  3  4  2  0  0  0
  3  7  1  0  0  0
  5  6  1  0  0  0
  7  8  1  0  0  0
  8  9  1  0  0  0
  8 11  1  0  0  0
  9 10  2  0  0  0
  9 18  1  0  0  0
 11 12  1  0  0  0
 12 13  1  0  0  0
 13 14  1  0  0  0
 14 15  1  0  0  0
 15 16  1  0  0  0
 15 17  2  0  0  0
 18 19  1  0  0  0
 19 20  1  0  0  0
 19 22  1  0  0  0
 20 21  2  0  0  0
 20 26  1  0  0  0
 22 23  1  0  0  0
 23 24  2  0  0  0
 23 25  1  0  0  0
 26 27  1  0  0  0
 27 28  1  0  0  0
 27 30  1  0  0  0
 28 29  2  0  0  0
 28 36  1  0  0  0
 30 31  1  0  0  0
 31 32  4  0  0  0
 31 33  4  0  0  0
 32 34  4  0  0  0
 33 35  4  0  0  0
 34 35  4  0  0  0
 36 37  1  0  0  0
 37 38  1  0  0  0
 37 40  1  0  0  0
 38 39  2  0  0  0
 38 42  1  0  0  0
 40 41  1  0  0  0
 42 43  1  0  0  0
 43 44  1  0  0  0
 43 46  1  0  0  0
 44 45  2  0  0  0
 44 53  1  0  0  0
 46 47  1  0  0  0
 47 48  1  0  0  0
 48 49  1  0  0  0
 49 50  1  0  0  0
 50 51  1  0  0  0
 50 52  2  0  0  0
 53 54  1  0  0  0
 54 55  1  0  0  0
 54 57  1  0  0  0
 55 56  2  0  0  0
 55 60  1  0  0  0
 57 58  1  0  0  0
 57 59  1  0  0  0
 60 61  1  0  0  0
 60 66  1  0  0  0
 61 62  1  0  0  0
 61 64  1  0  0  0
 62 63  2  0  0  0
 62 67  1  0  0  0
 64 65  1  0  0  0
 65 66  1  0  0  0
 67 68  1  0  0  0
 68 69  1  0  0  0
 68 71  1  0  0  0
 69 70  1  0  0  0
 69 75  2  0  0  0
 71 72  1  0  0  0
 72 73  1  0  0  0
 73 74  1  0  0  0
  1 76  1  0  0  0
  1 77  1  0  0  0
  1 78  1  0  0  0
  2 79  1  0  0  0
  5 80  1  0  0  0
  5 81  1  0  0  0
  6 82  1  0  0  0
  7 83  1  0  0  0
  8 84  1  0  0  0
 11 85  1  0  0  0
 11 86  1  0  0  0
 12 87  1  0  0  0
 12 88  1  0  0  0
 13 89  1  0  0  0
 13 90  1  0  0  0
 14 91  1  0  0  0
 16 92  1  0  0  0
 16 93  1  0  0  0
 17 94  1  0  0  0
 18 95  1  0  0  0
 19 96  1  0  0  0
 22 97  1  0  0  0
 22 98  1  0  0  0
 25 99  1  0  0  0
 26100  1  0  0  0
 27101  1  0  0  0
 30102  1  0  0  0
 30103  1  0  0  0
 33104  1  0  0  0
 34105  1  0  0  0
 36106  1  0  0  0
 37107  1  0  0  0
 40108  1  0  0  0
 40109  1  0  0  0
 41110  1  0  0  0
 42111  1  0  0  0
 43112  1  0  0  0
 46113  1  0  0  0
 46114  1  0  0  0
 47115  1  0  0  0
 47116  1  0  0  0
 48117  1  0  0  0
 48118  1  0  0  0
 49119  1  0  0  0
 51120  1  0  0  0
 51121  1  0  0  0
 52122  1  0  0  0
 53123  1  0  0  0
 54124  1  0  0  0
 57125  1  0  0  0
 58126  1  0  0  0
 59127  1  0  0  0
 59128  1  0  0  0
 59129  1  0  0  0
 61130  1  0  0  0
 64131  1  0  0  0
 64132  1  0  0  0
 65133  1  0  0  0
 65134  1  0  0  0
 66135  1  0  0  0
 66136  1  0  0  0
 67137  1  0  0  0
 68138  1  0  0  0
 70139  1  0  0  0
 71140  1  0  0  0
 71141  1  0  0  0
 72142  1  0  0  0
 72143  1  0  0  0
 74144  1  0  0  0
 74145  1  0  0  0
 74146  1  0  0  0
M  END
$$$$
