2p2h_ligand
  -I-interpret- 

 54 57  0  0  0  0  0  0  0  0999 V2000
   11.2070   18.0550   41.2510 C   0  0  0  0  0
   10.5650   19.0310   42.0780 C   0  0  0  0  0
    9.2250   18.7980   42.4990 C   0  0  0  0  0
    8.5120   17.6090   42.1120 C   0  0  0  0  0
    9.1750   16.6600   41.2920 C   0  0  0  0  0
   10.5070   16.8580   40.8540 C   0  0  0  0  0
    7.2000   17.2980   42.4690 N   0  0  0  0  0
    6.4540   17.7350   43.5410 C   0  0  0  0  0
    6.9550   18.6170   44.4240 N   0  0  0  0  0
    6.2110   19.0520   45.5060 C   0  0  0  0  0
    4.9450   18.5160   45.5900 N   0  0  0  0  0
    4.5250   17.6450   44.6640 C   0  0  0  0  0
    5.2350   17.2120   43.6150 N   0  0  0  0  0
   11.0760   15.8530   40.0470 O   0  0  0  0  0
   11.0390   16.1480   38.6610 C   0  0  0  0  0
   12.5140   18.2690   40.8410 O   0  0  0  0  0
   13.4330   17.7260   41.7940 C   0  0  0  0  0
   11.2800   20.2040   42.4630 O   0  0  0  0  0
   10.4860   21.3920   42.6220 C   0  0  0  0  0
    6.8040   20.0490   46.4950 C   0  0  0  0  0
    8.1210   20.5080   46.2680 C   0  0  0  0  0
    8.7540   21.4340   47.1260 C   0  0  0  0  0
    8.0410   21.9060   48.2370 C   0  0  0  0  0
    6.7810   21.4880   48.4910 N   0  0  0  0  0
    6.1490   20.5770   47.6580 C   0  0  0  0  0
    4.8730   20.1930   47.9810 N   0  0  0  0  0
    4.3180   20.2880   49.2270 C   0  0  0  0  0
    3.5190   21.4000   49.6120 C   0  0  0  0  0
    2.9630   21.4660   50.9160 C   0  0  0  0  0
    3.2090   20.4150   51.8380 C   0  0  0  0  0
    4.0070   19.3050   51.4560 C   0  0  0  0  0
    4.5590   19.2430   50.1570 C   0  0  0  0  0
    8.7281   19.5363   43.1283 H   0  0  0  0  0
    8.6458   15.7557   40.9915 H   0  0  0  0  0
    6.7218   16.6503   41.8427 H   0  0  0  0  0
    3.5139   17.2532   44.7742 H   0  0  0  0  0
   10.0033   16.2721   38.3448 H   0  0  0  0  0
   11.5908   17.0688   38.4720 H   0  0  0  0  0
   11.4946   15.3291   38.1043 H   0  0  0  0  0
   13.2805   18.2083   42.7595 H   0  0  0  0  0
   13.2626   16.6538   41.8911 H   0  0  0  0  0
   14.4535   17.9037   41.4548 H   0  0  0  0  0
    9.9946   21.6280   41.6781 H   0  0  0  0  0
    9.7338   21.2242   43.3928 H   0  0  0  0  0
   11.1298   22.2212   42.9152 H   0  0  0  0  0
    8.6667   20.1348   45.4014 H   0  0  0  0  0
    9.7711   21.7731   46.9294 H   0  0  0  0  0
    8.5118   22.6238   48.9088 H   0  0  0  0  0
    4.2939   19.8072   47.2352 H   0  0  0  0  0
    3.3328   22.2056   48.9018 H   0  0  0  0  0
    2.3504   22.3190   51.2080 H   0  0  0  0  0
    2.7844   20.4605   52.8409 H   0  0  0  0  0
    4.1942   18.4993   52.1659 H   0  0  0  0  0
    5.1722   18.3895   49.8678 H   0  0  0  0  0
  1  2  4  0  0  0
  1  6  4  0  0  0
  1 16  1  0  0  0
  2  3  4  0  0  0
  2 18  1  0  0  0
  3  4  4  0  0  0
  4  5  4  0  0  0
  4  7  1  0  0  0
  5  6  4  0  0  0
  6 14  1  0  0  0
  7  8  1  0  0  0
  8  9  4  0  0  0
  8 13  4  0  0  0
  9 10  4  0  0  0
 10 11  4  0  0  0
 10 20  1  0  0  0
 11 12  4  0  0  0
 12 13  4  0  0  0
 14 15  1  0  0  0
 16 17  1  0  0  0
 18 19  1  0  0  0
 20 21  4  0  0  0
 20 25  4  0  0  0
 21 22  4  0  0  0
 22 23  4  0  0  0
 23 24  4  0  0  0
 24 25  4  0  0  0
 25 26  1  0  0  0
 26 27  1  0  0  0
 27 28  4  0  0  0
 27 32  4  0  0  0
 28 29  4  0  0  0
 29 30  4  0  0  0
 30 31  4  0  0  0
 31 32  4  0  0  0
  3 33  1  0  0  0
  5 34  1  0  0  0
  7 35  1  0  0  0
 12 36  1  0  0  0
 15 37  1  0  0  0
 15 38  1  0  0  0
 15 39  1  0  0  0
 17 40  1  0  0  0
 17 41  1  0  0  0
 17 42  1  0  0  0
 19 43  1  0  0  0
 19 44  1  0  0  0
 19 45  1  0  0  0
 21 46  1  0  0  0
 22 47  1  0  0  0
 23 48  1  0  0  0
 26 49  1  0  0  0
 28 50  1  0  0  0
 29 51  1  0  0  0
 30 52  1  0  0  0
 31 53  1  0  0  0
 32 54  1  0  0  0
M  END
$$$$
