1utz_ligand
  -I-interpret- 

 51 54  0  0  0  0  0  0  0  0999 V2000
   42.5820   53.4910   19.9380 S   0  0  0  0  0
   41.4810   54.6540   19.2170 C   0  0  0  0  0
   40.1980   54.2890   19.3660 C   0  0  0  0  0
   40.0440   53.0170   20.0830 C   0  0  0  0  0
   41.2300   52.4950   20.4380 C   0  0  0  0  0
   38.7370   52.4390   20.3830 C   0  0  0  0  0
   37.7910   52.1620   19.3670 C   0  0  0  0  0
   36.5240   51.6360   19.7060 C   0  0  0  0  0
   36.1660   51.3730   21.0580 C   0  0  0  0  0
   37.1280   51.6480   22.0560 C   0  0  0  0  0
   38.3890   52.1710   21.7290 C   0  0  0  0  0
   34.7990   50.8340   21.4270 C   0  0  0  0  0
   34.2900   50.9980   22.7380 C   0  0  0  0  0
   33.0140   50.5000   23.0590 C   0  0  0  0  0
   32.2270   49.8540   22.1570 N   0  0  0  0  0
   32.7210   49.6980   20.8960 C   0  0  0  0  0
   33.9890   50.1700   20.4950 C   0  0  0  0  0
   41.9130   55.9150   18.5690 C   0  0  0  0  0
   43.0770   56.2570   18.7590 O   0  0  0  0  0
   41.0010   56.6360   17.8630 N   0  0  0  0  0
   41.2460   57.9580   17.2620 C   0  0  0  0  0
   39.8250   58.4840   16.9140 C   0  0  0  0  0
   38.8120   58.3910   18.0910 C   0  0  0  0  0
   38.9940   59.0840   19.0880 O   0  0  0  0  0
   37.8640   57.6130   17.9960 O   0  0  0  0  0
   42.1620   58.0270   16.0130 C   0  0  0  0  0
   42.4630   59.3120   15.4420 C   0  0  0  0  0
   43.3000   59.4390   14.3080 C   0  0  0  0  0
   43.8570   58.2820   13.7140 C   0  0  0  0  0
   43.5730   57.0120   14.2550 C   0  0  0  0  0
   42.7380   56.8860   15.3900 C   0  0  0  0  0
   39.3582   54.8756   18.9936 H   0  0  0  0  0
   41.3392   51.5545   20.9781 H   0  0  0  0  0
   38.0398   52.3544   18.3234 H   0  0  0  0  0
   35.8047   51.4270   18.9141 H   0  0  0  0  0
   36.8861   51.4501   23.1002 H   0  0  0  0  0
   39.1095   52.3734   22.5215 H   0  0  0  0  0
   34.8846   51.5082   23.4958 H   0  0  0  0  0
   32.6401   50.6377   24.0736 H   0  0  0  0  0
   32.1048   49.1821   20.1596 H   0  0  0  0  0
   34.3348   50.0200   19.4722 H   0  0  0  0  0
   40.0739   56.2288   17.7401 H   0  0  0  0  0
   41.8114   58.5526   17.9796 H   0  0  0  0  0
   39.4392   57.8639   16.1048 H   0  0  0  0  0
   39.9243   59.5380   16.6545 H   0  0  0  0  0
   37.9002   57.1685   17.1459 H   0  0  0  0  0
   42.0369   60.2083   15.8927 H   0  0  0  0  0
   43.5147   60.4241   13.8939 H   0  0  0  0  0
   44.5035   58.3725   12.8411 H   0  0  0  0  0
   43.9998   56.1204   13.7956 H   0  0  0  0  0
   42.5322   55.8951   15.7948 H   0  0  0  0  0
  1  2  4  0  0  0
  1  5  4  0  0  0
  2  3  4  0  0  0
  2 18  1  0  0  0
  3  4  4  0  0  0
  4  5  4  0  0  0
  4  6  1  0  0  0
  6  7  4  0  0  0
  6 11  4  0  0  0
  7  8  4  0  0  0
  8  9  4  0  0  0
  9 10  4  0  0  0
  9 12  1  0  0  0
 10 11  4  0  0  0
 12 13  4  0  0  0
 12 17  4  0  0  0
 13 14  4  0  0  0
 14 15  4  0  0  0
 15 16  4  0  0  0
 16 17  4  0  0  0
 18 19  2  0  0  0
 18 20  1  0  0  0
 20 21  1  0  0  0
 21 22  1  0  0  0
 21 26  1  0  0  0
 22 23  1  0  0  0
 23 24  2  0  0  0
 23 25  1  0  0  0
 26 27  4  0  0  0
 26 31  4  0  0  0
 27 28  4  0  0  0
 28 29  4  0  0  0
 29 30  4  0  0  0
 30 31  4  0  0  0
  3 32  1  0  0  0
  5 33  1  0  0  0
  7 34  1  0  0  0
  8 35  1  0  0  0
 10 36  1  0  0  0
 11 37  1  0  0  0
 13 38  1  0  0  0
 14 39  1  0  0  0
 16 40  1  0  0  0
 17 41  1  0  0  0
 20 42  1  0  0  0
 21 43  1  0  0  0
 22 44  1  0  0  0
 22 45  1  0  0  0
 25 46  1  0  0  0
 27 47  1  0  0  0
 28 48  1  0  0  0
 29 49  1  0  0  0
 30 50  1  0  0  0
 31 51  1  0  0  0
M  END
$$$$
