### 
### Created by X-TOOL on Mon Sep 10 21:12:59 2018
### 

@<TRIPOS>MOLECULE
3ewu_ligand
   38    39     1     0     0
SMALL
GAST_HUCK


@<TRIPOS>ATOM
      1 O3P         4.4410   11.1490   31.6010 O.co2     1 UEP        -0.5537
      2 P           3.5780   10.4770   30.5070 P.3       1 UEP         0.2008
      3 O1P         2.2250   10.1850   31.1240 O.co2     1 UEP        -0.5537
      4 O2P         3.5680   11.1570   29.1380 O.co2     1 UEP        -0.5537
      5 O5'         4.3240    9.0570   30.4210 O.3       1 UEP        -0.2734
      6 C5'         4.0340    8.1450   29.3270 C.3       1 UEP         0.1071
      7 C4'         4.8590    6.8760   29.5220 C.3       1 UEP         0.1181
      8 C3'         6.3120    7.1810   29.1700 C.3       1 UEP         0.1148
      9 O3'         7.1450    6.3260   30.0150 O.3       1 UEP        -0.3864
     10 C2'         6.4340    6.7210   27.7110 C.3       1 UEP         0.1384
     11 O2'         7.8070    6.3100   27.5380 O.3       1 UEP        -0.3837
     12 O4'         4.4240    5.8880   28.5720 O.3       1 UEP        -0.3366
     13 C1'         5.4140    5.5560   27.6000 C.3       1 UEP         0.2060
     14 N1          4.8350    5.4500   26.2420 N.am      1 UEP        -0.1530
     15 C7          5.4510    3.1520   26.1450 C.3       1 UEP         0.0139
     16 C8          4.6200    2.4890   27.2540 C.3       1 UEP        -0.0484
     17 C6          4.9010    4.3040   25.5230 C.2       1 UEP         0.0749
     18 C5          4.4080    4.2220   24.2330 C.2       1 UEP        -0.0018
     19 C4          3.8230    5.3620   23.7120 C.2       1 UEP         0.1690
     20 O4          3.3660    5.3550   22.5500 O.2       1 UEP        -0.4214
     21 N3          3.7730    6.4890   24.4350 N.am      1 UEP        -0.1897
     22 C2          4.2470    6.5670   25.6920 C.2       1 UEP         0.3319
     23 O2          4.1890    7.6370   26.3090 O.2       1 UEP        -0.3819
     24 H1          4.3004    8.6172   28.3699 H         1 UEP         0.0639
     25 H2          2.9629    7.8946   29.3268 H         1 UEP         0.0639
     26 H3          4.7663    6.5059   30.5537 H         1 UEP         0.0650
     27 H4          6.5656    8.2441   29.2947 H         1 UEP         0.0648
     28 H5          6.9723    6.5209   30.9286 H         1 UEP         0.2100
     29 H6          6.1849    7.5224   26.9999 H         1 UEP         0.0676
     30 H7          7.9376    6.0137   26.6449 H         1 UEP         0.2101
     31 H8          5.8959    4.6003   27.8539 H         1 UEP         0.0993
     32 H9          5.6161    2.3992   25.3602 H         1 UEP         0.0517
     33 H10         6.4170    3.4422   26.5838 H         1 UEP         0.0517
     34 H11         5.1613    1.6148   27.6449 H         1 UEP         0.0261
     35 H12         3.6514    2.1672   26.8438 H         1 UEP         0.0261
     36 H13         4.4523    3.2102   28.0675 H         1 UEP         0.0261
     37 H14         4.4773    3.3021   23.6543 H         1 UEP         0.0111
     38 H15         3.3670    7.3052   24.0238 H         1 UEP         0.2251
@<TRIPOS>BOND
     1    2    1 ar 
     2    2    3 ar 
     3    2    4 ar 
     4    5    2 1  
     5    6    5 1  
     6    7    6 1  
     7    7    8 1  
     8   12    7 1  
     9    8    9 1  
    10   10    8 1  
    11   10   11 1  
    12   13   10 1  
    13   13   12 1  
    14   14   13 1  
    15   17   14 1  
    16   14   22 am 
    17   15   16 1  
    18   15   17 1  
    19   17   18 2  
    20   18   19 1  
    21   19   20 2  
    22   19   21 am 
    23   21   22 am 
    24   22   23 2  
    25    6   24 1  
    26    6   25 1  
    27    7   26 1  
    28    8   27 1  
    29    9   28 1  
    30   10   29 1  
    31   11   30 1  
    32   13   31 1  
    33   15   32 1  
    34   15   33 1  
    35   16   34 1  
    36   16   35 1  
    37   16   36 1  
    38   18   37 1  
    39   21   38 1  
@<TRIPOS>SUBSTRUCTURE
     1 UEP         1

