3ewu_ligand
  -I-interpret- 

 40 41  0  0  0  0  0  0  0  0999 V2000
    4.4410   11.1490   31.6010 O   0  0  0  0  0
    3.5780   10.4770   30.5070 P   0  0  0  0  0
    2.2250   10.1850   31.1240 O   0  0  0  0  0
    3.5680   11.1570   29.1380 O   0  0  0  0  0
    4.3240    9.0570   30.4210 O   0  0  0  0  0
    4.0340    8.1450   29.3270 C   0  0  0  0  0
    4.8590    6.8760   29.5220 C   0  0  0  0  0
    6.3120    7.1810   29.1700 C   0  0  0  0  0
    7.1450    6.3260   30.0150 O   0  0  0  0  0
    6.4340    6.7210   27.7110 C   0  0  0  0  0
    7.8070    6.3100   27.5380 O   0  0  0  0  0
    4.4240    5.8880   28.5720 O   0  0  0  0  0
    5.4140    5.5560   27.6000 C   0  0  0  0  0
    4.8350    5.4500   26.2420 N   0  0  0  0  0
    5.4510    3.1520   26.1450 C   0  0  0  0  0
    4.6200    2.4890   27.2540 C   0  0  0  0  0
    4.9010    4.3040   25.5230 C   0  0  0  0  0
    4.4080    4.2220   24.2330 C   0  0  0  0  0
    3.8230    5.3620   23.7120 C   0  0  0  0  0
    3.3660    5.3550   22.5500 O   0  0  0  0  0
    3.7730    6.4890   24.4350 N   0  0  0  0  0
    4.2470    6.5670   25.6920 C   0  0  0  0  0
    4.1890    7.6370   26.3090 O   0  0  0  0  0
    5.3094   11.3491   31.2440 H   0  0  0  0  0
    4.4713   11.2937   28.8433 H   0  0  0  0  0
    4.2894    8.6121   28.3759 H   0  0  0  0  0
    2.9718    7.9003   29.3185 H   0  0  0  0  0
    4.7489    6.5289   30.5494 H   0  0  0  0  0
    6.6032    8.2224   29.3066 H   0  0  0  0  0
    8.0707    6.4906   29.8209 H   0  0  0  0  0
    6.2172    7.4641   26.9437 H   0  0  0  0  0
    7.9389    6.0106   26.6355 H   0  0  0  0  0
    5.8713    4.5823   27.7759 H   0  0  0  0  0
    5.5421    2.4049   25.3566 H   0  0  0  0  0
    6.3716    3.4853   26.6240 H   0  0  0  0  0
    4.4545    3.2046   28.0593 H   0  0  0  0  0
    3.6606    2.1706   26.8463 H   0  0  0  0  0
    5.1574    1.6230   27.6405 H   0  0  0  0  0
    4.4774    3.3013   23.6537 H   0  0  0  0  0
    3.3589    7.3215   24.0156 H   0  0  0  0  0
  2  1  1  0  0  0
  2  3  2  0  0  0
  2  4  1  0  0  0
  5  2  1  0  0  0
  6  5  1  0  0  0
  7  6  1  0  0  0
  7  8  1  0  0  0
 12  7  1  0  0  0
  8  9  1  0  0  0
 10  8  1  0  0  0
 10 11  1  0  0  0
 13 10  1  0  0  0
 13 12  1  0  0  0
 14 13  1  0  0  0
 17 14  1  0  0  0
 14 22  1  0  0  0
 15 16  1  0  0  0
 15 17  1  0  0  0
 17 18  2  0  0  0
 18 19  1  0  0  0
 19 20  2  0  0  0
 19 21  1  0  0  0
 21 22  1  0  0  0
 22 23  2  0  0  0
  1 24  1  0  0  0
  4 25  1  0  0  0
  6 26  1  0  0  0
  6 27  1  0  0  0
  7 28  1  0  0  0
  8 29  1  0  0  0
  9 30  1  0  0  0
 10 31  1  0  0  0
 11 32  1  0  0  0
 13 33  1  0  0  0
 15 34  1  0  0  0
 15 35  1  0  0  0
 16 36  1  0  0  0
 16 37  1  0  0  0
 16 38  1  0  0  0
 18 39  1  0  0  0
 21 40  1  0  0  0
M  END
$$$$
