6gj6_ligand
  -I-interpret- 

 43 46  0  0  0  0  0  0  0  0999 V2000
   20.5990   31.9840   11.6360 C   0  0  0  0  0
   19.9470   31.1740   12.5600 C   0  0  0  0  0
   20.1440   29.8050   12.5350 C   0  0  0  0  0
   18.9880   31.5250   13.6560 C   0  0  0  0  0
   16.7010   31.6650   12.3390 C   0  0  0  0  0
   14.5540   32.4410   11.4490 C   0  0  0  0  0
   17.9740   34.4650   14.4520 C   0  0  0  0  0
   17.2300   33.4110   16.4970 C   0  0  0  0  0
   20.9540   29.2180   11.5640 C   0  0  0  0  0
   17.7330   32.2300   13.1760 C   0  0  0  0  0
   17.3250   33.4890   13.5160 C   0  0  0  0  0
   15.6990   32.6490   12.2150 C   0  0  0  0  0
   16.5330   30.4530   11.6690 C   0  0  0  0  0
   14.4130   31.2220   10.7940 C   0  0  0  0  0
   15.3800   30.2310   10.9200 C   0  0  0  0  0
   21.5860   30.0220   10.6300 C   0  0  0  0  0
   17.8050   35.7400   16.4900 C   0  0  0  0  0
   21.4080   31.4020   10.6690 C   0  0  0  0  0
   19.3520   29.2020   13.6250 C   0  0  0  0  0
   16.0980   33.7520   12.9480 N   0  0  0  0  0
   17.2360   34.6460   15.7070 N   0  3  0  0  0
   18.7120   30.2150   14.2340 N   0  0  0  0  0
   19.2560   28.0130   13.9090 O   0  0  0  0  0
   22.0560   32.2080    9.7940 O   0  0  0  0  0
   20.4759   33.0665   11.6707 H   0  0  0  0  0
   19.3955   32.2487   14.3619 H   0  0  0  0  0
   13.7890   33.2130   11.3652 H   0  0  0  0  0
   18.0081   35.4310   13.9482 H   0  0  0  0  0
   18.9598   34.0738   14.7036 H   0  0  0  0  0
   16.7539   32.6162   15.9228 H   0  0  0  0  0
   18.2556   33.1267   16.7322 H   0  0  0  0  0
   16.6760   33.5751   17.4213 H   0  0  0  0  0
   21.0886   28.1366   11.5401 H   0  0  0  0  0
   17.3014   29.6825   11.7315 H   0  0  0  0  0
   13.5343   31.0416   10.1748 H   0  0  0  0  0
   15.2341   29.2698   10.4272 H   0  0  0  0  0
   22.2217   29.5749    9.8657 H   0  0  0  0  0
   18.8459   35.5154   16.7229 H   0  0  0  0  0
   17.7515   36.6637   15.9138 H   0  0  0  0  0
   17.2408   35.8545   17.4155 H   0  0  0  0  0
   16.2724   34.8811   15.4690 H   0  0  0  0  0
   18.0886   30.0794   15.0298 H   0  0  0  0  0
   22.5731   31.6713    9.1889 H   0  0  0  0  0
  2  1  4  0  0  0
  1 18  4  0  0  0
  2  3  4  0  0  0
  4  2  1  0  0  0
  3  9  4  0  0  0
  3 19  1  0  0  0
 10  4  1  0  0  0
  4 22  1  0  0  0
 10  5  4  0  0  0
  5 12  4  0  0  0
  5 13  4  0  0  0
 12  6  4  0  0  0
  6 14  4  0  0  0
 11  7  1  0  0  0
  7 21  1  0  0  0
 21  8  1  0  0  0
  9 16  4  0  0  0
 10 11  4  0  0  0
 11 20  4  0  0  0
 12 20  4  0  0  0
 13 15  4  0  0  0
 14 15  4  0  0  0
 16 18  4  0  0  0
 21 17  1  0  0  0
 18 24  1  0  0  0
 19 22  1  0  0  0
 19 23  2  0  0  0
  1 25  1  0  0  0
  4 26  1  0  0  0
  6 27  1  0  0  0
  7 28  1  0  0  0
  7 29  1  0  0  0
  8 30  1  0  0  0
  8 31  1  0  0  0
  8 32  1  0  0  0
  9 33  1  0  0  0
 13 34  1  0  0  0
 14 35  1  0  0  0
 15 36  1  0  0  0
 16 37  1  0  0  0
 17 38  1  0  0  0
 17 39  1  0  0  0
 17 40  1  0  0  0
 21 41  1  0  0  0
 22 42  1  0  0  0
 24 43  1  0  0  0
M  END
$$$$
