6hmg_ligand
  -I-interpret- 

 46 48  0  0  0  0  0  0  0  0999 V2000
    4.9550   24.7400    3.3070 C   0  0  0  0  0
    2.8120   24.0270    4.3650 C   0  0  0  0  0
    4.9260   22.7740    4.9830 C   0  0  0  0  0
    5.7090   23.7240    4.1350 C   0  0  0  0  0
    1.4030   23.7780    4.1660 O   0  0  0  0  0
    3.5100   24.3740    3.0410 C   0  0  0  0  0
    2.8480   25.5320    2.2730 C   0  0  0  0  0
    3.0000   26.8010    2.9110 O   0  0  0  0  0
    3.4080   22.7870    4.9930 C   0  0  0  0  0
    2.9480   22.7300    6.3580 O   0  0  0  0  0
    5.6090   22.3070    3.7450 N   0  3  0  0  0
    3.0940   21.4100    6.9530 C   0  0  0  0  0
    2.1660   21.3230    8.1810 C   0  0  0  0  0
    2.6340   22.2210    9.3110 C   0  0  0  0  0
    4.0870   21.8880    9.6410 C   0  0  0  0  0
    4.9160   22.0790    8.3960 C   0  0  0  0  0
    6.3730   21.6780    8.6170 C   0  0  0  0  0
    0.8520   21.6880    7.7990 O   0  0  0  0  0
    1.8240   22.0210   10.4860 O   0  0  0  0  0
    4.5830   22.7720   10.6600 O   0  0  0  0  0
    4.4210   21.1470    7.4100 O   0  0  0  0  0
    7.1590   21.8580    7.4330 O   0  0  0  0  0
    5.4545   24.8016    2.3402 H   0  0  0  0  0
    4.9521   25.6743    3.8684 H   0  0  0  0  0
    2.9544   24.8864    5.0201 H   0  0  0  0  0
    4.9393   22.5223    6.0435 H   0  0  0  0  0
    6.5281   24.4192    4.3191 H   0  0  0  0  0
    0.9959   24.5505    3.7671 H   0  0  0  0  0
    3.4290   23.4839    2.4171 H   0  0  0  0  0
    1.7803   25.3196    2.2174 H   0  0  0  0  0
    3.3309   25.5962    1.2979 H   0  0  0  0  0
    2.5670   27.4767    2.3841 H   0  0  0  0  0
    3.0879   21.9255    4.4069 H   0  0  0  0  0
    5.3849   21.7615    2.9127 H   0  0  0  0  0
    6.2317   21.5514    3.4592 H   0  0  0  0  0
    2.8461   20.6823    6.1803 H   0  0  0  0  0
    2.1858   20.2959    8.5455 H   0  0  0  0  0
    2.5450   23.2609    8.9967 H   0  0  0  0  0
    4.1479   20.8598    9.9976 H   0  0  0  0  0
    4.8537   23.1274    8.1045 H   0  0  0  0  0
    6.4007   20.6231    8.8898 H   0  0  0  0  0
    6.7871   22.3098    9.4028 H   0  0  0  0  0
    0.2717   21.6347    8.5619 H   0  0  0  0  0
    2.1343   22.5964   11.1890 H   0  0  0  0  0
    5.4963   22.5511   10.8569 H   0  0  0  0  0
    8.0657   21.5966    7.6094 H   0  0  0  0  0
  1  4  1  0  0  0
  6  1  1  0  0  0
  2  5  1  0  0  0
  2  6  1  0  0  0
  2  9  1  0  0  0
  4  3  1  0  0  0
  3  9  1  0  0  0
  3 11  1  0  0  0
  4 11  1  0  0  0
  6  7  1  0  0  0
  7  8  1  0  0  0
  9 10  1  0  0  0
 10 12  1  0  0  0
 12 13  1  0  0  0
 12 21  1  0  0  0
 13 14  1  0  0  0
 13 18  1  0  0  0
 14 15  1  0  0  0
 14 19  1  0  0  0
 15 16  1  0  0  0
 15 20  1  0  0  0
 16 17  1  0  0  0
 16 21  1  0  0  0
 17 22  1  0  0  0
  1 23  1  0  0  0
  1 24  1  0  0  0
  2 25  1  0  0  0
  3 26  1  0  0  0
  4 27  1  0  0  0
  5 28  1  0  0  0
  6 29  1  0  0  0
  7 30  1  0  0  0
  7 31  1  0  0  0
  8 32  1  0  0  0
  9 33  1  0  0  0
 11 34  1  0  0  0
 11 35  1  0  0  0
 12 36  1  0  0  0
 13 37  1  0  0  0
 14 38  1  0  0  0
 15 39  1  0  0  0
 16 40  1  0  0  0
 17 41  1  0  0  0
 17 42  1  0  0  0
 18 43  1  0  0  0
 19 44  1  0  0  0
 20 45  1  0  0  0
 22 46  1  0  0  0
M  END
$$$$
