3r7q_ligand
  -I-interpret- 

 38 41  0  0  0  0  0  0  0  0999 V2000
   16.4880   62.5540   21.2420 C   0  0  0  0  0
   24.2440   61.2120   19.6840 N   0  0  0  0  0
   18.4190   59.6390   23.5710 O   0  0  0  0  0
   20.9950   61.5420   20.4410 S   0  0  0  0  0
   15.7930   61.8340   22.2120 C   0  0  0  0  0
   24.5250   60.0650   21.5540 O   0  0  0  0  0
   16.4320   60.8670   22.9930 C   0  0  0  0  0
   17.7800   60.5830   22.8150 C   0  0  0  0  0
   18.4640   61.2910   21.8220 C   0  0  0  0  0
   17.8330   62.2720   21.0520 C   0  0  0  0  0
   19.8340   59.6090   23.8160 C   0  0  0  0  0
   20.5780   60.2060   22.6310 C   0  0  0  0  0
   19.9010   60.9850   21.6840 C   0  0  0  0  0
   21.9080   60.0590   22.3540 C   0  0  0  0  0
   22.3460   60.6860   21.2200 C   0  0  0  0  0
   23.7540   60.6320   20.8070 C   0  0  0  0  0
   23.4440   61.9340   18.7800 C   0  0  0  0  0
   23.4060   63.3200   18.9340 C   0  0  0  0  0
   22.6490   64.1270   18.0930 C   0  0  0  0  0
   21.9180   63.5470   17.0750 C   0  0  0  0  0
   21.9480   62.1650   16.8980 C   0  0  0  0  0
   22.7020   61.3480   17.7390 C   0  0  0  0  0
   25.6770   61.1030   19.4190 C   0  0  0  0  0
   22.6890   59.6350   17.4680 Cl  0  0  0  0  0
   15.9878   63.3189   20.6480 H   0  0  0  0  0
   14.7314   62.0286   22.3644 H   0  0  0  0  0
   15.8648   60.3284   23.7521 H   0  0  0  0  0
   18.4004   62.8182   20.2985 H   0  0  0  0  0
   20.1524   58.5761   23.9568 H   0  0  0  0  0
   20.0562   60.1914   24.7102 H   0  0  0  0  0
   22.5750   59.4810   22.9937 H   0  0  0  0  0
   23.9846   63.7817   19.7341 H   0  0  0  0  0
   22.6324   65.2075   18.2356 H   0  0  0  0  0
   21.3183   64.1693   16.4108 H   0  0  0  0  0
   21.3725   61.7156   16.0887 H   0  0  0  0  0
   26.2324   61.5604   20.2378 H   0  0  0  0  0
   25.9508   60.0513   19.3354 H   0  0  0  0  0
   25.9129   61.6163   18.4868 H   0  0  0  0  0
  1  5  4  0  0  0
 10  1  4  0  0  0
 16  2  1  0  0  0
  2 17  1  0  0  0
  2 23  1  0  0  0
  3  8  1  0  0  0
 11  3  1  0  0  0
  4 13  4  0  0  0
 15  4  4  0  0  0
  7  5  4  0  0  0
 16  6  2  0  0  0
  8  7  4  0  0  0
  9  8  4  0  0  0
  9 10  4  0  0  0
 13  9  1  0  0  0
 12 11  1  0  0  0
 12 13  4  0  0  0
 14 12  4  0  0  0
 15 14  4  0  0  0
 15 16  1  0  0  0
 17 18  4  0  0  0
 17 22  4  0  0  0
 18 19  4  0  0  0
 19 20  4  0  0  0
 20 21  4  0  0  0
 21 22  4  0  0  0
 22 24  1  0  0  0
  1 25  1  0  0  0
  5 26  1  0  0  0
  7 27  1  0  0  0
 10 28  1  0  0  0
 11 29  1  0  0  0
 11 30  1  0  0  0
 14 31  1  0  0  0
 18 32  1  0  0  0
 19 33  1  0  0  0
 20 34  1  0  0  0
 21 35  1  0  0  0
 23 36  1  0  0  0
 23 37  1  0  0  0
 23 38  1  0  0  0
M  END
$$$$
