6gjl_ligand
  -I-interpret- 

 42 43  0  0  0  0  0  0  0  0999 V2000
   -0.8290   18.8490   -6.3480 N   0  0  0  0  0
   -1.7390   19.9510   -6.1190 C   0  0  0  0  0
   -0.6060   17.7810   -5.6050 C   0  0  0  0  0
    2.1710   18.7590   -8.6050 N   0  0  0  0  0
   -1.4700   15.1840   -4.3810 C   0  0  0  0  0
   -4.8940   18.6840   -7.9230 C   0  0  0  0  0
    1.3540   19.0740   -7.5910 C   0  0  0  0  0
   -0.1590   18.9990   -7.6510 C   0  0  0  0  0
   -3.6560   18.6720   -7.2570 C   0  0  0  0  0
    0.1540   16.8820   -5.9870 O   0  0  0  0  0
   -1.1960   17.6300   -4.4180 N   0  0  0  0  0
   -0.9700   16.4130   -3.6590 C   0  0  0  0  0
   -2.4780   15.1530   -5.0310 O   0  0  0  0  0
   -0.7340   14.0950   -4.2010 O   0  0  0  0  0
   -1.0800   12.8780   -4.9040 C   0  0  0  0  0
   -0.0710   11.7860   -4.5930 C   0  0  0  0  0
    2.1020   19.4220   -6.5310 N   0  0  0  0  0
    3.4140   19.3980   -6.8210 N   0  0  0  0  0
    3.4920   18.9740   -8.1490 N   0  0  0  0  0
   -3.0530   19.8920   -6.9150 C   0  0  0  0  0
   -5.5410   19.8540   -8.2620 C   0  0  0  0  0
   -6.7410   19.7940   -8.9310 N   0  0  0  0  0
   -4.9260   21.0780   -7.9570 C   0  0  0  0  0
   -3.6960   21.0770   -7.2900 C   0  0  0  0  0
   -1.2209   20.8557   -6.4373 H   0  0  0  0  0
   -2.0108   19.9181   -5.0639 H   0  0  0  0  0
   -5.3600   17.7331   -8.1812 H   0  0  0  0  0
   -0.5035   19.9425   -8.0744 H   0  0  0  0  0
   -0.4064   18.1126   -8.2351 H   0  0  0  0  0
   -3.1710   17.7277   -7.0096 H   0  0  0  0  0
   -1.8005   18.3630   -4.0469 H   0  0  0  0  0
    0.1041   16.3030   -3.5093 H   0  0  0  0  0
   -1.5136   16.4962   -2.7179 H   0  0  0  0  0
   -1.0754   13.0725   -5.9765 H   0  0  0  0  0
   -2.0692   12.5507   -4.5841 H   0  0  0  0  0
    0.9213   12.1098   -4.9071 H   0  0  0  0  0
   -0.0683   11.5903   -3.5207 H   0  0  0  0  0
   -0.3445   10.8771   -5.1288 H   0  0  0  0  0
   -7.1456   18.8894   -9.1725 H   0  0  0  0  0
   -7.2265   20.6541   -9.1857 H   0  0  0  0  0
   -5.4009   22.0184   -8.2364 H   0  0  0  0  0
   -3.2231   22.0305   -7.0548 H   0  0  0  0  0
  1  2  1  0  0  0
  3  1  1  0  0  0
  1  8  1  0  0  0
  2 20  1  0  0  0
  3 10  2  0  0  0
 11  3  1  0  0  0
  7  4  4  0  0  0
  4 19  4  0  0  0
 12  5  1  0  0  0
  5 13  2  0  0  0
  5 14  1  0  0  0
  9  6  4  0  0  0
  6 21  4  0  0  0
  8  7  1  0  0  0
  7 17  4  0  0  0
 20  9  4  0  0  0
 11 12  1  0  0  0
 14 15  1  0  0  0
 15 16  1  0  0  0
 17 18  4  0  0  0
 18 19  4  0  0  0
 20 24  4  0  0  0
 21 22  1  0  0  0
 21 23  4  0  0  0
 23 24  4  0  0  0
  2 25  1  0  0  0
  2 26  1  0  0  0
  6 27  1  0  0  0
  8 28  1  0  0  0
  8 29  1  0  0  0
  9 30  1  0  0  0
 11 31  1  0  0  0
 12 32  1  0  0  0
 12 33  1  0  0  0
 15 34  1  0  0  0
 15 35  1  0  0  0
 16 36  1  0  0  0
 16 37  1  0  0  0
 16 38  1  0  0  0
 22 39  1  0  0  0
 22 40  1  0  0  0
 23 41  1  0  0  0
 24 42  1  0  0  0
M  END
$$$$
