4j8t_ligand
  -I-interpret- 

 62 66  0  0  0  0  0  0  0  0999 V2000
  -12.0240  -30.5510    9.6190 O   0  0  0  0  0
  -11.7260  -31.7090    9.5270 C   0  0  0  0  0
  -12.2980  -32.8330   10.1970 C   0  0  0  0  0
  -11.0270  -32.0860    8.5490 O   0  0  0  0  0
  -10.8140  -33.3650    8.6670 C   0  0  0  0  0
  -11.7170  -33.8530    9.7140 C   0  0  0  0  0
  -12.1320  -35.2140   10.0060 C   0  0  0  0  0
  -12.5580  -35.8950    8.7840 C   0  0  0  0  0
  -10.9820  -36.0770   10.6050 C   0  0  0  0  0
   -9.8220  -35.2870   11.1960 C   0  0  0  0  0
  -11.5850  -37.0110   11.7050 C   0  0  0  0  0
  -11.8980  -36.2560   12.7560 O   0  0  0  0  0
  -10.5890  -36.9240    9.4150 C   0  0  0  0  0
  -11.8930  -37.2280    8.8070 C   0  0  0  0  0
   -9.9290  -36.1990    8.5660 O   0  0  0  0  0
   -9.6960  -38.1450    9.8230 C   0  0  0  0  0
   -9.4280  -39.0140    8.6310 C   0  0  0  0  0
  -10.2710  -38.9420   10.9730 C   0  0  0  0  0
  -10.6020  -38.0500   12.1280 C   0  0  0  0  0
   -9.3330  -40.1010   11.3670 C   0  0  0  0  0
   -8.1010  -39.5980   11.9090 C   0  0  0  0  0
   -8.9940  -40.9490   10.1440 C   0  0  0  0  0
   -8.5060  -40.0950    8.9640 C   0  0  0  0  0
  -10.1610  -41.7800    9.6960 C   0  0  0  0  0
  -10.8250  -42.5600   10.8190 C   0  0  0  0  0
   -9.9820  -43.5840   11.2700 O   0  0  0  0  0
  -11.1910  -41.6090   11.8930 C   0  0  0  0  0
   -9.9930  -40.9760   12.4060 C   0  0  0  0  0
  -13.0725  -32.8181   10.9638 H   0  0  0  0  0
   -9.7747  -33.5610    8.9308 H   0  0  0  0  0
  -11.0037  -33.8770    7.7236 H   0  0  0  0  0
  -12.9434  -35.1224   10.7281 H   0  0  0  0  0
  -12.2773  -35.3279    7.8965 H   0  0  0  0  0
  -13.6427  -35.9944    8.7439 H   0  0  0  0  0
   -9.3743  -34.6660   10.4201 H   0  0  0  0  0
  -10.1895  -34.6534   12.0032 H   0  0  0  0  0
   -9.0748  -35.9781   11.5862 H   0  0  0  0  0
  -12.4627  -37.5181   11.3042 H   0  0  0  0  0
  -12.2711  -36.8092   13.4462 H   0  0  0  0  0
  -11.8080  -37.6794    7.8185 H   0  0  0  0  0
  -12.4581  -37.9771    9.3616 H   0  0  0  0  0
   -9.6805  -36.7382    7.8116 H   0  0  0  0  0
   -8.7496  -37.7436   10.1853 H   0  0  0  0  0
   -8.9796  -38.4026    7.8479 H   0  0  0  0  0
  -10.3702  -39.4498    8.2987 H   0  0  0  0  0
  -11.2072  -39.3953   10.6470 H   0  0  0  0  0
  -11.0349  -38.6478   12.9301 H   0  0  0  0  0
   -9.6918  -37.5618   12.4763 H   0  0  0  0  0
   -7.6026  -38.9799   11.1623 H   0  0  0  0  0
   -8.3129  -38.9996   12.7951 H   0  0  0  0  0
   -7.4562  -40.4342   12.1793 H   0  0  0  0  0
   -8.1862  -41.6099   10.4583 H   0  0  0  0  0
   -7.5535  -39.6469    9.2469 H   0  0  0  0  0
   -8.4236  -40.7446    8.0926 H   0  0  0  0  0
   -9.7858  -42.5052    8.9739 H   0  0  0  0  0
  -10.9075  -41.0989    9.2874 H   0  0  0  0  0
  -11.7334  -43.0474   10.4648 H   0  0  0  0  0
  -10.4160  -44.0658   11.9779 H   0  0  0  0  0
  -11.6919  -42.1458   12.6986 H   0  0  0  0  0
  -11.8609  -40.8483   11.4921 H   0  0  0  0  0
  -10.2720  -40.3505   13.2539 H   0  0  0  0  0
   -9.2891  -41.7568   12.6939 H   0  0  0  0  0
  1  2  2  0  0  0
  2  3  1  0  0  0
  2  4  1  0  0  0
  3  6  2  0  0  0
  4  5  1  0  0  0
  5  6  1  0  0  0
  6  7  1  0  0  0
  7  8  1  0  0  0
  7  9  1  0  0  0
  8 14  1  0  0  0
  9 10  1  0  0  0
  9 11  1  0  0  0
  9 13  1  0  0  0
 11 12  1  0  0  0
 11 19  1  0  0  0
 13 14  1  0  0  0
 13 15  1  0  0  0
 13 16  1  0  0  0
 16 17  1  0  0  0
 16 18  1  0  0  0
 17 23  1  0  0  0
 18 19  1  0  0  0
 18 20  1  0  0  0
 20 21  1  0  0  0
 20 22  1  0  0  0
 20 28  1  0  0  0
 22 23  1  0  0  0
 22 24  1  0  0  0
 24 25  1  0  0  0
 25 26  1  0  0  0
 25 27  1  0  0  0
 27 28  1  0  0  0
  3 29  1  0  0  0
  5 30  1  0  0  0
  5 31  1  0  0  0
  7 32  1  0  0  0
  8 33  1  0  0  0
  8 34  1  0  0  0
 10 35  1  0  0  0
 10 36  1  0  0  0
 10 37  1  0  0  0
 11 38  1  0  0  0
 12 39  1  0  0  0
 14 40  1  0  0  0
 14 41  1  0  0  0
 15 42  1  0  0  0
 16 43  1  0  0  0
 17 44  1  0  0  0
 17 45  1  0  0  0
 18 46  1  0  0  0
 19 47  1  0  0  0
 19 48  1  0  0  0
 21 49  1  0  0  0
 21 50  1  0  0  0
 21 51  1  0  0  0
 22 52  1  0  0  0
 23 53  1  0  0  0
 23 54  1  0  0  0
 24 55  1  0  0  0
 24 56  1  0  0  0
 25 57  1  0  0  0
 26 58  1  0  0  0
 27 59  1  0  0  0
 27 60  1  0  0  0
 28 61  1  0  0  0
 28 62  1  0  0  0
M  END
$$$$
