4btu_ligand
  -I-interpret- 

 68 71  0  0  0  0  0  0  0  0999 V2000
   -9.2630  -10.7040  -16.7700 C   0  0  0  0  0
   -8.0750  -11.3270  -16.5970 C   0  0  0  0  0
   -7.0160  -10.5090  -16.6430 C   0  0  0  0  0
   -5.3610  -10.9810  -16.4570 Cl  0  0  0  0  0
   -7.5470   -8.9430  -16.9110 S   0  0  0  0  0
   -9.1660   -9.3820  -16.9630 C   0  0  0  0  0
  -10.3360   -8.4190  -17.1810 C   0  0  0  0  0
  -10.1740   -7.2030  -17.0990 O   0  0  0  0  0
  -11.5060   -8.9950  -17.4490 N   0  0  0  0  0
  -12.7320   -8.2080  -17.6570 C   0  0  0  0  0
  -12.8320   -7.7080  -19.1020 C   0  0  0  0  0
  -11.5140   -7.0690  -19.5410 C   0  0  0  0  0
  -10.6250   -7.7450  -20.0580 O   0  0  0  0  0
  -11.3420   -5.7630  -19.3670 N   0  0  0  0  0
  -12.4130   -4.9490  -18.7610 C   0  0  0  0  0
  -12.6670   -3.7360  -19.6550 C   0  0  0  0  0
  -11.4040   -3.0180  -19.8900 N   0  3  0  0  0
  -11.6840   -1.8140  -20.6830 C   0  0  0  0  0
  -10.4500   -3.8680  -20.6230 C   0  0  0  0  0
  -10.0920   -5.1010  -19.7910 C   0  0  0  0  0
  -13.1570   -8.8260  -19.9970 N   0  0  0  0  0
  -14.2420   -8.3260  -21.0970 S   0  0  0  0  0
  -14.7750   -9.5120  -21.8470 O   0  0  0  0  0
  -15.3700   -7.6260  -20.3980 O   0  0  0  0  0
  -13.4780   -7.2160  -22.2150 C   0  0  0  0  0
  -12.7530   -7.7050  -23.2950 C   0  0  0  0  0
  -12.6100   -9.4130  -23.5270 Cl  0  0  0  0  0
  -13.5950   -5.8440  -22.0220 C   0  0  0  0  0
  -12.9890   -4.9620  -22.9090 C   0  0  0  0  0
  -13.1030   -3.6330  -22.7240 F   0  0  0  0  0
  -12.2650   -5.4510  -23.9890 C   0  0  0  0  0
  -12.1440   -6.8220  -24.1810 C   0  0  0  0  0
  -11.4160   -7.3060  -25.2750 N   0  0  0  0  0
  -10.5500   -8.4950  -25.1000 C   0  0  0  0  0
   -9.4930   -8.5560  -26.2000 C   0  0  0  0  0
  -10.1530   -8.4870  -27.5710 C   0  0  0  0  0
  -10.8000   -7.1180  -27.7680 C   0  0  0  0  0
  -11.5510   -6.6540  -26.5150 C   0  0  0  0  0
  -12.2900   -5.6740  -26.5940 O   0  0  0  0  0
  -10.2165  -11.2318  -16.7538 H   0  0  0  0  0
   -7.9874  -12.4012  -16.4343 H   0  0  0  0  0
  -11.5541  -10.0119  -17.5120 H   0  0  0  0  0
  -12.7083   -7.3451  -16.9914 H   0  0  0  0  0
  -13.5926   -8.8436  -17.4487 H   0  0  0  0  0
  -13.6218   -6.9586  -19.1540 H   0  0  0  0  0
  -12.1124   -4.6208  -17.7660 H   0  0  0  0  0
  -13.3237   -5.5411  -18.6706 H   0  0  0  0  0
  -13.3756   -3.0685  -19.1647 H   0  0  0  0  0
  -13.0750   -4.0700  -20.6090 H   0  0  0  0  0
  -10.9931   -2.7670  -18.9908 H   0  0  0  0  0
  -12.1278   -2.1030  -21.6357 H   0  0  0  0  0
  -12.3772   -1.1740  -20.1371 H   0  0  0  0  0
  -10.7541   -1.2745  -20.8628 H   0  0  0  0  0
   -9.5433   -3.2966  -20.8218 H   0  0  0  0  0
  -10.9058   -4.1899  -21.5593 H   0  0  0  0  0
   -9.4915   -5.7887  -20.3865 H   0  0  0  0  0
   -9.5147   -4.8031  -18.9158 H   0  0  0  0  0
  -12.7644   -9.7655  -19.9373 H   0  0  0  0  0
  -14.1624   -5.4598  -21.1744 H   0  0  0  0  0
  -11.7918   -4.7593  -24.6859 H   0  0  0  0  0
  -11.1668   -9.3922  -25.1525 H   0  0  0  0  0
  -10.0506   -8.4292  -24.1334 H   0  0  0  0  0
   -8.9449   -9.4944  -26.1155 H   0  0  0  0  0
   -8.8141   -7.7105  -26.0887 H   0  0  0  0  0
  -10.9185   -9.2598  -27.6408 H   0  0  0  0  0
   -9.3980   -8.6421  -28.3417 H   0  0  0  0  0
  -11.5156   -7.1932  -28.5867 H   0  0  0  0  0
  -10.0121   -6.3955  -27.9810 H   0  0  0  0  0
  1  2  4  0  0  0
  1  6  4  0  0  0
  2  3  4  0  0  0
  3  4  1  0  0  0
  3  5  4  0  0  0
  5  6  4  0  0  0
  6  7  1  0  0  0
  7  8  2  0  0  0
  7  9  1  0  0  0
  9 10  1  0  0  0
 10 11  1  0  0  0
 11 12  1  0  0  0
 11 21  1  0  0  0
 12 13  2  0  0  0
 12 14  1  0  0  0
 14 15  1  0  0  0
 14 20  1  0  0  0
 15 16  1  0  0  0
 16 17  1  0  0  0
 17 18  1  0  0  0
 17 19  1  0  0  0
 19 20  1  0  0  0
 21 22  1  0  0  0
 22 23  2  0  0  0
 22 24  2  0  0  0
 22 25  1  0  0  0
 25 26  4  0  0  0
 25 28  4  0  0  0
 26 27  1  0  0  0
 26 32  4  0  0  0
 28 29  4  0  0  0
 29 30  1  0  0  0
 29 31  4  0  0  0
 31 32  4  0  0  0
 32 33  1  0  0  0
 33 34  1  0  0  0
 33 38  1  0  0  0
 34 35  1  0  0  0
 35 36  1  0  0  0
 36 37  1  0  0  0
 37 38  1  0  0  0
 38 39  2  0  0  0
  1 40  1  0  0  0
  2 41  1  0  0  0
  9 42  1  0  0  0
 10 43  1  0  0  0
 10 44  1  0  0  0
 11 45  1  0  0  0
 15 46  1  0  0  0
 15 47  1  0  0  0
 16 48  1  0  0  0
 16 49  1  0  0  0
 17 50  1  0  0  0
 18 51  1  0  0  0
 18 52  1  0  0  0
 18 53  1  0  0  0
 19 54  1  0  0  0
 19 55  1  0  0  0
 20 56  1  0  0  0
 20 57  1  0  0  0
 21 58  1  0  0  0
 28 59  1  0  0  0
 31 60  1  0  0  0
 34 61  1  0  0  0
 34 62  1  0  0  0
 35 63  1  0  0  0
 35 64  1  0  0  0
 36 65  1  0  0  0
 36 66  1  0  0  0
 37 67  1  0  0  0
 37 68  1  0  0  0
M  END
$$$$
