### 
### Created by X-TOOL on Mon Sep 10 21:13:10 2018
### 

@<TRIPOS>MOLECULE
4b4n_ligand
  222   228     1     0     0
SMALL
GAST_HUCK


@<TRIPOS>ATOM
      1 N           3.4800  -15.1940  -17.8980 N.4       1 PRO         0.2461
      2 CA          4.4190  -14.0850  -17.6400 C.3       1 PRO         0.0670
      3 C           4.8060  -13.9070  -16.1730 C.2       1 PRO         0.2268
      4 O           4.2400  -14.5410  -15.2930 O.2       1 PRO        -0.3907
      5 CB          3.6380  -12.8410  -18.0940 C.3       1 PRO         0.0127
      6 CG          2.2090  -13.2360  -17.9470 C.3       1 PRO        -0.0053
      7 CD          2.1640  -14.6940  -18.3540 C.3       1 PRO        -0.0313
      8 N           5.7480  -13.0040  -15.9100 N.am      1 VAL        -0.2608
      9 CA          6.1480  -12.6840  -14.5320 C.3       1 VAL         0.1334
     10 C           5.0530  -11.8090  -13.8940 C.2       1 VAL         0.2042
     11 O           4.6680  -12.0200  -12.7380 O.2       1 VAL        -0.3944
     12 CB          7.5380  -11.9360  -14.4550 C.3       1 VAL        -0.0063
     13 CG1         7.8020  -11.4920  -13.0400 C.3       1 VAL        -0.0584
     14 CG2         8.6820  -12.8270  -14.8490 C.3       1 VAL        -0.0584
     15 N           4.5750  -10.8300  -14.6640 N.am      1 LEU        -0.2637
     16 CA          3.5820   -9.8560  -14.2130 C.3       1 LEU         0.1312
     17 C           2.3030   -9.8290  -15.0800 C.2       1 LEU         0.2040
     18 O           2.3170   -9.4800  -16.2660 O.2       1 LEU        -0.3944
     19 CB          4.1810   -8.4430  -14.1580 C.3       1 LEU        -0.0101
     20 CG          5.2420   -8.2570  -13.0610 C.3       1 LEU        -0.0425
     21 CD1         5.8400   -6.8680  -13.2270 C.3       1 LEU        -0.0625
     22 CD2         4.6910   -8.4240  -11.6320 C.3       1 LEU        -0.0625
     23 N           1.1950  -10.1970  -14.4450 N.am      1 PHE        -0.2619
     24 CA         -0.1140  -10.1300  -15.0760 C.3       1 PHE         0.1406
     25 C          -0.6750   -8.7050  -15.0510 C.2       1 PHE         0.2085
     26 O          -0.3140   -7.8960  -14.1840 O.2       1 PHE        -0.3940
     27 CB         -1.0890  -11.1170  -14.3980 C.3       1 PHE         0.0214
     28 CG         -0.7570  -12.5690  -14.6690 C.ar      1 PHE        -0.0386
     29 CD1        -0.9670  -13.1160  -15.9380 C.ar      1 PHE        -0.0601
     30 CD2        -0.2240  -13.3810  -13.6770 C.ar      1 PHE        -0.0601
     31 CE1        -0.6520  -14.4410  -16.2030 C.ar      1 PHE        -0.0686
     32 CE2         0.1030  -14.7130  -13.9340 C.ar      1 PHE        -0.0686
     33 CZ         -0.1120  -15.2450  -15.1950 C.ar      1 PHE        -0.0687
     34 N          -1.5440   -8.3770  -16.0200 N.am      1 PRO        -0.2497
     35 CA         -2.1350   -7.0310  -15.9780 C.3       1 PRO         0.1338
     36 C          -2.9880   -6.8670  -14.7300 C.2       1 PRO         0.2039
     37 O          -3.8900   -7.6840  -14.4890 O.2       1 PRO        -0.3944
     38 CB         -2.9890   -6.9800  -17.2580 C.3       1 PRO        -0.0104
     39 CG         -2.3690   -7.9890  -18.1530 C.3       1 PRO        -0.0281
     40 CD         -1.8960   -9.0900  -17.2660 C.3       1 PRO         0.0369
     41 N          -2.6980   -5.8430  -13.9280 N.am      1 GLY        -0.2664
     42 CA         -3.2940   -5.7540  -12.5970 C.3       1 GLY         0.1201
     43 C          -2.8030   -6.9160  -11.7350 C.2       1 GLY         0.2007
     44 O          -3.5820   -7.7390  -11.2220 O.2       1 GLY        -0.3947
     45 N          -1.4810   -7.0340  -11.6890 N.am      1 GLN        -0.2638
     46 CA         -0.7600   -7.7150  -10.6190 C.3       1 GLN         0.1332
     47 C           0.2810   -6.6420  -10.2660 C.2       1 GLN         0.2065
     48 O           0.9830   -6.1800  -11.1420 O.2       1 GLN        -0.3942
     49 CB         -0.1030   -8.9910  -11.1450 C.3       1 GLN         0.0045
     50 CG          1.0280   -9.5690  -10.2960 C.3       1 GLN         0.0412
     51 CD          1.6660  -10.8070  -10.9300 C.2       1 GLN         0.1737
     52 OE1         1.3100  -11.2050  -12.0560 O.2       1 GLN        -0.3973
     53 NE2         2.6090  -11.4230  -10.2190 N.am      1 GLN        -0.3009
     54 N           0.3070   -6.1650   -9.0120 N.am      1 PRO        -0.2498
     55 CA          1.3200   -5.1830   -8.6850 C.3       1 PRO         0.1338
     56 C           2.7270   -5.6920   -8.9610 C.2       1 PRO         0.2042
     57 O           3.0110   -6.9060   -8.8710 O.2       1 PRO        -0.3944
     58 CB          1.1290   -4.9700   -7.1830 C.3       1 PRO        -0.0104
     59 CG         -0.3680   -5.1720   -6.9870 C.3       1 PRO        -0.0281
     60 CD         -0.8250   -6.1220   -8.0660 C.3       1 PRO         0.0369
     61 N           3.5950   -4.7420   -9.2630 N.am      1 PHE        -0.2619
     62 CA          5.0310   -5.0290   -9.3420 C.3       1 PHE         0.1404
     63 C           5.4590   -5.7220   -8.0290 C.2       1 PHE         0.2058
     64 O           5.0510   -5.3320   -6.9410 O.2       1 PHE        -0.3942
     65 CB          5.8120   -3.7280   -9.6170 C.3       1 PHE         0.0214
     66 CG          5.4250   -3.0210  -10.9010 C.ar      1 PHE        -0.0386
     67 CD1         5.9820   -3.3980  -12.0990 C.ar      1 PHE        -0.0601
     68 CD2         4.5240   -1.9750  -10.8860 C.ar      1 PHE        -0.0601
     69 CE1         5.6900   -2.7140  -13.2570 C.ar      1 PHE        -0.0686
     70 CE2         4.1810   -1.2870  -12.0540 C.ar      1 PHE        -0.0686
     71 CZ          4.7810   -1.6440  -13.2400 C.ar      1 PHE        -0.0687
     72 N           6.1900   -6.8390   -8.1270 N.am      1 GLY        -0.2663
     73 CA          6.6690   -7.5330   -6.9430 C.3       1 GLY         0.1201
     74 C           5.6880   -8.5220   -6.3420 C.2       1 GLY         0.2007
     75 O           6.0680   -9.3390   -5.5320 O.2       1 GLY        -0.3947
     76 N           4.4300   -8.4420   -6.7340 N.am      1 GLN        -0.2638
     77 CA          3.4100   -9.3590   -6.1800 C.3       1 GLN         0.1332
     78 C           3.6620  -10.8010   -6.6080 C.2       1 GLN         0.2065
     79 O           3.7090  -11.0820   -7.8000 O.2       1 GLN        -0.3942
     80 CB          2.0200   -8.9320   -6.6570 C.3       1 GLN         0.0045
     81 CG          0.8780   -9.6010   -5.9030 C.3       1 GLN         0.0412
     82 CD         -0.4770   -9.0360   -6.2660 C.2       1 GLN         0.1737
     83 OE1        -0.8760   -8.0080   -5.7330 O.2       1 GLN        -0.3973
     84 NE2        -1.2040   -9.7200   -7.1620 N.am      1 GLN        -0.3009
     85 N           3.8460  -11.7160   -5.6340 N.am      1 PRO        -0.2498
     86 CA          3.9570  -13.1200   -6.0440 C.3       1 PRO         0.1340
     87 C           2.6520  -13.5820   -6.7080 C.2       1 PRO         0.2066
     88 O           1.5630  -13.1480   -6.3000 O.2       1 PRO        -0.3942
     89 CB          4.2130  -13.8800   -4.7400 C.3       1 PRO        -0.0104
     90 CG          4.0130  -12.9080   -3.6350 C.3       1 PRO        -0.0281
     91 CD          4.1270  -11.5200   -4.1970 C.3       1 PRO         0.0369
     92 N           2.7550  -14.4470   -7.7360 N.am      1 PRO        -0.2498
     93 CA          1.5660  -14.8270   -8.4460 C.3       1 PRO         0.1338
     94 C           0.6370  -15.7010   -7.6300 C.2       1 PRO         0.2041
     95 O           1.1150  -16.4530   -6.7800 O.2       1 PRO        -0.3944
     96 CB          2.1040  -15.5910   -9.6500 C.3       1 PRO        -0.0104
     97 CG          3.5400  -15.8070   -9.4330 C.3       1 PRO        -0.0281
     98 CD          3.8520  -15.3680   -8.0310 C.3       1 PRO         0.0369
     99 N          -0.6780  -15.5630   -7.8520 N.am      1 LEU        -0.2637
    100 CA         -1.6690  -16.3610   -7.1450 C.3       1 LEU         0.1312
    101 C          -1.6610  -17.8250   -7.5310 C.2       1 LEU         0.2031
    102 O          -2.0830  -18.6790   -6.7450 O.2       1 LEU        -0.3944
    103 CB         -3.0930  -15.8530   -7.3240 C.3       1 LEU        -0.0101
    104 CG         -3.7900  -14.8240   -6.4550 C.3       1 LEU        -0.0425
    105 CD1        -3.1740  -14.7000   -5.0500 C.3       1 LEU        -0.0625
    106 CD2        -3.8290  -13.4940   -7.2090 C.3       1 LEU        -0.0625
    107 N          -1.2790  -18.1410   -8.7540 N.am      1 GLY        -0.2722
    108 CA         -0.8600  -19.5080   -9.0520 C.3       1 GLY         0.0833
    109 C           0.6580  -19.6780   -8.9170 C.2       1 GLY         0.0570
    110 O           1.4340  -19.4780   -9.8800 O.co2     1 GLY        -0.5669
    111 H           3.3459  -15.7128  -17.0301 H         1 PRO         0.2035
    112 H           3.8723  -15.7863  -18.6299 H         1 PRO         0.2035
    113 H           5.3603  -14.2691  -18.1579 H         1 PRO         0.1099
    114 H           3.8825  -12.5509  -19.1159 H         1 PRO         0.0347
    115 H           3.8852  -11.9601  -17.5016 H         1 PRO         0.0347
    116 H           1.5538  -12.6226  -18.5655 H         1 PRO         0.0320
    117 H           1.8511  -13.0889  -16.9280 H         1 PRO         0.0320
    118 H           1.3258  -15.2346  -17.9144 H         1 PRO         0.0814
    119 H           2.0004  -14.8345  -19.4225 H         1 PRO         0.0814
    120 H           6.2040  -12.5217  -16.6845 H         1 VAL         0.1885
    121 H           6.2660  -13.6231  -13.9913 H         1 VAL         0.0802
    122 H           7.4756  -11.0923  -15.1423 H         1 VAL         0.0343
    123 H           7.0100  -10.8153  -12.7192 H         1 VAL         0.0234
    124 H           7.8246  -12.3633  -12.3854 H         1 VAL         0.0234
    125 H           8.7618  -10.9773  -12.9951 H         1 VAL         0.0234
    126 H           8.7201  -13.6853  -14.1782 H         1 VAL         0.0234
    127 H           8.5371  -13.1708  -15.8732 H         1 VAL         0.0234
    128 H           9.6158  -12.2690  -14.7804 H         1 VAL         0.0234
    129 H           4.9215  -10.7569  -15.6205 H         1 LEU         0.1883
    130 H           3.2925  -10.1814  -13.2138 H         1 LEU         0.0800
    131 H           3.3652   -7.7539  -13.9395 H         1 LEU         0.0315
    132 H           4.6697   -8.2611  -15.1152 H         1 LEU         0.0315
    133 H           5.9913   -9.0394  -13.1811 H         1 LEU         0.0298
    134 H           6.2956   -6.7855  -14.2138 H         1 LEU         0.0232
    135 H           5.0532   -6.1205  -13.1250 H         1 LEU         0.0232
    136 H           6.5981   -6.7063  -12.4607 H         1 LEU         0.0232
    137 H           3.9091   -7.6851  -11.4568 H         1 LEU         0.0232
    138 H           4.2777   -9.4262  -11.5181 H         1 LEU         0.0232
    139 H           5.4977   -8.2785  -10.9136 H         1 LEU         0.0232
    140 H           1.2646  -10.5368  -13.4858 H         1 PHE         0.1885
    141 H           0.0010  -10.4181  -16.1209 H         1 PHE         0.0823
    142 H          -2.0837  -10.9260  -14.8007 H         1 PHE         0.0474
    143 H          -1.0215  -10.9592  -13.3216 H         1 PHE         0.0474
    144 H          -1.3837  -12.4935  -16.7298 H         1 PHE         0.0557
    145 H          -0.0582  -12.9712  -12.6807 H         1 PHE         0.0557
    146 H          -0.8255  -14.8547  -17.1964 H         1 PHE         0.0599
    147 H           0.5267  -15.3335  -13.1444 H         1 PHE         0.0599
    148 H           0.1388  -16.2857  -15.4002 H         1 PHE         0.0559
    149 H          -1.3967   -6.2302  -15.9375 H         1 PRO         0.0802
    150 H          -2.9992   -5.9860  -17.7051 H         1 PRO         0.0313
    151 H          -4.0386   -7.1970  -17.0599 H         1 PRO         0.0313
    152 H          -1.5448   -7.5587  -18.7218 H         1 PRO         0.0287
    153 H          -3.0838   -8.3553  -18.8899 H         1 PRO         0.0287
    154 H          -2.6471   -9.8652  -17.1140 H         1 PRO         0.0524
    155 H          -1.0587   -9.6456  -17.6884 H         1 PRO         0.0524
    156 H          -2.0559   -5.1168  -14.2453 H         1 GLY         0.1881
    157 H          -4.3796   -5.8011  -12.6830 H         1 GLY         0.0763
    158 H          -3.0033   -4.8115  -12.1330 H         1 GLY         0.0763
    159 H          -0.9367   -6.6236  -12.4478 H         1 GLN         0.1883
    160 H          -1.3692   -8.0433   -9.7769 H         1 GLN         0.0801
    161 H           0.3412   -8.7301  -12.1056 H         1 GLN         0.0337
    162 H          -0.8856   -9.7494  -11.1652 H         1 GLN         0.0337
    163 H           0.6086   -9.8632   -9.3339 H         1 GLN         0.0504
    164 H           1.7999   -8.8053  -10.2008 H         1 GLN         0.0504
    165 H           3.0689  -12.2532  -10.5928 H         1 GLN         0.1814
    166 H           2.8712  -11.0645   -9.3008 H         1 GLN         0.1814
    167 H           1.2159   -4.2769   -9.2818 H         1 PRO         0.0802
    168 H           1.4663   -3.9876   -6.8526 H         1 PRO         0.0313
    169 H           1.7268   -5.6560   -6.5829 H         1 PRO         0.0313
    170 H          -0.8993   -4.2228   -7.0561 H         1 PRO         0.0287
    171 H          -0.5777   -5.5793   -5.9980 H         1 PRO         0.0287
    172 H          -1.0687   -7.1080   -7.6704 H         1 PRO         0.0524
    173 H          -1.7476   -5.7907   -8.5426 H         1 PRO         0.0524
    174 H           3.2611   -3.7953   -9.4438 H         1 PHE         0.1885
    175 H           5.2542   -5.7028  -10.1692 H         1 PHE         0.0823
    176 H           6.8635   -4.0006   -9.7077 H         1 PHE         0.0474
    177 H           5.5908   -3.0442   -8.7975 H         1 PHE         0.0474
    178 H           6.6629   -4.2485  -12.1327 H         1 PHE         0.0557
    179 H           4.0691   -1.6784   -9.9409 H         1 PHE         0.0557
    180 H           6.1672   -3.0046  -14.1929 H         1 PHE         0.0599
    181 H           3.4491   -0.4798  -12.0256 H         1 PHE         0.0599
    182 H           4.5527   -1.1013  -14.1573 H         1 PHE         0.0559
    183 H           6.4152   -7.2102   -9.0500 H         1 GLY         0.1881
    184 H           6.8548   -6.7723   -6.1848 H         1 GLY         0.0763
    185 H           7.5472   -8.1035   -7.2452 H         1 GLY         0.0763
    186 H           4.1590   -7.7420   -7.4247 H         1 GLN         0.1883
    187 H           3.4702   -9.3066   -5.0929 H         1 GLN         0.0801
    188 H           1.9324   -9.2228   -7.7038 H         1 GLN         0.0337
    189 H           1.9348   -7.8583   -6.4895 H         1 GLN         0.0337
    190 H           1.0361   -9.4293   -4.8383 H         1 GLN         0.0504
    191 H           0.8793  -10.6587   -6.1665 H         1 GLN         0.0504
    192 H          -2.1318   -9.3883   -7.4259 H         1 GLN         0.1814
    193 H          -0.8291  -10.5718   -7.5795 H         1 GLN         0.1814
    194 H           4.7491  -13.2869   -6.7739 H         1 PRO         0.0802
    195 H           5.2231  -14.2891   -4.7201 H         1 PRO         0.0313
    196 H           3.5319  -14.7254   -4.6424 H         1 PRO         0.0313
    197 H           4.7674  -13.0607   -2.8633 H         1 PRO         0.0287
    198 H           3.0290  -13.0494   -3.1879 H         1 PRO         0.0287
    199 H           3.4404  -10.8169   -3.7255 H         1 PRO         0.0524
    200 H           5.1037  -11.0711   -4.0161 H         1 PRO         0.0524
    201 H           0.9605  -13.9586   -8.7056 H         1 PRO         0.0802
    202 H           1.9390  -15.0230  -10.5655 H         1 PRO         0.0313
    203 H           1.5878  -16.5451   -9.7566 H         1 PRO         0.0313
    204 H           4.1259  -15.2348  -10.1523 H         1 PRO         0.0287
    205 H           3.7937  -16.8582   -9.5701 H         1 PRO         0.0287
    206 H           3.9135  -16.1982   -7.3273 H         1 PRO         0.0524
    207 H           4.8346  -14.9057   -7.9370 H         1 PRO         0.0524
    208 H          -0.9939  -14.8773   -8.5379 H         1 LEU         0.1883
    209 H          -1.3664  -16.2577   -6.1029 H         1 LEU         0.0800
    210 H          -3.6780  -16.7502   -7.1218 H         1 LEU         0.0315
    211 H          -3.0265  -15.3317   -8.2789 H         1 LEU         0.0315
    212 H          -4.8110  -15.1565   -6.2676 H         1 LEU         0.0298
    213 H          -3.2392  -15.6611   -4.5400 H         1 LEU         0.0232
    214 H          -2.1286  -14.4040   -5.1378 H         1 LEU         0.0232
    215 H          -3.7195  -13.9474   -4.4807 H         1 LEU         0.0232
    216 H          -2.8108  -13.1700   -7.4245 H         1 LEU         0.0232
    217 H          -4.3758  -13.6232   -8.1430 H         1 LEU         0.0232
    218 H          -4.3280  -12.7442   -6.5950 H         1 LEU         0.0232
    219 H          -1.2764  -17.4332   -9.4884 H         1 GLY         0.1873
    220 H          -1.1412  -19.7371  -10.0799 H         1 GLY         0.0689
    221 H          -1.3451  -20.1783   -8.3425 H         1 GLY         0.0689
    222 H           1.0736  -19.9814   -7.9561 O.co2     1 GLY        -0.5669
@<TRIPOS>BOND
     1    1    2 1  
     2    1    7 1  
     3    2    3 1  
     4    2    5 1  
     5    3    4 2  
     6    3    8 am 
     7    5    6 1  
     8    6    7 1  
     9    8    9 1  
    10    9   10 1  
    11    9   12 1  
    12   10   11 2  
    13   10   15 am 
    14   12   13 1  
    15   12   14 1  
    16   15   16 1  
    17   16   17 1  
    18   16   19 1  
    19   17   18 2  
    20   17   23 am 
    21   19   20 1  
    22   20   21 1  
    23   20   22 1  
    24   23   24 1  
    25   24   25 1  
    26   24   27 1  
    27   25   26 2  
    28   25   34 am 
    29   27   28 1  
    30   28   29 ar 
    31   28   30 ar 
    32   29   31 ar 
    33   30   32 ar 
    34   31   33 ar 
    35   32   33 ar 
    36   34   35 1  
    37   34   40 1  
    38   35   36 1  
    39   35   38 1  
    40   36   37 2  
    41   36   41 am 
    42   38   39 1  
    43   39   40 1  
    44   41   42 1  
    45   42   43 1  
    46   43   44 2  
    47   43   45 am 
    48   45   46 1  
    49   46   47 1  
    50   46   49 1  
    51   47   48 2  
    52   47   54 am 
    53   49   50 1  
    54   50   51 1  
    55   51   52 2  
    56   51   53 am 
    57   54   55 1  
    58   54   60 1  
    59   55   56 1  
    60   55   58 1  
    61   56   57 2  
    62   56   61 am 
    63   58   59 1  
    64   59   60 1  
    65   61   62 1  
    66   62   63 1  
    67   62   65 1  
    68   63   64 2  
    69   63   72 am 
    70   65   66 1  
    71   66   67 ar 
    72   66   68 ar 
    73   67   69 ar 
    74   68   70 ar 
    75   69   71 ar 
    76   70   71 ar 
    77   72   73 1  
    78   73   74 1  
    79   74   75 2  
    80   74   76 am 
    81   76   77 1  
    82   77   78 1  
    83   77   80 1  
    84   78   79 2  
    85   78   85 am 
    86   80   81 1  
    87   81   82 1  
    88   82   83 2  
    89   82   84 am 
    90   85   86 1  
    91   85   91 1  
    92   86   87 1  
    93   86   89 1  
    94   87   88 2  
    95   87   92 am 
    96   89   90 1  
    97   90   91 1  
    98   92   93 1  
    99   92   98 1  
   100   93   94 1  
   101   93   96 1  
   102   94   95 2  
   103   94   99 am 
   104   96   97 1  
   105   97   98 1  
   106   99  100 1  
   107  100  101 1  
   108  100  103 1  
   109  101  102 2  
   110  101  107 am 
   111  103  104 1  
   112  104  105 1  
   113  104  106 1  
   114  107  108 1  
   115  108  109 1  
   116  109  110 ar 
   117    1  111 1  
   118    1  112 1  
   119    2  113 1  
   120    5  114 1  
   121    5  115 1  
   122    6  116 1  
   123    6  117 1  
   124    7  118 1  
   125    7  119 1  
   126    8  120 1  
   127    9  121 1  
   128   12  122 1  
   129   13  123 1  
   130   13  124 1  
   131   13  125 1  
   132   14  126 1  
   133   14  127 1  
   134   14  128 1  
   135   15  129 1  
   136   16  130 1  
   137   19  131 1  
   138   19  132 1  
   139   20  133 1  
   140   21  134 1  
   141   21  135 1  
   142   21  136 1  
   143   22  137 1  
   144   22  138 1  
   145   22  139 1  
   146   23  140 1  
   147   24  141 1  
   148   27  142 1  
   149   27  143 1  
   150   29  144 1  
   151   30  145 1  
   152   31  146 1  
   153   32  147 1  
   154   33  148 1  
   155   35  149 1  
   156   38  150 1  
   157   38  151 1  
   158   39  152 1  
   159   39  153 1  
   160   40  154 1  
   161   40  155 1  
   162   41  156 1  
   163   42  157 1  
   164   42  158 1  
   165   45  159 1  
   166   46  160 1  
   167   49  161 1  
   168   49  162 1  
   169   50  163 1  
   170   50  164 1  
   171   53  165 1  
   172   53  166 1  
   173   55  167 1  
   174   58  168 1  
   175   58  169 1  
   176   59  170 1  
   177   59  171 1  
   178   60  172 1  
   179   60  173 1  
   180   61  174 1  
   181   62  175 1  
   182   65  176 1  
   183   65  177 1  
   184   67  178 1  
   185   68  179 1  
   186   69  180 1  
   187   70  181 1  
   188   71  182 1  
   189   72  183 1  
   190   73  184 1  
   191   73  185 1  
   192   76  186 1  
   193   77  187 1  
   194   80  188 1  
   195   80  189 1  
   196   81  190 1  
   197   81  191 1  
   198   84  192 1  
   199   84  193 1  
   200   86  194 1  
   201   89  195 1  
   202   89  196 1  
   203   90  197 1  
   204   90  198 1  
   205   91  199 1  
   206   91  200 1  
   207   93  201 1  
   208   96  202 1  
   209   96  203 1  
   210   97  204 1  
   211   97  205 1  
   212   98  206 1  
   213   98  207 1  
   214   99  208 1  
   215  100  209 1  
   216  103  210 1  
   217  103  211 1  
   218  104  212 1  
   219  105  213 1  
   220  105  214 1  
   221  105  215 1  
   222  106  216 1  
   223  106  217 1  
   224  106  218 1  
   225  107  219 1  
   226  108  220 1  
   227  108  221 1  
   228  109  222 ar 
@<TRIPOS>SUBSTRUCTURE
     1 PRO         1

