4b4n_ligand
  -I-interpret- 

223229  0  0  0  0  0  0  0  0999 V2000
    3.4800  -15.1940  -17.8980 N   0  3  0  0  0
    4.4190  -14.0850  -17.6400 C   0  0  0  0  0
    4.8060  -13.9070  -16.1730 C   0  0  0  0  0
    4.2400  -14.5410  -15.2930 O   0  0  0  0  0
    3.6380  -12.8410  -18.0940 C   0  0  0  0  0
    2.2090  -13.2360  -17.9470 C   0  0  0  0  0
    2.1640  -14.6940  -18.3540 C   0  0  0  0  0
    5.7480  -13.0040  -15.9100 N   0  0  0  0  0
    6.1480  -12.6840  -14.5320 C   0  0  0  0  0
    5.0530  -11.8090  -13.8940 C   0  0  0  0  0
    4.6680  -12.0200  -12.7380 O   0  0  0  0  0
    7.5380  -11.9360  -14.4550 C   0  0  0  0  0
    7.8020  -11.4920  -13.0400 C   0  0  0  0  0
    8.6820  -12.8270  -14.8490 C   0  0  0  0  0
    4.5750  -10.8300  -14.6640 N   0  0  0  0  0
    3.5820   -9.8560  -14.2130 C   0  0  0  0  0
    2.3030   -9.8290  -15.0800 C   0  0  0  0  0
    2.3170   -9.4800  -16.2660 O   0  0  0  0  0
    4.1810   -8.4430  -14.1580 C   0  0  0  0  0
    5.2420   -8.2570  -13.0610 C   0  0  0  0  0
    5.8400   -6.8680  -13.2270 C   0  0  0  0  0
    4.6910   -8.4240  -11.6320 C   0  0  0  0  0
    1.1950  -10.1970  -14.4450 N   0  0  0  0  0
   -0.1140  -10.1300  -15.0760 C   0  0  0  0  0
   -0.6750   -8.7050  -15.0510 C   0  0  0  0  0
   -0.3140   -7.8960  -14.1840 O   0  0  0  0  0
   -1.0890  -11.1170  -14.3980 C   0  0  0  0  0
   -0.7570  -12.5690  -14.6690 C   0  0  0  0  0
   -0.9670  -13.1160  -15.9380 C   0  0  0  0  0
   -0.2240  -13.3810  -13.6770 C   0  0  0  0  0
   -0.6520  -14.4410  -16.2030 C   0  0  0  0  0
    0.1030  -14.7130  -13.9340 C   0  0  0  0  0
   -0.1120  -15.2450  -15.1950 C   0  0  0  0  0
   -1.5440   -8.3770  -16.0200 N   0  0  0  0  0
   -2.1350   -7.0310  -15.9780 C   0  0  0  0  0
   -2.9880   -6.8670  -14.7300 C   0  0  0  0  0
   -3.8900   -7.6840  -14.4890 O   0  0  0  0  0
   -2.9890   -6.9800  -17.2580 C   0  0  0  0  0
   -2.3690   -7.9890  -18.1530 C   0  0  0  0  0
   -1.8960   -9.0900  -17.2660 C   0  0  0  0  0
   -2.6980   -5.8430  -13.9280 N   0  0  0  0  0
   -3.2940   -5.7540  -12.5970 C   0  0  0  0  0
   -2.8030   -6.9160  -11.7350 C   0  0  0  0  0
   -3.5820   -7.7390  -11.2220 O   0  0  0  0  0
   -1.4810   -7.0340  -11.6890 N   0  0  0  0  0
   -0.7600   -7.7150  -10.6190 C   0  0  0  0  0
    0.2810   -6.6420  -10.2660 C   0  0  0  0  0
    0.9830   -6.1800  -11.1420 O   0  0  0  0  0
   -0.1030   -8.9910  -11.1450 C   0  0  0  0  0
    1.0280   -9.5690  -10.2960 C   0  0  0  0  0
    1.6660  -10.8070  -10.9300 C   0  0  0  0  0
    1.3100  -11.2050  -12.0560 O   0  0  0  0  0
    2.6090  -11.4230  -10.2190 N   0  0  0  0  0
    0.3070   -6.1650   -9.0120 N   0  0  0  0  0
    1.3200   -5.1830   -8.6850 C   0  0  0  0  0
    2.7270   -5.6920   -8.9610 C   0  0  0  0  0
    3.0110   -6.9060   -8.8710 O   0  0  0  0  0
    1.1290   -4.9700   -7.1830 C   0  0  0  0  0
   -0.3680   -5.1720   -6.9870 C   0  0  0  0  0
   -0.8250   -6.1220   -8.0660 C   0  0  0  0  0
    3.5950   -4.7420   -9.2630 N   0  0  0  0  0
    5.0310   -5.0290   -9.3420 C   0  0  0  0  0
    5.4590   -5.7220   -8.0290 C   0  0  0  0  0
    5.0510   -5.3320   -6.9410 O   0  0  0  0  0
    5.8120   -3.7280   -9.6170 C   0  0  0  0  0
    5.4250   -3.0210  -10.9010 C   0  0  0  0  0
    5.9820   -3.3980  -12.0990 C   0  0  0  0  0
    4.5240   -1.9750  -10.8860 C   0  0  0  0  0
    5.6900   -2.7140  -13.2570 C   0  0  0  0  0
    4.1810   -1.2870  -12.0540 C   0  0  0  0  0
    4.7810   -1.6440  -13.2400 C   0  0  0  0  0
    6.1900   -6.8390   -8.1270 N   0  0  0  0  0
    6.6690   -7.5330   -6.9430 C   0  0  0  0  0
    5.6880   -8.5220   -6.3420 C   0  0  0  0  0
    6.0680   -9.3390   -5.5320 O   0  0  0  0  0
    4.4300   -8.4420   -6.7340 N   0  0  0  0  0
    3.4100   -9.3590   -6.1800 C   0  0  0  0  0
    3.6620  -10.8010   -6.6080 C   0  0  0  0  0
    3.7090  -11.0820   -7.8000 O   0  0  0  0  0
    2.0200   -8.9320   -6.6570 C   0  0  0  0  0
    0.8780   -9.6010   -5.9030 C   0  0  0  0  0
   -0.4770   -9.0360   -6.2660 C   0  0  0  0  0
   -0.8760   -8.0080   -5.7330 O   0  0  0  0  0
   -1.2040   -9.7200   -7.1620 N   0  0  0  0  0
    3.8460  -11.7160   -5.6340 N   0  0  0  0  0
    3.9570  -13.1200   -6.0440 C   0  0  0  0  0
    2.6520  -13.5820   -6.7080 C   0  0  0  0  0
    1.5630  -13.1480   -6.3000 O   0  0  0  0  0
    4.2130  -13.8800   -4.7400 C   0  0  0  0  0
    4.0130  -12.9080   -3.6350 C   0  0  0  0  0
    4.1270  -11.5200   -4.1970 C   0  0  0  0  0
    2.7550  -14.4470   -7.7360 N   0  0  0  0  0
    1.5660  -14.8270   -8.4460 C   0  0  0  0  0
    0.6370  -15.7010   -7.6300 C   0  0  0  0  0
    1.1150  -16.4530   -6.7800 O   0  0  0  0  0
    2.1040  -15.5910   -9.6500 C   0  0  0  0  0
    3.5400  -15.8070   -9.4330 C   0  0  0  0  0
    3.8520  -15.3680   -8.0310 C   0  0  0  0  0
   -0.6780  -15.5630   -7.8520 N   0  0  0  0  0
   -1.6690  -16.3610   -7.1450 C   0  0  0  0  0
   -1.6610  -17.8250   -7.5310 C   0  0  0  0  0
   -2.0830  -18.6790   -6.7450 O   0  0  0  0  0
   -3.0930  -15.8530   -7.3240 C   0  0  0  0  0
   -3.7900  -14.8240   -6.4550 C   0  0  0  0  0
   -3.1740  -14.7000   -5.0500 C   0  0  0  0  0
   -3.8290  -13.4940   -7.2090 C   0  0  0  0  0
   -1.2790  -18.1410   -8.7540 N   0  0  0  0  0
   -0.8600  -19.5080   -9.0520 C   0  0  0  0  0
    0.6580  -19.6780   -8.9170 C   0  0  0  0  0
    1.4340  -19.4780   -9.8800 O   0  0  0  0  0
    1.0736  -19.9814   -7.9561 O   0  0  0  0  0
    3.3459  -15.7128  -17.0301 H   0  0  0  0  0
    3.8723  -15.7863  -18.6299 H   0  0  0  0  0
    5.3603  -14.2691  -18.1579 H   0  0  0  0  0
    3.8825  -12.5509  -19.1159 H   0  0  0  0  0
    3.8852  -11.9601  -17.5016 H   0  0  0  0  0
    1.5538  -12.6226  -18.5655 H   0  0  0  0  0
    1.8511  -13.0889  -16.9280 H   0  0  0  0  0
    1.3258  -15.2346  -17.9144 H   0  0  0  0  0
    2.0004  -14.8345  -19.4225 H   0  0  0  0  0
    6.2040  -12.5217  -16.6845 H   0  0  0  0  0
    6.2660  -13.6231  -13.9913 H   0  0  0  0  0
    7.4756  -11.0923  -15.1423 H   0  0  0  0  0
    7.0100  -10.8153  -12.7192 H   0  0  0  0  0
    7.8246  -12.3633  -12.3854 H   0  0  0  0  0
    8.7618  -10.9773  -12.9951 H   0  0  0  0  0
    8.7201  -13.6853  -14.1782 H   0  0  0  0  0
    8.5371  -13.1708  -15.8732 H   0  0  0  0  0
    9.6158  -12.2690  -14.7804 H   0  0  0  0  0
    4.9215  -10.7569  -15.6205 H   0  0  0  0  0
    3.2925  -10.1814  -13.2138 H   0  0  0  0  0
    3.3652   -7.7539  -13.9395 H   0  0  0  0  0
    4.6697   -8.2611  -15.1152 H   0  0  0  0  0
    5.9913   -9.0394  -13.1811 H   0  0  0  0  0
    6.2956   -6.7855  -14.2138 H   0  0  0  0  0
    5.0532   -6.1205  -13.1250 H   0  0  0  0  0
    6.5981   -6.7063  -12.4607 H   0  0  0  0  0
    3.9091   -7.6851  -11.4568 H   0  0  0  0  0
    4.2777   -9.4262  -11.5181 H   0  0  0  0  0
    5.4977   -8.2785  -10.9136 H   0  0  0  0  0
    1.2646  -10.5368  -13.4858 H   0  0  0  0  0
    0.0010  -10.4181  -16.1209 H   0  0  0  0  0
   -2.0837  -10.9260  -14.8007 H   0  0  0  0  0
   -1.0215  -10.9592  -13.3216 H   0  0  0  0  0
   -1.3837  -12.4935  -16.7298 H   0  0  0  0  0
   -0.0582  -12.9712  -12.6807 H   0  0  0  0  0
   -0.8255  -14.8547  -17.1964 H   0  0  0  0  0
    0.5267  -15.3335  -13.1444 H   0  0  0  0  0
    0.1388  -16.2857  -15.4002 H   0  0  0  0  0
   -1.3967   -6.2302  -15.9375 H   0  0  0  0  0
   -2.9992   -5.9860  -17.7051 H   0  0  0  0  0
   -4.0386   -7.1970  -17.0599 H   0  0  0  0  0
   -1.5448   -7.5587  -18.7218 H   0  0  0  0  0
   -3.0838   -8.3553  -18.8899 H   0  0  0  0  0
   -2.6471   -9.8652  -17.1140 H   0  0  0  0  0
   -1.0587   -9.6456  -17.6884 H   0  0  0  0  0
   -2.0559   -5.1168  -14.2453 H   0  0  0  0  0
   -4.3796   -5.8011  -12.6830 H   0  0  0  0  0
   -3.0033   -4.8115  -12.1330 H   0  0  0  0  0
   -0.9367   -6.6236  -12.4478 H   0  0  0  0  0
   -1.3692   -8.0433   -9.7769 H   0  0  0  0  0
    0.3412   -8.7301  -12.1056 H   0  0  0  0  0
   -0.8856   -9.7494  -11.1652 H   0  0  0  0  0
    0.6086   -9.8632   -9.3339 H   0  0  0  0  0
    1.7999   -8.8053  -10.2008 H   0  0  0  0  0
    3.0689  -12.2532  -10.5928 H   0  0  0  0  0
    2.8712  -11.0645   -9.3008 H   0  0  0  0  0
    1.2159   -4.2769   -9.2818 H   0  0  0  0  0
    1.4663   -3.9876   -6.8526 H   0  0  0  0  0
    1.7268   -5.6560   -6.5829 H   0  0  0  0  0
   -0.8993   -4.2228   -7.0561 H   0  0  0  0  0
   -0.5777   -5.5793   -5.9980 H   0  0  0  0  0
   -1.0687   -7.1080   -7.6704 H   0  0  0  0  0
   -1.7476   -5.7907   -8.5426 H   0  0  0  0  0
    3.2611   -3.7953   -9.4438 H   0  0  0  0  0
    5.2542   -5.7028  -10.1692 H   0  0  0  0  0
    6.8635   -4.0006   -9.7077 H   0  0  0  0  0
    5.5908   -3.0442   -8.7975 H   0  0  0  0  0
    6.6629   -4.2485  -12.1327 H   0  0  0  0  0
    4.0691   -1.6784   -9.9409 H   0  0  0  0  0
    6.1672   -3.0046  -14.1929 H   0  0  0  0  0
    3.4491   -0.4798  -12.0256 H   0  0  0  0  0
    4.5527   -1.1013  -14.1573 H   0  0  0  0  0
    6.4152   -7.2102   -9.0500 H   0  0  0  0  0
    6.8548   -6.7723   -6.1848 H   0  0  0  0  0
    7.5472   -8.1035   -7.2452 H   0  0  0  0  0
    4.1590   -7.7420   -7.4247 H   0  0  0  0  0
    3.4702   -9.3066   -5.0929 H   0  0  0  0  0
    1.9324   -9.2228   -7.7038 H   0  0  0  0  0
    1.9348   -7.8583   -6.4895 H   0  0  0  0  0
    1.0361   -9.4293   -4.8383 H   0  0  0  0  0
    0.8793  -10.6587   -6.1665 H   0  0  0  0  0
   -2.1318   -9.3883   -7.4259 H   0  0  0  0  0
   -0.8291  -10.5718   -7.5795 H   0  0  0  0  0
    4.7491  -13.2869   -6.7739 H   0  0  0  0  0
    5.2231  -14.2891   -4.7201 H   0  0  0  0  0
    3.5319  -14.7254   -4.6424 H   0  0  0  0  0
    4.7674  -13.0607   -2.8633 H   0  0  0  0  0
    3.0290  -13.0494   -3.1879 H   0  0  0  0  0
    3.4404  -10.8169   -3.7255 H   0  0  0  0  0
    5.1037  -11.0711   -4.0161 H   0  0  0  0  0
    0.9605  -13.9586   -8.7056 H   0  0  0  0  0
    1.9390  -15.0230  -10.5655 H   0  0  0  0  0
    1.5878  -16.5451   -9.7566 H   0  0  0  0  0
    4.1259  -15.2348  -10.1523 H   0  0  0  0  0
    3.7937  -16.8582   -9.5701 H   0  0  0  0  0
    3.9135  -16.1982   -7.3273 H   0  0  0  0  0
    4.8346  -14.9057   -7.9370 H   0  0  0  0  0
   -0.9939  -14.8773   -8.5379 H   0  0  0  0  0
   -1.3664  -16.2577   -6.1029 H   0  0  0  0  0
   -3.6780  -16.7502   -7.1218 H   0  0  0  0  0
   -3.0265  -15.3317   -8.2789 H   0  0  0  0  0
   -4.8110  -15.1565   -6.2676 H   0  0  0  0  0
   -3.2392  -15.6611   -4.5400 H   0  0  0  0  0
   -2.1286  -14.4040   -5.1378 H   0  0  0  0  0
   -3.7195  -13.9474   -4.4807 H   0  0  0  0  0
   -2.8108  -13.1700   -7.4245 H   0  0  0  0  0
   -4.3758  -13.6232   -8.1430 H   0  0  0  0  0
   -4.3280  -12.7442   -6.5950 H   0  0  0  0  0
   -1.2764  -17.4332   -9.4884 H   0  0  0  0  0
   -1.1412  -19.7371  -10.0799 H   0  0  0  0  0
   -1.3451  -20.1783   -8.3425 H   0  0  0  0  0
    0.9247  -19.2191  -10.6515 H   0  0  0  0  0
  1  2  1  0  0  0
  1  7  1  0  0  0
  2  3  1  0  0  0
  2  5  1  0  0  0
  3  4  2  0  0  0
  3  8  1  0  0  0
  5  6  1  0  0  0
  6  7  1  0  0  0
  8  9  1  0  0  0
  9 10  1  0  0  0
  9 12  1  0  0  0
 10 11  2  0  0  0
 10 15  1  0  0  0
 12 13  1  0  0  0
 12 14  1  0  0  0
 15 16  1  0  0  0
 16 17  1  0  0  0
 16 19  1  0  0  0
 17 18  2  0  0  0
 17 23  1  0  0  0
 19 20  1  0  0  0
 20 21  1  0  0  0
 20 22  1  0  0  0
 23 24  1  0  0  0
 24 25  1  0  0  0
 24 27  1  0  0  0
 25 26  2  0  0  0
 25 34  1  0  0  0
 27 28  1  0  0  0
 28 29  4  0  0  0
 28 30  4  0  0  0
 29 31  4  0  0  0
 30 32  4  0  0  0
 31 33  4  0  0  0
 32 33  4  0  0  0
 34 35  1  0  0  0
 34 40  1  0  0  0
 35 36  1  0  0  0
 35 38  1  0  0  0
 36 37  2  0  0  0
 36 41  1  0  0  0
 38 39  1  0  0  0
 39 40  1  0  0  0
 41 42  1  0  0  0
 42 43  1  0  0  0
 43 44  2  0  0  0
 43 45  1  0  0  0
 45 46  1  0  0  0
 46 47  1  0  0  0
 46 49  1  0  0  0
 47 48  2  0  0  0
 47 54  1  0  0  0
 49 50  1  0  0  0
 50 51  1  0  0  0
 51 52  2  0  0  0
 51 53  1  0  0  0
 54 55  1  0  0  0
 54 60  1  0  0  0
 55 56  1  0  0  0
 55 58  1  0  0  0
 56 57  2  0  0  0
 56 61  1  0  0  0
 58 59  1  0  0  0
 59 60  1  0  0  0
 61 62  1  0  0  0
 62 63  1  0  0  0
 62 65  1  0  0  0
 63 64  2  0  0  0
 63 72  1  0  0  0
 65 66  1  0  0  0
 66 67  4  0  0  0
 66 68  4  0  0  0
 67 69  4  0  0  0
 68 70  4  0  0  0
 69 71  4  0  0  0
 70 71  4  0  0  0
 72 73  1  0  0  0
 73 74  1  0  0  0
 74 75  2  0  0  0
 74 76  1  0  0  0
 76 77  1  0  0  0
 77 78  1  0  0  0
 77 80  1  0  0  0
 78 79  2  0  0  0
 78 85  1  0  0  0
 80 81  1  0  0  0
 81 82  1  0  0  0
 82 83  2  0  0  0
 82 84  1  0  0  0
 85 86  1  0  0  0
 85 91  1  0  0  0
 86 87  1  0  0  0
 86 89  1  0  0  0
 87 88  2  0  0  0
 87 92  1  0  0  0
 89 90  1  0  0  0
 90 91  1  0  0  0
 92 93  1  0  0  0
 92 98  1  0  0  0
 93 94  1  0  0  0
 93 96  1  0  0  0
 94 95  2  0  0  0
 94 99  1  0  0  0
 96 97  1  0  0  0
 97 98  1  0  0  0
 99100  1  0  0  0
100101  1  0  0  0
100103  1  0  0  0
101102  2  0  0  0
101107  1  0  0  0
103104  1  0  0  0
104105  1  0  0  0
104106  1  0  0  0
107108  1  0  0  0
108109  1  0  0  0
109110  1  0  0  0
109111  2  0  0  0
  1112  1  0  0  0
  1113  1  0  0  0
  2114  1  0  0  0
  5115  1  0  0  0
  5116  1  0  0  0
  6117  1  0  0  0
  6118  1  0  0  0
  7119  1  0  0  0
  7120  1  0  0  0
  8121  1  0  0  0
  9122  1  0  0  0
 12123  1  0  0  0
 13124  1  0  0  0
 13125  1  0  0  0
 13126  1  0  0  0
 14127  1  0  0  0
 14128  1  0  0  0
 14129  1  0  0  0
 15130  1  0  0  0
 16131  1  0  0  0
 19132  1  0  0  0
 19133  1  0  0  0
 20134  1  0  0  0
 21135  1  0  0  0
 21136  1  0  0  0
 21137  1  0  0  0
 22138  1  0  0  0
 22139  1  0  0  0
 22140  1  0  0  0
 23141  1  0  0  0
 24142  1  0  0  0
 27143  1  0  0  0
 27144  1  0  0  0
 29145  1  0  0  0
 30146  1  0  0  0
 31147  1  0  0  0
 32148  1  0  0  0
 33149  1  0  0  0
 35150  1  0  0  0
 38151  1  0  0  0
 38152  1  0  0  0
 39153  1  0  0  0
 39154  1  0  0  0
 40155  1  0  0  0
 40156  1  0  0  0
 41157  1  0  0  0
 42158  1  0  0  0
 42159  1  0  0  0
 45160  1  0  0  0
 46161  1  0  0  0
 49162  1  0  0  0
 49163  1  0  0  0
 50164  1  0  0  0
 50165  1  0  0  0
 53166  1  0  0  0
 53167  1  0  0  0
 55168  1  0  0  0
 58169  1  0  0  0
 58170  1  0  0  0
 59171  1  0  0  0
 59172  1  0  0  0
 60173  1  0  0  0
 60174  1  0  0  0
 61175  1  0  0  0
 62176  1  0  0  0
 65177  1  0  0  0
 65178  1  0  0  0
 67179  1  0  0  0
 68180  1  0  0  0
 69181  1  0  0  0
 70182  1  0  0  0
 71183  1  0  0  0
 72184  1  0  0  0
 73185  1  0  0  0
 73186  1  0  0  0
 76187  1  0  0  0
 77188  1  0  0  0
 80189  1  0  0  0
 80190  1  0  0  0
 81191  1  0  0  0
 81192  1  0  0  0
 84193  1  0  0  0
 84194  1  0  0  0
 86195  1  0  0  0
 89196  1  0  0  0
 89197  1  0  0  0
 90198  1  0  0  0
 90199  1  0  0  0
 91200  1  0  0  0
 91201  1  0  0  0
 93202  1  0  0  0
 96203  1  0  0  0
 96204  1  0  0  0
 97205  1  0  0  0
 97206  1  0  0  0
 98207  1  0  0  0
 98208  1  0  0  0
 99209  1  0  0  0
100210  1  0  0  0
103211  1  0  0  0
103212  1  0  0  0
104213  1  0  0  0
105214  1  0  0  0
105215  1  0  0  0
105216  1  0  0  0
106217  1  0  0  0
106218  1  0  0  0
106219  1  0  0  0
107220  1  0  0  0
108221  1  0  0  0
108222  1  0  0  0
110223  1  0  0  0
M  END
$$$$
