3ipe_ligand
  -I-interpret- 

 75 78  0  0  0  0  0  0  0  0999 V2000
    2.0170    1.4070    4.0250 C   0  0  0  0  0
    1.0780   -0.4260    6.0100 N   0  0  0  0  0
    2.6260    1.7790    2.9930 O   0  0  0  0  0
    0.1480    2.8100    9.8060 Cl  0  0  0  0  0
    0.7810    0.5220    3.8630 C   0  0  0  0  0
   -0.6810   -0.1870   25.8760 N   0  0  0  0  0
    2.3430    1.7150    5.1920 O   0  0  0  0  0
   -0.5950   -2.5610   10.3160 Cl  0  0  0  0  0
    0.0580    0.6110    2.6860 C   0  0  0  0  0
   -0.5820    0.2940   11.1610 O   0  0  0  0  0
    0.2630   -2.6780   21.5040 Cl  0  0  0  0  0
   -1.0740   -0.1710    2.5060 C   0  0  0  0  0
    0.5170    0.1710   20.5510 O   0  0  0  0  0
    0.2090    2.7750   21.9260 Cl  0  0  0  0  0
   -1.4800   -1.0360    3.5090 C   0  0  0  0  0
   -1.2030    1.6910   29.3560 O   0  0  0  0  0
   -0.7640   -1.1260    4.6980 C   0  0  0  0  0
   -1.8360    1.2830   27.2700 O   0  0  0  0  0
    0.3630   -0.3320    4.8890 C   0  0  0  0  0
    0.6460   -0.2350    7.2590 C   0  0  0  0  0
    0.6190    1.0390    7.8050 C   0  0  0  0  0
    0.2020    1.2110    9.1210 C   0  0  0  0  0
    0.2940   -1.3330    8.0390 C   0  0  0  0  0
   -0.1320   -1.1760    9.3550 C   0  0  0  0  0
   -0.1610    0.1070    9.8890 C   0  0  0  0  0
    0.4220    0.2390   12.1720 C   0  0  0  0  0
   -0.3510   -0.0820   13.4540 C   0  0  0  0  0
    0.4790   -0.0070   14.7360 C   0  0  0  0  0
   -0.4060   -0.5170   15.8820 C   0  0  0  0  0
   -0.5200    0.4400   17.0600 C   0  0  0  0  0
    0.2590   -0.1090   18.2500 C   0  0  0  0  0
   -0.5100    0.0060   19.5690 C   0  0  0  0  0
    0.1980    0.0380   21.8620 C   0  0  0  0  0
    0.0730   -1.2230   22.4500 C   0  0  0  0  0
   -0.2350   -1.3090   23.8100 C   0  0  0  0  0
    0.0480    1.1930   22.6290 C   0  0  0  0  0
   -0.2480    1.0900   23.9790 C   0  0  0  0  0
   -0.3750   -0.1520   24.5780 C   0  0  0  0  0
    0.1670   -0.5450   26.8450 C   0  0  0  0  0
    1.1630   -1.4960   26.6560 C   0  0  0  0  0
    2.0030   -1.8490   27.7100 C   0  0  0  0  0
    1.8460   -1.2480   28.9550 C   0  0  0  0  0
    0.8450   -0.3020   29.1490 C   0  0  0  0  0
    0.0080    0.0440   28.0940 C   0  0  0  0  0
   -1.1000    1.0850   28.2640 C   0  0  0  0  0
    2.0624   -0.6705    5.9020 H   0  0  0  0  0
    2.1904    1.4171    2.2178 H   0  0  0  0  0
   -1.6278    0.0778   26.1478 H   0  0  0  0  0
    0.3780    1.2955    1.9004 H   0  0  0  0  0
   -1.6421   -0.1049    1.5781 H   0  0  0  0  0
   -2.3681   -1.6513    3.3652 H   0  0  0  0  0
   -0.5322    1.3702   29.9632 H   0  0  0  0  0
   -1.0846   -1.8165    5.4781 H   0  0  0  0  0
    0.9221    1.8991    7.2079 H   0  0  0  0  0
    0.3530   -2.3339    7.6115 H   0  0  0  0  0
    0.9776    1.1735   12.2504 H   0  0  0  0  0
    1.1842   -0.5090   11.9537 H   0  0  0  0  0
   -0.7030   -1.1096   13.3635 H   0  0  0  0  0
   -1.1410    0.6636   13.5433 H   0  0  0  0  0
    0.7994    1.0174   14.9258 H   0  0  0  0  0
    1.3787   -0.6158   14.6463 H   0  0  0  0  0
    0.0509   -1.4330   16.2564 H   0  0  0  0  0
   -1.4097   -0.6484   15.4777 H   0  0  0  0  0
   -1.5690    0.5485   17.3355 H   0  0  0  0  0
   -0.1096    1.4094   16.7773 H   0  0  0  0  0
    1.1748    0.4742   18.3464 H   0  0  0  0  0
    0.4476   -1.1666   18.0654 H   0  0  0  0  0
   -1.2173    0.8354   19.5655 H   0  0  0  0  0
   -1.1328   -0.8672   19.7632 H   0  0  0  0  0
   -0.3669   -2.2863   24.2744 H   0  0  0  0  0
   -0.3819    1.9935   24.5738 H   0  0  0  0  0
    1.2872   -1.9667   25.6808 H   0  0  0  0  0
    2.7827   -2.5956   27.5593 H   0  0  0  0  0
    2.5073   -1.5185   29.7782 H   0  0  0  0  0
    0.7171    0.1666   30.1248 H   0  0  0  0  0
  1  3  1  0  0  0
  5  1  1  0  0  0
  1  7  2  0  0  0
  2 19  1  0  0  0
 20  2  1  0  0  0
 22  4  1  0  0  0
  5  9  4  0  0  0
 19  5  4  0  0  0
  6 38  1  0  0  0
 39  6  1  0  0  0
 24  8  1  0  0  0
  9 12  4  0  0  0
 10 25  1  0  0  0
 26 10  1  0  0  0
 34 11  1  0  0  0
 15 12  4  0  0  0
 13 32  1  0  0  0
 33 13  1  0  0  0
 36 14  1  0  0  0
 17 15  4  0  0  0
 45 16  1  0  0  0
 19 17  4  0  0  0
 45 18  2  0  0  0
 21 20  4  0  0  0
 23 20  4  0  0  0
 22 21  4  0  0  0
 25 22  4  0  0  0
 24 23  4  0  0  0
 25 24  4  0  0  0
 27 26  1  0  0  0
 28 27  1  0  0  0
 29 28  1  0  0  0
 30 29  1  0  0  0
 31 30  1  0  0  0
 32 31  1  0  0  0
 34 33  4  0  0  0
 36 33  4  0  0  0
 35 34  4  0  0  0
 38 35  4  0  0  0
 37 36  4  0  0  0
 38 37  4  0  0  0
 39 40  4  0  0  0
 44 39  4  0  0  0
 40 41  4  0  0  0
 42 41  4  0  0  0
 43 42  4  0  0  0
 44 43  4  0  0  0
 44 45  1  0  0  0
  2 46  1  0  0  0
  3 47  1  0  0  0
  6 48  1  0  0  0
  9 49  1  0  0  0
 12 50  1  0  0  0
 15 51  1  0  0  0
 16 52  1  0  0  0
 17 53  1  0  0  0
 21 54  1  0  0  0
 23 55  1  0  0  0
 26 56  1  0  0  0
 26 57  1  0  0  0
 27 58  1  0  0  0
 27 59  1  0  0  0
 28 60  1  0  0  0
 28 61  1  0  0  0
 29 62  1  0  0  0
 29 63  1  0  0  0
 30 64  1  0  0  0
 30 65  1  0  0  0
 31 66  1  0  0  0
 31 67  1  0  0  0
 32 68  1  0  0  0
 32 69  1  0  0  0
 35 70  1  0  0  0
 37 71  1  0  0  0
 40 72  1  0  0  0
 41 73  1  0  0  0
 42 74  1  0  0  0
 43 75  1  0  0  0
M  END
$$$$
