2h4n_ligand
  -I-interpret- 

 19 19  0  0  0  0  0  0  0  0999 V2000
   -5.3540    2.1150   15.4970 C   0  0  0  0  0
   -4.8140    4.0300   14.1770 C   0  0  0  0  0
   -5.6840    5.9910   13.0410 C   0  0  0  0  0
   -5.2930    7.0450   12.0420 C   0  0  0  0  0
   -5.4970   -0.5130   15.6740 N   0  0  0  0  0
   -3.6960    3.2500   14.4490 N   0  0  0  0  0
   -4.0070    2.1330   15.2070 N   0  0  0  0  0
   -4.7000    5.1600   13.3840 N   0  0  0  0  0
   -5.6590    0.7830   17.7850 O   0  0  0  0  0
   -7.4940    0.9060   16.0290 O   0  0  0  0  0
   -6.8430    5.8550   13.4400 O   0  0  0  0  0
   -6.1030    0.7890   16.4000 S   0  0  0  0  0
   -6.2860    3.4580   14.9010 S   0  0  0  0  0
   -5.8483    6.8907   11.1168 H   0  0  0  0  0
   -5.5244    8.0305   12.4461 H   0  0  0  0  0
   -4.2239    6.9750   11.8415 H   0  0  0  0  0
   -4.9122   -1.1636   16.1985 H   0  0  0  0  0
   -5.6977   -0.6877   14.6893 H   0  0  0  0  0
   -3.7698    5.3780   13.0268 H   0  0  0  0  0
  1 13  4  0  0  0
  1 12  1  0  0  0
  1  7  4  0  0  0
  7  6  4  0  0  0
  6  2  4  0  0  0
  2  8  1  0  0  0
  2 13  4  0  0  0
  8  3  1  0  0  0
  3 11  2  0  0  0
  3  4  1  0  0  0
 12  5  1  0  0  0
 12  9  2  0  0  0
 12 10  2  0  0  0
  4 14  1  0  0  0
  4 15  1  0  0  0
  4 16  1  0  0  0
  5 17  1  0  0  0
  5 18  1  0  0  0
  8 19  1  0  0  0
M  END
$$$$
