4mi6_ligand
  -I-interpret- 

 56 58  0  0  0  0  0  0  0  0999 V2000
   37.1360   26.3190   33.9310 C   0  0  0  0  0
   37.4140   27.0580   35.1110 C   0  0  0  0  0
   36.4290   27.0990   36.1010 C   0  0  0  0  0
   36.6410   28.2250   37.1380 C   0  0  0  0  0
   38.0910   28.3100   37.5930 C   0  0  0  0  0
   39.0440   28.4650   36.4080 C   0  0  0  0  0
   38.6610   27.6990   35.2790 C   0  0  0  0  0
   39.5990   27.6050   34.2650 C   0  0  0  0  0
   39.3180   26.8820   33.1080 C   0  0  0  0  0
   38.1100   26.2000   32.9250 C   0  0  0  0  0
   37.9400   25.5730   31.6760 C   0  0  0  0  0
   37.0490   24.3490   31.6030 C   0  0  0  0  0
   36.8540   24.1000   30.0660 C   0  0  0  0  0
   35.4060   23.8310   29.5820 C   0  0  0  0  0
   34.4020   24.1780   30.2030 O   0  0  0  0  0
   35.3430   23.2230   28.4000 N   0  0  0  0  0
   34.0690   22.8610   27.7810 C   0  0  0  0  0
   33.8150   21.4550   28.0440 O   0  0  0  0  0
   32.5890   20.9920   27.4480 C   0  0  0  0  0
   32.3380   19.5490   27.8490 C   0  0  0  0  0
   33.3850   18.7530   27.2650 O   0  0  0  0  0
   32.6730   21.1660   25.9100 C   0  0  0  0  0
   31.4380   20.7280   25.2900 O   0  0  0  0  0
   32.9380   22.6210   25.5410 C   0  0  0  0  0
   33.1430   22.7120   24.1290 O   0  0  0  0  0
   34.1950   23.1390   26.2800 C   0  0  0  0  0
   34.3620   24.5680   26.0800 O   0  0  0  0  0
   36.1639   25.8424   33.8050 H   0  0  0  0  0
   36.4642   26.1504   36.6367 H   0  0  0  0  0
   35.4758   27.2854   35.6063 H   0  0  0  0  0
   36.0212   28.0098   38.0084 H   0  0  0  0  0
   36.3720   29.1735   36.6732 H   0  0  0  0  0
   38.3418   27.3886   38.1185 H   0  0  0  0  0
   38.1990   29.1818   38.2383 H   0  0  0  0  0
   40.0261   28.1154   36.7263 H   0  0  0  0  0
   39.0361   29.5143   36.1131 H   0  0  0  0  0
   40.5640   28.1002   34.3728 H   0  0  0  0  0
   40.0664   26.8462   32.3164 H   0  0  0  0  0
   38.9327   25.2227   31.3932 H   0  0  0  0  0
   37.4564   26.3181   31.0443 H   0  0  0  0  0
   36.1000   24.5019   32.1169 H   0  0  0  0  0
   37.4927   23.4888   32.1043 H   0  0  0  0  0
   37.4204   23.1981   29.8339 H   0  0  0  0  0
   37.1702   25.0181   29.5708 H   0  0  0  0  0
   36.2104   23.0027   27.9107 H   0  0  0  0  0
   33.2357   23.4374   28.1828 H   0  0  0  0  0
   31.7446   21.5809   27.8062 H   0  0  0  0  0
   31.3622   19.2175   27.4939 H   0  0  0  0  0
   32.3406   19.4476   28.9343 H   0  0  0  0  0
   33.2544   17.8316   27.5009 H   0  0  0  0  0
   33.4998   20.5561   25.5459 H   0  0  0  0  0
   31.5015   20.8402   24.3387 H   0  0  0  0  0
   32.0825   23.2295   25.8342 H   0  0  0  0  0
   33.3106   23.6264   23.8894 H   0  0  0  0  0
   35.0626   22.6187   25.8742 H   0  0  0  0  0
   34.4418   24.7514   25.1411 H   0  0  0  0  0
  1  2  4  0  0  0
  1 10  4  0  0  0
  2  3  1  0  0  0
  2  7  4  0  0  0
  3  4  1  0  0  0
  4  5  1  0  0  0
  5  6  1  0  0  0
  6  7  1  0  0  0
  7  8  4  0  0  0
  8  9  4  0  0  0
  9 10  4  0  0  0
 10 11  1  0  0  0
 11 12  1  0  0  0
 12 13  1  0  0  0
 13 14  1  0  0  0
 14 15  2  0  0  0
 14 16  1  0  0  0
 16 17  1  0  0  0
 17 18  1  0  0  0
 17 26  1  0  0  0
 18 19  1  0  0  0
 19 20  1  0  0  0
 19 22  1  0  0  0
 20 21  1  0  0  0
 22 23  1  0  0  0
 22 24  1  0  0  0
 24 25  1  0  0  0
 24 26  1  0  0  0
 26 27  1  0  0  0
  1 28  1  0  0  0
  3 29  1  0  0  0
  3 30  1  0  0  0
  4 31  1  0  0  0
  4 32  1  0  0  0
  5 33  1  0  0  0
  5 34  1  0  0  0
  6 35  1  0  0  0
  6 36  1  0  0  0
  8 37  1  0  0  0
  9 38  1  0  0  0
 11 39  1  0  0  0
 11 40  1  0  0  0
 12 41  1  0  0  0
 12 42  1  0  0  0
 13 43  1  0  0  0
 13 44  1  0  0  0
 16 45  1  0  0  0
 17 46  1  0  0  0
 19 47  1  0  0  0
 20 48  1  0  0  0
 20 49  1  0  0  0
 21 50  1  0  0  0
 22 51  1  0  0  0
 23 52  1  0  0  0
 24 53  1  0  0  0
 25 54  1  0  0  0
 26 55  1  0  0  0
 27 56  1  0  0  0
M  END
$$$$
