### 
### Created by X-TOOL on Mon Sep 10 21:13:10 2018
### 

@<TRIPOS>MOLECULE
3zvt_ligand
   27    27     1     0     0
SMALL
GAST_HUCK


@<TRIPOS>ATOM
      1 B           0.2660   -4.6220   39.4510 B         1 B07         1.0000
      2 C3         -1.1280   -3.8310   39.6060 C.3       1 B07        -0.2420
      3 N4         -1.1220   -2.5940   38.8230 N.am      1 B07        -0.4442
      4 O6         -3.0710   -2.9220   37.8310 O.2       1 B07        -0.3996
      5 C5         -2.0890   -2.2090   37.9960 C.2       1 B07         0.1650
      6 C7         -1.9930   -0.9170   37.2210 C.ar      1 B07         0.1038
      7 C14        -1.4380   -0.9880   35.9610 C.ar      1 B07         0.1042
      8 O15        -0.9970   -2.2050   35.5220 O.3       1 B07        -0.3185
      9 C15        -0.3530   -2.3340   34.2530 C.3       1 B07         0.0609
     10 C13        -1.3330    0.1480   35.1660 C.ar      1 B07        -0.0378
     11 C12        -1.7880    1.3710   35.6400 C.ar      1 B07        -0.0746
     12 C11        -2.3490    1.4500   36.9090 C.ar      1 B07        -0.0378
     13 C8         -2.4620    0.3080   37.7000 C.ar      1 B07         0.1042
     14 O9         -3.0110    0.4270   38.9530 O.3       1 B07        -0.3185
     15 C10        -4.3580    0.8570   39.1450 C.3       1 B07         0.0609
     16 H          -1.2706   -3.5781   40.6566 H         1 B07        -0.1857
     17 H          -1.9335   -4.4695   39.2433 H         1 B07        -0.1857
     18 H          -0.3132   -1.9800   38.9195 H         1 B07         0.1444
     19 H          -1.0341   -2.0087   33.4666 H         1 B07         0.0581
     20 H           0.5440   -1.7149   34.2376 H         1 B07         0.0581
     21 H          -0.0794   -3.3765   34.0901 H         1 B07         0.0581
     22 H          -0.8936    0.0783   34.1709 H         1 B07         0.0463
     23 H          -1.7057    2.2640   35.0205 H         1 B07         0.0598
     24 H          -2.7022    2.4093   37.2874 H         1 B07         0.0463
     25 H          -4.4827    1.8552   38.7254 H         1 B07         0.0581
     26 H          -5.0341    0.1640   38.6444 H         1 B07         0.0581
     27 H          -4.5825    0.8791   40.2114 H         1 B07         0.0581
@<TRIPOS>BOND
     1    1    2 1  
     2    2    3 1  
     3    3    5 am 
     4    5    4 2  
     5    5    6 1  
     6    6    7 ar 
     7    6   13 ar 
     8    7    8 1  
     9    7   10 ar 
    10    8    9 1  
    11   10   11 ar 
    12   11   12 ar 
    13   12   13 ar 
    14   13   14 1  
    15   14   15 1  
    16    2   16 1  
    17    2   17 1  
    18    3   18 1  
    19    9   19 1  
    20    9   20 1  
    21    9   21 1  
    22   10   22 1  
    23   11   23 1  
    24   12   24 1  
    25   15   25 1  
    26   15   26 1  
    27   15   27 1  
@<TRIPOS>SUBSTRUCTURE
     1 B07         1

