3zvt_ligand
  -I-interpret- 

 27 27  0  0  0  0  0  0  0  0999 V2000
    0.2660   -4.6220   39.4510 B   0  0  0  0  0
   -1.1280   -3.8310   39.6060 C   0  0  0  0  0
   -1.1220   -2.5940   38.8230 N   0  0  0  0  0
   -3.0710   -2.9220   37.8310 O   0  0  0  0  0
   -2.0890   -2.2090   37.9960 C   0  0  0  0  0
   -1.9930   -0.9170   37.2210 C   0  0  0  0  0
   -1.4380   -0.9880   35.9610 C   0  0  0  0  0
   -0.9970   -2.2050   35.5220 O   0  0  0  0  0
   -0.3530   -2.3340   34.2530 C   0  0  0  0  0
   -1.3330    0.1480   35.1660 C   0  0  0  0  0
   -1.7880    1.3710   35.6400 C   0  0  0  0  0
   -2.3490    1.4500   36.9090 C   0  0  0  0  0
   -2.4620    0.3080   37.7000 C   0  0  0  0  0
   -3.0110    0.4270   38.9530 O   0  0  0  0  0
   -4.3580    0.8570   39.1450 C   0  0  0  0  0
   -1.2706   -3.5781   40.6566 H   0  0  0  0  0
   -1.9335   -4.4695   39.2433 H   0  0  0  0  0
   -0.3132   -1.9800   38.9195 H   0  0  0  0  0
   -1.0341   -2.0087   33.4666 H   0  0  0  0  0
    0.5440   -1.7149   34.2376 H   0  0  0  0  0
   -0.0794   -3.3765   34.0901 H   0  0  0  0  0
   -0.8936    0.0783   34.1709 H   0  0  0  0  0
   -1.7057    2.2640   35.0205 H   0  0  0  0  0
   -2.7022    2.4093   37.2874 H   0  0  0  0  0
   -4.4827    1.8552   38.7254 H   0  0  0  0  0
   -5.0341    0.1640   38.6444 H   0  0  0  0  0
   -4.5825    0.8791   40.2114 H   0  0  0  0  0
  1  2  1  0  0  0
  2  3  1  0  0  0
  3  5  1  0  0  0
  5  4  2  0  0  0
  5  6  1  0  0  0
  6  7  4  0  0  0
  6 13  4  0  0  0
  7  8  1  0  0  0
  7 10  4  0  0  0
  8  9  1  0  0  0
 10 11  4  0  0  0
 11 12  4  0  0  0
 12 13  4  0  0  0
 13 14  1  0  0  0
 14 15  1  0  0  0
  2 16  1  0  0  0
  2 17  1  0  0  0
  3 18  1  0  0  0
  9 19  1  0  0  0
  9 20  1  0  0  0
  9 21  1  0  0  0
 10 22  1  0  0  0
 11 23  1  0  0  0
 12 24  1  0  0  0
 15 25  1  0  0  0
 15 26  1  0  0  0
 15 27  1  0  0  0
M  END
$$$$
