3oik_ligand
  -I-interpret- 

 60 63  0  0  0  0  0  0  0  0999 V2000
   -7.3890    0.7140   16.9970 O   0  0  0  0  0
   -5.9750    0.6370   16.7130 S   0  0  0  0  0
   -5.0740    1.1280   17.7710 O   0  0  0  0  0
   -5.5220   -0.8530   16.3190 N   0  0  0  0  0
   -5.9240    1.5580   15.4790 O   0  0  0  0  0
   -4.6220    1.7440   14.8050 C   0  0  0  0  0
   -4.2300    0.7350   13.6970 C   0  0  0  0  0
   -3.5730    1.6930   12.6230 C   0  0  0  0  0
   -4.2710    3.1230   14.3280 C   0  0  0  0  0
   -3.1730    2.9160   13.4730 C   0  0  0  0  0
   -5.5130    3.5050   13.4330 C   0  0  0  0  0
   -4.1510    4.2500   15.2970 C   0  0  0  0  0
   -3.7500    5.5020   14.5780 C   0  0  0  0  0
   -2.3720    5.2210   13.8810 C   0  0  0  0  0
   -2.5200    4.1360   12.7910 C   0  0  0  0  0
   -1.2080    3.8620   12.0890 C   0  0  0  0  0
   -0.9260    5.1310   11.2240 C   0  0  0  0  0
   -0.8420    6.3550   12.1630 C   0  0  0  0  0
   -0.0790    7.4630   11.7640 C   0  0  0  0  0
   -1.5170    6.4140   13.3860 C   0  0  0  0  0
   -1.4210    7.5270   14.2010 C   0  0  0  0  0
   -0.6420    8.6190   13.8000 C   0  0  0  0  0
   -0.5800    9.8230   14.7480 C   0  0  0  0  0
   -1.6580   10.8040   14.2930 C   0  0  0  0  0
    0.0300    8.5900   12.5720 C   0  0  0  0  0
    0.7840    9.7020   12.2040 O   0  0  0  0  0
    2.2670    9.5960   12.2900 S   0  0  0  0  0
    2.7570    8.7160   11.1710 O   0  0  0  0  0
    2.7670    9.0780   13.6100 O   0  0  0  0  0
    2.8990   11.0900   12.0620 N   0  0  0  0  0
   -6.2102   -1.6054   16.2939 H   0  0  0  0  0
   -4.5462   -1.0467   16.0939 H   0  0  0  0  0
   -4.0196    1.5275   15.6872 H   0  0  0  0  0
   -5.0709    0.1577   13.3128 H   0  0  0  0  0
   -3.5659   -0.0577   14.0414 H   0  0  0  0  0
   -4.2461    1.9428   11.8029 H   0  0  0  0  0
   -2.7299    1.2388   12.1024 H   0  0  0  0  0
   -2.2667    2.7030   14.0398 H   0  0  0  0  0
   -5.2908    4.4143   12.8745 H   0  0  0  0  0
   -5.7220    2.6920   12.7377 H   0  0  0  0  0
   -6.3812    3.6717   14.0706 H   0  0  0  0  0
   -3.3930    4.0047   16.0409 H   0  0  0  0  0
   -5.1130    4.4083   15.7845 H   0  0  0  0  0
   -3.6622    6.3332   15.2776 H   0  0  0  0  0
   -4.5031    5.7767   13.8394 H   0  0  0  0  0
   -1.7665    4.8664   14.7151 H   0  0  0  0  0
   -3.1652    4.4584   11.9737 H   0  0  0  0  0
   -1.2635    2.9635   11.4744 H   0  0  0  0  0
   -0.4042    3.6773   12.8017 H   0  0  0  0  0
   -1.7272    5.2726   10.4986 H   0  0  0  0  0
    0.0128    5.0117   10.6831 H   0  0  0  0  0
    0.4372    7.4402   10.8043 H   0  0  0  0  0
   -1.9506    7.5541   15.1533 H   0  0  0  0  0
    0.4047   10.2893   14.7159 H   0  0  0  0  0
   -0.7511    9.5121   15.7786 H   0  0  0  0  0
   -1.4586   11.1104   13.2661 H   0  0  0  0  0
   -2.6334   10.3204   14.3463 H   0  0  0  0  0
   -1.6489   11.6790   14.9429 H   0  0  0  0  0
    3.5063   11.2703   11.2626 H   0  0  0  0  0
    2.6852   11.8400   12.7194 H   0  0  0  0  0
  1  2  2  0  0  0
  2  3  2  0  0  0
  2  4  1  0  0  0
  2  5  1  0  0  0
  5  6  1  0  0  0
  6  7  1  0  0  0
  6  9  1  0  0  0
  7  8  1  0  0  0
  8 10  1  0  0  0
  9 10  1  0  0  0
  9 11  1  0  0  0
  9 12  1  0  0  0
 10 15  1  0  0  0
 12 13  1  0  0  0
 13 14  1  0  0  0
 14 15  1  0  0  0
 14 20  1  0  0  0
 15 16  1  0  0  0
 16 17  1  0  0  0
 17 18  1  0  0  0
 18 19  4  0  0  0
 18 20  4  0  0  0
 19 25  4  0  0  0
 20 21  4  0  0  0
 21 22  4  0  0  0
 22 23  1  0  0  0
 22 25  4  0  0  0
 23 24  1  0  0  0
 25 26  1  0  0  0
 26 27  1  0  0  0
 27 28  2  0  0  0
 27 29  2  0  0  0
 27 30  1  0  0  0
  4 31  1  0  0  0
  4 32  1  0  0  0
  6 33  1  0  0  0
  7 34  1  0  0  0
  7 35  1  0  0  0
  8 36  1  0  0  0
  8 37  1  0  0  0
 10 38  1  0  0  0
 11 39  1  0  0  0
 11 40  1  0  0  0
 11 41  1  0  0  0
 12 42  1  0  0  0
 12 43  1  0  0  0
 13 44  1  0  0  0
 13 45  1  0  0  0
 14 46  1  0  0  0
 15 47  1  0  0  0
 16 48  1  0  0  0
 16 49  1  0  0  0
 17 50  1  0  0  0
 17 51  1  0  0  0
 19 52  1  0  0  0
 21 53  1  0  0  0
 23 54  1  0  0  0
 23 55  1  0  0  0
 24 56  1  0  0  0
 24 57  1  0  0  0
 24 58  1  0  0  0
 30 59  1  0  0  0
 30 60  1  0  0  0
M  END
$$$$
