### 
### Created by X-TOOL on Wed Jan  1 15:39:35 2020
### 

@<TRIPOS>MOLECULE
6cvx_ligand
  109   114     1     0     0
SMALL
GAST_HUCK


@<TRIPOS>ATOM
      1 C13       -13.5500   -9.8050   14.0550 C.3       1 FH4         0.1364
      2 C21       -19.8100  -11.9980   16.2060 C.3       1 FH4         0.0882
      3 C22       -21.0650  -12.0890   16.6790 C.3       1 FH4        -0.0223
      4 C24       -17.6310   -7.6650   12.6930 C.3       1 FH4         0.0025
      5 C26       -16.5260   -7.3850   11.6640 C.3       1 FH4        -0.0558
      6 C01       -16.0070   -8.9290   14.0860 C.2       1 FH4         0.2070
      7 C02       -13.8530  -11.5860   12.6680 C.3       1 FH4         0.1116
      8 C03       -12.8930  -10.7650   13.0990 C.3       1 FH4         0.0213
      9 C04       -15.1010  -10.6220   12.4030 C.3       1 FH4         0.0683
     10 C05       -14.4430   -3.8050   14.8180 C.2       1 FH4        -0.1173
     11 C06       -13.4500   -4.3000   15.5600 C.2       1 FH4        -0.0848
     12 C07       -13.4490   -5.7930   15.9740 C.3       1 FH4         0.0219
     13 C08       -12.4880   -6.2440   17.0550 C.3       1 FH4        -0.0026
     14 C09       -12.2010   -6.6200   15.5850 C.3       1 FH4         0.1495
     15 C11       -13.1530   -8.3890   14.1050 C.2       1 FH4         0.2014
     16 C16       -17.3850   -8.9730   13.4470 C.3       1 FH4         0.1378
     17 C18       -18.6580  -10.5120   14.8220 C.2       1 FH4         0.3221
     18 C23       -18.9200  -12.4630   17.4200 C.3       1 FH4        -0.0223
     19 C25       -18.9860   -7.8740   11.9710 C.3       1 FH4        -0.0558
     20 C27       -17.7050   -6.4620   13.6580 C.3       1 FH4        -0.0558
     21 C29       -13.7340  -13.6330   13.8870 C.ar      1 FH4         0.1987
     22 C30       -14.0280  -14.4130   15.1160 C.ar      1 FH4         0.0931
     23 C31       -15.1150  -13.9310   16.0570 C.3       1 FH4         0.0101
     24 C33       -12.3020  -16.0190   14.4840 C.ar      1 FH4         0.0479
     25 C34       -11.4970  -17.2710   14.8360 C.ar      1 FH4        -0.0425
     26 C35       -10.4450  -17.7090   13.8850 C.ar      1 FH4        -0.0236
     27 C36       -10.1990  -16.9380   12.6300 C.ar      1 FH4         0.0960
     28 C37       -10.9640  -15.6600   12.2610 C.ar      1 FH4        -0.0161
     29 C38       -12.0330  -15.2250   13.2490 C.ar      1 FH4         0.0423
     30 C41        -9.0770  -16.6010   10.6210 C.3       1 FH4         0.0605
     31 C42       -11.0250   -5.9040   15.0550 C.2       1 FH4         0.2469
     32 C48        -8.3650   -7.0520   12.2400 C.3       1 FH4         0.1085
     33 C49        -6.9440   -6.6840   11.8650 C.3       1 FH4        -0.0239
     34 C50        -7.2420   -7.9380   12.6880 C.3       1 FH4        -0.0239
     35 C51       -20.8690  -11.3190   18.1380 C.3       1 FH4        -0.0503
     36 C52       -19.6480  -11.7560   18.6350 C.3       1 FH4        -0.0503
     37 C53       -14.5920  -13.9530   17.4730 C.3       1 FH4        -0.0501
     38 C54        -9.3730   -7.5570   11.1670 C.3       1 FH4        -0.0378
     39 C55       -16.2640  -14.9020   15.8400 C.3       1 FH4        -0.0501
     40 N10       -12.4990   -7.9990   15.2850 N.am      1 FH4        -0.2717
     41 N14       -15.0010   -9.7690   13.5120 N.am      1 FH4        -0.2468
     42 N17       -18.3190   -9.1780   14.4800 N.am      1 FH4        -0.2407
     43 N32       -13.2930  -15.5880   15.4160 N.ar      1 FH4        -0.2827
     44 N39       -12.7550  -14.0480   12.9460 N.ar      1 FH4        -0.2649
     45 N44       -10.3120   -6.6990   14.1330 N.am      1 FH4        -0.1548
     46 O12       -13.2760   -7.5880   13.1920 O.2       1 FH4        -0.3947
     47 O15       -15.6950   -8.2510   15.0800 O.2       1 FH4        -0.3942
     48 O19       -18.2660  -11.4890   14.2200 O.2       1 FH4        -0.3774
     49 O20       -19.5020  -10.5780   15.9140 O.3       1 FH4        -0.2605
     50 O28       -14.4390  -12.4820   13.6520 O.3       1 FH4        -0.2852
     51 O40        -9.2470  -17.4170   11.7630 O.3       1 FH4        -0.3183
     52 O43       -10.6930   -4.8250   15.3970 O.2       1 FH4        -0.3401
     53 O46        -7.9530   -5.4660   14.3550 O.2       1 FH4        -0.1501
     54 O47        -9.5260   -4.8090   12.6850 O.2       1 FH4        -0.1501
     55 S45        -9.0170   -5.9550   13.4770 S.o2      1 FH4         0.0671
     56 H1        -13.4910  -10.2192   15.0723 H         1 FH4         0.0803
     57 H2        -19.6583  -12.6262   15.3159 H         1 FH4         0.0647
     58 H3        -21.3798  -13.1352   16.8069 H         1 FH4         0.0293
     59 H4        -21.7853  -11.5656   16.0331 H         1 FH4         0.0293
     60 H5        -16.7394   -6.4388   11.1451 H         1 FH4         0.0237
     61 H6        -16.4907   -8.2049   10.9316 H         1 FH4         0.0237
     62 H7        -15.5564   -7.3106   12.1782 H         1 FH4         0.0237
     63 H8        -13.5162  -12.1369   11.7775 H         1 FH4         0.0683
     64 H9        -12.1071  -11.3366   13.6143 H         1 FH4         0.0343
     65 H10       -12.4530  -10.2173   12.2526 H         1 FH4         0.0343
     66 H11       -16.0506  -11.1772   12.4014 H         1 FH4         0.0554
     67 H12       -14.9962  -10.0720   11.4562 H         1 FH4         0.0554
     68 H13       -14.4368   -2.7545   14.5309 H         1 FH4         0.0290
     69 H14       -15.2594   -4.4516   14.4997 H         1 FH4         0.0290
     70 H15       -12.6353   -3.6503   15.8764 H         1 FH4         0.0674
     71 H16       -14.4611   -6.2188   15.9079 H         1 FH4         0.0489
     72 H17       -12.7935   -7.0221   17.7700 H         1 FH4         0.0307
     73 H18       -11.8523   -5.5058   17.5659 H         1 FH4         0.0307
     74 H19       -17.4412   -9.8102   12.7357 H         1 FH4         0.0805
     75 H20       -17.8825  -12.1131   17.3147 H         1 FH4         0.0293
     76 H21       -18.9286  -13.5576   17.5284 H         1 FH4         0.0293
     77 H22       -19.2400   -6.9694   11.3989 H         1 FH4         0.0237
     78 H23       -19.7718   -8.0696   12.7154 H         1 FH4         0.0237
     79 H24       -18.9082   -8.7312   11.2860 H         1 FH4         0.0237
     80 H25       -16.7339   -6.3330   14.1583 H         1 FH4         0.0237
     81 H26       -18.4846   -6.6444   14.4123 H         1 FH4         0.0237
     82 H27       -17.9491   -5.5516   13.0910 H         1 FH4         0.0237
     83 H28       -15.4295  -12.9082   15.8023 H         1 FH4         0.0492
     84 H29       -11.6886  -17.8207   15.7505 H         1 FH4         0.0637
     85 H30        -9.8535  -18.5911   14.1021 H         1 FH4         0.0606
     86 H31       -10.7552  -15.1037   11.3543 H         1 FH4         0.0508
     87 H32        -8.3049  -17.0373    9.9702 H         1 FH4         0.0580
     88 H33        -8.7664  -15.5931   10.9334 H         1 FH4         0.0580
     89 H34       -10.0274  -16.5377   10.0707 H         1 FH4         0.0580
     90 H35        -6.4550   -5.8179   12.3347 H         1 FH4         0.0288
     91 H36        -6.6064   -6.7747   10.8220 H         1 FH4         0.0288
     92 H37        -7.1144   -8.9338   12.2386 H         1 FH4         0.0288
     93 H38        -6.9630   -7.9770   13.7513 H         1 FH4         0.0288
     94 H39       -21.6824  -11.5907   18.8269 H         1 FH4         0.0266
     95 H40       -20.8569  -10.2282   17.9969 H         1 FH4         0.0266
     96 H41       -19.0533  -10.9037   18.9953 H         1 FH4         0.0266
     97 H42       -19.8020  -12.4696   19.4578 H         1 FH4         0.0266
     98 H43       -15.3775  -13.6040   18.1594 H         1 FH4         0.0258
     99 H44       -13.7166  -13.2915   17.5509 H         1 FH4         0.0258
    100 H45       -14.3009  -14.9795   17.7405 H         1 FH4         0.0258
    101 H46        -8.8547   -8.2237   10.4621 H         1 FH4         0.0251
    102 H47        -9.7883   -6.6973   10.6206 H         1 FH4         0.0251
    103 H48       -10.1883   -8.1069   11.6598 H         1 FH4         0.0251
    104 H49       -16.6022  -14.8422   14.7950 H         1 FH4         0.0258
    105 H50       -17.0963  -14.6409   16.5102 H         1 FH4         0.0258
    106 H51       -15.9251  -15.9256   16.0577 H         1 FH4         0.0258
    107 H52       -12.2299   -8.7035   15.9417 H         1 FH4         0.1841
    108 H53       -18.7323   -8.4040   14.9597 H         1 FH4         0.1899
    109 H54       -10.5769   -7.6352   13.9022 H         1 FH4         0.2148
@<TRIPOS>BOND
     1    1    8 1  
     2   15    1 1  
     3    1   41 1  
     4    2    3 1  
     5    2   18 1  
     6   49    2 1  
     7    3   35 1  
     8    4    5 1  
     9   16    4 1  
    10    4   19 1  
    11    4   20 1  
    12    6   16 1  
    13   41    6 am 
    14    6   47 2  
    15    8    7 1  
    16    9    7 1  
    17    7   50 1  
    18   41    9 1  
    19   11   10 2  
    20   12   11 1  
    21   13   12 1  
    22   14   12 1  
    23   14   13 1  
    24   31   14 1  
    25   14   40 1  
    26   40   15 am 
    27   15   46 2  
    28   16   42 1  
    29   42   17 am 
    30   17   48 2  
    31   17   49 1  
    32   18   36 1  
    33   21   22 ar 
    34   21   44 ar 
    35   50   21 1  
    36   22   23 1  
    37   22   43 ar 
    38   23   37 1  
    39   23   39 1  
    40   24   25 ar 
    41   29   24 ar 
    42   43   24 ar 
    43   25   26 ar 
    44   27   26 ar 
    45   28   27 ar 
    46   27   51 1  
    47   29   28 ar 
    48   44   29 ar 
    49   51   30 1  
    50   45   31 am 
    51   31   52 2  
    52   32   33 1  
    53   32   34 1  
    54   32   38 1  
    55   55   32 1  
    56   34   33 1  
    57   36   35 1  
    58   45   55 am 
    59   55   53 2  
    60   55   54 2  
    61    1   56 1  
    62    2   57 1  
    63    3   58 1  
    64    3   59 1  
    65    5   60 1  
    66    5   61 1  
    67    5   62 1  
    68    7   63 1  
    69    8   64 1  
    70    8   65 1  
    71    9   66 1  
    72    9   67 1  
    73   10   68 1  
    74   10   69 1  
    75   11   70 1  
    76   12   71 1  
    77   13   72 1  
    78   13   73 1  
    79   16   74 1  
    80   18   75 1  
    81   18   76 1  
    82   19   77 1  
    83   19   78 1  
    84   19   79 1  
    85   20   80 1  
    86   20   81 1  
    87   20   82 1  
    88   23   83 1  
    89   25   84 1  
    90   26   85 1  
    91   28   86 1  
    92   30   87 1  
    93   30   88 1  
    94   30   89 1  
    95   33   90 1  
    96   33   91 1  
    97   34   92 1  
    98   34   93 1  
    99   35   94 1  
   100   35   95 1  
   101   36   96 1  
   102   36   97 1  
   103   37   98 1  
   104   37   99 1  
   105   37  100 1  
   106   38  101 1  
   107   38  102 1  
   108   38  103 1  
   109   39  104 1  
   110   39  105 1  
   111   39  106 1  
   112   40  107 1  
   113   42  108 1  
   114   45  109 1  
@<TRIPOS>SUBSTRUCTURE
     1 FH4         1

