6cvx_ligand
  -I-interpret- 

109114  0  0  0  0  0  0  0  0999 V2000
  -13.5500   -9.8050   14.0550 C   0  0  0  0  0
  -19.8100  -11.9980   16.2060 C   0  0  0  0  0
  -21.0650  -12.0890   16.6790 C   0  0  0  0  0
  -17.6310   -7.6650   12.6930 C   0  0  0  0  0
  -16.5260   -7.3850   11.6640 C   0  0  0  0  0
  -16.0070   -8.9290   14.0860 C   0  0  0  0  0
  -13.8530  -11.5860   12.6680 C   0  0  0  0  0
  -12.8930  -10.7650   13.0990 C   0  0  0  0  0
  -15.1010  -10.6220   12.4030 C   0  0  0  0  0
  -14.4430   -3.8050   14.8180 C   0  0  0  0  0
  -13.4500   -4.3000   15.5600 C   0  0  0  0  0
  -13.4490   -5.7930   15.9740 C   0  0  0  0  0
  -12.4880   -6.2440   17.0550 C   0  0  0  0  0
  -12.2010   -6.6200   15.5850 C   0  0  0  0  0
  -13.1530   -8.3890   14.1050 C   0  0  0  0  0
  -17.3850   -8.9730   13.4470 C   0  0  0  0  0
  -18.6580  -10.5120   14.8220 C   0  0  0  0  0
  -18.9200  -12.4630   17.4200 C   0  0  0  0  0
  -18.9860   -7.8740   11.9710 C   0  0  0  0  0
  -17.7050   -6.4620   13.6580 C   0  0  0  0  0
  -13.7340  -13.6330   13.8870 C   0  0  0  0  0
  -14.0280  -14.4130   15.1160 C   0  0  0  0  0
  -15.1150  -13.9310   16.0570 C   0  0  0  0  0
  -12.3020  -16.0190   14.4840 C   0  0  0  0  0
  -11.4970  -17.2710   14.8360 C   0  0  0  0  0
  -10.4450  -17.7090   13.8850 C   0  0  0  0  0
  -10.1990  -16.9380   12.6300 C   0  0  0  0  0
  -10.9640  -15.6600   12.2610 C   0  0  0  0  0
  -12.0330  -15.2250   13.2490 C   0  0  0  0  0
   -9.0770  -16.6010   10.6210 C   0  0  0  0  0
  -11.0250   -5.9040   15.0550 C   0  0  0  0  0
   -8.3650   -7.0520   12.2400 C   0  0  0  0  0
   -6.9440   -6.6840   11.8650 C   0  0  0  0  0
   -7.2420   -7.9380   12.6880 C   0  0  0  0  0
  -20.8690  -11.3190   18.1380 C   0  0  0  0  0
  -19.6480  -11.7560   18.6350 C   0  0  0  0  0
  -14.5920  -13.9530   17.4730 C   0  0  0  0  0
   -9.3730   -7.5570   11.1670 C   0  0  0  0  0
  -16.2640  -14.9020   15.8400 C   0  0  0  0  0
  -12.4990   -7.9990   15.2850 N   0  0  0  0  0
  -15.0010   -9.7690   13.5120 N   0  0  0  0  0
  -18.3190   -9.1780   14.4800 N   0  0  0  0  0
  -13.2930  -15.5880   15.4160 N   0  0  0  0  0
  -12.7550  -14.0480   12.9460 N   0  0  0  0  0
  -10.3120   -6.6990   14.1330 N   0  0  0  0  0
  -13.2760   -7.5880   13.1920 O   0  0  0  0  0
  -15.6950   -8.2510   15.0800 O   0  0  0  0  0
  -18.2660  -11.4890   14.2200 O   0  0  0  0  0
  -19.5020  -10.5780   15.9140 O   0  0  0  0  0
  -14.4390  -12.4820   13.6520 O   0  0  0  0  0
   -9.2470  -17.4170   11.7630 O   0  0  0  0  0
  -10.6930   -4.8250   15.3970 O   0  0  0  0  0
   -7.9530   -5.4660   14.3550 O   0  0  0  0  0
   -9.5260   -4.8090   12.6850 O   0  0  0  0  0
   -9.0170   -5.9550   13.4770 S   0  0  0  0  0
  -13.3085  -10.1701   15.0532 H   0  0  0  0  0
  -19.6523  -12.5815   15.2989 H   0  0  0  0  0
  -21.4501  -13.1062   16.7509 H   0  0  0  0  0
  -21.8261  -11.6508   16.0334 H   0  0  0  0  0
  -15.5659   -7.3115   12.1747 H   0  0  0  0  0
  -16.4920   -8.1981   10.9389 H   0  0  0  0  0
  -16.7386   -6.4473   11.1506 H   0  0  0  0  0
  -13.4046  -12.1674   11.8624 H   0  0  0  0  0
  -12.0951  -11.3213   13.5909 H   0  0  0  0  0
  -12.4313  -10.2332   12.2671 H   0  0  0  0  0
  -16.0566  -11.1400   12.3223 H   0  0  0  0  0
  -15.0738  -10.1097   11.4413 H   0  0  0  0  0
  -15.2601   -4.4522   14.4994 H   0  0  0  0  0
  -14.4368   -2.7536   14.5307 H   0  0  0  0  0
  -12.6346   -3.6497   15.8767 H   0  0  0  0  0
  -14.5248   -5.8911   15.8285 H   0  0  0  0  0
  -12.5323   -6.7387   18.0253 H   0  0  0  0  0
  -11.9549   -5.8084   17.9000 H   0  0  0  0  0
  -17.4754   -9.7821   12.7222 H   0  0  0  0  0
  -17.8698  -12.1884   17.3212 H   0  0  0  0  0
  -18.8532  -13.5461   17.5221 H   0  0  0  0  0
  -18.9075   -8.7236   11.2927 H   0  0  0  0  0
  -19.7637   -8.0678   12.7097 H   0  0  0  0  0
  -19.2365   -6.9771   11.4045 H   0  0  0  0  0
  -18.5219   -6.6135   14.3635 H   0  0  0  0  0
  -16.7645   -6.3760   14.2022 H   0  0  0  0  0
  -17.8806   -5.5502   13.0871 H   0  0  0  0  0
  -15.4391  -12.9067   15.8728 H   0  0  0  0  0
  -11.6897  -17.8237   15.7555 H   0  0  0  0  0
   -9.8503  -18.5960   14.1033 H   0  0  0  0  0
  -10.7541  -15.1007   11.3493 H   0  0  0  0  0
  -10.0193  -16.5391   10.0767 H   0  0  0  0  0
   -8.7693  -15.6026   10.9319 H   0  0  0  0  0
   -8.3118  -17.0344    9.9770 H   0  0  0  0  0
   -6.2814   -5.8189   11.8887 H   0  0  0  0  0
   -6.3719   -6.3906   10.9849 H   0  0  0  0  0
   -6.9859   -8.9975   12.6850 H   0  0  0  0  0
   -6.8939   -8.4166   13.6034 H   0  0  0  0  0
  -21.6833  -11.5543   18.8233 H   0  0  0  0  0
  -20.8844  -10.2355   18.0199 H   0  0  0  0  0
  -19.0574  -10.9268   19.0246 H   0  0  0  0  0
  -19.7816  -12.4413   19.4720 H   0  0  0  0  0
  -14.3039  -14.9706   17.7368 H   0  0  0  0  0
  -13.7246  -13.2972   17.5488 H   0  0  0  0  0
  -15.3712  -13.6070   18.1522 H   0  0  0  0  0
   -9.5026   -6.7906   10.4029 H   0  0  0  0  0
   -8.9876   -8.4676   10.7084 H   0  0  0  0  0
  -10.3322   -7.7652   11.6409 H   0  0  0  0  0
  -16.5804  -14.8614   14.7977 H   0  0  0  0  0
  -15.9347  -15.9125   16.0820 H   0  0  0  0  0
  -17.0980  -14.6260   16.4852 H   0  0  0  0  0
  -12.2245   -8.7176   15.9548 H   0  0  0  0  0
  -18.7406   -8.3885   14.9693 H   0  0  0  0  0
  -10.5822   -7.6540   13.8976 H   0  0  0  0  0
  1  8  1  0  0  0
 15  1  1  0  0  0
  1 41  1  0  0  0
  2  3  1  0  0  0
  2 18  1  0  0  0
 49  2  1  0  0  0
  3 35  1  0  0  0
  4  5  1  0  0  0
 16  4  1  0  0  0
  4 19  1  0  0  0
  4 20  1  0  0  0
  6 16  1  0  0  0
 41  6  1  0  0  0
  6 47  2  0  0  0
  8  7  1  0  0  0
  9  7  1  0  0  0
  7 50  1  0  0  0
 41  9  1  0  0  0
 11 10  2  0  0  0
 12 11  1  0  0  0
 13 12  1  0  0  0
 14 12  1  0  0  0
 14 13  1  0  0  0
 31 14  1  0  0  0
 14 40  1  0  0  0
 40 15  1  0  0  0
 15 46  2  0  0  0
 16 42  1  0  0  0
 42 17  1  0  0  0
 17 48  2  0  0  0
 17 49  1  0  0  0
 18 36  1  0  0  0
 21 22  4  0  0  0
 21 44  4  0  0  0
 50 21  1  0  0  0
 22 23  1  0  0  0
 22 43  4  0  0  0
 23 37  1  0  0  0
 23 39  1  0  0  0
 24 25  4  0  0  0
 29 24  4  0  0  0
 43 24  4  0  0  0
 25 26  4  0  0  0
 27 26  4  0  0  0
 28 27  4  0  0  0
 27 51  1  0  0  0
 29 28  4  0  0  0
 44 29  4  0  0  0
 51 30  1  0  0  0
 45 31  1  0  0  0
 31 52  2  0  0  0
 32 33  1  0  0  0
 32 34  1  0  0  0
 32 38  1  0  0  0
 55 32  1  0  0  0
 34 33  1  0  0  0
 36 35  1  0  0  0
 45 55  1  0  0  0
 55 53  2  0  0  0
 55 54  2  0  0  0
  1 56  1  0  0  0
  2 57  1  0  0  0
  3 58  1  0  0  0
  3 59  1  0  0  0
  5 60  1  0  0  0
  5 61  1  0  0  0
  5 62  1  0  0  0
  7 63  1  0  0  0
  8 64  1  0  0  0
  8 65  1  0  0  0
  9 66  1  0  0  0
  9 67  1  0  0  0
 10 68  1  0  0  0
 10 69  1  0  0  0
 11 70  1  0  0  0
 12 71  1  0  0  0
 13 72  1  0  0  0
 13 73  1  0  0  0
 16 74  1  0  0  0
 18 75  1  0  0  0
 18 76  1  0  0  0
 19 77  1  0  0  0
 19 78  1  0  0  0
 19 79  1  0  0  0
 20 80  1  0  0  0
 20 81  1  0  0  0
 20 82  1  0  0  0
 23 83  1  0  0  0
 25 84  1  0  0  0
 26 85  1  0  0  0
 28 86  1  0  0  0
 30 87  1  0  0  0
 30 88  1  0  0  0
 30 89  1  0  0  0
 33 90  1  0  0  0
 33 91  1  0  0  0
 34 92  1  0  0  0
 34 93  1  0  0  0
 35 94  1  0  0  0
 35 95  1  0  0  0
 36 96  1  0  0  0
 36 97  1  0  0  0
 37 98  1  0  0  0
 37 99  1  0  0  0
 37100  1  0  0  0
 38101  1  0  0  0
 38102  1  0  0  0
 38103  1  0  0  0
 39104  1  0  0  0
 39105  1  0  0  0
 39106  1  0  0  0
 40107  1  0  0  0
 42108  1  0  0  0
 45109  1  0  0  0
M  END
$$$$
