5fwg_ligand
  -I-interpret- 

 63 65  0  0  0  0  0  0  0  0999 V2000
   14.3180   14.6610   25.0810 N   0  3  0  0  0
   13.8440   15.3410   26.2860 C   0  0  0  0  0
   12.8800   16.4410   25.9020 C   0  0  0  0  0
   12.0080   16.7320   26.7430 O   0  0  0  0  0
   14.9760   16.0080   27.0950 C   0  0  0  0  0
   15.6510   15.0970   28.0960 C   0  0  0  0  0
   16.7850   15.7920   28.7200 C   0  0  0  0  0
   17.9520   15.4490   28.6620 O   0  0  0  0  0
   13.0140   16.9340   24.7520 O   0  0  0  0  0
   16.4380   16.2920   29.8870 N   0  0  0  0  0
   17.5010   16.8170   30.7190 C   0  0  0  0  0
   17.3790   16.2100   32.1160 C   0  0  0  0  0
   18.0980   16.6100   33.0470 O   0  0  0  0  0
   16.7190   18.1990   30.8250 C   0  0  0  0  0
   17.1620   18.9910   29.3910 S   0  0  0  0  0
   18.8650   18.6760   29.6080 C   0  0  0  0  0
   19.4940   19.8050   30.3770 C   0  0  0  0  0
   19.7950   19.5090   31.7290 C   0  0  0  0  0
   20.3790   20.5490   32.5010 C   0  0  0  0  0
   20.6580   21.8290   31.9850 C   0  0  0  0  0
   20.3610   22.0730   30.6030 C   0  0  0  0  0
   19.7830   21.0580   29.8250 C   0  0  0  0  0
   19.4740   21.2290   28.4890 C   0  0  0  0  0
   19.2100   22.5400   27.9820 C   0  0  0  0  0
   18.8770   22.7030   26.6540 C   0  0  0  0  0
   18.8600   21.4920   25.7890 C   0  0  0  0  0
   19.1340   20.1550   26.2510 C   0  0  0  0  0
   19.4580   20.0750   27.6990 C   0  0  0  0  0
   19.7540   18.7240   28.4080 C   0  0  0  0  0
   21.1050   18.5790   28.9880 O   0  0  0  0  0
   16.4460   15.2490   32.2190 N   0  0  0  0  0
   16.1470   14.5780   33.4720 C   0  0  0  0  0
   17.0470   13.4030   33.7930 C   0  0  0  0  0
   18.0480   13.2090   33.0650 O   0  0  0  0  0
   16.7250   12.7190   34.7850 O   0  0  0  0  0
   13.5253   14.2432   24.5937 H   0  0  0  0  0
   14.7771   15.3360   24.4695 H   0  0  0  0  0
   14.9810   13.9313   25.3424 H   0  0  0  0  0
   13.3779   14.5704   26.9000 H   0  0  0  0  0
   14.5266   16.8252   27.6592 H   0  0  0  0  0
   15.7387   16.3186   26.3809 H   0  0  0  0  0
   16.0136   14.2059   27.5835 H   0  0  0  0  0
   14.9335   14.8159   28.8669 H   0  0  0  0  0
   13.7677   16.5286   24.3171 H   0  0  0  0  0
   15.4647   16.3090   30.1916 H   0  0  0  0  0
   18.5384   16.7306   30.3960 H   0  0  0  0  0
   16.9768   18.7653   31.7200 H   0  0  0  0  0
   15.6411   18.0706   30.9237 H   0  0  0  0  0
   18.8260   17.6760   30.0399 H   0  0  0  0  0
   19.5881   18.5284   32.1575 H   0  0  0  0  0
   20.6230   20.3460   33.5438 H   0  0  0  0  0
   21.0856   22.6089   32.6150 H   0  0  0  0  0
   20.5834   23.0432   30.1587 H   0  0  0  0  0
   19.2717   23.4055   28.6418 H   0  0  0  0  0
   18.6342   23.6862   26.2510 H   0  0  0  0  0
   18.6240   21.6257   24.7333 H   0  0  0  0  0
   19.1062   19.2824   25.5983 H   0  0  0  0  0
   19.6205   17.9593   27.6428 H   0  0  0  0  0
   21.7578   18.5981   28.2844 H   0  0  0  0  0
   15.9266   14.9796   31.3835 H   0  0  0  0  0
   15.1332   14.1866   33.3876 H   0  0  0  0  0
   16.2887   15.3115   34.2657 H   0  0  0  0  0
   18.0708   13.8719   32.3709 H   0  0  0  0  0
  1  2  1  0  0  0
  2  3  1  0  0  0
  2  5  1  0  0  0
  3  4  2  0  0  0
  3  9  1  0  0  0
  5  6  1  0  0  0
  6  7  1  0  0  0
  7  8  2  0  0  0
  7 10  1  0  0  0
 10 11  1  0  0  0
 11 12  1  0  0  0
 11 14  1  0  0  0
 12 13  2  0  0  0
 12 31  1  0  0  0
 14 15  1  0  0  0
 15 16  1  0  0  0
 16 17  1  0  0  0
 16 29  1  0  0  0
 17 18  4  0  0  0
 17 22  4  0  0  0
 18 19  4  0  0  0
 19 20  4  0  0  0
 20 21  4  0  0  0
 21 22  4  0  0  0
 22 23  1  0  0  0
 23 24  4  0  0  0
 23 28  4  0  0  0
 24 25  4  0  0  0
 25 26  4  0  0  0
 26 27  4  0  0  0
 27 28  4  0  0  0
 28 29  1  0  0  0
 29 30  1  0  0  0
 31 32  1  0  0  0
 32 33  1  0  0  0
 33 34  1  0  0  0
 33 35  2  0  0  0
  1 36  1  0  0  0
  1 37  1  0  0  0
  1 38  1  0  0  0
  2 39  1  0  0  0
  5 40  1  0  0  0
  5 41  1  0  0  0
  6 42  1  0  0  0
  6 43  1  0  0  0
  9 44  1  0  0  0
 10 45  1  0  0  0
 11 46  1  0  0  0
 14 47  1  0  0  0
 14 48  1  0  0  0
 16 49  1  0  0  0
 18 50  1  0  0  0
 19 51  1  0  0  0
 20 52  1  0  0  0
 21 53  1  0  0  0
 24 54  1  0  0  0
 25 55  1  0  0  0
 26 56  1  0  0  0
 27 57  1  0  0  0
 29 58  1  0  0  0
 30 59  1  0  0  0
 31 60  1  0  0  0
 32 61  1  0  0  0
 32 62  1  0  0  0
 34 63  1  0  0  0
M  END
$$$$
