4bkz_ligand
  -I-interpret- 

 44 47  0  0  0  0  0  0  0  0999 V2000
   15.7590   10.4640    9.7010 O   0  0  0  0  0
   14.9500   10.7490    8.8330 C   0  0  0  0  0
   13.9870   11.6310    9.0740 N   0  0  0  0  0
   13.7340   12.3520   10.3180 C   0  0  0  0  0
   12.4820   11.6910   10.8910 C   0  0  0  0  0
   11.4550   12.7210   11.3390 C   0  0  0  0  0
   10.7060   12.1880   12.4620 N   0  3  0  0  0
   15.0080   10.1410    7.4660 C   0  0  0  0  0
   15.8620    8.9880    7.0530 C   0  0  0  0  0
   16.8620    8.1130    7.7910 C   0  0  0  0  0
   17.0370    6.7500    7.1000 C   0  0  0  0  0
   14.3010   10.5260    6.3840 N   0  0  0  0  0
   14.6120    9.7270    5.2500 N   0  0  0  0  0
   15.5470    8.8680    5.7090 C   0  0  0  0  0
   16.1270    7.8310    4.9820 C   0  0  0  0  0
   16.0620    7.5420    3.5550 C   0  0  0  0  0
   16.7290    6.3880    3.3350 N   0  0  0  0  0
   17.1650    5.9540    4.6240 N   0  0  0  0  0
   16.7920    6.8110    5.6180 C   0  0  0  0  0
   15.4420    8.3880    2.7000 N   0  0  0  0  0
   15.3840    8.4080    1.3440 C   0  0  0  0  0
   16.3190    7.7780    0.5190 C   0  0  0  0  0
   16.1790    7.8720   -0.8770 C   0  0  0  0  0
   17.0740    7.2510   -1.6670 F   0  0  0  0  0
   15.1210    8.5930   -1.4640 C   0  0  0  0  0
   14.1910    9.2270   -0.6430 C   0  0  0  0  0
   14.3340    9.1340    0.7520 C   0  0  0  0  0
   13.3510   11.8273    8.3011 H   0  0  0  0  0
   13.5939   13.4200   10.1515 H   0  0  0  0  0
   14.5787   12.2940   11.0044 H   0  0  0  0  0
   12.7735   11.0978   11.7578 H   0  0  0  0  0
   12.0326   11.0748   10.1123 H   0  0  0  0  0
   10.7747   12.9420   10.5165 H   0  0  0  0  0
   11.9623   13.6380   11.6389 H   0  0  0  0  0
   10.0161   12.8751   12.7659 H   0  0  0  0  0
   10.2315   11.3313   12.1768 H   0  0  0  0  0
   11.3458   11.9843   13.2298 H   0  0  0  0  0
   17.3891    8.4137    8.6965 H   0  0  0  0  0
   17.3097    5.8367    7.6288 H   0  0  0  0  0
   14.9281    9.1431    3.1541 H   0  0  0  0  0
   17.1484    7.2194    0.9529 H   0  0  0  0  0
   15.0309    8.6543   -2.5485 H   0  0  0  0  0
   13.3632    9.7879   -1.0770 H   0  0  0  0  0
   13.6113    9.6384    1.3934 H   0  0  0  0  0
  1  2  2  0  0  0
  2  3  1  0  0  0
  2  8  1  0  0  0
  3  4  1  0  0  0
  4  5  1  0  0  0
  5  6  1  0  0  0
  6  7  1  0  0  0
  8  9  4  0  0  0
  8 12  4  0  0  0
  9 10  4  0  0  0
  9 14  4  0  0  0
 10 11  4  0  0  0
 11 19  4  0  0  0
 12 13  4  0  0  0
 13 14  4  0  0  0
 14 15  4  0  0  0
 15 16  4  0  0  0
 15 19  4  0  0  0
 16 17  4  0  0  0
 16 20  1  0  0  0
 17 18  4  0  0  0
 18 19  4  0  0  0
 20 21  1  0  0  0
 21 22  4  0  0  0
 21 27  4  0  0  0
 22 23  4  0  0  0
 23 24  1  0  0  0
 23 25  4  0  0  0
 25 26  4  0  0  0
 26 27  4  0  0  0
  3 28  1  0  0  0
  4 29  1  0  0  0
  4 30  1  0  0  0
  5 31  1  0  0  0
  5 32  1  0  0  0
  6 33  1  0  0  0
  6 34  1  0  0  0
  7 35  1  0  0  0
  7 36  1  0  0  0
  7 37  1  0  0  0
 10 38  1  0  0  0
 11 39  1  0  0  0
 20 40  1  0  0  0
 22 41  1  0  0  0
 25 42  1  0  0  0
 26 43  1  0  0  0
 27 44  1  0  0  0
M  END
$$$$
