4iie_ligand
  -I-interpret- 

 26 27  0  0  0  0  0  0  0  0999 V2000
   20.9410  -20.4650   22.4700 O   0  0  0  0  0
   20.5920  -19.5010   23.4000 C   0  0  0  0  0
   19.1180  -18.9740   23.5000 N   0  3  0  0  0
   20.9880  -18.2370   22.8110 C   0  0  0  0  0
   20.4620  -17.1100   23.7460 C   0  0  0  0  0
   19.2500  -17.8180   24.4270 C   0  0  0  0  0
   21.1880  -19.8900   24.8180 C   0  0  0  0  0
   22.3270  -20.8150   24.9890 O   0  0  0  0  0
   21.3630  -18.5390   25.3940 C   0  0  0  0  0
   22.6180  -18.2260   26.0010 O   0  0  0  0  0
   19.9960  -17.9520   25.7410 C   0  0  0  0  0
   20.2540  -16.5820   26.0910 O   0  0  0  0  0
   20.5792  -20.2272   21.6132 H   0  0  0  0  0
   18.4632  -19.6810   23.8344 H   0  0  0  0  0
   18.7238  -18.7169   22.5951 H   0  0  0  0  0
   20.5700  -18.1319   21.8098 H   0  0  0  0  0
   22.0723  -18.1811   22.7143 H   0  0  0  0  0
   20.1949  -16.1935   23.2200 H   0  0  0  0  0
   21.2074  -16.7424   24.4512 H   0  0  0  0  0
   18.2329  -17.4632   24.5937 H   0  0  0  0  0
   20.5179  -20.5845   25.3248 H   0  0  0  0  0
   22.1159  -21.6591   24.5834 H   0  0  0  0  0
   21.7062  -17.7494   24.7255 H   0  0  0  0  0
   22.5965  -17.3249   26.3313 H   0  0  0  0  0
   19.4764  -18.5382   26.4990 H   0  0  0  0  0
   19.4279  -16.1509   26.3221 H   0  0  0  0  0
  1  2  1  0  0  0
  2  3  1  0  0  0
  2  4  1  0  0  0
  2  7  1  0  0  0
  3  6  1  0  0  0
  4  5  1  0  0  0
  5  6  1  0  0  0
  6 11  1  0  0  0
  7  8  1  0  0  0
  7  9  1  0  0  0
  9 10  1  0  0  0
  9 11  1  0  0  0
 11 12  1  0  0  0
  1 13  1  0  0  0
  3 14  1  0  0  0
  3 15  1  0  0  0
  4 16  1  0  0  0
  4 17  1  0  0  0
  5 18  1  0  0  0
  5 19  1  0  0  0
  6 20  1  0  0  0
  7 21  1  0  0  0
  8 22  1  0  0  0
  9 23  1  0  0  0
 10 24  1  0  0  0
 11 25  1  0  0  0
 12 26  1  0  0  0
M  END
$$$$
