1li2_ligand
  -I-interpret- 

 13 13  0  0  0  0  0  0  0  0999 V2000
   27.4870    6.6370    3.5090 C   0  0  0  0  0
   26.7380    5.4850    3.2810 C   0  0  0  0  0
   26.0000    4.9200    4.3200 C   0  0  0  0  0
   26.0150    5.4820    5.5880 C   0  0  0  0  0
   26.7910    6.6160    5.7900 C   0  0  0  0  0
   27.5250    7.2200    4.7650 C   0  0  0  0  0
   28.2030    7.1990    2.5140 O   0  0  0  0  0
   26.7289    5.0262    2.2923 H   0  0  0  0  0
   25.4043    4.0263    4.1338 H   0  0  0  0  0
   25.4350    5.0466    6.4017 H   0  0  0  0  0
   26.8292    7.0526    6.7880 H   0  0  0  0  0
   28.1091    8.1218    4.9484 H   0  0  0  0  0
   28.0816    6.6918    1.7080 H   0  0  0  0  0
  1  7  1  0  0  0
  1  6  4  0  0  0
  1  2  4  0  0  0
  2  3  4  0  0  0
  3  4  4  0  0  0
  4  5  4  0  0  0
  5  6  4  0  0  0
  2  8  1  0  0  0
  3  9  1  0  0  0
  4 10  1  0  0  0
  5 11  1  0  0  0
  6 12  1  0  0  0
  7 13  1  0  0  0
M  END
$$$$
