### 
### Created by X-TOOL on Mon Sep 10 21:12:46 2018
### 

@<TRIPOS>MOLECULE
1vij_ligand
  162   167     1     0     0
SMALL
GAST_HUCK


@<TRIPOS>ATOM
      1 C1        -14.3120   12.9870   37.3370 C.3       1 BAY        -0.0405
      2 C2        -12.8550   10.9880   37.8450 C.3       1 BAY        -0.0405
      3 C3        -12.2350   13.1680   38.8290 C.3       1 BAY        -0.0405
      4 C4        -12.8260   12.5340   37.5440 C.3       1 BAY         0.0796
      5 S5        -11.7520   12.9340   36.1420 S.o2      1 BAY        -0.0237
      6 O6        -11.2410   14.2950   36.1100 O.2       1 BAY        -0.1737
      7 O7        -10.8370   11.8590   35.8870 O.2       1 BAY        -0.1737
      8 C8        -13.2130   12.6850   35.0930 C.3       1 BAY         0.0878
      9 C9        -13.6010   13.9310   34.2130 C.3       1 BAY         0.0783
     10 C10       -14.8280   13.6800   33.2500 C.3       1 BAY         0.0044
     11 C11       -14.8910   12.1560   32.7900 C.ar      1 BAY        -0.0298
     12 C12       -13.6580   11.5130   32.7150 C.ar      1 BAY        -0.0606
     13 C13       -13.3900   10.1470   32.3380 C.ar      1 BAY        -0.0707
     14 C14       -14.6010    9.4610   32.0220 C.ar      1 BAY        -0.0631
     15 C15       -15.8990   10.0770   32.0830 C.ar      1 BAY        -0.0243
     16 C16       -17.0690    9.3750   31.7690 C.ar      1 BAY        -0.0569
     17 C17       -18.4780    9.8550   31.7810 C.ar      1 BAY        -0.0629
     18 C18       -18.6390   11.2130   32.1580 C.ar      1 BAY        -0.0625
     19 C19       -17.4550   11.9480   32.4780 C.ar      1 BAY        -0.0548
     20 C20       -16.0780   11.5090   32.4870 C.ar      1 BAY        -0.0120
     21 C21       -12.5580   14.8040   33.5210 C.2       1 BAY         0.1850
     22 O22       -12.7380   15.9770   33.8050 O.2       1 BAY        -0.3964
     23 N23       -11.5330   14.4870   32.6930 N.am      1 BAY        -0.2650
     24 C24       -10.6460   15.5740   32.1550 C.3       1 BAY         0.1331
     25 C25        -9.3020   15.5260   32.9690 C.3       1 BAY        -0.0063
     26 C26        -9.3910   16.3130   34.2830 C.3       1 BAY        -0.0584
     27 C27        -8.3810   16.6520   32.4460 C.3       1 BAY        -0.0584
     28 C28       -10.2420   15.2440   30.7020 C.2       1 BAY         0.2024
     29 O29        -9.3390   14.4500   30.5180 O.2       1 BAY        -0.3945
     30 N30       -10.9010   15.8410   29.6860 N.am      1 BAY        -0.2774
     31 C31       -10.6670   15.6770   28.2520 C.3       1 BAY         0.0799
     32 C32       -11.8240   15.0660   27.4250 C.3       1 BAY         0.0065
     33 C33       -12.8070   14.2740   28.2860 C.ar      1 BAY        -0.0408
     34 C34       -12.4570   12.8550   28.4430 C.ar      1 BAY        -0.0603
     35 C35       -13.3770   12.1390   29.2310 C.ar      1 BAY        -0.0686
     36 C36       -14.4630   12.7690   29.7780 C.ar      1 BAY        -0.0687
     37 C37       -14.8550   14.1420   29.6730 C.ar      1 BAY        -0.0686
     38 C38       -13.9540   14.8860   28.8860 C.ar      1 BAY        -0.0603
     39 C39       -10.7810   17.0840   27.5850 C.3       1 BAY         0.1079
     40 O40       -12.0610   17.5880   27.9780 O.3       1 BAY        -0.3867
     41 C41        -9.6760   18.0690   28.0400 C.3       1 BAY         0.1079
     42 O42       -10.2590   19.3430   27.8220 O.3       1 BAY        -0.3867
     43 C43        -8.3490   17.9570   27.2710 C.3       1 BAY         0.0799
     44 C44        -7.2240   18.7860   27.8120 C.3       1 BAY         0.0065
     45 C45        -5.8170   18.1700   27.7030 C.ar      1 BAY        -0.0408
     46 C46        -5.2810   17.2310   28.5840 C.ar      1 BAY        -0.0603
     47 C47        -3.9560   16.7740   28.3680 C.ar      1 BAY        -0.0686
     48 C48        -3.1910   17.2390   27.2850 C.ar      1 BAY        -0.0687
     49 C49        -3.7320   18.1810   26.4000 C.ar      1 BAY        -0.0686
     50 C50        -5.0380   18.6370   26.6220 C.ar      1 BAY        -0.0603
     51 N51        -8.4750   17.6210   25.8860 N.am      1 BAY        -0.2774
     52 C52        -8.1410   16.3850   25.3890 C.2       1 BAY         0.2024
     53 O53        -7.6590   15.5380   26.1570 O.2       1 BAY        -0.3945
     54 C54        -8.3180   16.0800   23.9410 C.3       1 BAY         0.1331
     55 C55        -9.4800   15.4240   23.2380 C.3       1 BAY        -0.0063
     56 C56       -10.8320   15.7260   23.9350 C.3       1 BAY        -0.0584
     57 C57        -9.5460   15.6420   21.7140 C.3       1 BAY        -0.0584
     58 N58        -7.1660   16.4790   23.2360 N.am      1 BAY        -0.2650
     59 C59        -7.1220   17.5580   22.3980 C.2       1 BAY         0.1850
     60 O60        -8.0270   18.3170   22.1630 O.2       1 BAY        -0.3964
     61 C61        -5.7100   17.6930   21.8710 C.3       1 BAY         0.0783
     62 C62        -5.1820   18.5260   23.0970 C.3       1 BAY         0.0044
     63 C63        -3.8250   19.2740   23.1210 C.ar      1 BAY        -0.0298
     64 C64        -4.0520   20.6510   23.3410 C.ar      1 BAY        -0.0606
     65 C65        -2.9620   21.5240   23.4070 C.ar      1 BAY        -0.0707
     66 C66        -1.6460   21.0580   23.2640 C.ar      1 BAY        -0.0631
     67 C67        -1.4170   19.6800   23.0430 C.ar      1 BAY        -0.0243
     68 C68        -0.0830   19.2500   22.9040 C.ar      1 BAY        -0.0569
     69 C69         0.2040   17.8940   22.6890 C.ar      1 BAY        -0.0629
     70 C70        -0.8590   16.9870   22.6180 C.ar      1 BAY        -0.0625
     71 C71        -2.1800   17.4170   22.7530 C.ar      1 BAY        -0.0548
     72 C72        -2.5140   18.7760   22.9650 C.ar      1 BAY        -0.0120
     73 C73        -5.1540   18.2180   20.5470 C.3       1 BAY         0.0878
     74 S74        -5.0770   16.8710   19.3000 S.o2      1 BAY        -0.0237
     75 O75        -4.0840   15.9110   19.8270 O.2       1 BAY        -0.1737
     76 O76        -6.4350   16.3640   19.1460 O.2       1 BAY        -0.1737
     77 C77        -4.1960   17.6720   17.8700 C.3       1 BAY         0.0796
     78 C78        -3.6060   16.4140   17.0670 C.3       1 BAY        -0.0405
     79 C79        -5.2810   18.0260   16.7970 C.3       1 BAY        -0.0405
     80 C80        -3.7420   19.1330   18.2660 C.3       1 BAY        -0.0405
     81 H1        -14.9052   12.7141   38.2222 H         1 BAY         0.0251
     82 H2        -14.7273   12.4877   36.4492 H         1 BAY         0.0251
     83 H3        -14.3465   14.0772   37.1944 H         1 BAY         0.0251
     84 H4        -13.5177   10.7935   38.7011 H         1 BAY         0.0251
     85 H5        -11.8383   10.6415   38.0822 H         1 BAY         0.0251
     86 H6        -13.2293   10.4494   36.9619 H         1 BAY         0.0251
     87 H7        -12.8818   12.9297   39.6863 H         1 BAY         0.0251
     88 H8        -12.1767   14.2595   38.7060 H         1 BAY         0.0251
     89 H9        -11.2272   12.7647   39.0068 H         1 BAY         0.0251
     90 H10       -14.0667   12.4439   35.7435 H         1 BAY         0.0530
     91 H11       -13.0135   11.8376   34.4206 H         1 BAY         0.0530
     92 H12       -14.0032   14.6156   34.9743 H         1 BAY         0.0578
     93 H13       -14.7245   14.3199   32.3613 H         1 BAY         0.0466
     94 H14       -15.7583   13.9347   33.7789 H         1 BAY         0.0466
     95 H15       -12.7928   12.1134   32.9717 H         1 BAY         0.0530
     96 H16       -12.4025    9.7016   32.2998 H         1 BAY         0.0595
     97 H17       -14.5391    8.4217   31.7203 H         1 BAY         0.0542
     98 H18       -16.9297    8.3403   31.4772 H         1 BAY         0.0609
     99 H19       -19.3152    9.2170   31.5220 H         1 BAY         0.0616
    100 H20       -19.6189   11.6744   32.2017 H         1 BAY         0.0601
    101 H21       -17.6130   12.9844   32.7537 H         1 BAY         0.0628
    102 H22       -11.3677   13.5335   32.4411 H         1 BAY         0.1883
    103 H23       -11.1366   16.5560   32.2250 H         1 BAY         0.0802
    104 H24        -8.8817   14.5113   33.0300 H         1 BAY         0.0343
    105 H25        -8.4299   16.2495   34.8142 H         1 BAY         0.0234
    106 H26       -10.1865   15.8873   34.9122 H         1 BAY         0.0234
    107 H27        -9.6203   17.3664   34.0647 H         1 BAY         0.0234
    108 H28        -8.0718   16.4237   31.4153 H         1 BAY         0.0234
    109 H29        -7.4908   16.7255   33.0880 H         1 BAY         0.0234
    110 H30        -8.9249   17.6079   32.4624 H         1 BAY         0.0234
    111 H31       -11.6351   16.4689   29.9445 H         1 BAY         0.1857
    112 H32        -9.7084   15.1651   28.0817 H         1 BAY         0.0605
    113 H33       -11.3978   14.3925   26.6668 H         1 BAY         0.0449
    114 H34       -12.3695   15.8809   26.9266 H         1 BAY         0.0449
    115 H35       -11.5778   12.4050   27.9963 H         1 BAY         0.0557
    116 H36       -13.2249   11.0802   29.4065 H         1 BAY         0.0599
    117 H37       -15.1164   12.1411   30.3729 H         1 BAY         0.0559
    118 H38       -15.7387   14.5589   30.1425 H         1 BAY         0.0599
    119 H39       -14.1328   15.9439   28.7315 H         1 BAY         0.0557
    120 H40       -10.7314   16.9779   26.4913 H         1 BAY         0.0645
    121 H41       -12.1905   18.4499   27.5998 H         1 BAY         0.2100
    122 H42        -9.4675   17.9183   29.1095 H         1 BAY         0.0645
    123 H43        -9.6431   20.0197   28.0772 H         1 BAY         0.2100
    124 H44        -8.0077   16.9773   27.6367 H         1 BAY         0.0605
    125 H45        -7.4269   18.9747   28.8765 H         1 BAY         0.0449
    126 H46        -7.2165   19.7405   27.2653 H         1 BAY         0.0449
    127 H47        -5.8655   16.8580   29.4172 H         1 BAY         0.0557
    128 H48        -3.5249   16.0518   29.0518 H         1 BAY         0.0599
    129 H49        -2.1832   16.8693   27.1343 H         1 BAY         0.0559
    130 H50        -3.1523   18.5492   25.5613 H         1 BAY         0.0599
    131 H51        -5.4624   19.3691   25.9446 H         1 BAY         0.0557
    132 H52        -8.8204   18.3146   25.2539 H         1 BAY         0.1857
    133 H53        -8.8092   17.0513   23.7817 H         1 BAY         0.0802
    134 H54        -9.3159   14.3436   23.3638 H         1 BAY         0.0343
    135 H55       -11.6459   15.2279   23.3877 H         1 BAY         0.0234
    136 H56       -11.0061   16.8121   23.9425 H         1 BAY         0.0234
    137 H57       -10.8030   15.3521   24.9691 H         1 BAY         0.0234
    138 H58        -8.5661   15.4154   21.2684 H         1 BAY         0.0234
    139 H59        -9.8107   16.6889   21.5044 H         1 BAY         0.0234
    140 H60       -10.3081   14.9773   21.2812 H         1 BAY         0.0234
    141 H61        -6.3313   15.9414   23.3555 H         1 BAY         0.1883
    142 H62        -5.2922   16.6763   21.9112 H         1 BAY         0.0578
    143 H63        -5.1489   17.8228   23.9422 H         1 BAY         0.0466
    144 H64        -5.9475   19.2926   23.2875 H         1 BAY         0.0466
    145 H65        -5.0619   21.0271   23.4575 H         1 BAY         0.0530
    146 H66        -3.1367   22.5811   23.5718 H         1 BAY         0.0595
    147 H67        -0.8122   21.7483   23.3224 H         1 BAY         0.0542
    148 H68         0.7252   19.9700   22.9634 H         1 BAY         0.0609
    149 H69         1.2281   17.5557   22.5801 H         1 BAY         0.0616
    150 H70        -0.6536   15.9351   22.4558 H         1 BAY         0.0601
    151 H71        -2.9774   16.6851   22.6934 H         1 BAY         0.0628
    152 H72        -4.1420   18.6162   20.7122 H         1 BAY         0.0530
    153 H73        -5.8072   19.0201   20.1730 H         1 BAY         0.0530
    154 H74        -3.0542   16.7687   16.1840 H         1 BAY         0.0251
    155 H75        -4.4328   15.7635   16.7457 H         1 BAY         0.0251
    156 H76        -2.9265   15.8476   17.7208 H         1 BAY         0.0251
    157 H77        -4.7986   18.5036   15.9315 H         1 BAY         0.0251
    158 H78        -6.0171   18.7169   17.2339 H         1 BAY         0.0251
    159 H79        -5.7892   17.1061   16.4721 H         1 BAY         0.0251
    160 H80        -3.2225   19.5987   17.4155 H         1 BAY         0.0251
    161 H81        -3.0618   19.0843   19.1291 H         1 BAY         0.0251
    162 H82        -4.6257   19.7330   18.5289 H         1 BAY         0.0251
@<TRIPOS>BOND
     1    1    4 1  
     2    4    2 1  
     3    4    3 1  
     4    4    5 1  
     5    5    6 2  
     6    5    7 2  
     7    5    8 1  
     8    8    9 1  
     9    9   10 1  
    10    9   21 1  
    11   10   11 1  
    12   11   12 ar 
    13   11   20 ar 
    14   12   13 ar 
    15   13   14 ar 
    16   14   15 ar 
    17   15   16 ar 
    18   15   20 ar 
    19   16   17 ar 
    20   17   18 ar 
    21   18   19 ar 
    22   19   20 ar 
    23   21   22 2  
    24   21   23 am 
    25   23   24 1  
    26   24   25 1  
    27   24   28 1  
    28   25   26 1  
    29   25   27 1  
    30   28   29 2  
    31   28   30 am 
    32   30   31 1  
    33   31   32 1  
    34   31   39 1  
    35   32   33 1  
    36   33   34 ar 
    37   33   38 ar 
    38   34   35 ar 
    39   35   36 ar 
    40   36   37 ar 
    41   37   38 ar 
    42   39   40 1  
    43   39   41 1  
    44   41   42 1  
    45   41   43 1  
    46   43   44 1  
    47   43   51 1  
    48   44   45 1  
    49   45   46 ar 
    50   45   50 ar 
    51   46   47 ar 
    52   47   48 ar 
    53   48   49 ar 
    54   49   50 ar 
    55   51   52 am 
    56   52   53 2  
    57   52   54 1  
    58   54   55 1  
    59   54   58 1  
    60   55   56 1  
    61   55   57 1  
    62   58   59 am 
    63   59   60 2  
    64   59   61 1  
    65   61   62 1  
    66   61   73 1  
    67   62   63 1  
    68   63   64 ar 
    69   63   72 ar 
    70   64   65 ar 
    71   65   66 ar 
    72   66   67 ar 
    73   67   68 ar 
    74   67   72 ar 
    75   68   69 ar 
    76   69   70 ar 
    77   70   71 ar 
    78   71   72 ar 
    79   73   74 1  
    80   74   75 2  
    81   74   76 2  
    82   74   77 1  
    83   77   78 1  
    84   77   79 1  
    85   77   80 1  
    86    1   81 1  
    87    1   82 1  
    88    1   83 1  
    89    2   84 1  
    90    2   85 1  
    91    2   86 1  
    92    3   87 1  
    93    3   88 1  
    94    3   89 1  
    95    8   90 1  
    96    8   91 1  
    97    9   92 1  
    98   10   93 1  
    99   10   94 1  
   100   12   95 1  
   101   13   96 1  
   102   14   97 1  
   103   16   98 1  
   104   17   99 1  
   105   18  100 1  
   106   19  101 1  
   107   23  102 1  
   108   24  103 1  
   109   25  104 1  
   110   26  105 1  
   111   26  106 1  
   112   26  107 1  
   113   27  108 1  
   114   27  109 1  
   115   27  110 1  
   116   30  111 1  
   117   31  112 1  
   118   32  113 1  
   119   32  114 1  
   120   34  115 1  
   121   35  116 1  
   122   36  117 1  
   123   37  118 1  
   124   38  119 1  
   125   39  120 1  
   126   40  121 1  
   127   41  122 1  
   128   42  123 1  
   129   43  124 1  
   130   44  125 1  
   131   44  126 1  
   132   46  127 1  
   133   47  128 1  
   134   48  129 1  
   135   49  130 1  
   136   50  131 1  
   137   51  132 1  
   138   54  133 1  
   139   55  134 1  
   140   56  135 1  
   141   56  136 1  
   142   56  137 1  
   143   57  138 1  
   144   57  139 1  
   145   57  140 1  
   146   58  141 1  
   147   61  142 1  
   148   62  143 1  
   149   62  144 1  
   150   64  145 1  
   151   65  146 1  
   152   66  147 1  
   153   68  148 1  
   154   69  149 1  
   155   70  150 1  
   156   71  151 1  
   157   73  152 1  
   158   73  153 1  
   159   78  154 1  
   160   78  155 1  
   161   78  156 1  
   162   79  157 1  
   163   79  158 1  
   164   79  159 1  
   165   80  160 1  
   166   80  161 1  
   167   80  162 1  
@<TRIPOS>SUBSTRUCTURE
     1 BAY         1

