6qyn_ligand
  -I-interpret- 

 53 56  0  0  0  0  0  0  0  0999 V2000
   11.0320   56.3050   -3.1400 C   0  0  0  0  0
   13.1090   55.9570   -4.0190 C   0  0  0  0  0
    9.6360   56.8970   -3.0040 C   0  0  0  0  0
   15.4060   57.6410   -7.8490 C   0  0  0  0  0
   15.3140   59.0900   -7.4970 C   0  0  0  0  0
   14.8520   60.8140   -5.8880 C   0  0  0  0  0
   11.6110   57.6250   -5.1530 C   0  0  0  0  0
   11.1860   59.8970   -5.7870 C   0  0  0  0  0
   15.2480   54.4310   -3.4620 C   0  0  0  0  0
   13.1030   55.0970   -2.9300 C   0  0  0  0  0
   14.9390   59.4720   -6.2080 C   0  0  0  0  0
   15.5870   60.0460   -8.4600 C   0  0  0  0  0
   11.1030   58.1510   -7.4410 C   0  0  0  0  0
   11.4150   57.2160   -6.4630 C   0  0  0  0  0
   11.7000   59.4060   -3.3600 C   0  0  0  0  0
   11.4980   58.9620   -4.8140 C   0  0  0  0  0
   11.0330   61.5560   -5.3620 Cl  0  0  0  0  0
   10.9930   59.4910   -7.1060 C   0  0  0  0  0
   10.7040   60.3950   -8.0550 O   0  0  0  0  0
   11.9070   56.6510   -4.1290 C   0  0  0  0  0
    8.7160   55.9560   -2.2250 C   0  0  0  0  0
   11.6920   55.1600   -2.0930 S   0  0  0  0  0
   14.1570   54.3510   -2.6800 N   0  0  0  0  0
   15.2830   55.2690   -4.5260 N   0  0  0  0  0
   14.2280   56.0220   -4.8190 C   0  0  0  0  0
   14.2540   56.8520   -5.8890 O   0  0  0  0  0
   15.5180   56.7940   -6.6260 C   0  0  0  0  0
   15.9040   55.4140   -7.1610 C   0  0  0  0  0
   17.0770   55.1840   -7.4410 O   0  0  0  0  0
   15.0320   54.5650   -7.3960 O   0  0  0  0  0
   15.1280   61.7770   -6.8590 C   0  0  0  0  0
   15.4970   61.3870   -8.1440 C   0  0  0  0  0
    9.2207   57.0467   -4.0006 H   0  0  0  0  0
    9.7075   57.8418   -2.4652 H   0  0  0  0  0
   16.2950   57.4876   -8.4607 H   0  0  0  0  0
   14.5023   57.3560   -8.3877 H   0  0  0  0  0
   14.5687   61.1187   -4.8805 H   0  0  0  0  0
   16.1169   53.8126   -3.2366 H   0  0  0  0  0
   14.7155   58.7149   -5.4564 H   0  0  0  0  0
   15.8727   59.7405   -9.4666 H   0  0  0  0  0
   10.9448   57.8313   -8.4710 H   0  0  0  0  0
   11.5057   56.1618   -6.7249 H   0  0  0  0  0
   10.9660   58.9103   -2.7248 H   0  0  0  0  0
   12.7048   59.1360   -3.0353 H   0  0  0  0  0
   11.5723   60.4862   -3.2902 H   0  0  0  0  0
   10.6037   59.9497   -8.8996 H   0  0  0  0  0
    8.6432   55.0038   -2.7505 H   0  0  0  0  0
    9.1258   55.7921   -1.2283 H   0  0  0  0  0
    7.7256   56.4038   -2.1429 H   0  0  0  0  0
   16.2652   57.1152   -5.9003 H   0  0  0  0  0
   14.1766   54.9012   -7.1186 H   0  0  0  0  0
   15.0547   62.8360   -6.6116 H   0  0  0  0  0
   15.7149   62.1408   -8.9006 H   0  0  0  0  0
  1  3  1  0  0  0
 20  1  4  0  0  0
  1 22  4  0  0  0
  2 10  4  0  0  0
  2 20  4  0  0  0
 25  2  4  0  0  0
  3 21  1  0  0  0
  4  5  1  0  0  0
 27  4  1  0  0  0
  5 11  4  0  0  0
  5 12  4  0  0  0
 11  6  4  0  0  0
  6 31  4  0  0  0
  7 14  4  0  0  0
  7 16  4  0  0  0
 20  7  1  0  0  0
 16  8  4  0  0  0
  8 17  1  0  0  0
  8 18  4  0  0  0
  9 23  4  0  0  0
 24  9  4  0  0  0
 10 22  4  0  0  0
 10 23  4  0  0  0
 12 32  4  0  0  0
 14 13  4  0  0  0
 13 18  4  0  0  0
 16 15  1  0  0  0
 18 19  1  0  0  0
 25 24  4  0  0  0
 26 25  1  0  0  0
 26 27  1  0  0  0
 27 28  1  0  0  0
 28 29  2  0  0  0
 28 30  1  0  0  0
 31 32  4  0  0  0
  3 33  1  0  0  0
  3 34  1  0  0  0
  4 35  1  0  0  0
  4 36  1  0  0  0
  6 37  1  0  0  0
  9 38  1  0  0  0
 11 39  1  0  0  0
 12 40  1  0  0  0
 13 41  1  0  0  0
 14 42  1  0  0  0
 15 43  1  0  0  0
 15 44  1  0  0  0
 15 45  1  0  0  0
 19 46  1  0  0  0
 21 47  1  0  0  0
 21 48  1  0  0  0
 21 49  1  0  0  0
 27 50  1  0  0  0
 30 51  1  0  0  0
 31 52  1  0  0  0
 32 53  1  0  0  0
M  END
$$$$
