4ufk_ligand
  -I-interpret- 

 21 21  0  0  0  0  0  0  0  0999 V2000
   78.5400   87.5190   20.6000 O   0  0  0  0  0
   78.9420   88.8540   20.3480 C   0  0  0  0  0
   77.7740   89.8070   20.5600 C   0  0  0  0  0
   77.1250   89.5860   21.8130 O   0  0  0  0  0
   76.8690   89.4770   19.3880 C   0  0  0  0  0
   77.8170   89.1570   18.2860 N   0  3  0  0  0
   79.1780   89.0940   18.8550 C   0  0  0  0  0
   79.9930   88.0010   18.1950 C   0  0  0  0  0
   80.4390   88.4160   16.9140 O   0  0  0  0  0
   78.4003   87.4005   21.5424 H   0  0  0  0  0
   79.8118   89.0086   20.9865 H   0  0  0  0  0
   78.0718   90.8549   20.5963 H   0  0  0  0  0
   77.7277   89.8053   22.5273 H   0  0  0  0  0
   76.2012   90.3004   19.1348 H   0  0  0  0  0
   76.1923   88.6508   19.6061 H   0  0  0  0  0
   77.7711   89.8753   17.5633 H   0  0  0  0  0
   77.5723   88.2629   17.8604 H   0  0  0  0  0
   79.7610   89.9997   18.6876 H   0  0  0  0  0
   79.3692   87.1144   18.0819 H   0  0  0  0  0
   80.8606   87.7822   18.8175 H   0  0  0  0  0
   80.9528   87.7119   16.5117 H   0  0  0  0  0
  1  2  1  0  0  0
  2  3  1  0  0  0
  2  7  1  0  0  0
  3  4  1  0  0  0
  3  5  1  0  0  0
  5  6  1  0  0  0
  6  7  1  0  0  0
  7  8  1  0  0  0
  8  9  1  0  0  0
  1 10  1  0  0  0
  2 11  1  0  0  0
  3 12  1  0  0  0
  4 13  1  0  0  0
  5 14  1  0  0  0
  5 15  1  0  0  0
  6 16  1  0  0  0
  6 17  1  0  0  0
  7 18  1  0  0  0
  8 19  1  0  0  0
  8 20  1  0  0  0
  9 21  1  0  0  0
M  END
$$$$
