5l9h_ligand
  -I-interpret- 

 67 70  0  0  0  0  0  0  0  0999 V2000
  142.0100   12.0360    1.1580 C   0  0  0  0  0
  141.1190   12.6460    0.2240 O   0  0  0  0  0
  140.5800   11.8810   -0.7720 C   0  0  0  0  0
  140.3630   10.5150   -0.7120 C   0  0  0  0  0
  139.7860    9.8480   -1.7820 C   0  0  0  0  0
  139.4200   10.5400   -2.9360 C   0  0  0  0  0
  138.7870    9.8540   -4.0660 C   0  0  0  0  0
  137.9250   10.4760   -4.7980 N   0  0  0  0  0
  137.7630    9.7380   -5.9400 N   0  0  0  0  0
  137.0040   10.3690   -7.0640 C   0  0  0  0  0
  136.8350    9.4310   -8.2490 C   0  0  0  0  0
  135.6750   10.8710   -6.5270 C   0  0  0  0  0
  138.3220    8.4960   -5.8530 C   0  0  0  0  0
  138.3030    7.5860   -6.6500 O   0  0  0  0  0
  138.9950    8.4190   -4.4960 C   0  0  0  0  0
  138.2510    7.4260   -3.5900 C   0  0  0  0  0
  140.4710    8.0240   -4.6430 C   0  0  0  0  0
  139.6160   11.9210   -2.9930 C   0  0  0  0  0
  140.2020   12.5910   -1.9290 C   0  0  0  0  0
  140.4310   13.9420   -1.9550 O   0  0  0  0  0
  141.2630   14.4660   -3.0050 C   0  0  0  0  0
  140.8240   15.8870   -3.2670 C   0  0  0  0  0
  140.6160   16.2850   -4.7220 C   0  0  0  0  0
  139.2650   16.8880   -5.0070 C   0  0  0  0  0
  138.2820   15.8770   -4.7300 O   0  0  0  0  0
  136.9970   16.0380   -5.1850 C   0  0  0  0  0
  136.3230   17.2450   -5.1020 C   0  0  0  0  0
  135.0230   17.3410   -5.5700 C   0  0  0  0  0
  134.3810   16.2390   -6.1300 C   0  0  0  0  0
  133.0070   16.3400   -6.6220 C   0  0  0  0  0
  132.3530   17.4610   -6.8960 N   0  0  0  0  0
  131.1110   17.0890   -7.3050 N   0  0  0  0  0
  131.0010   15.8020   -7.2850 N   0  0  0  0  0
  132.1800   15.3170   -6.8610 N   0  0  0  0  0
  135.0690   15.0360   -6.2080 C   0  0  0  0  0
  136.3690   14.9360   -5.7450 C   0  0  0  0  0
  141.4923   11.2309    1.6795 H   0  0  0  0  0
  142.8709   11.6314    0.6259 H   0  0  0  0  0
  142.3446   12.7816    1.8792 H   0  0  0  0  0
  140.6475    9.9603    0.1821 H   0  0  0  0  0
  139.6170    8.7729   -1.7205 H   0  0  0  0  0
  137.5745   11.2128   -7.4522 H   0  0  0  0  0
  137.8165    9.1426   -8.6253 H   0  0  0  0  0
  136.2903    8.5417   -7.9320 H   0  0  0  0  0
  136.2776    9.9388   -9.0361 H   0  0  0  0  0
  135.1092   10.0330   -6.1198 H   0  0  0  0  0
  135.8558   11.6048   -5.7416 H   0  0  0  0  0
  135.1095   11.3342   -7.3356 H   0  0  0  0  0
  138.6125    7.5285   -2.5668 H   0  0  0  0  0
  137.1822    7.6374   -3.6220 H   0  0  0  0  0
  138.4324    6.4100   -3.9407 H   0  0  0  0  0
  140.9427    8.6588   -5.3931 H   0  0  0  0  0
  140.9772    8.1523   -3.6862 H   0  0  0  0  0
  140.5376    6.9813   -4.9537 H   0  0  0  0  0
  139.3068   12.4761   -3.8787 H   0  0  0  0  0
  141.1616   13.8635   -3.9077 H   0  0  0  0  0
  142.3117   14.4399   -2.7088 H   0  0  0  0  0
  141.6285   16.5218   -2.8955 H   0  0  0  0  0
  139.8516   15.9930   -2.7861 H   0  0  0  0  0
  140.6967   15.3770   -5.3197 H   0  0  0  0  0
  141.3638   17.0416   -4.9597 H   0  0  0  0  0
  139.2005   17.2120   -6.0457 H   0  0  0  0  0
  139.0978   17.7670   -4.3846 H   0  0  0  0  0
  136.8141   18.1168   -4.6697 H   0  0  0  0  0
  134.4950   18.2920   -5.4991 H   0  0  0  0  0
  134.5805   14.1617   -6.6381 H   0  0  0  0  0
  136.9012   13.9878   -5.8207 H   0  0  0  0  0
  1  2  1  0  0  0
  2  3  1  0  0  0
  3  4  4  0  0  0
  3 19  4  0  0  0
  4  5  4  0  0  0
  5  6  4  0  0  0
  6  7  1  0  0  0
  6 18  4  0  0  0
  7  8  2  0  0  0
  7 15  1  0  0  0
  8  9  1  0  0  0
  9 10  1  0  0  0
  9 13  1  0  0  0
 10 11  1  0  0  0
 10 12  1  0  0  0
 13 14  2  0  0  0
 13 15  1  0  0  0
 15 16  1  0  0  0
 15 17  1  0  0  0
 18 19  4  0  0  0
 19 20  1  0  0  0
 20 21  1  0  0  0
 21 22  1  0  0  0
 22 23  1  0  0  0
 23 24  1  0  0  0
 24 25  1  0  0  0
 25 26  1  0  0  0
 26 27  4  0  0  0
 26 36  4  0  0  0
 27 28  4  0  0  0
 28 29  4  0  0  0
 29 30  1  0  0  0
 29 35  4  0  0  0
 30 31  4  0  0  0
 30 34  4  0  0  0
 31 32  4  0  0  0
 32 33  4  0  0  0
 33 34  4  0  0  0
 35 36  4  0  0  0
  1 37  1  0  0  0
  1 38  1  0  0  0
  1 39  1  0  0  0
  4 40  1  0  0  0
  5 41  1  0  0  0
 10 42  1  0  0  0
 11 43  1  0  0  0
 11 44  1  0  0  0
 11 45  1  0  0  0
 12 46  1  0  0  0
 12 47  1  0  0  0
 12 48  1  0  0  0
 16 49  1  0  0  0
 16 50  1  0  0  0
 16 51  1  0  0  0
 17 52  1  0  0  0
 17 53  1  0  0  0
 17 54  1  0  0  0
 18 55  1  0  0  0
 21 56  1  0  0  0
 21 57  1  0  0  0
 22 58  1  0  0  0
 22 59  1  0  0  0
 23 60  1  0  0  0
 23 61  1  0  0  0
 24 62  1  0  0  0
 24 63  1  0  0  0
 27 64  1  0  0  0
 28 65  1  0  0  0
 35 66  1  0  0  0
 36 67  1  0  0  0
M  END
$$$$
