4aq6_ligand
  -I-interpret- 

 20 20  0  0  0  0  0  0  0  0999 V2000
   17.5990   42.2440    0.3040 C   0  0  0  0  0
   16.6750   42.3480   -0.8720 C   0  0  0  0  0
   17.3800   42.6010   -2.1560 C   0  0  0  0  0
   17.6300   41.5670   -3.0450 C   0  0  0  0  0
   18.2920   41.8390   -4.2390 C   0  0  0  0  0
   18.5860   40.8510   -5.1460 O   0  0  0  0  0
   18.6890   43.1340   -4.5390 C   0  0  0  0  0
   18.4250   44.1590   -3.6480 C   0  0  0  0  0
   17.7780   43.8960   -2.4500 C   0  0  0  0  0
   17.5210   44.9320   -1.5620 O   0  0  0  0  0
   17.3150   42.8800    1.3550 O   0  0  0  0  0
   18.6300   41.5150    0.2630 O   0  0  0  0  0
   16.0076   43.1908   -0.6920 H   0  0  0  0  0
   16.1537   41.3953   -0.9655 H   0  0  0  0  0
   17.3114   40.5511   -2.8114 H   0  0  0  0  0
   19.0408   41.2348   -5.8993 H   0  0  0  0  0
   19.2077   43.3435   -5.4745 H   0  0  0  0  0
   18.7271   45.1782   -3.8889 H   0  0  0  0  0
   17.8627   45.7534   -1.9228 H   0  0  0  0  0
   18.6972   41.1061   -0.6030 H   0  0  0  0  0
  1  2  1  0  0  0
  1 11  2  0  0  0
  1 12  1  0  0  0
  2  3  1  0  0  0
  3  4  4  0  0  0
  3  9  4  0  0  0
  4  5  4  0  0  0
  5  6  1  0  0  0
  5  7  4  0  0  0
  7  8  4  0  0  0
  8  9  4  0  0  0
  9 10  1  0  0  0
  2 13  1  0  0  0
  2 14  1  0  0  0
  4 15  1  0  0  0
  6 16  1  0  0  0
  7 17  1  0  0  0
  8 18  1  0  0  0
 10 19  1  0  0  0
 12 20  1  0  0  0
M  END
$$$$
