1fkn_ligand
  -I-interpret- 

128128  0  0  0  0  0  0  0  0999 V2000
   11.1570    7.4330   -4.3140 N   0  3  0  0  0
   10.7410    6.5750   -3.1590 C   0  0  0  0  0
   11.4590    5.2160   -3.2060 C   0  0  0  0  0
   11.6850    4.6680   -4.2780 O   0  0  0  0  0
    9.2290    6.3220   -3.1940 C   0  0  0  0  0
    8.6830    5.6920   -1.9020 C   0  0  0  0  0
    7.1950    5.3920   -1.9550 C   0  0  0  0  0
    6.5040    5.9780   -2.8260 O   0  0  0  0  0
    6.7060    4.5890   -1.1280 O   0  0  0  0  0
   11.8460    4.6910   -2.0540 N   0  0  0  0  0
   12.4590    3.3760   -2.0100 C   0  0  0  0  0
   11.6340    2.5320   -1.0730 C   0  0  0  0  0
   11.0230    3.0340   -0.1150 O   0  0  0  0  0
   13.9430    3.3790   -1.5210 C   0  0  0  0  0
   14.8850    3.6840   -2.7130 C   0  0  0  0  0
   14.1430    4.3840   -0.3700 C   0  0  0  0  0
   11.5580    1.2470   -1.3920 N   0  0  0  0  0
   10.8480    0.2830   -0.5770 C   0  0  0  0  0
   11.6510   -1.0010   -0.6620 C   0  0  0  0  0
   11.2160   -1.9930   -1.2620 O   0  0  0  0  0
    9.4320    0.0740   -1.1140 C   0  0  0  0  0
    8.4930    1.1810   -0.6860 C   0  0  0  0  0
    8.0660    1.2140    0.4620 O   0  0  0  0  0
    8.1800    2.1050   -1.6120 N   0  0  0  0  0
   16.3510    0.0240   -2.0040 C   0  0  0  0  0
   15.0550   -1.9690   -2.8990 C   0  0  0  0  0
   15.1090   -0.8940   -1.8110 C   0  0  0  0  0
   15.1310   -1.5880   -0.4350 C   0  0  0  0  0
   12.8180   -0.9830   -0.0330 N   0  0  0  0  0
   13.7330   -2.1130   -0.0570 C   0  0  0  0  0
   13.7650   -2.8810    1.2800 C   0  0  0  0  0
   14.3540   -2.0710    2.3130 O   0  0  0  0  0
   12.3550   -3.3280    1.7080 C   0  0  0  0  0
   12.3030   -4.5700    2.6030 C   0  0  0  0  0
   11.0280   -4.5690    3.4480 C   0  0  0  0  0
   12.3390   -5.8260    1.7210 C   0  0  0  0  0
   11.6030   -5.8910    0.7200 O   0  0  0  0  0
   13.2170   -6.7780    2.0740 N   0  0  0  0  0
   13.3150   -8.0710    1.3920 C   0  0  0  0  0
   11.9290   -8.6670    1.5770 C   0  0  0  0  0
   11.3660   -8.7050    2.7100 O   0  0  0  0  0
   14.3890   -8.9320    2.0120 C   0  0  0  0  0
   11.4140   -9.2850    0.4380 N   0  0  0  0  0
    9.9880   -9.6860    0.1960 C   0  0  0  0  0
    9.2010  -10.6950    0.9980 C   0  0  0  0  0
    9.3360  -11.9070    1.0870 O   0  0  0  0  0
    9.7260   -9.7960   -1.3120 C   0  0  0  0  0
    8.7370   -8.7100   -1.7560 C   0  0  0  0  0
    7.5260   -9.2310   -2.5400 C   0  0  0  0  0
    7.6950  -10.1910   -3.3200 O   0  0  0  0  0
    6.4110   -8.6810   -2.3570 O   0  0  0  0  0
    8.3300   -9.7800    1.5830 N   0  0  0  0  0
    7.1910   -9.5180    2.5020 C   0  0  0  0  0
    7.1510  -10.4350    3.7380 C   0  0  0  0  0
    8.1320  -11.1030    4.1670 O   0  0  0  0  0
    5.8970   -9.4910    1.7430 C   0  0  0  0  0
    5.4730  -10.8800    1.5960 C   0  0  0  0  0
    6.4300  -11.8280    1.2760 C   0  0  0  0  0
    4.1530  -11.2590    1.7680 C   0  0  0  0  0
    6.0760  -13.1640    1.1220 C   0  0  0  0  0
    3.7870  -12.5860    1.6470 C   0  0  0  0  0
    4.7520  -13.5300    1.3220 C   0  0  0  0  0
    6.1230  -10.4800    4.4740 O   0  0  0  0  0
   12.1640    7.5901   -4.2739 H   0  0  0  0  0
   10.9195    6.9634   -5.1878 H   0  0  0  0  0
   10.6698    8.3277   -4.2642 H   0  0  0  0  0
   11.0089    7.1032   -2.2439 H   0  0  0  0  0
    9.0322    5.6239   -4.0077 H   0  0  0  0  0
    8.7381    7.2868   -3.3211 H   0  0  0  0  0
    8.8441    6.4074   -1.0956 H   0  0  0  0  0
    9.2027    4.7453   -1.7545 H   0  0  0  0  0
    7.0706    6.5454   -3.3539 H   0  0  0  0  0
   11.7122    5.2154   -1.1894 H   0  0  0  0  0
   12.4815    2.9849   -3.0272 H   0  0  0  0  0
   14.1901    2.3919   -1.1303 H   0  0  0  0  0
   14.7580    2.9196   -3.4796 H   0  0  0  0  0
   14.6387    4.6613   -3.1282 H   0  0  0  0  0
   15.9185    3.6849   -2.3667 H   0  0  0  0  0
   13.8859    5.3855   -0.7150 H   0  0  0  0  0
   13.4994    4.1099    0.4659 H   0  0  0  0  0
   15.1847    4.3649   -0.0496 H   0  0  0  0  0
   12.0172    0.9252   -2.2440 H   0  0  0  0  0
   10.7487    0.6208    0.4546 H   0  0  0  0  0
    9.0525   -0.8672   -0.7161 H   0  0  0  0  0
    9.4782    0.0688   -2.2030 H   0  0  0  0  0
    7.5603    2.8786   -1.3714 H   0  0  0  0  0
    8.5624    2.0321   -2.5548 H   0  0  0  0  0
   17.2581   -0.5780   -1.9500 H   0  0  0  0  0
   16.2938    0.5106   -2.9777 H   0  0  0  0  0
   16.3679    0.7801   -1.2190 H   0  0  0  0  0
   14.9919   -1.4916   -3.8769 H   0  0  0  0  0
   15.9562   -2.5802   -2.8491 H   0  0  0  0  0
   14.1787   -2.5982   -2.7432 H   0  0  0  0  0
   14.2279   -0.2557   -1.8766 H   0  0  0  0  0
   15.4468   -0.8639    0.3161 H   0  0  0  0  0
   15.8200   -2.4314   -0.4804 H   0  0  0  0  0
   13.0836   -0.1463    0.4865 H   0  0  0  0  0
   13.3856   -2.8329   -0.7980 H   0  0  0  0  0
   14.3745   -3.7723    1.1308 H   0  0  0  0  0
   14.3658   -2.5638    3.1368 H   0  0  0  0  0
   11.9313   -2.5083    2.2882 H   0  0  0  0  0
   11.8176   -3.5803    0.7939 H   0  0  0  0  0
   13.1619   -4.5626    3.2740 H   0  0  0  0  0
   11.0107   -3.6784    4.0762 H   0  0  0  0  0
   10.1582   -4.5688    2.7910 H   0  0  0  0  0
   11.0097   -5.4591    4.0768 H   0  0  0  0  0
   13.8464   -6.5922    2.8548 H   0  0  0  0  0
   13.5962   -7.9870    0.3423 H   0  0  0  0  0
   14.2009   -9.0317    3.0810 H   0  0  0  0  0
   14.3769   -9.9174    1.5462 H   0  0  0  0  0
   15.3619   -8.4664    1.8549 H   0  0  0  0  0
   12.0771   -9.4860   -0.3105 H   0  0  0  0  0
    9.5280   -8.8440    0.7133 H   0  0  0  0  0
    9.3028  -10.7763   -1.5310 H   0  0  0  0  0
   10.6656   -9.6652   -1.8488 H   0  0  0  0  0
    9.2802   -8.0373   -2.4197 H   0  0  0  0  0
    8.3519   -8.2411   -0.8505 H   0  0  0  0  0
    6.5074   -7.9686   -1.7207 H   0  0  0  0  0
    8.5959   -8.8693    1.2083 H   0  0  0  0  0
    7.3519   -8.5262    2.9245 H   0  0  0  0  0
    6.0255   -9.0173    0.7697 H   0  0  0  0  0
    5.1451   -8.9078    2.2746 H   0  0  0  0  0
    7.4686  -11.5249    1.1438 H   0  0  0  0  0
    3.3986  -10.5072    2.0000 H   0  0  0  0  0
    6.8235  -13.9091    0.8496 H   0  0  0  0  0
    2.7518  -12.8885    1.8050 H   0  0  0  0  0
    4.4649  -14.5768    1.2222 H   0  0  0  0  0
    5.4259   -9.9498    4.0809 H   0  0  0  0  0
  3  2  1  0  0  0
  2  5  1  0  0  0
  2  1  1  0  0  0
  5  6  1  0  0  0
  6  7  1  0  0  0
  7  8  1  0  0  0
  7  9  2  0  0  0
  3  4  2  0  0  0
 12 11  1  0  0  0
 11 14  1  0  0  0
 11 10  1  0  0  0
 14 15  1  0  0  0
 14 16  1  0  0  0
 12 13  2  0  0  0
 19 18  1  0  0  0
 18 21  1  0  0  0
 18 17  1  0  0  0
 21 22  1  0  0  0
 22 23  2  0  0  0
 22 24  1  0  0  0
 19 20  2  0  0  0
 27 25  1  0  0  0
 27 26  1  0  0  0
 28 27  1  0  0  0
 30 28  1  0  0  0
 29 30  1  0  0  0
 30 31  1  0  0  0
 31 32  1  0  0  0
 33 34  1  0  0  0
 34 36  1  0  0  0
 34 35  1  0  0  0
 36 37  2  0  0  0
 39 40  1  0  0  0
 39 42  1  0  0  0
 38 39  1  0  0  0
 40 41  2  0  0  0
 44 45  1  0  0  0
 44 47  1  0  0  0
 43 44  1  0  0  0
 47 48  1  0  0  0
 48 49  1  0  0  0
 49 50  2  0  0  0
 49 51  1  0  0  0
 45 46  2  0  0  0
 53 54  1  0  0  0
 53 56  1  0  0  0
 52 53  1  0  0  0
 56 57  1  0  0  0
 57 59  4  0  0  0
 57 58  4  0  0  0
 58 60  4  0  0  0
 60 62  4  0  0  0
 61 62  4  0  0  0
 59 61  4  0  0  0
 54 63  1  0  0  0
 54 55  2  0  0  0
 10  3  1  0  0  0
 17 12  1  0  0  0
 40 43  1  0  0  0
 45 52  1  0  0  0
 31 33  1  0  0  0
 36 38  1  0  0  0
 29 19  1  0  0  0
  1 64  1  0  0  0
  1 65  1  0  0  0
  1 66  1  0  0  0
  2 67  1  0  0  0
  5 68  1  0  0  0
  5 69  1  0  0  0
  6 70  1  0  0  0
  6 71  1  0  0  0
  8 72  1  0  0  0
 10 73  1  0  0  0
 11 74  1  0  0  0
 14 75  1  0  0  0
 15 76  1  0  0  0
 15 77  1  0  0  0
 15 78  1  0  0  0
 16 79  1  0  0  0
 16 80  1  0  0  0
 16 81  1  0  0  0
 17 82  1  0  0  0
 18 83  1  0  0  0
 21 84  1  0  0  0
 21 85  1  0  0  0
 24 86  1  0  0  0
 24 87  1  0  0  0
 25 88  1  0  0  0
 25 89  1  0  0  0
 25 90  1  0  0  0
 26 91  1  0  0  0
 26 92  1  0  0  0
 26 93  1  0  0  0
 27 94  1  0  0  0
 28 95  1  0  0  0
 28 96  1  0  0  0
 29 97  1  0  0  0
 30 98  1  0  0  0
 31 99  1  0  0  0
 32100  1  0  0  0
 33101  1  0  0  0
 33102  1  0  0  0
 34103  1  0  0  0
 35104  1  0  0  0
 35105  1  0  0  0
 35106  1  0  0  0
 38107  1  0  0  0
 39108  1  0  0  0
 42109  1  0  0  0
 42110  1  0  0  0
 42111  1  0  0  0
 43112  1  0  0  0
 44113  1  0  0  0
 47114  1  0  0  0
 47115  1  0  0  0
 48116  1  0  0  0
 48117  1  0  0  0
 51118  1  0  0  0
 52119  1  0  0  0
 53120  1  0  0  0
 56121  1  0  0  0
 56122  1  0  0  0
 58123  1  0  0  0
 59124  1  0  0  0
 60125  1  0  0  0
 61126  1  0  0  0
 62127  1  0  0  0
 63128  1  0  0  0
M  END
$$$$
