### 
### Created by X-TOOL on Mon Sep 10 21:13:26 2018
### 

@<TRIPOS>MOLECULE
5ema_ligand
  106   105     1     0     0
SMALL
GAST_HUCK


@<TRIPOS>ATOM
      1 N         -19.3140    2.9900    9.6770 N.4       1 ASP         0.2391
      2 CA        -17.9230    3.5380    9.6780 C.3       1 ASP         0.0764
      3 C         -16.8810    2.4510    9.9090 C.2       1 ASP         0.2285
      4 O         -17.1210    1.4580   10.5890 O.2       1 ASP        -0.3906
      5 CB        -17.7580    4.6130   10.7580 C.3       1 ASP         0.0607
      6 CG        -18.5160    5.8900   10.4400 C.2       1 ASP         0.0425
      7 OD1       -19.0820    5.9990    9.3300 O.co2     1 ASP        -0.5686
      8 OD2       -18.5330    6.7900   11.3040 O.co2     1 ASP        -0.5686
      9 N         -15.7100    2.6480    9.3310 N.am      1 ASP        -0.2594
     10 CA        -14.6010    1.7470    9.5860 C.3       1 ASP         0.1424
     11 C         -14.1840    1.8510   11.0510 C.2       1 ASP         0.2056
     12 O         -14.5170    2.8370   11.7270 O.2       1 ASP        -0.3943
     13 CB        -13.4360    2.1000    8.6840 C.3       1 ASP         0.0406
     14 CG        -13.6420    1.6560    7.2510 C.2       1 ASP         0.0393
     15 OD1       -14.6410    0.9680    6.9660 O.co2     1 ASP        -0.5688
     16 OD2       -12.7840    2.0000    6.4210 O.co2     1 ASP        -0.5688
     17 N         -13.4940    0.8270   11.5490 N.am      1 ILE        -0.2634
     18 CA        -12.9320    0.8400   12.9000 C.3       1 ILE         0.1335
     19 C         -11.4390    0.5240   12.8510 C.2       1 ILE         0.2042
     20 O         -10.9390    0.0040   11.8520 O.2       1 ILE        -0.3944
     21 CB        -13.6440   -0.1440   13.8290 C.3       1 ILE        -0.0037
     22 CG1       -13.5500   -1.5740   13.2940 C.3       1 ILE        -0.0491
     23 CG2       -15.1160    0.2870   14.0580 C.3       1 ILE        -0.0582
     24 CD1       -14.0390   -2.6060   14.2980 C.3       1 ILE        -0.0648
     25 N         -10.7500    0.8270   13.9370 N.am      1 SEP        -0.2613
     26 CA         -9.3090    0.7650   14.0440 C.3       1 SEP         0.1586
     27 CB         -8.8090    2.1700   14.3600 C.3       1 SEP         0.1184
     28 OG         -8.1750    2.6860   13.2890 O.3       1 SEP        -0.2714
     29 C          -8.8900   -0.0490   15.2200 C.2       1 SEP         0.2066
     30 O          -9.5460    0.0180   16.2480 O.2       1 SEP        -0.3943
     31 P          -7.5670    4.1190   13.6060 P.3       1 SEP         0.2010
     32 O1P        -8.2370    4.9050   12.4650 O.co2     1 SEP        -0.5537
     33 O2P        -7.8500    4.8100   15.0290 O.co2     1 SEP        -0.5537
     34 O3P        -6.0560    3.9160   13.4180 O.co2     1 SEP        -0.5537
     35 N          -7.7790   -0.7610   15.1010 N.am      1 THR        -0.2613
     36 CA         -7.1630   -1.4450   16.2360 C.3       1 THR         0.1565
     37 C          -5.6710   -1.2140   16.2290 C.2       1 THR         0.2065
     38 O          -5.0180   -1.3530   15.2080 O.2       1 THR        -0.3943
     39 CB         -7.4270   -2.9460   16.1530 C.3       1 THR         0.0924
     40 OG1        -8.8300   -3.1680   16.0270 O.3       1 THR        -0.3874
     41 CG2        -6.9190   -3.6680   17.3990 C.3       1 THR        -0.0346
     42 N          -5.1090   -0.9060   17.3960 N.am      1 VAL        -0.2634
     43 CA         -3.6680   -0.8360   17.5810 C.3       1 VAL         0.1332
     44 C          -3.1240   -2.2220   17.8170 C.2       1 VAL         0.2036
     45 O          -3.6020   -2.9140   18.7100 O.2       1 VAL        -0.3944
     46 CB         -3.3210    0.0010   18.8360 C.3       1 VAL        -0.0063
     47 CG1        -1.8140    0.1480   18.9670 C.3       1 VAL        -0.0584
     48 CG2        -3.9540    1.3560   18.7400 C.3       1 VAL        -0.0584
     49 N          -2.1230   -2.6320   17.0420 N.am      1 VAL        -0.2692
     50 CA         -1.5390   -3.9760   17.1810 C.3       1 VAL         0.0967
     51 C          -0.0220   -3.9310   17.2990 C.2       1 VAL         0.0603
     52 O           0.5920   -4.9590   17.6350 O.co2     1 VAL        -0.5666
     53 CB         -1.9650   -4.9110   16.0480 C.3       1 VAL        -0.0118
     54 CG1        -3.4780   -5.1340   16.0770 C.3       1 VAL        -0.0590
     55 CG2        -1.5360   -4.3630   14.6990 C.3       1 VAL        -0.0590
     56 OXT         0.6010   -2.8760   17.1000 O.co2     1 VAL        -0.5666
     57 H1        -19.9702    3.7392    9.5216 H         1 ASP         0.2016
     58 H2        -19.5046    2.5555   10.5663 H         1 ASP         0.2016
     59 H3        -19.4051    2.3058    8.9424 H         1 ASP         0.2016
     60 H4        -17.7371    3.9952    8.6950 H         1 ASP         0.1117
     61 H5        -16.6889    4.8538   10.8534 H         1 ASP         0.0512
     62 H6        -18.1302    4.2121   11.7123 H         1 ASP         0.0512
     63 H7        -15.5864    3.4242    8.7127 H         1 ASP         0.1886
     64 H8        -14.9182    0.7151    9.3749 H         1 ASP         0.0819
     65 H9        -12.5300    1.6137    9.0749 H         1 ASP         0.0478
     66 H10       -13.3009    3.1916    8.6968 H         1 ASP         0.0478
     67 H11       -13.3545    0.0180   10.9779 H         1 ILE         0.1883
     68 H12       -13.0603    1.8517   13.3123 H         1 ILE         0.0803
     69 H13       -13.1325   -0.1184   14.8025 H         1 ILE         0.0345
     70 H14       -12.4997   -1.7905   13.0492 H         1 ILE         0.0267
     71 H15       -14.1621   -1.6506   12.3833 H         1 ILE         0.0267
     72 H16       -15.1408    1.3177   14.4416 H         1 ILE         0.0235
     73 H17       -15.5862   -0.3876   14.7887 H         1 ILE         0.0235
     74 H18       -15.6651    0.2367   13.1062 H         1 ILE         0.0235
     75 H19       -13.9493   -3.6122   13.8627 H         1 ILE         0.0230
     76 H20       -15.0919   -2.4063   14.5458 H         1 ILE         0.0230
     77 H21       -13.4295   -2.5462   15.2117 H         1 ILE         0.0230
     78 H22       -11.2624    1.1207   14.7440 H         1 SEP         0.1884
     79 H23        -8.8705    0.3733   13.1143 H         1 SEP         0.0827
     80 H24        -8.1117    2.1259   15.2095 H         1 SEP         0.0662
     81 H25        -9.6642    2.8109   14.6205 H         1 SEP         0.0662
     82 H26        -7.3465   -0.8329   14.2022 H         1 THR         0.1884
     83 H27        -7.5899   -1.0504   17.1698 H         1 THR         0.0826
     84 H28        -6.9119   -3.3512   15.2696 H         1 THR         0.0639
     85 H29        -9.1471   -2.7435   15.2385 H         1 THR         0.2101
     86 H30        -7.1240   -4.7449   17.3079 H         1 THR         0.0257
     87 H31        -7.4318   -3.2711   18.2875 H         1 THR         0.0257
     88 H32        -5.8353   -3.5083   17.4991 H         1 THR         0.0257
     89 H33        -5.7023   -0.7148   18.1779 H         1 VAL         0.1883
     90 H34        -3.2033   -0.3901   16.6892 H         1 VAL         0.0802
     91 H35        -3.7094   -0.5139   19.7271 H         1 VAL         0.0343
     92 H36        -1.5801    0.7440   19.8615 H         1 VAL         0.0234
     93 H37        -1.4160    0.6539   18.0750 H         1 VAL         0.0234
     94 H38        -1.3551   -0.8474   19.0594 H         1 VAL         0.0234
     95 H39        -5.0443    1.2454   18.6453 H         1 VAL         0.0234
     96 H40        -3.5610    1.8827   17.8579 H         1 VAL         0.0234
     97 H41        -3.7215    1.9344   19.6463 H         1 VAL         0.0234
     98 H42        -1.7584   -2.0115   16.3477 H         1 VAL         0.1875
     99 H43        -1.9277   -4.4004   18.1184 H         1 VAL         0.0729
    100 H44        -1.4694   -5.8814   16.1985 H         1 VAL         0.0336
    101 H45        -3.7651   -5.8078   15.2563 H         1 VAL         0.0234
    102 H46        -3.9932   -4.1696   15.9568 H         1 VAL         0.0234
    103 H47        -3.7638   -5.5851   17.0387 H         1 VAL         0.0234
    104 H48        -0.4469   -4.2087   14.6955 H         1 VAL         0.0234
    105 H49        -2.0427   -3.4042   14.5147 H         1 VAL         0.0234
    106 H50        -1.8074   -5.0789   13.9092 H         1 VAL         0.0234
@<TRIPOS>BOND
     1    1    2 1  
     2    2    3 1  
     3    2    5 1  
     4    3    4 2  
     5    3    9 am 
     6    5    6 1  
     7    6    7 ar 
     8    6    8 ar 
     9    9   10 1  
    10   10   11 1  
    11   10   13 1  
    12   11   12 2  
    13   11   17 am 
    14   13   14 1  
    15   14   15 ar 
    16   14   16 ar 
    17   17   18 1  
    18   18   19 1  
    19   18   21 1  
    20   19   20 2  
    21   19   25 am 
    22   21   22 1  
    23   21   23 1  
    24   22   24 1  
    25   25   26 1  
    26   26   27 1  
    27   26   29 1  
    28   27   28 1  
    29   28   31 1  
    30   29   30 2  
    31   29   35 am 
    32   31   32 ar 
    33   31   33 ar 
    34   31   34 ar 
    35   35   36 1  
    36   36   37 1  
    37   36   39 1  
    38   37   38 2  
    39   37   42 am 
    40   39   40 1  
    41   39   41 1  
    42   42   43 1  
    43   43   44 1  
    44   43   46 1  
    45   44   45 2  
    46   44   49 am 
    47   46   47 1  
    48   46   48 1  
    49   49   50 1  
    50   50   51 1  
    51   50   53 1  
    52   51   52 ar 
    53   51   56 ar 
    54   53   54 1  
    55   53   55 1  
    56    1   57 1  
    57    1   58 1  
    58    1   59 1  
    59    2   60 1  
    60    5   61 1  
    61    5   62 1  
    62    9   63 1  
    63   10   64 1  
    64   13   65 1  
    65   13   66 1  
    66   17   67 1  
    67   18   68 1  
    68   21   69 1  
    69   22   70 1  
    70   22   71 1  
    71   23   72 1  
    72   23   73 1  
    73   23   74 1  
    74   24   75 1  
    75   24   76 1  
    76   24   77 1  
    77   25   78 1  
    78   26   79 1  
    79   27   80 1  
    80   27   81 1  
    81   35   82 1  
    82   36   83 1  
    83   39   84 1  
    84   40   85 1  
    85   41   86 1  
    86   41   87 1  
    87   41   88 1  
    88   42   89 1  
    89   43   90 1  
    90   46   91 1  
    91   47   92 1  
    92   47   93 1  
    93   47   94 1  
    94   48   95 1  
    95   48   96 1  
    96   48   97 1  
    97   49   98 1  
    98   50   99 1  
    99   53  100 1  
   100   54  101 1  
   101   54  102 1  
   102   54  103 1  
   103   55  104 1  
   104   55  105 1  
   105   55  106 1  
@<TRIPOS>SUBSTRUCTURE
     1 ASP         1

