5ema_ligand
  -I-interpret- 

111110  0  0  0  0  0  0  0  0999 V2000
  -19.3140    2.9900    9.6770 N   0  3  0  0  0
  -17.9230    3.5380    9.6780 C   0  0  0  0  0
  -16.8810    2.4510    9.9090 C   0  0  0  0  0
  -17.1210    1.4580   10.5890 O   0  0  0  0  0
  -17.7580    4.6130   10.7580 C   0  0  0  0  0
  -18.5160    5.8900   10.4400 C   0  0  0  0  0
  -19.0820    5.9990    9.3300 O   0  0  0  0  0
  -18.5330    6.7900   11.3040 O   0  0  0  0  0
  -15.7100    2.6480    9.3310 N   0  0  0  0  0
  -14.6010    1.7470    9.5860 C   0  0  0  0  0
  -14.1840    1.8510   11.0510 C   0  0  0  0  0
  -14.5170    2.8370   11.7270 O   0  0  0  0  0
  -13.4360    2.1000    8.6840 C   0  0  0  0  0
  -13.6420    1.6560    7.2510 C   0  0  0  0  0
  -14.6410    0.9680    6.9660 O   0  0  0  0  0
  -12.7840    2.0000    6.4210 O   0  0  0  0  0
  -13.4940    0.8270   11.5490 N   0  0  0  0  0
  -12.9320    0.8400   12.9000 C   0  0  0  0  0
  -11.4390    0.5240   12.8510 C   0  0  0  0  0
  -10.9390    0.0040   11.8520 O   0  0  0  0  0
  -13.6440   -0.1440   13.8290 C   0  0  0  0  0
  -13.5500   -1.5740   13.2940 C   0  0  0  0  0
  -15.1160    0.2870   14.0580 C   0  0  0  0  0
  -14.0390   -2.6060   14.2980 C   0  0  0  0  0
  -10.7500    0.8270   13.9370 N   0  0  0  0  0
   -9.3090    0.7650   14.0440 C   0  0  0  0  0
   -8.8090    2.1700   14.3600 C   0  0  0  0  0
   -8.1750    2.6860   13.2890 O   0  0  0  0  0
   -8.8900   -0.0490   15.2200 C   0  0  0  0  0
   -9.5460    0.0180   16.2480 O   0  0  0  0  0
   -7.5670    4.1190   13.6060 P   0  0  0  0  0
   -8.2370    4.9050   12.4650 O   0  0  0  0  0
   -7.8500    4.8100   15.0290 O   0  0  0  0  0
   -6.0560    3.9160   13.4180 O   0  0  0  0  0
   -7.7790   -0.7610   15.1010 N   0  0  0  0  0
   -7.1630   -1.4450   16.2360 C   0  0  0  0  0
   -5.6710   -1.2140   16.2290 C   0  0  0  0  0
   -5.0180   -1.3530   15.2080 O   0  0  0  0  0
   -7.4270   -2.9460   16.1530 C   0  0  0  0  0
   -8.8300   -3.1680   16.0270 O   0  0  0  0  0
   -6.9190   -3.6680   17.3990 C   0  0  0  0  0
   -5.1090   -0.9060   17.3960 N   0  0  0  0  0
   -3.6680   -0.8360   17.5810 C   0  0  0  0  0
   -3.1240   -2.2220   17.8170 C   0  0  0  0  0
   -3.6020   -2.9140   18.7100 O   0  0  0  0  0
   -3.3210    0.0010   18.8360 C   0  0  0  0  0
   -1.8140    0.1480   18.9670 C   0  0  0  0  0
   -3.9540    1.3560   18.7400 C   0  0  0  0  0
   -2.1230   -2.6320   17.0420 N   0  0  0  0  0
   -1.5390   -3.9760   17.1810 C   0  0  0  0  0
   -0.0220   -3.9310   17.2990 C   0  0  0  0  0
    0.5920   -4.9590   17.6350 O   0  0  0  0  0
   -1.9650   -4.9110   16.0480 C   0  0  0  0  0
   -3.4780   -5.1340   16.0770 C   0  0  0  0  0
   -1.5360   -4.3630   14.6990 C   0  0  0  0  0
    0.6010   -2.8760   17.1000 O   0  0  0  0  0
  -19.3972    2.2783    8.9511 H   0  0  0  0  0
  -19.5152    2.5747   10.5866 H   0  0  0  0  0
  -19.9752    3.7444    9.4926 H   0  0  0  0  0
  -17.7631    3.9744    8.6921 H   0  0  0  0  0
  -16.6986    4.8614   10.8219 H   0  0  0  0  0
  -18.1560    4.2126   11.6904 H   0  0  0  0  0
  -18.9449    5.1961    8.8219 H   0  0  0  0  0
  -15.5839    3.4397    8.7003 H   0  0  0  0  0
  -14.9098    0.7229    9.3766 H   0  0  0  0  0
  -12.5528    1.5885    9.0666 H   0  0  0  0  0
  -13.3328    3.1851    8.6840 H   0  0  0  0  0
  -15.1649    0.8233    7.7574 H   0  0  0  0  0
  -13.3517    0.0019   10.9665 H   0  0  0  0  0
  -13.0812    1.8409   13.3051 H   0  0  0  0  0
  -13.1401   -0.1280   14.7954 H   0  0  0  0  0
  -12.5022   -1.7842   13.0797 H   0  0  0  0  0
  -14.1803   -1.6430   12.4074 H   0  0  0  0  0
  -15.1368    1.2783   14.5107 H   0  0  0  0  0
  -15.6389    0.3117   13.1020 H   0  0  0  0  0
  -15.6033   -0.4272   14.7218 H   0  0  0  0  0
  -13.4343   -2.5456   15.2029 H   0  0  0  0  0
  -15.0824   -2.4070   14.5427 H   0  0  0  0  0
  -13.9496   -3.6025   13.8655 H   0  0  0  0  0
  -11.2726    1.1265   14.7601 H   0  0  0  0  0
   -8.9198    0.3445   13.1168 H   0  0  0  0  0
   -8.1148    2.1230   15.1991 H   0  0  0  0  0
   -9.6586    2.8041   14.6134 H   0  0  0  0  0
   -9.1754    4.9939   12.6471 H   0  0  0  0  0
   -8.7953    4.9343   15.1408 H   0  0  0  0  0
   -7.3378   -0.8343   14.1843 H   0  0  0  0  0
   -7.5955   -1.0470   17.1540 H   0  0  0  0  0
   -6.8967   -3.3396   15.2858 H   0  0  0  0  0
   -9.0001   -4.1113   15.9745 H   0  0  0  0  0
   -5.8451   -3.5089   17.4971 H   0  0  0  0  0
   -7.4278   -3.2738   18.2786 H   0  0  0  0  0
   -7.1227   -4.7349   17.3075 H   0  0  0  0  0
   -5.7142   -0.7110   18.1936 H   0  0  0  0  0
   -3.2370   -0.3826   16.6884 H   0  0  0  0  0
   -3.7063   -0.5129   19.7167 H   0  0  0  0  0
   -1.3605   -0.8390   19.0585 H   0  0  0  0  0
   -1.4209    0.6493   18.0826 H   0  0  0  0  0
   -1.5836    0.7387   19.8536 H   0  0  0  0  0
   -3.5812    1.8677   17.8527 H   0  0  0  0  0
   -5.0361    1.2459   18.6697 H   0  0  0  0  0
   -3.7034    1.9364   19.6280 H   0  0  0  0  0
   -1.7511   -1.9991   16.3339 H   0  0  0  0  0
   -1.9337   -4.3831   18.1119 H   0  0  0  0  0
   -0.0315   -5.6802   17.7480 H   0  0  0  0  0
   -1.4685   -5.8698   16.1976 H   0  0  0  0  0
   -3.7599   -5.5809   17.0304 H   0  0  0  0  0
   -3.9873   -4.1777   15.9579 H   0  0  0  0  0
   -3.7612   -5.8018   15.2634 H   0  0  0  0  0
   -1.9978   -3.3884   14.5407 H   0  0  0  0  0
   -0.4511   -4.2601   14.6784 H   0  0  0  0  0
   -1.8522   -5.0484   13.9126 H   0  0  0  0  0
  1  2  1  0  0  0
  2  3  1  0  0  0
  2  5  1  0  0  0
  3  4  2  0  0  0
  3  9  1  0  0  0
  5  6  1  0  0  0
  6  7  1  0  0  0
  6  8  2  0  0  0
  9 10  1  0  0  0
 10 11  1  0  0  0
 10 13  1  0  0  0
 11 12  2  0  0  0
 11 17  1  0  0  0
 13 14  1  0  0  0
 14 15  1  0  0  0
 14 16  2  0  0  0
 17 18  1  0  0  0
 18 19  1  0  0  0
 18 21  1  0  0  0
 19 20  2  0  0  0
 19 25  1  0  0  0
 21 22  1  0  0  0
 21 23  1  0  0  0
 22 24  1  0  0  0
 25 26  1  0  0  0
 26 27  1  0  0  0
 26 29  1  0  0  0
 27 28  1  0  0  0
 28 31  1  0  0  0
 29 30  2  0  0  0
 29 35  1  0  0  0
 31 32  1  0  0  0
 31 33  1  0  0  0
 31 34  2  0  0  0
 35 36  1  0  0  0
 36 37  1  0  0  0
 36 39  1  0  0  0
 37 38  2  0  0  0
 37 42  1  0  0  0
 39 40  1  0  0  0
 39 41  1  0  0  0
 42 43  1  0  0  0
 43 44  1  0  0  0
 43 46  1  0  0  0
 44 45  2  0  0  0
 44 49  1  0  0  0
 46 47  1  0  0  0
 46 48  1  0  0  0
 49 50  1  0  0  0
 50 51  1  0  0  0
 50 53  1  0  0  0
 51 52  1  0  0  0
 51 56  2  0  0  0
 53 54  1  0  0  0
 53 55  1  0  0  0
  1 57  1  0  0  0
  1 58  1  0  0  0
  1 59  1  0  0  0
  2 60  1  0  0  0
  5 61  1  0  0  0
  5 62  1  0  0  0
  7 63  1  0  0  0
  9 64  1  0  0  0
 10 65  1  0  0  0
 13 66  1  0  0  0
 13 67  1  0  0  0
 15 68  1  0  0  0
 17 69  1  0  0  0
 18 70  1  0  0  0
 21 71  1  0  0  0
 22 72  1  0  0  0
 22 73  1  0  0  0
 23 74  1  0  0  0
 23 75  1  0  0  0
 23 76  1  0  0  0
 24 77  1  0  0  0
 24 78  1  0  0  0
 24 79  1  0  0  0
 25 80  1  0  0  0
 26 81  1  0  0  0
 27 82  1  0  0  0
 27 83  1  0  0  0
 32 84  1  0  0  0
 33 85  1  0  0  0
 35 86  1  0  0  0
 36 87  1  0  0  0
 39 88  1  0  0  0
 40 89  1  0  0  0
 41 90  1  0  0  0
 41 91  1  0  0  0
 41 92  1  0  0  0
 42 93  1  0  0  0
 43 94  1  0  0  0
 46 95  1  0  0  0
 47 96  1  0  0  0
 47 97  1  0  0  0
 47 98  1  0  0  0
 48 99  1  0  0  0
 48100  1  0  0  0
 48101  1  0  0  0
 49102  1  0  0  0
 50103  1  0  0  0
 52104  1  0  0  0
 53105  1  0  0  0
 54106  1  0  0  0
 54107  1  0  0  0
 54108  1  0  0  0
 55109  1  0  0  0
 55110  1  0  0  0
 55111  1  0  0  0
M  END
$$$$
