4p72_ligand
  -I-interpret- 

 34 35  0  0  0  0  0  0  0  0999 V2000
   46.9850   24.3830   26.3720 C   0  0  0  0  0
   46.5100   23.9750   24.9940 C   0  0  0  0  0
   44.4650   23.6100   23.7430 C   0  0  0  0  0
   44.1850   22.6980   21.5400 C   0  0  0  0  0
   45.0180   23.1850   22.5450 C   0  0  0  0  0
   44.1680   22.1760   19.0520 C   0  0  0  0  0
   44.9410   21.7270   17.9810 C   0  0  0  0  0
   44.3200   21.6830   16.7500 C   0  0  0  0  0
   43.0100   22.0600   16.5930 C   0  0  0  0  0
   42.3280   22.4870   17.7040 C   0  0  0  0  0
   45.2170   21.1360   15.3690 Cl  0  0  0  0  0
   42.8780   22.5530   18.9230 N   0  0  0  0  0
   44.7350   22.2470   20.3160 N   0  0  0  0  0
   42.8110   22.6610   21.7380 C   0  0  0  0  0
   42.2730   23.1080   22.9280 C   0  0  0  0  0
   43.0920   23.5940   23.9310 C   0  0  0  0  0
   45.1000   23.9540   24.9110 O   0  0  0  0  0
   46.1710   24.6500   27.2640 O   0  0  0  0  0
   48.3030   24.4310   26.5470 N   0  0  0  0  0
   48.9160   24.8050   27.8100 C   0  0  0  0  0
   46.8807   22.9712   24.7867 H   0  0  0  0  0
   46.8852   24.7012   24.2730 H   0  0  0  0  0
   46.0960   23.2315   22.3905 H   0  0  0  0  0
   45.9809   21.4268   18.1101 H   0  0  0  0  0
   42.5268   22.0214   15.6167 H   0  0  0  0  0
   41.2866   22.7875   17.5887 H   0  0  0  0  0
   45.7006   21.9232   20.3724 H   0  0  0  0  0
   42.1574   22.2790   20.9538 H   0  0  0  0  0
   41.1939   23.0777   23.0785 H   0  0  0  0  0
   42.6609   23.9616   24.8622 H   0  0  0  0  0
   48.9089   24.1952   25.7610 H   0  0  0  0  0
   48.6053   25.8148   28.0782 H   0  0  0  0  0
   48.6001   24.1080   28.5862 H   0  0  0  0  0
   50.0009   24.7718   27.7098 H   0  0  0  0  0
  2  1  1  0  0  0
  1 18  2  0  0  0
  1 19  1  0  0  0
 17  2  1  0  0  0
  5  3  4  0  0  0
  3 16  4  0  0  0
  3 17  1  0  0  0
  4  5  4  0  0  0
 13  4  1  0  0  0
  4 14  4  0  0  0
  6  7  4  0  0  0
  6 12  4  0  0  0
  6 13  1  0  0  0
  7  8  4  0  0  0
  8  9  4  0  0  0
  8 11  1  0  0  0
  9 10  4  0  0  0
 10 12  4  0  0  0
 14 15  4  0  0  0
 15 16  4  0  0  0
 19 20  1  0  0  0
  2 21  1  0  0  0
  2 22  1  0  0  0
  5 23  1  0  0  0
  7 24  1  0  0  0
  9 25  1  0  0  0
 10 26  1  0  0  0
 13 27  1  0  0  0
 14 28  1  0  0  0
 15 29  1  0  0  0
 16 30  1  0  0  0
 19 31  1  0  0  0
 20 32  1  0  0  0
 20 33  1  0  0  0
 20 34  1  0  0  0
M  END
$$$$
