2feq_ligand
  -I-interpret- 

 63 65  0  0  0  0  0  0  0  0999 V2000
   12.3720   20.6940   22.7570 C   0  0  0  0  0
   12.0080   21.9290   23.1170 C   0  0  0  0  0
   12.7020   22.9720   22.3860 N   0  0  0  0  0
   13.5180   22.4360   21.4540 C   0  0  0  0  0
   13.5020   20.6880   21.4600 S   0  0  0  0  0
   11.0140   22.2250   24.1080 C   0  0  0  0  0
   14.4130   23.1710   20.4910 C   0  0  0  0  0
   15.8200   22.9400   20.8450 N   0  0  0  0  0
   16.3920   21.7600   20.5820 C   0  0  0  0  0
   15.8020   20.8570   20.0270 O   0  0  0  0  0
   17.8280   21.5560   21.1030 C   0  0  0  0  0
   18.7970   21.5540   19.9590 C   0  0  0  0  0
   19.6620   20.5400   20.0890 C   0  0  0  0  0
   19.3640   19.6960   21.2880 C   0  0  0  0  0
   18.1240   20.2710   21.7860 N   0  0  0  0  0
   17.2540   19.6980   22.6740 C   0  0  0  0  0
   16.2840   20.2970   23.1320 O   0  0  0  0  0
   17.4920   18.2390   23.1500 C   0  0  0  0  0
   16.2380   17.4860   23.4440 N   0  3  0  0  0
   15.3130   17.0190   22.3920 C   0  0  0  0  0
   18.1350   18.3540   24.5570 C   0  0  0  0  0
   19.5010   19.0520   24.6390 C   0  0  0  0  0
   19.8430   19.3890   26.0990 C   0  0  0  0  0
   21.2160   20.1110   26.2210 C   0  0  0  0  0
   22.3670   19.3010   25.6020 C   0  0  0  0  0
   22.0430   18.8670   24.1620 C   0  0  0  0  0
   20.6470   18.1910   24.0460 C   0  0  0  0  0
   10.2710   21.2570   24.6040 N   0  0  0  0  0
   10.8540   23.4810   24.4800 N   0  0  0  0  0
   14.0430   16.3290   22.8770 C   0  0  0  0  0
   13.2210   15.9330   22.0810 O   0  0  0  0  0
   13.8710   16.2160   24.0890 O   0  0  0  0  0
   11.9940   19.7894   23.2334 H   0  0  0  0  0
   14.1987   24.2385   20.5426 H   0  0  0  0  0
   14.2311   22.8068   19.4799 H   0  0  0  0  0
   16.3611   23.6802   21.2918 H   0  0  0  0  0
   17.9239   22.3738   21.8172 H   0  0  0  0  0
   18.7974   22.2735   19.1402 H   0  0  0  0  0
   20.4867   20.3515   19.4017 H   0  0  0  0  0
   20.1653   19.7102   22.0268 H   0  0  0  0  0
   19.2747   18.6362   21.0495 H   0  0  0  0  0
   18.0611   17.7390   22.3663 H   0  0  0  0  0
   15.6773   18.1628   23.9617 H   0  0  0  0  0
   16.5803   16.6170   23.8540 H   0  0  0  0  0
   15.8607   16.2780   21.8097 H   0  0  0  0  0
   14.9905   17.9086   21.8510 H   0  0  0  0  0
   18.3007   17.3310   24.8949 H   0  0  0  0  0
   17.4518   18.9625   25.1495 H   0  0  0  0  0
   19.4179   19.9629   24.0461 H   0  0  0  0  0
   19.8955   18.4570   26.6618 H   0  0  0  0  0
   19.0712   20.0542   26.4862 H   0  0  0  0  0
   21.4318   20.2443   27.2811 H   0  0  0  0  0
   21.1460   21.0576   25.6852 H   0  0  0  0  0
   22.5219   18.4063   26.2049 H   0  0  0  0  0
   23.2576   19.9290   25.5805 H   0  0  0  0  0
   22.7954   18.1423   23.8510 H   0  0  0  0  0
   22.0393   19.7580   23.5341 H   0  0  0  0  0
   20.4370   18.0457   22.9863 H   0  0  0  0  0
   20.6839   17.2576   24.6077 H   0  0  0  0  0
    9.5502   21.4696   25.2937 H   0  0  0  0  0
   10.1407   23.7222   25.1681 H   0  0  0  0  0
   11.4436   24.2106   24.0794 H   0  0  0  0  0
   14.6254   16.5852   24.5539 H   0  0  0  0  0
  1  2  4  0  0  0
  1  5  4  0  0  0
  2  3  4  0  0  0
  2  6  1  0  0  0
  3  4  4  0  0  0
  4  5  4  0  0  0
  4  7  1  0  0  0
  6 28  2  0  0  0
  6 29  1  0  0  0
  7  8  1  0  0  0
  8  9  1  0  0  0
  9 10  2  0  0  0
  9 11  1  0  0  0
 11 12  1  0  0  0
 11 15  1  0  0  0
 12 13  2  0  0  0
 13 14  1  0  0  0
 14 15  1  0  0  0
 15 16  1  0  0  0
 16 17  2  0  0  0
 16 18  1  0  0  0
 18 19  1  0  0  0
 18 21  1  0  0  0
 19 20  1  0  0  0
 20 30  1  0  0  0
 21 22  1  0  0  0
 22 23  1  0  0  0
 22 27  1  0  0  0
 23 24  1  0  0  0
 24 25  1  0  0  0
 25 26  1  0  0  0
 26 27  1  0  0  0
 30 31  2  0  0  0
 30 32  1  0  0  0
  1 33  1  0  0  0
  7 34  1  0  0  0
  7 35  1  0  0  0
  8 36  1  0  0  0
 11 37  1  0  0  0
 12 38  1  0  0  0
 13 39  1  0  0  0
 14 40  1  0  0  0
 14 41  1  0  0  0
 18 42  1  0  0  0
 19 43  1  0  0  0
 19 44  1  0  0  0
 20 45  1  0  0  0
 20 46  1  0  0  0
 21 47  1  0  0  0
 21 48  1  0  0  0
 22 49  1  0  0  0
 23 50  1  0  0  0
 23 51  1  0  0  0
 24 52  1  0  0  0
 24 53  1  0  0  0
 25 54  1  0  0  0
 25 55  1  0  0  0
 26 56  1  0  0  0
 26 57  1  0  0  0
 27 58  1  0  0  0
 27 59  1  0  0  0
 28 60  1  0  0  0
 29 61  1  0  0  0
 29 62  1  0  0  0
 32 63  1  0  0  0
M  END
$$$$
