5c83_ligand
  -I-interpret- 

 67 70  0  0  0  0  0  0  0  0999 V2000
  -14.3900  -15.6340   -4.3260 C   0  0  0  0  0
  -16.2020  -16.3320   -2.9190 C   0  0  0  0  0
  -15.5290  -17.7750   -0.9880 C   0  0  0  0  0
  -15.9490  -20.2240   -1.0490 C   0  0  0  0  0
  -15.4630  -21.5570   -0.4980 C   0  0  0  0  0
  -16.4550  -18.8700   -4.5530 C   0  0  0  0  0
  -15.1730  -19.0040   -5.3580 C   0  0  0  0  0
  -16.5060  -18.4240   -7.4140 C   0  0  0  0  0
  -16.1510  -18.4090   -8.9200 C   0  0  0  0  0
  -14.6400  -18.5600   -8.9080 C   0  0  0  0  0
  -11.9580  -18.8740   -8.5250 C   0  0  0  0  0
  -10.4670  -19.0380   -8.3900 C   0  0  0  0  0
  -10.0120  -20.4380   -8.7070 C   0  0  0  0  0
  -10.1290  -21.4480   -7.7630 C   0  0  0  0  0
   -9.7110  -22.7320   -8.0560 C   0  0  0  0  0
   -9.1750  -23.0180   -9.2890 C   0  0  0  0  0
   -9.0530  -22.0260  -10.2340 C   0  0  0  0  0
  -14.1630  -18.7730   -7.6250 C   0  0  0  0  0
  -15.7820  -15.9560   -4.2360 O   0  0  0  0  0
  -15.5850  -17.6790   -2.5130 C   0  0  0  0  0
  -15.0740  -19.1180   -0.5370 N   0  3  0  0  0
  -15.9350  -20.1840   -2.5730 C   0  0  0  0  0
  -16.2860  -18.8540   -3.0900 N   0  3  0  0  0
  -14.1190  -19.2980   -4.8080 O   0  0  0  0  0
  -15.2450  -18.7840   -6.7140 N   0  0  0  0  0
  -16.8260  -19.5570   -9.6630 C   0  0  0  0  0
  -16.5610  -17.0920   -9.5620 C   0  0  0  0  0
  -13.7390  -18.5130   -9.9530 C   0  0  0  0  0
  -12.4250  -18.6670   -9.7680 N   0  0  0  0  0
   -9.4690  -20.7420   -9.9470 C   0  0  0  0  0
  -12.8050  -18.9340   -7.4140 C   0  0  0  0  0
  -14.1682  -14.7979   -3.6628 H   0  0  0  0  0
  -13.7981  -16.5004   -4.0309 H   0  0  0  0  0
  -14.1475  -15.3594   -5.3526 H   0  0  0  0  0
  -17.2879  -16.4260   -2.9100 H   0  0  0  0  0
  -15.8734  -15.5683   -2.2140 H   0  0  0  0  0
  -16.5314  -17.6027   -0.5962 H   0  0  0  0  0
  -14.8199  -17.0319   -0.6231 H   0  0  0  0  0
  -16.9786  -20.0971   -0.7143 H   0  0  0  0  0
  -14.4358  -21.7289   -0.8196 H   0  0  0  0  0
  -15.5054  -21.5357    0.5910 H   0  0  0  0  0
  -16.1010  -22.3577   -0.8721 H   0  0  0  0  0
  -17.0609  -19.7456   -4.7860 H   0  0  0  0  0
  -16.8937  -17.9101   -4.8254 H   0  0  0  0  0
  -17.3013  -19.1373   -7.1976 H   0  0  0  0  0
  -16.8854  -17.4573   -7.0828 H   0  0  0  0  0
  -10.1963  -18.8214   -7.3566 H   0  0  0  0  0
   -9.9880  -18.3599   -9.0962 H   0  0  0  0  0
  -10.5535  -21.2271   -6.7837 H   0  0  0  0  0
   -9.8064  -23.5193   -7.3082 H   0  0  0  0  0
   -8.8464  -24.0317   -9.5181 H   0  0  0  0  0
   -8.6271  -22.2545  -11.2110 H   0  0  0  0  0
  -14.5773  -17.7064   -2.9277 H   0  0  0  0  0
  -15.1088  -19.1358    0.4822 H   0  0  0  0  0
  -14.1324  -19.2689   -0.8990 H   0  0  0  0  0
  -16.6716  -20.8986   -2.9402 H   0  0  0  0  0
  -14.9280  -20.4274   -2.9119 H   0  0  0  0  0
  -17.2081  -18.6612   -2.6988 H   0  0  0  0  0
  -16.4969  -20.5058   -9.2391 H   0  0  0  0  0
  -17.9076  -19.4678   -9.5613 H   0  0  0  0  0
  -16.5543  -19.5151  -10.7178 H   0  0  0  0  0
  -17.6371  -16.9560   -9.4539 H   0  0  0  0  0
  -16.0386  -16.2714   -9.0703 H   0  0  0  0  0
  -16.3001  -17.1083  -10.6202 H   0  0  0  0  0
  -14.1124  -18.3445  -10.9631 H   0  0  0  0  0
   -9.3702  -19.9605  -10.7004 H   0  0  0  0  0
  -12.4079  -19.1023   -6.4130 H   0  0  0  0  0
 19  1  1  0  0  0
  2 19  1  0  0  0
 20  2  1  0  0  0
 20  3  1  0  0  0
  3 21  1  0  0  0
  4  5  1  0  0  0
 21  4  1  0  0  0
  4 22  1  0  0  0
  6  7  1  0  0  0
 23  6  1  0  0  0
  7 24  2  0  0  0
  7 25  1  0  0  0
  8  9  1  0  0  0
 25  8  1  0  0  0
 10  9  1  0  0  0
  9 26  1  0  0  0
  9 27  1  0  0  0
 18 10  4  0  0  0
 10 28  4  0  0  0
 11 12  1  0  0  0
 11 29  4  0  0  0
 31 11  4  0  0  0
 12 13  1  0  0  0
 13 14  4  0  0  0
 13 30  4  0  0  0
 14 15  4  0  0  0
 15 16  4  0  0  0
 17 16  4  0  0  0
 30 17  4  0  0  0
 25 18  1  0  0  0
 18 31  4  0  0  0
 20 23  1  0  0  0
 22 23  1  0  0  0
 28 29  4  0  0  0
  1 32  1  0  0  0
  1 33  1  0  0  0
  1 34  1  0  0  0
  2 35  1  0  0  0
  2 36  1  0  0  0
  3 37  1  0  0  0
  3 38  1  0  0  0
  4 39  1  0  0  0
  5 40  1  0  0  0
  5 41  1  0  0  0
  5 42  1  0  0  0
  6 43  1  0  0  0
  6 44  1  0  0  0
  8 45  1  0  0  0
  8 46  1  0  0  0
 12 47  1  0  0  0
 12 48  1  0  0  0
 14 49  1  0  0  0
 15 50  1  0  0  0
 16 51  1  0  0  0
 17 52  1  0  0  0
 20 53  1  0  0  0
 21 54  1  0  0  0
 21 55  1  0  0  0
 22 56  1  0  0  0
 22 57  1  0  0  0
 23 58  1  0  0  0
 26 59  1  0  0  0
 26 60  1  0  0  0
 26 61  1  0  0  0
 27 62  1  0  0  0
 27 63  1  0  0  0
 27 64  1  0  0  0
 28 65  1  0  0  0
 30 66  1  0  0  0
 31 67  1  0  0  0
M  END
$$$$
