4bnz_ligand
  -I-interpret- 

 33 35  0  0  0  0  0  0  0  0999 V2000
  -11.6930   -3.7300  -32.1410 C   0  0  0  0  0
  -10.5020   -4.4120  -32.1580 C   0  0  0  0  0
   -9.4190   -3.7950  -32.6160 C   0  0  0  0  0
   -9.4140   -2.5370  -33.0700 C   0  0  0  0  0
  -10.5290   -1.8340  -33.0860 C   0  0  0  0  0
  -11.7010   -2.4170  -32.6180 C   0  0  0  0  0
   -7.4020   -3.3350  -33.2670 C   0  0  0  0  0
   -7.6290   -5.6600  -32.4060 C   0  0  0  0  0
   -8.1820   -4.2820  -32.7570 N   0  0  0  0  0
   -4.5080   -0.2150  -35.3210 C   0  0  0  0  0
   -3.8490    0.8890  -35.8670 C   0  0  0  0  0
   -4.4370    2.1750  -35.8300 C   0  0  0  0  0
   -5.6780    2.3910  -35.2460 C   0  0  0  0  0
   -6.3380    1.2860  -34.7130 C   0  0  0  0  0
   -5.7550   -0.0130  -34.7480 C   0  0  0  0  0
   -7.7000   -1.1060  -33.9300 C   0  0  0  0  0
   -6.3460   -1.1150  -34.2710 N   0  0  0  0  0
   -8.4120   -0.0930  -33.8420 O   0  0  0  0  0
   -8.1690   -2.2660  -33.4650 C   0  0  0  0  0
  -12.6037   -4.1980  -31.7672 H   0  0  0  0  0
  -10.4462   -5.4408  -31.8022 H   0  0  0  0  0
  -10.5320   -0.8104  -33.4607 H   0  0  0  0  0
  -12.6302   -1.8472  -32.6232 H   0  0  0  0  0
   -6.3367   -3.4180  -33.4822 H   0  0  0  0  0
   -7.7541   -5.8391  -31.3381 H   0  0  0  0  0
   -8.1692   -6.4211  -32.9691 H   0  0  0  0  0
   -6.5700   -5.7008  -32.6609 H   0  0  0  0  0
   -4.0555   -1.2064  -35.3445 H   0  0  0  0  0
   -2.8697    0.7579  -36.3272 H   0  0  0  0  0
   -3.9029    3.0168  -36.2707 H   0  0  0  0  0
   -6.1190    3.3870  -35.2061 H   0  0  0  0  0
   -7.3205    1.4182  -34.2600 H   0  0  0  0  0
   -5.8019   -1.9700  -34.1554 H   0  0  0  0  0
  2  1  4  0  0  0
  6  1  4  0  0  0
  3  2  4  0  0  0
  4  3  4  0  0  0
  9  3  4  0  0  0
  4  5  4  0  0  0
 19  4  4  0  0  0
  5  6  4  0  0  0
  7  9  4  0  0  0
 19  7  4  0  0  0
  9  8  1  0  0  0
 10 11  4  0  0  0
 15 10  4  0  0  0
 11 12  4  0  0  0
 13 12  4  0  0  0
 14 13  4  0  0  0
 15 14  4  0  0  0
 17 15  1  0  0  0
 16 17  1  0  0  0
 16 18  2  0  0  0
 16 19  1  0  0  0
  1 20  1  0  0  0
  2 21  1  0  0  0
  5 22  1  0  0  0
  6 23  1  0  0  0
  7 24  1  0  0  0
  8 25  1  0  0  0
  8 26  1  0  0  0
  8 27  1  0  0  0
 10 28  1  0  0  0
 11 29  1  0  0  0
 12 30  1  0  0  0
 13 31  1  0  0  0
 14 32  1  0  0  0
 17 33  1  0  0  0
M  END
$$$$
