4fxz_ligand
  -I-interpret- 

 23 22  0  0  0  0  0  0  0  0999 V2000
   39.3920   -6.2140   16.1260 N   0  3  0  0  0
   40.6380   -6.9590   16.2500 C   0  0  0  0  0
   40.6160   -8.2120   15.3810 C   0  0  0  0  0
   39.6490   -8.4630   14.6600 O   0  0  0  0  0
   40.8950   -7.3360   17.7100 C   0  0  0  0  0
   40.9830   -6.1720   18.6990 C   0  0  0  0  0
   41.2230   -6.6830   20.1100 C   0  0  0  0  0
   42.0760   -5.2010   18.2860 C   0  0  0  0  0
   41.5650   -8.9960   15.3780 O   0  0  0  0  0
   39.2380   -5.9719   15.1472 H   0  0  0  0  0
   38.6188   -6.7887   16.4611 H   0  0  0  0  0
   39.4500   -5.3616   16.6833 H   0  0  0  0  0
   41.4477   -6.3164   15.9043 H   0  0  0  0  0
   38.9885   -7.7738   14.7611 H   0  0  0  0  0
   41.8665   -7.8297   17.7317 H   0  0  0  0  0
   40.0439   -7.9402   18.0240 H   0  0  0  0  0
   40.0314   -5.6405   18.6872 H   0  0  0  0  0
   42.1841   -7.1955   20.1509 H   0  0  0  0  0
   41.2284   -5.8421   20.8036 H   0  0  0  0  0
   40.4280   -7.3765   20.3840 H   0  0  0  0  0
   42.0853   -4.3535   18.9713 H   0  0  0  0  0
   43.0410   -5.7068   18.3186 H   0  0  0  0  0
   41.8832   -4.8485   17.2728 H   0  0  0  0  0
  1  2  1  0  0  0
  2  3  1  0  0  0
  2  5  1  0  0  0
  3  4  1  0  0  0
  3  9  2  0  0  0
  5  6  1  0  0  0
  6  7  1  0  0  0
  6  8  1  0  0  0
  1 10  1  0  0  0
  1 11  1  0  0  0
  1 12  1  0  0  0
  2 13  1  0  0  0
  4 14  1  0  0  0
  5 15  1  0  0  0
  5 16  1  0  0  0
  6 17  1  0  0  0
  7 18  1  0  0  0
  7 19  1  0  0  0
  7 20  1  0  0  0
  8 21  1  0  0  0
  8 22  1  0  0  0
  8 23  1  0  0  0
M  END
$$$$
