5eak_ligand
  -I-interpret- 

 54 58  0  0  0  0  0  0  0  0999 V2000
   42.1780   37.0040   -1.2430 C   0  0  0  0  0
   42.4660   37.0750    0.1100 C   0  0  0  0  0
   42.4270   35.8380    0.7430 C   0  0  0  0  0
   42.1710   34.6520    0.1740 N   0  0  0  0  0
   41.9120   34.6700   -1.1490 C   0  0  0  0  0
   41.9160   35.8290   -1.8470 N   0  0  0  0  0
   41.6370   35.6510   -3.1420 N   0  0  0  0  0
   41.6080   33.6510   -2.0540 C   0  0  0  0  0
   41.4390   34.3220   -3.2650 C   0  0  0  0  0
   41.4470   32.1760   -1.8340 C   0  0  0  0  0
   41.2760   31.2710   -2.8660 C   0  0  0  0  0
   41.0870   29.6690   -2.2900 S   0  0  0  0  0
   41.2340   30.1630   -0.6580 C   0  0  0  0  0
   41.4160   31.5420   -0.5770 C   0  0  0  0  0
   41.1540   29.1380    0.4220 C   0  0  0  0  0
   41.5400   29.4710    1.6460 N   0  0  0  0  0
   40.7580   28.0130    0.2100 O   0  0  0  0  0
   42.7450   38.3050    0.8880 C   0  0  0  0  0
   42.9030   39.6050    0.4360 C   0  0  0  0  0
   43.1070   40.3360    1.5620 N   0  0  0  0  0
   43.0860   39.6430    2.7020 N   0  0  0  0  0
   42.8480   38.3890    2.2750 C   0  0  0  0  0
   43.3400   41.7750    1.6500 C   0  0  0  0  0
   41.6950   28.4790    2.7060 C   0  0  0  0  0
   40.7730   28.7200    3.9190 C   0  0  0  0  0
   39.4250   29.1900    3.4920 N   0  3  0  0  0
   43.1750   28.4310    3.1040 C   0  0  0  0  0
   43.5890   29.6070    3.9860 C   0  0  0  0  0
   42.7470   29.5930    5.2540 C   0  0  0  0  0
   41.2640   29.7540    4.9270 C   0  0  0  0  0
   42.1630   37.9205   -1.8328 H   0  0  0  0  0
   42.6255   35.8321    1.8148 H   0  0  0  0  0
   41.1774   33.8300   -4.2018 H   0  0  0  0  0
   41.2631   31.5449   -3.9209 H   0  0  0  0  0
   41.5238   32.0773    0.3664 H   0  0  0  0  0
   41.7347   30.4505    1.8535 H   0  0  0  0  0
   42.8708   39.9614   -0.5936 H   0  0  0  0  0
   42.7469   37.5325    2.9416 H   0  0  0  0  0
   44.2400   42.0309    1.0908 H   0  0  0  0  0
   42.4861   42.3064    1.2297 H   0  0  0  0  0
   43.4672   42.0579    2.6949 H   0  0  0  0  0
   41.3800   27.5094    2.3204 H   0  0  0  0  0
   40.7555   27.7422    4.4003 H   0  0  0  0  0
   38.8418   29.3394    4.3154 H   0  0  0  0  0
   39.5189   30.0654    2.9769 H   0  0  0  0  0
   38.9949   28.4858    2.8925 H   0  0  0  0  0
   43.7679   28.4739    2.1904 H   0  0  0  0  0
   43.3387   27.5146    3.6710 H   0  0  0  0  0
   43.4319   30.5429    3.4498 H   0  0  0  0  0
   44.6445   29.5205    4.2437 H   0  0  0  0  0
   43.0574   30.4225    5.8894 H   0  0  0  0  0
   42.8922   28.6386    5.7600 H   0  0  0  0  0
   40.6995   29.6190    5.8496 H   0  0  0  0  0
   41.1209   30.7429    4.4914 H   0  0  0  0  0
  1  2  4  0  0  0
  1  6  4  0  0  0
  2  3  4  0  0  0
  2 18  1  0  0  0
  3  4  4  0  0  0
  4  5  4  0  0  0
  5  6  4  0  0  0
  5  8  4  0  0  0
  6  7  4  0  0  0
  7  9  4  0  0  0
  8  9  4  0  0  0
  8 10  1  0  0  0
 10 11  4  0  0  0
 10 14  4  0  0  0
 11 12  4  0  0  0
 12 13  4  0  0  0
 13 14  4  0  0  0
 13 15  1  0  0  0
 15 16  1  0  0  0
 15 17  2  0  0  0
 16 24  1  0  0  0
 18 19  4  0  0  0
 18 22  4  0  0  0
 19 20  4  0  0  0
 20 21  4  0  0  0
 20 23  1  0  0  0
 21 22  4  0  0  0
 24 25  1  0  0  0
 24 27  1  0  0  0
 25 26  1  0  0  0
 25 30  1  0  0  0
 27 28  1  0  0  0
 28 29  1  0  0  0
 29 30  1  0  0  0
  1 31  1  0  0  0
  3 32  1  0  0  0
  9 33  1  0  0  0
 11 34  1  0  0  0
 14 35  1  0  0  0
 16 36  1  0  0  0
 19 37  1  0  0  0
 22 38  1  0  0  0
 23 39  1  0  0  0
 23 40  1  0  0  0
 23 41  1  0  0  0
 24 42  1  0  0  0
 25 43  1  0  0  0
 26 44  1  0  0  0
 26 45  1  0  0  0
 26 46  1  0  0  0
 27 47  1  0  0  0
 27 48  1  0  0  0
 28 49  1  0  0  0
 28 50  1  0  0  0
 29 51  1  0  0  0
 29 52  1  0  0  0
 30 53  1  0  0  0
 30 54  1  0  0  0
M  END
$$$$
