3aaq_ligand
  -I-interpret- 

 61 63  0  0  0  0  0  0  0  0999 V2000
   35.3140   25.8890   32.6230 N   0  0  0  0  0
   34.0220   25.7170   32.6470 C   0  0  0  0  0
   33.1840   26.6220   32.2680 N   0  0  0  0  0
   33.6440   27.7830   31.8360 C   0  0  0  0  0
   34.9900   28.0300   31.8010 C   0  0  0  0  0
   35.8430   27.0340   32.2190 C   0  0  0  0  0
   37.1500   27.1810   32.2020 N   0  0  0  0  0
   35.1490   29.2470   31.3380 N   0  0  0  0  0
   33.9480   29.7430   31.1090 C   0  0  0  0  0
   33.0320   28.8490   31.4130 N   0  0  0  0  0
   31.6010   28.9560   31.2930 C   0  0  0  0  0
   30.9810   30.3220   31.4030 C   0  0  0  0  0
   30.8570   30.7030   32.7310 O   0  0  0  0  0
   29.6330   30.1110   30.7420 C   0  0  0  0  0
   28.6010   29.8920   31.6860 O   0  0  0  0  0
   29.8520   28.8270   29.9770 C   0  0  0  0  0
   31.2570   28.6560   29.9660 O   0  0  0  0  0
   29.2850   29.1790   28.6680 C   0  0  0  0  0
   30.2360   29.8450   28.0060 O   0  0  0  0  0
   37.7680   28.7510   30.4740 C   0  0  0  0  0
   37.7410   28.4930   31.9600 C   0  0  0  0  0
   38.0140   26.0220   32.3780 C   0  0  0  0  0
   39.3240   26.4220   33.0400 C   0  0  0  0  0
   27.4530   35.8250   25.7750 O   0  0  0  0  0
   27.7700   33.7750   29.5010 Br  0  0  0  0  0
   28.0770   32.8980   25.4370 O   0  0  0  0  0
   31.0640   31.5270   26.5360 O   0  0  0  0  0
   27.7730   36.8310   27.8070 O   0  0  0  0  0
   27.2550   35.7550   27.1390 P   0  0  0  0  0
   28.1780   34.2130   27.7110 C   0  0  0  0  0
   27.7120   32.6580   26.7770 P   0  0  0  0  0
   28.5940   31.6460   27.5230 O   0  0  0  0  0
   29.8700   30.8620   26.9250 P   0  0  0  0  0
   25.9190   35.4960   27.4740 O   0  0  0  0  0
   30.0770   34.6190   27.5150 Br  0  0  0  0  0
   26.3620   32.3520   26.9140 O   0  0  0  0  0
   29.2110   29.9860   25.8300 O   0  0  0  0  0
   33.6313   24.7641   33.0039 H   0  0  0  0  0
   33.7453   30.7430   30.7256 H   0  0  0  0  0
   31.2546   28.3175   32.1056 H   0  0  0  0  0
   31.5646   31.1183   30.9410 H   0  0  0  0  0
   30.4599   31.5758   32.7766 H   0  0  0  0  0
   29.3291   30.9730   30.1481 H   0  0  0  0  0
   27.7689   29.7639   31.2248 H   0  0  0  0  0
   29.4115   27.9029   30.3512 H   0  0  0  0  0
   28.3902   29.7906   28.7833 H   0  0  0  0  0
   28.9836   28.2854   28.1215 H   0  0  0  0  0
   38.3646   27.9817   29.9837 H   0  0  0  0  0
   36.7505   28.7272   30.0839 H   0  0  0  0  0
   38.2084   29.7299   30.2844 H   0  0  0  0  0
   38.7560   28.5185   32.3566 H   0  0  0  0  0
   37.1480   29.2612   32.4564 H   0  0  0  0  0
   38.2307   25.5928   31.3998 H   0  0  0  0  0
   37.5054   25.2972   33.0136 H   0  0  0  0  0
   39.8373   27.1526   32.4148 H   0  0  0  0  0
   39.1173   26.8592   34.0169 H   0  0  0  0  0
   39.9527   25.5398   33.1610 H   0  0  0  0  0
   27.0720   35.0491   25.3572 H   0  0  0  0  0
   29.0136   33.1041   25.3936 H   0  0  0  0  0
   25.6079   34.7347   26.9787 H   0  0  0  0  0
   28.4159   29.5795   26.1825 H   0  0  0  0  0
  2  1  4  0  0  0
  6  1  4  0  0  0
  3  2  4  0  0  0
  4  3  4  0  0  0
  4  5  4  0  0  0
 10  4  4  0  0  0
  5  6  4  0  0  0
  8  5  4  0  0  0
  6  7  1  0  0  0
  7 21  1  0  0  0
  7 22  1  0  0  0
  9  8  4  0  0  0
 10  9  4  0  0  0
 11 10  1  0  0  0
 11 12  1  0  0  0
 17 11  1  0  0  0
 12 13  1  0  0  0
 14 12  1  0  0  0
 14 15  1  0  0  0
 16 14  1  0  0  0
 16 17  1  0  0  0
 18 16  1  0  0  0
 19 18  1  0  0  0
 33 19  1  0  0  0
 21 20  1  0  0  0
 22 23  1  0  0  0
 29 24  1  0  0  0
 30 25  1  0  0  0
 31 26  1  0  0  0
 33 27  2  0  0  0
 29 28  2  0  0  0
 30 29  1  0  0  0
 29 34  1  0  0  0
 31 30  1  0  0  0
 30 35  1  0  0  0
 32 31  1  0  0  0
 31 36  2  0  0  0
 32 33  1  0  0  0
 33 37  1  0  0  0
  2 38  1  0  0  0
  9 39  1  0  0  0
 11 40  1  0  0  0
 12 41  1  0  0  0
 13 42  1  0  0  0
 14 43  1  0  0  0
 15 44  1  0  0  0
 16 45  1  0  0  0
 18 46  1  0  0  0
 18 47  1  0  0  0
 20 48  1  0  0  0
 20 49  1  0  0  0
 20 50  1  0  0  0
 21 51  1  0  0  0
 21 52  1  0  0  0
 22 53  1  0  0  0
 22 54  1  0  0  0
 23 55  1  0  0  0
 23 56  1  0  0  0
 23 57  1  0  0  0
 24 58  1  0  0  0
 26 59  1  0  0  0
 34 60  1  0  0  0
 37 61  1  0  0  0
M  END
$$$$
