5xsr_ligand
  -I-interpret- 

 35 38  0  0  0  0  0  0  0  0999 V2000
   23.4250  -15.2440  -19.6280 C   0  0  0  0  0
   22.6440  -14.8430  -20.9090 C   0  0  0  0  0
   21.2790  -14.9670  -20.9310 C   0  0  0  0  0
   20.5910  -14.6590  -22.0950 C   0  0  0  0  0
   21.2830  -14.2020  -23.2620 C   0  0  0  0  0
   22.6860  -14.1100  -23.2340 C   0  0  0  0  0
   24.8170  -13.7760  -23.5640 C   0  0  0  0  0
   26.1410  -13.4400  -24.3000 C   0  0  0  0  0
   27.2730  -13.4420  -23.7600 C   0  0  0  0  0
   28.3640  -13.1260  -24.6780 C   0  0  0  0  0
   29.8250  -12.9670  -24.6290 C   0  0  0  0  0
   30.5360  -12.3250  -26.0050 C   0  0  0  0  0
   28.4470  -12.5600  -27.1680 C   0  0  0  0  0
   27.8380  -12.8860  -26.0090 C   0  0  0  0  0
   23.3400  -14.4410  -22.0390 C   0  0  0  0  0
   19.2200  -14.8140  -22.0100 F   0  0  0  0  0
   24.8410  -15.0840  -19.6320 N   0  0  0  0  0
   23.6520  -13.7610  -23.9830 N   0  0  0  0  0
   29.8370  -12.7210  -27.3240 N   0  3  0  0  0
   24.7460  -14.2120  -22.2880 N   0  0  0  0  0
   22.8380  -15.7200  -18.6890 O   0  0  0  0  0
   25.9380  -13.1120  -25.8940 S   0  0  0  0  0
   20.7411  -15.3035  -20.0447 H   0  0  0  0  0
   20.7296  -13.9289  -24.1605 H   0  0  0  0  0
   27.4282  -13.6595  -22.7032 H   0  0  0  0  0
   30.2395  -13.9677  -24.5068 H   0  0  0  0  0
   30.0313  -12.2658  -23.8203 H   0  0  0  0  0
   31.5535  -12.7132  -26.0517 H   0  0  0  0  0
   30.4741  -11.2399  -25.9220 H   0  0  0  0  0
   28.2930  -11.4845  -27.2553 H   0  0  0  0  0
   28.0169  -13.2475  -27.8963 H   0  0  0  0  0
   25.3895  -15.3762  -18.8232 H   0  0  0  0  0
   25.3060  -14.6773  -20.4436 H   0  0  0  0  0
   30.0490  -13.6931  -27.5488 H   0  0  0  0  0
   30.1704  -12.1271  -28.0833 H   0  0  0  0  0
  2  1  1  0  0  0
  1 17  1  0  0  0
  1 21  2  0  0  0
  2  3  4  0  0  0
 15  2  4  0  0  0
  4  3  4  0  0  0
  5  4  4  0  0  0
  4 16  1  0  0  0
  6  5  4  0  0  0
  6 15  4  0  0  0
 18  6  4  0  0  0
  7  8  1  0  0  0
  7 18  4  0  0  0
  7 20  4  0  0  0
  8  9  4  0  0  0
  8 22  4  0  0  0
  9 10  4  0  0  0
 10 11  1  0  0  0
 10 14  4  0  0  0
 11 12  1  0  0  0
 12 19  1  0  0  0
 14 13  1  0  0  0
 13 19  1  0  0  0
 14 22  4  0  0  0
 15 20  4  0  0  0
  3 23  1  0  0  0
  5 24  1  0  0  0
  9 25  1  0  0  0
 11 26  1  0  0  0
 11 27  1  0  0  0
 12 28  1  0  0  0
 12 29  1  0  0  0
 13 30  1  0  0  0
 13 31  1  0  0  0
 17 32  1  0  0  0
 17 33  1  0  0  0
 19 34  1  0  0  0
 19 35  1  0  0  0
M  END
$$$$
