### 
### Created by X-TOOL on Wed Jan  1 15:39:37 2020
### 

@<TRIPOS>MOLECULE
5z68_ligand
   43    45     1     0     0
SMALL
GAST_HUCK


@<TRIPOS>ATOM
      1 PG        -15.4740   31.9330  -16.9860 P.3       1 ATP         0.1879
      2 O1G       -15.1980   32.9070  -18.1070 O.co2     1 ATP        -0.6091
      3 O2G       -16.5470   32.5140  -16.0780 O.co2     1 ATP        -0.6091
      4 O3G       -15.5770   30.4290  -17.2610 O.co2     1 ATP        -0.6091
      5 PB        -14.2820   33.2520  -15.2390 P.3       1 ATP         0.3553
      6 O1B       -14.6000   34.3910  -16.1670 O.co2     1 ATP        -0.5652
      7 O2B       -15.1740   32.8840  -14.0830 O.co2     1 ATP        -0.5652
      8 O3B       -14.1130   32.0220  -16.1850 O.3       1 ATP        -0.1546
      9 PA        -12.8950   33.8270  -13.0910 P.3       1 ATP         0.3266
     10 O1A       -13.8060   35.0270  -12.9270 O.co2     1 ATP        -0.5692
     11 O2A       -13.1350   32.6040  -12.2230 O.co2     1 ATP        -0.5692
     12 O3A       -12.8440   33.3740  -14.6170 O.3       1 ATP        -0.1171
     13 O5'       -11.3620   34.2880  -13.0770 O.3       1 ATP        -0.2441
     14 C5'       -10.7650   34.4050  -14.3670 C.3       1 ATP         0.1131
     15 C4'        -9.2810   34.5080  -14.1660 C.3       1 ATP         0.1189
     16 O4'        -9.0430   35.1430  -12.9160 O.3       1 ATP        -0.3364
     17 C3'        -8.6620   33.1410  -14.0410 C.3       1 ATP         0.1149
     18 O3'        -7.5920   33.1130  -14.9800 O.3       1 ATP        -0.3864
     19 C2'        -8.0870   33.1120  -12.6410 C.3       1 ATP         0.1385
     20 O2'        -6.8950   32.3250  -12.6330 O.3       1 ATP        -0.3836
     21 C1'        -7.8630   34.5920  -12.3860 C.3       1 ATP         0.2010
     22 N9         -7.6730   35.0070  -10.9800 N.pl3     1 ATP        -0.1919
     23 C8         -8.2510   34.5290   -9.8630 C.2       1 ATP         0.1123
     24 N7         -7.8020   35.1700   -8.7480 N.2       1 ATP        -0.2958
     25 C5         -6.9160   36.0790   -9.1730 C.ar      1 ATP         0.1045
     26 C6         -6.0620   37.0970   -8.5520 C.ar      1 ATP         0.1298
     27 N6         -6.0540   37.2810   -7.2210 N.pl3     1 ATP        -0.3152
     28 N1         -5.2800   37.8380   -9.3470 N.ar      1 ATP        -0.2698
     29 C2         -5.2630   37.6770  -10.6810 C.ar      1 ATP         0.0533
     30 N3         -6.0150   36.7730  -11.3250 N.ar      1 ATP        -0.2714
     31 C4         -6.8350   35.9600  -10.6280 C.ar      1 ATP         0.1613
     32 H1        -11.1393   35.3064  -14.8744 H         1 ATP         0.0648
     33 H2        -11.0018   33.5180  -14.9730 H         1 ATP         0.0648
     34 H3         -8.8235   35.0698  -14.9936 H         1 ATP         0.0651
     35 H4         -9.3822   32.3275  -14.2125 H         1 ATP         0.0648
     36 H5         -7.1624   32.2665  -14.9438 H         1 ATP         0.2100
     37 H6         -8.8000   32.6948  -11.9147 H         1 ATP         0.0676
     38 H7         -6.2610   32.7065  -13.2288 H         1 ATP         0.2101
     39 H8         -6.9852   34.9325  -12.9548 H         1 ATP         0.0996
     40 H9         -8.9880   33.7273   -9.8516 H         1 ATP         0.1349
     41 H10        -5.4470   38.0013   -6.8043 H         1 ATP         0.1820
     42 H11        -6.6549   36.7017   -6.6174 H         1 ATP         0.1820
     43 H12        -4.6072   38.3109  -11.2668 H         1 ATP         0.0996
@<TRIPOS>BOND
     1    1    2 ar 
     2    1    3 ar 
     3    1    4 ar 
     4    8    1 1  
     5    5    6 ar 
     6    5    7 ar 
     7    5    8 1  
     8   12    5 1  
     9    9   10 ar 
    10    9   11 ar 
    11    9   12 1  
    12    9   13 1  
    13   13   14 1  
    14   14   15 1  
    15   15   16 1  
    16   15   17 1  
    17   16   21 1  
    18   17   18 1  
    19   17   19 1  
    20   19   20 1  
    21   19   21 1  
    22   21   22 1  
    23   22   23 1  
    24   22   31 1  
    25   23   24 2  
    26   24   25 1  
    27   25   26 ar 
    28   25   31 ar 
    29   26   27 1  
    30   26   28 ar 
    31   28   29 ar 
    32   29   30 ar 
    33   30   31 ar 
    34   14   32 1  
    35   14   33 1  
    36   15   34 1  
    37   17   35 1  
    38   18   36 1  
    39   19   37 1  
    40   20   38 1  
    41   21   39 1  
    42   23   40 1  
    43   27   41 1  
    44   27   42 1  
    45   29   43 1  
@<TRIPOS>SUBSTRUCTURE
     1 ATP         1

