5z68_ligand
  -I-interpret- 

 47 49  0  0  0  0  0  0  0  0999 V2000
  -15.4740   31.9330  -16.9860 P   0  0  0  0  0
  -15.1980   32.9070  -18.1070 O   0  0  0  0  0
  -16.5470   32.5140  -16.0780 O   0  0  0  0  0
  -15.5770   30.4290  -17.2610 O   0  0  0  0  0
  -14.2820   33.2520  -15.2390 P   0  0  0  0  0
  -14.6000   34.3910  -16.1670 O   0  0  0  0  0
  -15.1740   32.8840  -14.0830 O   0  0  0  0  0
  -14.1130   32.0220  -16.1850 O   0  0  0  0  0
  -12.8950   33.8270  -13.0910 P   0  0  0  0  0
  -13.8060   35.0270  -12.9270 O   0  0  0  0  0
  -13.1350   32.6040  -12.2230 O   0  0  0  0  0
  -12.8440   33.3740  -14.6170 O   0  0  0  0  0
  -11.3620   34.2880  -13.0770 O   0  0  0  0  0
  -10.7650   34.4050  -14.3670 C   0  0  0  0  0
   -9.2810   34.5080  -14.1660 C   0  0  0  0  0
   -9.0430   35.1430  -12.9160 O   0  0  0  0  0
   -8.6620   33.1410  -14.0410 C   0  0  0  0  0
   -7.5920   33.1130  -14.9800 O   0  0  0  0  0
   -8.0870   33.1120  -12.6410 C   0  0  0  0  0
   -6.8950   32.3250  -12.6330 O   0  0  0  0  0
   -7.8630   34.5920  -12.3860 C   0  0  0  0  0
   -7.6730   35.0070  -10.9800 N   0  0  0  0  0
   -8.2510   34.5290   -9.8630 C   0  0  0  0  0
   -7.8020   35.1700   -8.7480 N   0  0  0  0  0
   -6.9160   36.0790   -9.1730 C   0  0  0  0  0
   -6.0620   37.0970   -8.5520 C   0  0  0  0  0
   -6.0540   37.2810   -7.2210 N   0  0  0  0  0
   -5.2800   37.8380   -9.3470 N   0  0  0  0  0
   -5.2630   37.6770  -10.6810 C   0  0  0  0  0
   -6.0150   36.7730  -11.3250 N   0  0  0  0  0
   -6.8350   35.9600  -10.6280 C   0  0  0  0  0
  -16.7269   31.8991  -15.3631 H   0  0  0  0  0
  -15.7548   29.9660  -16.4390 H   0  0  0  0  0
  -14.7978   32.1344  -13.6160 H   0  0  0  0  0
  -12.4862   31.9293  -12.4362 H   0  0  0  0  0
  -11.1429   35.2866  -14.8847 H   0  0  0  0  0
  -11.0085   33.5380  -14.9811 H   0  0  0  0  0
   -8.8613   35.0502  -15.0133 H   0  0  0  0  0
   -9.3487   32.3125  -14.2149 H   0  0  0  0  0
   -7.1579   32.2575  -14.9434 H   0  0  0  0  0
   -8.7063   32.6565  -11.8683 H   0  0  0  0  0
   -6.5308   32.3069  -11.7450 H   0  0  0  0  0
   -6.9242   34.9224  -12.8304 H   0  0  0  0  0
   -8.9887   33.7266   -9.8516 H   0  0  0  0  0
   -6.6490   36.7074   -6.6233 H   0  0  0  0  0
   -5.4529   37.9943   -6.8084 H   0  0  0  0  0
   -4.6036   38.3144  -11.2700 H   0  0  0  0  0
  1  2  2  0  0  0
  1  3  1  0  0  0
  1  4  1  0  0  0
  8  1  1  0  0  0
  5  6  2  0  0  0
  5  7  1  0  0  0
  5  8  1  0  0  0
 12  5  1  0  0  0
  9 10  2  0  0  0
  9 11  1  0  0  0
  9 12  1  0  0  0
  9 13  1  0  0  0
 13 14  1  0  0  0
 14 15  1  0  0  0
 15 16  1  0  0  0
 15 17  1  0  0  0
 16 21  1  0  0  0
 17 18  1  0  0  0
 17 19  1  0  0  0
 19 20  1  0  0  0
 19 21  1  0  0  0
 21 22  1  0  0  0
 22 23  4  0  0  0
 22 31  4  0  0  0
 23 24  4  0  0  0
 24 25  4  0  0  0
 25 26  4  0  0  0
 25 31  4  0  0  0
 26 27  1  0  0  0
 26 28  4  0  0  0
 28 29  4  0  0  0
 29 30  4  0  0  0
 30 31  4  0  0  0
  3 32  1  0  0  0
  4 33  1  0  0  0
  7 34  1  0  0  0
 11 35  1  0  0  0
 14 36  1  0  0  0
 14 37  1  0  0  0
 15 38  1  0  0  0
 17 39  1  0  0  0
 18 40  1  0  0  0
 19 41  1  0  0  0
 20 42  1  0  0  0
 21 43  1  0  0  0
 23 44  1  0  0  0
 27 45  1  0  0  0
 27 46  1  0  0  0
 29 47  1  0  0  0
M  END
$$$$
