5etr_ligand
  -I-interpret- 

 28 30  0  0  0  0  0  0  0  0999 V2000
   32.9870    2.9390  -22.7630 C   0  0  0  0  0
   31.9020    4.6980  -21.6440 C   0  0  0  0  0
   33.3120    3.7520  -23.8380 C   0  0  0  0  0
   32.1790    5.5210  -22.7160 C   0  0  0  0  0
   32.3010    3.3670  -21.6600 C   0  0  0  0  0
   32.8750    5.0490  -23.7730 C   0  0  0  0  0
   27.4860    2.9530  -22.3580 C   0  0  0  0  0
   27.7780    3.8070  -21.3440 C   0  0  0  0  0
   29.1420    2.0920  -21.3640 C   0  0  0  0  0
   26.3620    3.2540  -23.2040 C   0  0  0  0  0
   26.1500    5.2470  -21.8180 C   0  0  0  0  0
   31.9230    2.4010  -20.5250 C   0  0  0  0  0
   28.3460    1.8760  -22.3900 N   0  0  0  0  0
   27.1980    4.9590  -21.0540 N   0  0  0  0  0
   28.8550    3.2730  -20.7240 N   0  0  0  0  0
   25.7590    4.4390  -22.8610 N   0  0  0  0  0
   25.4120    6.3440  -21.6360 N   0  0  0  0  0
   25.9080    2.5730  -24.1630 O   0  0  0  0  0
   33.1580    5.8570  -24.8180 F   0  0  0  0  0
   30.4720    1.0520  -20.8950 S   0  0  0  0  0
   33.2972    1.8947  -22.7992 H   0  0  0  0  0
   31.3676    5.0937  -20.7803 H   0  0  0  0  0
   33.8837    3.3798  -24.6881 H   0  0  0  0  0
   31.8351    6.5553  -22.7100 H   0  0  0  0  0
   31.5410    3.0292  -19.7203 H   0  0  0  0  0
   32.8217    1.8176  -20.3250 H   0  0  0  0  0
   27.5264    5.5731  -20.3087 H   0  0  0  0  0
   24.6202    6.5337  -22.2504 H   0  0  0  0  0
  1  3  4  0  0  0
  5  1  4  0  0  0
  2  4  4  0  0  0
  5  2  4  0  0  0
  3  6  4  0  0  0
  4  6  4  0  0  0
 12  5  1  0  0  0
  6 19  1  0  0  0
  8  7  4  0  0  0
  7 10  1  0  0  0
 13  7  4  0  0  0
  8 14  1  0  0  0
 15  8  4  0  0  0
  9 13  4  0  0  0
  9 15  4  0  0  0
 20  9  1  0  0  0
 10 16  1  0  0  0
 10 18  2  0  0  0
 14 11  1  0  0  0
 11 16  4  0  0  0
 11 17  2  0  0  0
 12 20  1  0  0  0
  1 21  1  0  0  0
  2 22  1  0  0  0
  3 23  1  0  0  0
  4 24  1  0  0  0
 12 25  1  0  0  0
 12 26  1  0  0  0
 14 27  1  0  0  0
 17 28  1  0  0  0
M  END
$$$$
