2rk7_ligand
  -I-interpret- 

  8  7  0  0  0  0  0  0  0  0999 V2000
   22.4900    2.1060    3.6980 C   0  0  0  0  0
   23.2220    3.0960    4.4840 C   0  0  0  0  0
   21.9090    2.4730    2.6560 O   0  0  0  0  0
   23.3410    4.2640    4.0490 O   0  0  0  0  0
   22.4810    0.9120    4.0830 O   0  0  0  0  0
   23.7360    2.7370    5.5700 O   0  0  0  0  0
   22.9808    0.8363    4.8991 H   0  0  0  0  0
   23.5339    1.8119    5.7280 H   0  0  0  0  0
  1  2  1  0  0  0
  1  3  2  0  0  0
  1  5  1  0  0  0
  2  4  2  0  0  0
  2  6  1  0  0  0
  5  7  1  0  0  0
  6  8  1  0  0  0
M  END
$$$$
