### 
### Created by X-TOOL on Mon Sep 10 21:13:33 2018
### 

@<TRIPOS>MOLECULE
5vlh_ligand
  230   235     1     0     0
SMALL
GAST_HUCK


@<TRIPOS>ATOM
      1 C          19.3960  -10.6780   32.6340 C.2       1 ACE         0.1752
      2 O          20.1070  -11.6450   32.9450 O.2       1 ACE        -0.3972
      3 CH3        19.7330   -9.8410   31.4040 C.3       1 ACE         0.0258
      4 N          18.3070  -10.2980   33.3130 N.am      1 THR        -0.2635
      5 CA         17.8050  -10.9860   34.5170 C.3       1 THR         0.1564
      6 C          17.3100  -12.4030   34.1660 C.2       1 THR         0.2065
      7 O          16.5610  -12.5760   33.1980 O.2       1 THR        -0.3943
      8 CB         16.6980  -10.1480   35.1990 C.3       1 THR         0.0924
      9 OG1        17.1150   -8.7860   35.3000 O.3       1 THR        -0.3874
     10 CG2        16.3110  -10.6800   36.5790 C.3       1 THR        -0.0346
     11 N          17.7590  -13.4030   34.9390 N.am      1 VAL        -0.2634
     12 CA         17.3880  -14.8030   34.7470 C.3       1 VAL         0.1333
     13 C          16.3810  -15.2060   35.8340 C.2       1 VAL         0.2043
     14 O          16.6480  -15.0030   37.0210 O.2       1 VAL        -0.3944
     15 CB         18.6290  -15.7390   34.6720 C.3       1 VAL        -0.0063
     16 CG1        18.2240  -17.2080   34.5710 C.3       1 VAL        -0.0584
     17 CG2        19.5330  -15.3590   33.5010 C.3       1 VAL        -0.0584
     18 N          15.2120  -15.7400   35.4200 N.am      1 PHE        -0.2619
     19 CA         14.1510  -16.1650   36.3330 C.3       1 PHE         0.1404
     20 C          14.1670  -17.6870   36.4510 C.2       1 PHE         0.2060
     21 O          14.0050  -18.3670   35.4410 O.2       1 PHE        -0.3942
     22 CB         12.7730  -15.6580   35.8550 C.3       1 PHE         0.0214
     23 CG         12.7270  -14.2000   35.4540 C.ar      1 PHE        -0.0386
     24 CD1        12.6420  -13.1970   36.4150 C.ar      1 PHE        -0.0601
     25 CD2        12.7510  -13.8290   34.1130 C.ar      1 PHE        -0.0601
     26 CE1        12.6010  -11.8480   36.0410 C.ar      1 PHE        -0.0686
     27 CE2        12.7010  -12.4800   33.7420 C.ar      1 PHE        -0.0686
     28 CZ         12.6300  -11.4990   34.7080 C.ar      1 PHE        -0.0687
     29 N          14.3700  -18.2180   37.6780 N.am      1 THR        -0.2612
     30 CA         14.4540  -19.6620   37.9750 C.3       1 THR         0.1565
     31 C          13.1510  -20.4420   37.6900 C.2       1 THR         0.2065
     32 O          13.2040  -21.6640   37.5390 O.2       1 THR        -0.3943
     33 CB         14.9460  -19.9100   39.4090 C.3       1 THR         0.0924
     34 OG1        14.0140  -19.3550   40.3360 O.3       1 THR        -0.3874
     35 CG2        16.3380  -19.3530   39.6610 C.3       1 THR        -0.0346
     36 N          12.0000  -19.7450   37.6180 N.am      1 SER        -0.2615
     37 CA         10.6930  -20.3380   37.3230 C.3       1 SER         0.1539
     38 C           9.8790  -19.4210   36.4010 C.2       1 SER         0.2063
     39 O          10.2480  -18.2550   36.2190 O.2       1 SER        -0.3943
     40 CB          9.9270  -20.6330   38.6140 C.3       1 SER         0.0843
     41 OG          9.4590  -19.4680   39.2750 O.3       1 SER        -0.3903
     42 N           8.7800  -19.9420   35.8200 N.am      1 TRP        -0.2626
     43 CA          7.9000  -19.1520   34.9560 C.3       1 TRP         0.1352
     44 C           7.0900  -18.1650   35.7940 C.2       1 TRP         0.2052
     45 O           6.8720  -17.0320   35.3580 O.2       1 TRP        -0.3942
     46 CB          6.9710  -20.0540   34.1270 C.3       1 TRP         0.0042
     47 CG          6.0210  -19.2950   33.2470 C.2       1 TRP        -0.0418
     48 CD1         4.6860  -19.1150   33.4520 C.2       1 TRP         0.0167
     49 CD2         6.3510  -18.5450   32.0690 C.ar      1 TRP        -0.0214
     50 NE1         4.1550  -18.3330   32.4530 N.pl3     1 TRP        -0.2890
     51 CE2         5.1560  -17.9670   31.5910 C.ar      1 TRP         0.0603
     52 CE3         7.5440  -18.3120   31.3610 C.ar      1 TRP        -0.0747
     53 CZ2         5.1150  -17.1820   30.4350 C.ar      1 TRP        -0.0443
     54 CZ3         7.5040  -17.5240   30.2230 C.ar      1 TRP        -0.0792
     55 CH2         6.3030  -16.9700   29.7700 C.ar      1 TRP        -0.0768
     56 N           6.6720  -18.6020   37.0080 N.am      1 GLU        -0.2635
     57 CA          5.9030  -17.8250   37.9960 C.3       1 GLU         0.1325
     58 C           6.6890  -16.6050   38.4770 C.2       1 GLU         0.2040
     59 O           6.0920  -15.5440   38.6670 O.2       1 GLU        -0.3944
     60 CB          5.5010  -18.6960   39.2020 C.3       1 GLU        -0.0008
     61 CG          4.4120  -19.7230   38.9160 C.3       1 GLU         0.0044
     62 CD          4.8320  -20.9840   38.1800 C.2       1 GLU         0.0350
     63 OE1         5.9630  -21.4720   38.4160 O.co2     1 GLU        -0.5690
     64 OE2         4.0160  -21.4970   37.3780 O.co2     1 GLU        -0.5690
     65 N           8.0290  -16.7580   38.6490 N.am      1 GLU        -0.2636
     66 CA          8.9540  -15.6970   39.0580 C.3       1 GLU         0.1325
     67 C           8.9130  -14.5510   38.0380 C.2       1 GLU         0.2041
     68 O           8.8090  -13.3870   38.4360 O.2       1 GLU        -0.3944
     69 CB         10.3790  -16.2470   39.1930 C.3       1 GLU        -0.0008
     70 CG         11.2560  -15.4040   40.0970 C.3       1 GLU         0.0044
     71 CD         12.7390  -15.7030   40.0160 C.2       1 GLU         0.0350
     72 OE1        13.1560  -16.7710   40.5190 O.co2     1 GLU        -0.5690
     73 OE2        13.4900  -14.8560   39.4780 O.co2     1 GLU        -0.5690
     74 N           8.9450  -14.8960   36.7260 N.am      1 TYR        -0.2621
     75 CA          8.8750  -13.9630   35.5960 C.3       1 TYR         0.1390
     76 C           7.5570  -13.1780   35.6220 C.2       1 TYR         0.2057
     77 O           7.5590  -11.9720   35.3580 O.2       1 TYR        -0.3942
     78 CB          9.0520  -14.7220   34.2570 C.3       1 TYR         0.0163
     79 CG          8.4520  -14.0290   33.0500 C.ar      1 TYR        -0.0493
     80 CD1         9.1240  -12.9930   32.4100 C.ar      1 TYR        -0.0685
     81 CD2         7.2090  -14.4090   32.5480 C.ar      1 TYR        -0.0685
     82 CE1         8.5670  -12.3360   31.3140 C.ar      1 TYR        -0.0398
     83 CE2         6.6410  -13.7590   31.4530 C.ar      1 TYR        -0.0398
     84 CZ          7.3270  -12.7260   30.8350 C.ar      1 TYR         0.0805
     85 OH          6.7810  -12.0830   29.7520 O.3       1 TYR        -0.3376
     86 N           6.4410  -13.8710   35.9330 N.am      1 LEU        -0.2636
     87 CA          5.1030  -13.2820   36.0000 C.3       1 LEU         0.1312
     88 C           4.9260  -12.2640   37.1380 C.2       1 LEU         0.2040
     89 O           4.2220  -11.2730   36.9370 O.2       1 LEU        -0.3944
     90 CB          4.0150  -14.3650   36.0540 C.3       1 LEU        -0.0101
     91 CG          3.8200  -15.2180   34.7880 C.3       1 LEU        -0.0425
     92 CD1         2.9490  -16.4120   35.0750 C.3       1 LEU        -0.0625
     93 CD2         3.2350  -14.4040   33.6370 C.3       1 LEU        -0.0625
     94 N           5.5700  -12.4860   38.3120 N.am      1 ASP        -0.2622
     95 CA          5.5090  -11.5540   39.4520 C.3       1 ASP         0.1423
     96 C           6.3290  -10.2960   39.1500 C.2       1 ASP         0.2057
     97 O           6.0360   -9.2240   39.6900 O.2       1 ASP        -0.3943
     98 CB          6.0590  -12.1920   40.7430 C.3       1 ASP         0.0406
     99 CG          5.6530  -13.6250   41.0210 C.2       1 ASP         0.0393
    100 OD1         4.4940  -13.9880   40.7070 O.co2     1 ASP        -0.5688
    101 OD2         6.4930  -14.3840   41.5650 O.co2     1 ASP        -0.5688
    102 N           7.3770  -10.4480   38.3120 N.am      1 TRP        -0.2626
    103 CA          8.2890   -9.3890   37.8890 C.3       1 TRP         0.1352
    104 C           7.6320   -8.4810   36.8430 C.2       1 TRP         0.2052
    105 O           7.6030   -7.2600   37.0170 O.2       1 TRP        -0.3942
    106 CB          9.5930  -10.0080   37.3490 C.3       1 TRP         0.0042
    107 CG         10.5560   -9.0330   36.7420 C.2       1 TRP        -0.0418
    108 CD1        10.5700   -8.5900   35.4520 C.2       1 TRP         0.0167
    109 CD2        11.6950   -8.4410   37.3830 C.ar      1 TRP        -0.0214
    110 NE1        11.6250   -7.7280   35.2580 N.pl3     1 TRP        -0.2890
    111 CE2        12.3440   -7.6340   36.4220 C.ar      1 TRP         0.0603
    112 CE3        12.2490   -8.5370   38.6710 C.ar      1 TRP        -0.0747
    113 CZ2        13.5070   -6.9110   36.7140 C.ar      1 TRP        -0.0443
    114 CZ3        13.3900   -7.8090   38.9620 C.ar      1 TRP        -0.0792
    115 CH2        14.0100   -7.0110   37.9900 C.ar      1 TRP        -0.0768
    116 N           7.1470   -9.0760   35.7420 N.am      1 VAL        -0.2634
    117 CA          6.5220   -8.3250   34.6570 C.3       1 VAL         0.1329
    118 C           5.1010   -7.8640   35.0550 C.2       1 VAL         0.1994
    119 O           4.5020   -8.4560   35.9550 O.2       1 VAL        -0.3947
    120 CB          6.5880   -9.0930   33.3070 C.3       1 VAL        -0.0063
    121 CG1         5.5170  -10.1830   33.2030 C.3       1 VAL        -0.0584
    122 CG2         6.5250   -8.1370   32.1230 C.3       1 VAL        -0.0584
    123 N           4.7530   -6.6320   34.6650 N.am      1 NH2        -0.2990
    124 H1         18.9922   -9.0353   31.2946 H         1 ACE         0.0467
    125 H2         19.7142  -10.4803   30.5091 H         1 ACE         0.0467
    126 H3         20.7355   -9.4038   31.5214 H         1 ACE         0.0467
    127 H4         17.8033   -9.4992   32.9840 H         1 THR         0.1883
    128 H5         18.6394  -11.0857   35.2268 H         1 THR         0.0826
    129 H6         15.8033  -10.1903   34.5605 H         1 THR         0.0639
    130 H7         16.4313   -8.2769   35.7194 H         1 THR         0.2101
    131 H8         15.5233  -10.0441   37.0094 H         1 THR         0.0257
    132 H9         17.1924  -10.6679   37.2371 H         1 THR         0.0257
    133 H10        15.9388  -11.7107   36.4835 H         1 THR         0.0257
    134 H11        18.3821  -13.1779   35.6881 H         1 VAL         0.1883
    135 H12        16.8738  -14.8811   33.7777 H         1 VAL         0.0802
    136 H13        19.2031  -15.6096   35.6013 H         1 VAL         0.0343
    137 H14        19.1267  -17.8345   34.5203 H         1 VAL         0.0234
    138 H15        17.6205  -17.3605   33.6641 H         1 VAL         0.0234
    139 H16        17.6332  -17.4872   35.4559 H         1 VAL         0.0234
    140 H17        19.8170  -14.2997   33.5858 H         1 VAL         0.0234
    141 H18        18.9949  -15.5197   32.5552 H         1 VAL         0.0234
    142 H19        20.4381  -15.9838   33.5187 H         1 VAL         0.0234
    143 H20        15.0637  -15.8508   34.4373 H         1 PHE         0.1885
    144 H21        14.3499  -15.7350   37.3257 H         1 PHE         0.0823
    145 H22        12.0525  -15.8090   36.6723 H         1 PHE         0.0474
    146 H23        12.4720  -16.2599   34.9849 H         1 PHE         0.0474
    147 H24        12.6071  -13.4630   37.4653 H         1 PHE         0.0557
    148 H25        12.8091  -14.5935   33.3467 H         1 PHE         0.0557
    149 H26        12.5464  -11.0771   36.8011 H         1 PHE         0.0599
    150 H27        12.7181  -12.2063   32.6932 H         1 PHE         0.0599
    151 H28        12.5970  -10.4546   34.4195 H         1 PHE         0.0559
    152 H29        14.4711  -17.5832   38.4440 H         1 THR         0.1884
    153 H30        15.2171  -20.0739   37.2983 H         1 THR         0.0826
    154 H31        14.9872  -20.9976   39.5682 H         1 THR         0.0639
    155 H32        13.9371  -18.4202   40.1848 H         1 THR         0.2101
    156 H33        16.6335  -19.5608   40.7000 H         1 THR         0.0257
    157 H34        16.3344  -18.2662   39.4912 H         1 THR         0.0257
    158 H35        17.0533  -19.8291   38.9742 H         1 THR         0.0257
    159 H36        12.0405  -18.7584   37.7763 H         1 SER         0.1884
    160 H37        10.8591  -21.2906   36.7987 H         1 SER         0.0823
    161 H38        10.5949  -21.1766   39.2984 H         1 SER         0.0606
    162 H39         9.0609  -21.2649   38.3680 H         1 SER         0.0606
    163 H40         8.9944  -19.7185   40.0649 H         1 SER         0.2097
    164 H41         8.5574  -20.9029   35.9849 H         1 TRP         0.1884
    165 H42         8.5286  -18.5784   34.2589 H         1 TRP         0.0815
    166 H43         6.3828  -20.6755   34.8182 H         1 TRP         0.0397
    167 H44         7.5924  -20.7010   33.4904 H         1 TRP         0.0397
    168 H45         4.1215  -19.5300   34.2857 H         1 TRP         0.0795
    169 H46         3.1642  -18.0653   32.3664 H         1 TRP         0.2216
    170 H47         8.4792  -18.7422   31.7006 H         1 TRP         0.0540
    171 H48         4.1849  -16.7567   30.0758 H         1 TRP         0.0541
    172 H49         8.4192  -17.3335   29.6742 H         1 TRP         0.0510
    173 H50         6.3065  -16.3592   28.8744 H         1 TRP         0.0530
    174 H51         6.9083  -19.5414   37.2564 H         1 GLU         0.1883
    175 H52         4.9839  -17.4705   37.5065 H         1 GLU         0.0801
    176 H53         5.1415  -18.0299   40.0001 H         1 GLU         0.0330
    177 H54         6.3957  -19.2340   39.5486 H         1 GLU         0.0330
    178 H55         3.6385  -19.2273   38.3110 H         1 GLU         0.0433
    179 H56         3.9824  -20.0292   39.8812 H         1 GLU         0.0433
    180 H57         8.4139  -17.6660   38.4834 H         1 GLU         0.1883
    181 H58         8.6349  -15.3093   40.0367 H         1 GLU         0.0801
    182 H59        10.8373  -16.2822   38.1937 H         1 GLU         0.0330
    183 H60        10.3242  -17.2645   39.6074 H         1 GLU         0.0330
    184 H61        10.9318  -15.5678   41.1353 H         1 GLU         0.0433
    185 H62        11.1064  -14.3479   39.8284 H         1 GLU         0.0433
    186 H63         9.0230  -15.8695   36.5110 H         1 TYR         0.1885
    187 H64         9.7016  -13.2437   35.6925 H         1 TYR         0.0821
    188 H65         8.5757  -15.7085   34.3571 H         1 TYR         0.0453
    189 H66        10.1294  -14.8516   34.0768 H         1 TYR         0.0453
    190 H67        10.1004  -12.6904   32.7707 H         1 TYR         0.0530
    191 H68         6.6732  -15.2258   33.0179 H         1 TYR         0.0530
    192 H69         9.1024  -11.5225   30.8380 H         1 TYR         0.0525
    193 H70         5.6664  -14.0607   31.0866 H         1 TYR         0.0525
    194 H71         7.3773  -11.4066   29.4529 H         1 TYR         0.2458
    195 H72         6.5344  -14.8470   36.1297 H         1 LEU         0.1883
    196 H73         4.9593  -12.7284   35.0604 H         1 LEU         0.0800
    197 H74         3.0588  -13.8654   36.2689 H         1 LEU         0.0315
    198 H75         4.2658  -15.0475   36.8794 H         1 LEU         0.0315
    199 H76         4.8089  -15.5839   34.4745 H         1 LEU         0.0298
    200 H77         2.8249  -17.0045   34.1566 H         1 LEU         0.0232
    201 H78         1.9643  -16.0713   35.4274 H         1 LEU         0.0232
    202 H79         3.4215  -17.0326   35.8506 H         1 LEU         0.0232
    203 H80         3.8798  -13.5355   33.4373 H         1 LEU         0.0232
    204 H81         2.2268  -14.0575   33.9082 H         1 LEU         0.0232
    205 H82         3.1768  -15.0323   32.7360 H         1 LEU         0.0232
    206 H83         6.1114  -13.3213   38.4079 H         1 ASP         0.1884
    207 H84         4.4588  -11.2705   39.6151 H         1 ASP         0.0819
    208 H85         5.7171  -11.5786   41.5897 H         1 ASP         0.0478
    209 H86         7.1572  -12.1616   40.6881 H         1 ASP         0.0478
    210 H87         7.5428  -11.3652   37.9498 H         1 TRP         0.1884
    211 H88         8.5362   -8.7742   38.7670 H         1 TRP         0.0815
    212 H89         9.3261  -10.7473   36.5794 H         1 TRP         0.0397
    213 H90        10.1009  -10.5141   38.1832 H         1 TRP         0.0397
    214 H91         9.8505   -8.8769   34.6865 H         1 TRP         0.0795
    215 H92        11.8399   -7.2334   34.3805 H         1 TRP         0.2216
    216 H93        11.7912   -9.1696   39.4229 H         1 TRP         0.0540
    217 H94        13.9917   -6.2967   35.9639 H         1 TRP         0.0541
    218 H95        13.8118   -7.8568   39.9594 H         1 TRP         0.0510
    219 H96        14.9066   -6.4601   38.2504 H         1 TRP         0.0530
    220 H97         7.2163  -10.0704   35.6618 H         1 VAL         0.1883
    221 H98         7.1173   -7.4105   34.5185 H         1 VAL         0.0802
    222 H99         7.5654   -9.5962   33.2689 H         1 VAL         0.0343
    223 H100        5.6070  -10.6940   32.2331 H         1 VAL         0.0234
    224 H101        4.5197   -9.7263   33.2857 H         1 VAL         0.0234
    225 H102        5.6552  -10.9116   34.0155 H         1 VAL         0.0234
    226 H103        7.3056   -7.3693   32.2297 H         1 VAL         0.0234
    227 H104        5.5372   -7.6539   32.0939 H         1 VAL         0.0234
    228 H105        6.6868   -8.6973   31.1903 H         1 VAL         0.0234
    229 H106        3.8472   -6.2734   34.8905 H         1 NH2         0.1815
    230 H107        5.3988   -6.0701   34.1481 H         1 NH2         0.1815
@<TRIPOS>BOND
     1    1    2 2  
     2    1    3 1  
     3    1    4 am 
     4    4    5 1  
     5    5    6 1  
     6    5    8 1  
     7    6    7 2  
     8    6   11 am 
     9    8    9 1  
    10    8   10 1  
    11   11   12 1  
    12   12   13 1  
    13   12   15 1  
    14   13   14 2  
    15   13   18 am 
    16   15   16 1  
    17   15   17 1  
    18   18   19 1  
    19   19   20 1  
    20   19   22 1  
    21   20   21 2  
    22   20   29 am 
    23   22   23 1  
    24   23   24 ar 
    25   23   25 ar 
    26   24   26 ar 
    27   25   27 ar 
    28   26   28 ar 
    29   27   28 ar 
    30   29   30 1  
    31   30   31 1  
    32   30   33 1  
    33   31   32 2  
    34   31   36 am 
    35   33   34 1  
    36   33   35 1  
    37   36   37 1  
    38   37   38 1  
    39   37   40 1  
    40   38   39 2  
    41   38   42 am 
    42   40   41 1  
    43   42   43 1  
    44   43   44 1  
    45   43   46 1  
    46   44   45 2  
    47   44   56 am 
    48   46   47 1  
    49   47   48 2  
    50   47   49 1  
    51   48   50 1  
    52   49   51 ar 
    53   49   52 ar 
    54   50   51 1  
    55   51   53 ar 
    56   52   54 ar 
    57   53   55 ar 
    58   54   55 ar 
    59   56   57 1  
    60   57   58 1  
    61   57   60 1  
    62   58   59 2  
    63   58   65 am 
    64   60   61 1  
    65   61   62 1  
    66   62   63 ar 
    67   62   64 ar 
    68   65   66 1  
    69   66   67 1  
    70   66   69 1  
    71   67   68 2  
    72   67   74 am 
    73   69   70 1  
    74   70   71 1  
    75   71   72 ar 
    76   71   73 ar 
    77   74   75 1  
    78   75   76 1  
    79   75   78 1  
    80   76   77 2  
    81   76   86 am 
    82   78   79 1  
    83   79   80 ar 
    84   79   81 ar 
    85   80   82 ar 
    86   81   83 ar 
    87   82   84 ar 
    88   83   84 ar 
    89   84   85 1  
    90   86   87 1  
    91   87   88 1  
    92   87   90 1  
    93   88   89 2  
    94   88   94 am 
    95   90   91 1  
    96   91   92 1  
    97   91   93 1  
    98   94   95 1  
    99   95   96 1  
   100   95   98 1  
   101   96   97 2  
   102   96  102 am 
   103   98   99 1  
   104   99  100 ar 
   105   99  101 ar 
   106  102  103 1  
   107  103  104 1  
   108  103  106 1  
   109  104  105 2  
   110  104  116 am 
   111  106  107 1  
   112  107  108 2  
   113  107  109 1  
   114  108  110 1  
   115  109  111 ar 
   116  109  112 ar 
   117  110  111 1  
   118  111  113 ar 
   119  112  114 ar 
   120  113  115 ar 
   121  114  115 ar 
   122  116  117 1  
   123  117  118 1  
   124  117  120 1  
   125  118  119 2  
   126  118  123 am 
   127  120  121 1  
   128  120  122 1  
   129    3  124 1  
   130    3  125 1  
   131    3  126 1  
   132    4  127 1  
   133    5  128 1  
   134    8  129 1  
   135    9  130 1  
   136   10  131 1  
   137   10  132 1  
   138   10  133 1  
   139   11  134 1  
   140   12  135 1  
   141   15  136 1  
   142   16  137 1  
   143   16  138 1  
   144   16  139 1  
   145   17  140 1  
   146   17  141 1  
   147   17  142 1  
   148   18  143 1  
   149   19  144 1  
   150   22  145 1  
   151   22  146 1  
   152   24  147 1  
   153   25  148 1  
   154   26  149 1  
   155   27  150 1  
   156   28  151 1  
   157   29  152 1  
   158   30  153 1  
   159   33  154 1  
   160   34  155 1  
   161   35  156 1  
   162   35  157 1  
   163   35  158 1  
   164   36  159 1  
   165   37  160 1  
   166   40  161 1  
   167   40  162 1  
   168   41  163 1  
   169   42  164 1  
   170   43  165 1  
   171   46  166 1  
   172   46  167 1  
   173   48  168 1  
   174   50  169 1  
   175   52  170 1  
   176   53  171 1  
   177   54  172 1  
   178   55  173 1  
   179   56  174 1  
   180   57  175 1  
   181   60  176 1  
   182   60  177 1  
   183   61  178 1  
   184   61  179 1  
   185   65  180 1  
   186   66  181 1  
   187   69  182 1  
   188   69  183 1  
   189   70  184 1  
   190   70  185 1  
   191   74  186 1  
   192   75  187 1  
   193   78  188 1  
   194   78  189 1  
   195   80  190 1  
   196   81  191 1  
   197   82  192 1  
   198   83  193 1  
   199   85  194 1  
   200   86  195 1  
   201   87  196 1  
   202   90  197 1  
   203   90  198 1  
   204   91  199 1  
   205   92  200 1  
   206   92  201 1  
   207   92  202 1  
   208   93  203 1  
   209   93  204 1  
   210   93  205 1  
   211   94  206 1  
   212   95  207 1  
   213   98  208 1  
   214   98  209 1  
   215  102  210 1  
   216  103  211 1  
   217  106  212 1  
   218  106  213 1  
   219  108  214 1  
   220  110  215 1  
   221  112  216 1  
   222  113  217 1  
   223  114  218 1  
   224  115  219 1  
   225  116  220 1  
   226  117  221 1  
   227  120  222 1  
   228  121  223 1  
   229  121  224 1  
   230  121  225 1  
   231  122  226 1  
   232  122  227 1  
   233  122  228 1  
   234  123  229 1  
   235  123  230 1  
@<TRIPOS>SUBSTRUCTURE
     1 ACE         1

