5vlh_ligand
  -I-interpret- 

231236  0  0  0  0  0  0  0  0999 V2000
   19.3960  -10.6780   32.6340 C   0  0  0  0  0
   20.1070  -11.6450   32.9450 O   0  0  0  0  0
   19.7330   -9.8410   31.4040 C   0  0  0  0  0
   18.3070  -10.2980   33.3130 N   0  0  0  0  0
   17.8050  -10.9860   34.5170 C   0  0  0  0  0
   17.3100  -12.4030   34.1660 C   0  0  0  0  0
   16.5610  -12.5760   33.1980 O   0  0  0  0  0
   16.6980  -10.1480   35.1990 C   0  0  0  0  0
   17.1150   -8.7860   35.3000 O   0  0  0  0  0
   16.3110  -10.6800   36.5790 C   0  0  0  0  0
   17.7590  -13.4030   34.9390 N   0  0  0  0  0
   17.3880  -14.8030   34.7470 C   0  0  0  0  0
   16.3810  -15.2060   35.8340 C   0  0  0  0  0
   16.6480  -15.0030   37.0210 O   0  0  0  0  0
   18.6290  -15.7390   34.6720 C   0  0  0  0  0
   18.2240  -17.2080   34.5710 C   0  0  0  0  0
   19.5330  -15.3590   33.5010 C   0  0  0  0  0
   15.2120  -15.7400   35.4200 N   0  0  0  0  0
   14.1510  -16.1650   36.3330 C   0  0  0  0  0
   14.1670  -17.6870   36.4510 C   0  0  0  0  0
   14.0050  -18.3670   35.4410 O   0  0  0  0  0
   12.7730  -15.6580   35.8550 C   0  0  0  0  0
   12.7270  -14.2000   35.4540 C   0  0  0  0  0
   12.6420  -13.1970   36.4150 C   0  0  0  0  0
   12.7510  -13.8290   34.1130 C   0  0  0  0  0
   12.6010  -11.8480   36.0410 C   0  0  0  0  0
   12.7010  -12.4800   33.7420 C   0  0  0  0  0
   12.6300  -11.4990   34.7080 C   0  0  0  0  0
   14.3700  -18.2180   37.6780 N   0  0  0  0  0
   14.4540  -19.6620   37.9750 C   0  0  0  0  0
   13.1510  -20.4420   37.6900 C   0  0  0  0  0
   13.2040  -21.6640   37.5390 O   0  0  0  0  0
   14.9460  -19.9100   39.4090 C   0  0  0  0  0
   14.0140  -19.3550   40.3360 O   0  0  0  0  0
   16.3380  -19.3530   39.6610 C   0  0  0  0  0
   12.0000  -19.7450   37.6180 N   0  0  0  0  0
   10.6930  -20.3380   37.3230 C   0  0  0  0  0
    9.8790  -19.4210   36.4010 C   0  0  0  0  0
   10.2480  -18.2550   36.2190 O   0  0  0  0  0
    9.9270  -20.6330   38.6140 C   0  0  0  0  0
    9.4590  -19.4680   39.2750 O   0  0  0  0  0
    8.7800  -19.9420   35.8200 N   0  0  0  0  0
    7.9000  -19.1520   34.9560 C   0  0  0  0  0
    7.0900  -18.1650   35.7940 C   0  0  0  0  0
    6.8720  -17.0320   35.3580 O   0  0  0  0  0
    6.9710  -20.0540   34.1270 C   0  0  0  0  0
    6.0210  -19.2950   33.2470 C   0  0  0  0  0
    4.6860  -19.1150   33.4520 C   0  0  0  0  0
    6.3510  -18.5450   32.0690 C   0  0  0  0  0
    4.1550  -18.3330   32.4530 N   0  0  0  0  0
    5.1560  -17.9670   31.5910 C   0  0  0  0  0
    7.5440  -18.3120   31.3610 C   0  0  0  0  0
    5.1150  -17.1820   30.4350 C   0  0  0  0  0
    7.5040  -17.5240   30.2230 C   0  0  0  0  0
    6.3030  -16.9700   29.7700 C   0  0  0  0  0
    6.6720  -18.6020   37.0080 N   0  0  0  0  0
    5.9030  -17.8250   37.9960 C   0  0  0  0  0
    6.6890  -16.6050   38.4770 C   0  0  0  0  0
    6.0920  -15.5440   38.6670 O   0  0  0  0  0
    5.5010  -18.6960   39.2020 C   0  0  0  0  0
    4.4120  -19.7230   38.9160 C   0  0  0  0  0
    4.8320  -20.9840   38.1800 C   0  0  0  0  0
    5.9630  -21.4720   38.4160 O   0  0  0  0  0
    4.0160  -21.4970   37.3780 O   0  0  0  0  0
    8.0290  -16.7580   38.6490 N   0  0  0  0  0
    8.9540  -15.6970   39.0580 C   0  0  0  0  0
    8.9130  -14.5510   38.0380 C   0  0  0  0  0
    8.8090  -13.3870   38.4360 O   0  0  0  0  0
   10.3790  -16.2470   39.1930 C   0  0  0  0  0
   11.2560  -15.4040   40.0970 C   0  0  0  0  0
   12.7390  -15.7030   40.0160 C   0  0  0  0  0
   13.1560  -16.7710   40.5190 O   0  0  0  0  0
   13.4900  -14.8560   39.4780 O   0  0  0  0  0
    8.9450  -14.8960   36.7260 N   0  0  0  0  0
    8.8750  -13.9630   35.5960 C   0  0  0  0  0
    7.5570  -13.1780   35.6220 C   0  0  0  0  0
    7.5590  -11.9720   35.3580 O   0  0  0  0  0
    9.0520  -14.7220   34.2570 C   0  0  0  0  0
    8.4520  -14.0290   33.0500 C   0  0  0  0  0
    9.1240  -12.9930   32.4100 C   0  0  0  0  0
    7.2090  -14.4090   32.5480 C   0  0  0  0  0
    8.5670  -12.3360   31.3140 C   0  0  0  0  0
    6.6410  -13.7590   31.4530 C   0  0  0  0  0
    7.3270  -12.7260   30.8350 C   0  0  0  0  0
    6.7810  -12.0830   29.7520 O   0  0  0  0  0
    6.4410  -13.8710   35.9330 N   0  0  0  0  0
    5.1030  -13.2820   36.0000 C   0  0  0  0  0
    4.9260  -12.2640   37.1380 C   0  0  0  0  0
    4.2220  -11.2730   36.9370 O   0  0  0  0  0
    4.0150  -14.3650   36.0540 C   0  0  0  0  0
    3.8200  -15.2180   34.7880 C   0  0  0  0  0
    2.9490  -16.4120   35.0750 C   0  0  0  0  0
    3.2350  -14.4040   33.6370 C   0  0  0  0  0
    5.5700  -12.4860   38.3120 N   0  0  0  0  0
    5.5090  -11.5540   39.4520 C   0  0  0  0  0
    6.3290  -10.2960   39.1500 C   0  0  0  0  0
    6.0360   -9.2240   39.6900 O   0  0  0  0  0
    6.0590  -12.1920   40.7430 C   0  0  0  0  0
    5.6530  -13.6250   41.0210 C   0  0  0  0  0
    4.4940  -13.9880   40.7070 O   0  0  0  0  0
    6.4930  -14.3840   41.5650 O   0  0  0  0  0
    7.3770  -10.4480   38.3120 N   0  0  0  0  0
    8.2890   -9.3890   37.8890 C   0  0  0  0  0
    7.6320   -8.4810   36.8430 C   0  0  0  0  0
    7.6030   -7.2600   37.0170 O   0  0  0  0  0
    9.5930  -10.0080   37.3490 C   0  0  0  0  0
   10.5560   -9.0330   36.7420 C   0  0  0  0  0
   10.5700   -8.5900   35.4520 C   0  0  0  0  0
   11.6950   -8.4410   37.3830 C   0  0  0  0  0
   11.6250   -7.7280   35.2580 N   0  0  0  0  0
   12.3440   -7.6340   36.4220 C   0  0  0  0  0
   12.2490   -8.5370   38.6710 C   0  0  0  0  0
   13.5070   -6.9110   36.7140 C   0  0  0  0  0
   13.3900   -7.8090   38.9620 C   0  0  0  0  0
   14.0100   -7.0110   37.9900 C   0  0  0  0  0
    7.1470   -9.0760   35.7420 N   0  0  0  0  0
    6.5220   -8.3250   34.6570 C   0  0  0  0  0
    5.1010   -7.8640   35.0550 C   0  0  0  0  0
    4.5020   -8.4560   35.9550 O   0  0  0  0  0
    6.5880   -9.0930   33.3070 C   0  0  0  0  0
    5.5170  -10.1830   33.2030 C   0  0  0  0  0
    6.5250   -8.1370   32.1230 C   0  0  0  0  0
    4.7530   -6.6320   34.6650 N   0  0  0  0  0
   20.7266   -9.4084   31.5216 H   0  0  0  0  0
   19.7141  -10.4756   30.5180 H   0  0  0  0  0
   18.9983   -9.0430   31.2967 H   0  0  0  0  0
   17.7932   -9.4833   32.9774 H   0  0  0  0  0
   18.6251  -11.0908   35.2274 H   0  0  0  0  0
   15.8096  -10.2234   34.5720 H   0  0  0  0  0
   17.3558   -8.4608   34.4294 H   0  0  0  0  0
   17.1708  -10.6161   37.2459 H   0  0  0  0  0
   15.4927  -10.0826   36.9809 H   0  0  0  0  0
   15.9946  -11.7193   36.4907 H   0  0  0  0  0
   18.3945  -13.1734   35.7030 H   0  0  0  0  0
   16.9032  -14.9186   33.7776 H   0  0  0  0  0
   19.1857  -15.6070   35.5998 H   0  0  0  0  0
   17.6387  -17.4833   35.4483 H   0  0  0  0  0
   17.6260  -17.3577   33.6720 H   0  0  0  0  0
   19.1193  -17.8278   34.5208 H   0  0  0  0  0
   18.9738  -15.4445   32.5693 H   0  0  0  0  0
   19.8766  -14.3323   33.6272 H   0  0  0  0  0
   20.3915  -16.0300   33.4738 H   0  0  0  0  0
   15.0607  -15.8530   34.4176 H   0  0  0  0  0
   14.3309  -15.7308   37.3165 H   0  0  0  0  0
   12.0883  -15.7733   36.6953 H   0  0  0  0  0
   12.5181  -16.2353   34.9663 H   0  0  0  0  0
   12.6069  -13.4645   37.4711 H   0  0  0  0  0
   12.8094  -14.5977   33.3424 H   0  0  0  0  0
   12.5461  -11.0729   36.8054 H   0  0  0  0  0
   12.7182  -12.2048   32.6874 H   0  0  0  0  0
   12.5968  -10.4488   34.4180 H   0  0  0  0  0
   14.4731  -17.5705   38.4593 H   0  0  0  0  0
   15.1920  -20.0586   37.2778 H   0  0  0  0  0
   15.0141  -20.9890   39.5479 H   0  0  0  0  0
   14.3233  -19.5111   41.2313 H   0  0  0  0  0
   17.0458  -19.8255   38.9799 H   0  0  0  0  0
   16.3331  -18.2761   39.4924 H   0  0  0  0  0
   16.6296  -19.5595   40.6908 H   0  0  0  0  0
   12.0413  -18.7387   37.7794 H   0  0  0  0  0
   10.8556  -21.2829   36.8045 H   0  0  0  0  0
   10.6127  -21.1407   39.2924 H   0  0  0  0  0
    9.0551  -21.2304   38.3477 H   0  0  0  0  0
    8.9895  -19.7211   40.0732 H   0  0  0  0  0
    8.5530  -20.9221   35.9882 H   0  0  0  0  0
    8.5221  -18.5927   34.2573 H   0  0  0  0  0
    6.3721  -20.6364   34.8272 H   0  0  0  0  0
    7.6011  -20.6623   33.4781 H   0  0  0  0  0
    4.1210  -19.5304   34.2865 H   0  0  0  0  0
    8.4844  -18.7446   31.7025 H   0  0  0  0  0
    4.1797  -16.7543   30.0738 H   0  0  0  0  0
    8.4243  -17.3325   29.6712 H   0  0  0  0  0
    6.3065  -16.3559   28.8695 H   0  0  0  0  0
    6.9130  -19.5602   37.2613 H   0  0  0  0  0
    4.9970  -17.4807   37.4972 H   0  0  0  0  0
    5.1069  -18.0210   39.9617 H   0  0  0  0  0
    6.3896  -19.2525   39.4999 H   0  0  0  0  0
    3.6940  -19.2232   38.2657 H   0  0  0  0  0
    4.0497  -20.0526   39.8898 H   0  0  0  0  0
    6.4201  -20.9224   39.0568 H   0  0  0  0  0
    8.4216  -17.6842   38.4801 H   0  0  0  0  0
    8.6452  -15.3151   40.0311 H   0  0  0  0  0
   10.8297  -16.2486   38.2006 H   0  0  0  0  0
   10.3105  -17.2427   39.6313 H   0  0  0  0  0
   10.9485  -15.6181   41.1206 H   0  0  0  0  0
   11.1273  -14.3685   39.7819 H   0  0  0  0  0
   12.9634  -14.1184   39.1613 H   0  0  0  0  0
    9.0245  -15.8890   36.5067 H   0  0  0  0  0
    9.6900  -13.2449   35.6861 H   0  0  0  0  0
    8.5359  -15.6762   34.3633 H   0  0  0  0  0
   10.1241  -14.8002   34.0767 H   0  0  0  0  0
   10.1058  -12.6888   32.7727 H   0  0  0  0  0
    6.6702  -15.2303   33.0205 H   0  0  0  0  0
    9.1054  -11.5180   30.8354 H   0  0  0  0  0
    5.6610  -14.0624   31.0846 H   0  0  0  0  0
    5.9264  -12.4703   29.5487 H   0  0  0  0  0
    6.5362  -14.8665   36.1337 H   0  0  0  0  0
    4.9878  -12.7175   35.0747 H   0  0  0  0  0
    3.0741  -13.8361   36.2059 H   0  0  0  0  0
    4.3220  -15.0582   36.8371 H   0  0  0  0  0
    4.8066  -15.5659   34.4818 H   0  0  0  0  0
    3.4182  -17.0260   35.8437 H   0  0  0  0  0
    1.9736  -16.0731   35.4241 H   0  0  0  0  0
    2.8268  -16.9983   34.1643 H   0  0  0  0  0
    2.2649  -14.0044   33.9326 H   0  0  0  0  0
    3.9094  -13.5826   33.3951 H   0  0  0  0  0
    3.1144  -15.0458   32.7643 H   0  0  0  0  0
    6.1222  -13.3380   38.4098 H   0  0  0  0  0
    4.4594  -11.3010   39.6018 H   0  0  0  0  0
    5.6555  -11.6010   41.5652 H   0  0  0  0  0
    7.1434  -12.2032   40.6337 H   0  0  0  0  0
    7.3088  -13.9009   41.7156 H   0  0  0  0  0
    7.5461  -11.3836   37.9425 H   0  0  0  0  0
    8.5294   -8.7681   38.7520 H   0  0  0  0  0
    9.3072  -10.7008   36.5575 H   0  0  0  0  0
   10.1007  -10.4620   38.2000 H   0  0  0  0  0
    9.8499   -8.8772   34.6858 H   0  0  0  0  0
   11.7887   -9.1731   39.4271 H   0  0  0  0  0
   13.9944   -6.2933   35.9597 H   0  0  0  0  0
   13.8141   -7.8570   39.9650 H   0  0  0  0  0
   14.9115   -6.4571   38.2518 H   0  0  0  0  0
    7.2176  -10.0903   35.6602 H   0  0  0  0  0
    7.0971   -7.4147   34.4876 H   0  0  0  0  0
    7.5533   -9.5985   33.2785 H   0  0  0  0  0
    5.6550  -10.9042   34.0086 H   0  0  0  0  0
    4.5294   -9.7292   33.2851 H   0  0  0  0  0
    5.6072  -10.6886   32.2416 H   0  0  0  0  0
    5.5904   -7.5772   32.1590 H   0  0  0  0  0
    7.3662   -7.4455   32.1708 H   0  0  0  0  0
    6.5735   -8.7065   31.1949 H   0  0  0  0  0
    3.9717   -6.1560   35.1159 H   0  0  0  0  0
    5.2691   -6.1691   33.9169 H   0  0  0  0  0
  1  2  2  0  0  0
  1  3  1  0  0  0
  1  4  1  0  0  0
  4  5  1  0  0  0
  5  6  1  0  0  0
  5  8  1  0  0  0
  6  7  2  0  0  0
  6 11  1  0  0  0
  8  9  1  0  0  0
  8 10  1  0  0  0
 11 12  1  0  0  0
 12 13  1  0  0  0
 12 15  1  0  0  0
 13 14  2  0  0  0
 13 18  1  0  0  0
 15 16  1  0  0  0
 15 17  1  0  0  0
 18 19  1  0  0  0
 19 20  1  0  0  0
 19 22  1  0  0  0
 20 21  2  0  0  0
 20 29  1  0  0  0
 22 23  1  0  0  0
 23 24  4  0  0  0
 23 25  4  0  0  0
 24 26  4  0  0  0
 25 27  4  0  0  0
 26 28  4  0  0  0
 27 28  4  0  0  0
 29 30  1  0  0  0
 30 31  1  0  0  0
 30 33  1  0  0  0
 31 32  2  0  0  0
 31 36  1  0  0  0
 33 34  1  0  0  0
 33 35  1  0  0  0
 36 37  1  0  0  0
 37 38  1  0  0  0
 37 40  1  0  0  0
 38 39  2  0  0  0
 38 42  1  0  0  0
 40 41  1  0  0  0
 42 43  1  0  0  0
 43 44  1  0  0  0
 43 46  1  0  0  0
 44 45  2  0  0  0
 44 56  1  0  0  0
 46 47  1  0  0  0
 47 48  4  0  0  0
 47 49  4  0  0  0
 48 50  4  0  0  0
 49 51  4  0  0  0
 49 52  4  0  0  0
 50 51  4  0  0  0
 51 53  4  0  0  0
 52 54  4  0  0  0
 53 55  4  0  0  0
 54 55  4  0  0  0
 56 57  1  0  0  0
 57 58  1  0  0  0
 57 60  1  0  0  0
 58 59  2  0  0  0
 58 65  1  0  0  0
 60 61  1  0  0  0
 61 62  1  0  0  0
 62 63  1  0  0  0
 62 64  2  0  0  0
 65 66  1  0  0  0
 66 67  1  0  0  0
 66 69  1  0  0  0
 67 68  2  0  0  0
 67 74  1  0  0  0
 69 70  1  0  0  0
 70 71  1  0  0  0
 71 72  2  0  0  0
 71 73  1  0  0  0
 74 75  1  0  0  0
 75 76  1  0  0  0
 75 78  1  0  0  0
 76 77  2  0  0  0
 76 86  1  0  0  0
 78 79  1  0  0  0
 79 80  4  0  0  0
 79 81  4  0  0  0
 80 82  4  0  0  0
 81 83  4  0  0  0
 82 84  4  0  0  0
 83 84  4  0  0  0
 84 85  1  0  0  0
 86 87  1  0  0  0
 87 88  1  0  0  0
 87 90  1  0  0  0
 88 89  2  0  0  0
 88 94  1  0  0  0
 90 91  1  0  0  0
 91 92  1  0  0  0
 91 93  1  0  0  0
 94 95  1  0  0  0
 95 96  1  0  0  0
 95 98  1  0  0  0
 96 97  2  0  0  0
 96102  1  0  0  0
 98 99  1  0  0  0
 99100  2  0  0  0
 99101  1  0  0  0
102103  1  0  0  0
103104  1  0  0  0
103106  1  0  0  0
104105  2  0  0  0
104116  1  0  0  0
106107  1  0  0  0
107108  4  0  0  0
107109  4  0  0  0
108110  4  0  0  0
109111  4  0  0  0
109112  4  0  0  0
110111  4  0  0  0
111113  4  0  0  0
112114  4  0  0  0
113115  4  0  0  0
114115  4  0  0  0
116117  1  0  0  0
117118  1  0  0  0
117120  1  0  0  0
118119  2  0  0  0
118123  1  0  0  0
120121  1  0  0  0
120122  1  0  0  0
  3124  1  0  0  0
  3125  1  0  0  0
  3126  1  0  0  0
  4127  1  0  0  0
  5128  1  0  0  0
  8129  1  0  0  0
  9130  1  0  0  0
 10131  1  0  0  0
 10132  1  0  0  0
 10133  1  0  0  0
 11134  1  0  0  0
 12135  1  0  0  0
 15136  1  0  0  0
 16137  1  0  0  0
 16138  1  0  0  0
 16139  1  0  0  0
 17140  1  0  0  0
 17141  1  0  0  0
 17142  1  0  0  0
 18143  1  0  0  0
 19144  1  0  0  0
 22145  1  0  0  0
 22146  1  0  0  0
 24147  1  0  0  0
 25148  1  0  0  0
 26149  1  0  0  0
 27150  1  0  0  0
 28151  1  0  0  0
 29152  1  0  0  0
 30153  1  0  0  0
 33154  1  0  0  0
 34155  1  0  0  0
 35156  1  0  0  0
 35157  1  0  0  0
 35158  1  0  0  0
 36159  1  0  0  0
 37160  1  0  0  0
 40161  1  0  0  0
 40162  1  0  0  0
 41163  1  0  0  0
 42164  1  0  0  0
 43165  1  0  0  0
 46166  1  0  0  0
 46167  1  0  0  0
 48168  1  0  0  0
 52169  1  0  0  0
 53170  1  0  0  0
 54171  1  0  0  0
 55172  1  0  0  0
 56173  1  0  0  0
 57174  1  0  0  0
 60175  1  0  0  0
 60176  1  0  0  0
 61177  1  0  0  0
 61178  1  0  0  0
 63179  1  0  0  0
 65180  1  0  0  0
 66181  1  0  0  0
 69182  1  0  0  0
 69183  1  0  0  0
 70184  1  0  0  0
 70185  1  0  0  0
 73186  1  0  0  0
 74187  1  0  0  0
 75188  1  0  0  0
 78189  1  0  0  0
 78190  1  0  0  0
 80191  1  0  0  0
 81192  1  0  0  0
 82193  1  0  0  0
 83194  1  0  0  0
 85195  1  0  0  0
 86196  1  0  0  0
 87197  1  0  0  0
 90198  1  0  0  0
 90199  1  0  0  0
 91200  1  0  0  0
 92201  1  0  0  0
 92202  1  0  0  0
 92203  1  0  0  0
 93204  1  0  0  0
 93205  1  0  0  0
 93206  1  0  0  0
 94207  1  0  0  0
 95208  1  0  0  0
 98209  1  0  0  0
 98210  1  0  0  0
101211  1  0  0  0
102212  1  0  0  0
103213  1  0  0  0
106214  1  0  0  0
106215  1  0  0  0
108216  1  0  0  0
112217  1  0  0  0
113218  1  0  0  0
114219  1  0  0  0
115220  1  0  0  0
116221  1  0  0  0
117222  1  0  0  0
120223  1  0  0  0
121224  1  0  0  0
121225  1  0  0  0
121226  1  0  0  0
122227  1  0  0  0
122228  1  0  0  0
122229  1  0  0  0
123230  1  0  0  0
123231  1  0  0  0
M  END
$$$$
