1qcp_ligand
  -I-interpret- 

 54 56  0  0  0  0  0  0  0  0999 V2000
   42.5780   24.5400   50.1400 C   0  0  0  0  0
   42.4600   25.9900   49.9070 C   0  0  0  0  0
   40.9830   26.2770   49.7880 C   0  0  0  0  0
   40.2300   24.9390   49.9820 C   0  0  0  0  0
   41.2720   23.8560   50.1580 C   0  0  0  0  0
   43.7960   23.8010   49.6310 C   0  0  0  0  0
   44.9000   24.3400   49.6020 O   0  0  0  0  0
   43.6020   22.5540   49.2140 N   0  0  0  0  0
   44.6940   21.6910   48.7430 C   0  0  0  0  0
   44.6670   20.4120   49.5810 C   0  0  0  0  0
   45.5690   20.3120   50.7810 C   0  0  0  0  0
   45.3570   18.9440   51.4400 C   0  0  0  0  0
   45.7970   18.9510   52.8320 N   0  0  0  0  0
   45.8730   17.8830   53.6230 C   0  0  0  0  0
   45.5360   16.6800   53.1820 N   0  0  0  0  0
   46.3080   18.0280   54.8680 N   0  0  0  0  0
   45.4720   20.4110   46.8570 O   0  0  0  0  0
   43.3920   23.1090   45.7860 N   0  0  0  0  0
   44.5070   22.5840   46.3940 C   0  0  0  0  0
   45.8900   23.5580   46.1550 S   0  0  0  0  0
   43.6080   24.2810   45.1280 C   0  0  0  0  0
   44.9700   24.7220   45.2100 C   0  0  0  0  0
   45.3600   25.8960   44.5780 C   0  0  0  0  0
   44.4360   26.6540   43.8570 C   0  0  0  0  0
   43.1030   26.2430   43.7750 C   0  0  0  0  0
   42.6950   25.0580   44.4110 C   0  0  0  0  0
   44.4710   21.3240   47.2760 C   0  0  0  0  0
   42.9220   24.4720   51.1721 H   0  0  0  0  0
   42.9928   26.2881   49.0040 H   0  0  0  0  0
   42.9066   26.5574   50.7235 H   0  0  0  0  0
   40.7557   26.7033   48.8109 H   0  0  0  0  0
   40.6740   27.0004   50.5425 H   0  0  0  0  0
   39.5995   24.7264   49.1187 H   0  0  0  0  0
   39.5795   24.9894   50.8552 H   0  0  0  0  0
   41.1236   23.3141   51.0920 H   0  0  0  0  0
   41.2055   23.1121   49.3641 H   0  0  0  0  0
   42.6532   22.1796   49.2213 H   0  0  0  0  0
   45.6496   22.2065   48.8391 H   0  0  0  0  0
   45.0060   19.6255   48.9067 H   0  0  0  0  0
   43.6553   20.3593   49.9832 H   0  0  0  0  0
   45.3330   21.1058   51.4897 H   0  0  0  0  0
   46.6092   20.4183   50.4731 H   0  0  0  0  0
   45.9415   18.2025   50.8954 H   0  0  0  0  0
   44.2932   18.7077   51.4138 H   0  0  0  0  0
   46.0689   19.8491   53.2318 H   0  0  0  0  0
   45.2120   16.5610   52.2222 H   0  0  0  0  0
   46.3816   17.2156   55.4804 H   0  0  0  0  0
   46.5688   18.9519   55.2128 H   0  0  0  0  0
   45.3295   20.1823   45.9356 H   0  0  0  0  0
   46.3960   26.2279   44.6457 H   0  0  0  0  0
   44.7549   27.5685   43.3569 H   0  0  0  0  0
   42.3808   26.8405   43.2187 H   0  0  0  0  0
   41.6541   24.7416   44.3440 H   0  0  0  0  0
   43.4906   20.8587   47.1741 H   0  0  0  0  0
  1  2  1  0  0  0
  1  5  1  0  0  0
  6  1  1  0  0  0
  2  3  1  0  0  0
  4  3  1  0  0  0
  5  4  1  0  0  0
  6  7  2  0  0  0
  8  6  1  0  0  0
  9  8  1  0  0  0
  9 10  1  0  0  0
 27  9  1  0  0  0
 10 11  1  0  0  0
 11 12  1  0  0  0
 12 13  1  0  0  0
 13 14  1  0  0  0
 14 15  2  0  0  0
 14 16  1  0  0  0
 27 17  1  0  0  0
 19 18  4  0  0  0
 18 21  4  0  0  0
 19 20  4  0  0  0
 19 27  1  0  0  0
 20 22  4  0  0  0
 21 22  4  0  0  0
 21 26  4  0  0  0
 22 23  4  0  0  0
 23 24  4  0  0  0
 24 25  4  0  0  0
 25 26  4  0  0  0
  1 28  1  0  0  0
  2 29  1  0  0  0
  2 30  1  0  0  0
  3 31  1  0  0  0
  3 32  1  0  0  0
  4 33  1  0  0  0
  4 34  1  0  0  0
  5 35  1  0  0  0
  5 36  1  0  0  0
  8 37  1  0  0  0
  9 38  1  0  0  0
 10 39  1  0  0  0
 10 40  1  0  0  0
 11 41  1  0  0  0
 11 42  1  0  0  0
 12 43  1  0  0  0
 12 44  1  0  0  0
 13 45  1  0  0  0
 15 46  1  0  0  0
 16 47  1  0  0  0
 16 48  1  0  0  0
 17 49  1  0  0  0
 23 50  1  0  0  0
 24 51  1  0  0  0
 25 52  1  0  0  0
 26 53  1  0  0  0
 27 54  1  0  0  0
M  END
$$$$
