5aac_ligand
  -I-interpret- 

 53 56  0  0  0  0  0  0  0  0999 V2000
   33.0860   46.1050    6.5250 Cl  0  0  0  0  0
   33.5540   45.7790    8.1740 C   0  0  0  0  0
   34.3830   46.7560    8.7980 C   0  0  0  0  0
   34.8240   46.5970   10.1360 C   0  0  0  0  0
   34.4490   45.4550   10.8930 C   0  0  0  0  0
   34.8920   45.3500   12.1560 F   0  0  0  0  0
   33.1420   44.5860    8.9150 C   0  0  0  0  0
   33.6100   44.4390   10.3060 C   0  0  0  0  0
   33.1970   43.0630   11.3190 Cl  0  0  0  0  0
   32.2290   43.5170    8.2150 C   0  0  0  0  0
   32.9000   42.1330    8.1620 C   0  0  0  0  0
   30.9190   43.3120    8.8620 O   0  0  0  0  0
   29.9410   44.3060    9.0640 C   0  0  0  0  0
   29.8320   45.5310    8.3070 C   0  0  0  0  0
   28.9470   44.1100   10.0870 C   0  0  0  0  0
   28.9820   42.9360   10.8700 N   0  0  0  0  0
   27.9510   44.9920   10.3590 N   0  0  0  0  0
   27.8800   46.1390    9.6260 C   0  0  0  0  0
   28.7930   46.4750    8.5800 C   0  0  0  0  0
   28.6770   47.7680    7.7890 C   0  0  0  0  0
   29.7350   48.4750    7.0590 C   0  0  0  0  0
   27.5390   48.5450    7.5990 C   0  0  0  0  0
   27.9840   49.6170    6.7980 N   0  0  0  0  0
   29.2390   49.5320    6.5190 N   0  0  0  0  0
   27.1420   50.7360    6.3110 C   0  0  0  0  0
   26.8310   51.7150    7.4670 C   0  0  0  0  0
   25.9510   52.8720    6.9400 C   0  0  0  0  0
   24.7060   52.3810    6.2800 N   0  3  0  0  0
   24.9800   51.4030    5.1870 C   0  0  0  0  0
   25.8310   50.2090    5.6750 C   0  0  0  0  0
   34.6832   47.6409    8.2368 H   0  0  0  0  0
   35.4578   47.3595   10.5888 H   0  0  0  0  0
   32.0774   43.9356    7.2201 H   0  0  0  0  0
   33.0174   41.7485    9.1752 H   0  0  0  0  0
   32.2776   41.4508    7.5829 H   0  0  0  0  0
   33.8786   42.2229    7.6905 H   0  0  0  0  0
   30.5523   45.7392    7.5158 H   0  0  0  0  0
   29.7067   42.2366   10.7084 H   0  0  0  0  0
   28.2826   42.7871   11.5974 H   0  0  0  0  0
   27.0783   46.8422    9.8516 H   0  0  0  0  0
   30.7747   48.1559    6.9859 H   0  0  0  0  0
   26.5340   48.3663    7.9814 H   0  0  0  0  0
   27.6971   51.2708    5.5403 H   0  0  0  0  0
   27.7633   52.1185    7.8621 H   0  0  0  0  0
   26.2999   51.1859    8.2582 H   0  0  0  0  0
   26.5291   53.4272    6.2013 H   0  0  0  0  0
   25.6620   53.4911    7.7893 H   0  0  0  0  0
   24.2318   53.1851    5.8688 H   0  0  0  0  0
   24.1418   51.9099    6.9872 H   0  0  0  0  0
   25.5343   51.9172    4.4019 H   0  0  0  0  0
   24.0256   51.0166    4.8295 H   0  0  0  0  0
   25.2694   49.6414    6.4170 H   0  0  0  0  0
   26.0706   49.5637    4.8298 H   0  0  0  0  0
  1  2  1  0  0  0
  2  3  4  0  0  0
  2  7  4  0  0  0
  3  4  4  0  0  0
  4  5  4  0  0  0
  5  6  1  0  0  0
  5  8  4  0  0  0
  7  8  4  0  0  0
  7 10  1  0  0  0
  8  9  1  0  0  0
 10 11  1  0  0  0
 10 12  1  0  0  0
 12 13  1  0  0  0
 13 14  4  0  0  0
 13 15  4  0  0  0
 14 19  4  0  0  0
 15 16  1  0  0  0
 15 17  4  0  0  0
 17 18  4  0  0  0
 18 19  4  0  0  0
 19 20  1  0  0  0
 20 21  4  0  0  0
 20 22  4  0  0  0
 21 24  4  0  0  0
 22 23  4  0  0  0
 23 24  4  0  0  0
 23 25  1  0  0  0
 25 26  1  0  0  0
 25 30  1  0  0  0
 26 27  1  0  0  0
 27 28  1  0  0  0
 28 29  1  0  0  0
 29 30  1  0  0  0
  3 31  1  0  0  0
  4 32  1  0  0  0
 10 33  1  0  0  0
 11 34  1  0  0  0
 11 35  1  0  0  0
 11 36  1  0  0  0
 14 37  1  0  0  0
 16 38  1  0  0  0
 16 39  1  0  0  0
 18 40  1  0  0  0
 21 41  1  0  0  0
 22 42  1  0  0  0
 25 43  1  0  0  0
 26 44  1  0  0  0
 26 45  1  0  0  0
 27 46  1  0  0  0
 27 47  1  0  0  0
 28 48  1  0  0  0
 28 49  1  0  0  0
 29 50  1  0  0  0
 29 51  1  0  0  0
 30 52  1  0  0  0
 30 53  1  0  0  0
M  END
$$$$
