5ti3_ligand
  -I-interpret- 

 38 40  0  0  0  0  0  0  0  0999 V2000
   45.8200   37.6500   74.6640 C   0  0  0  0  0
   48.7260   36.6150   77.4700 C   0  0  0  0  0
   48.6830   39.8910   80.2280 C   0  0  0  0  0
   50.9510   37.3140   76.8180 C   0  0  0  0  0
   50.9690   36.3070   75.8350 C   0  0  0  0  0
   45.7410   36.3900   77.3030 O   0  0  0  0  0
   46.1010   35.3850   76.0920 S   0  0  0  0  0
   46.2020   36.3140   74.5840 C   0  0  0  0  0
   46.6630   35.8320   73.3250 C   0  0  0  0  0
   47.2330   34.0940   73.0340 Br  0  0  0  0  0
   46.7160   36.6480   72.1780 C   0  0  0  0  0
   46.3060   37.9740   72.2730 C   0  0  0  0  0
   45.8680   38.4310   73.5190 C   0  0  0  0  0
   45.3160   40.1510   73.7150 Br  0  0  0  0  0
   47.6780   34.7410   76.3270 N   0  0  0  0  0
   48.7290   35.5870   76.5100 C   0  0  0  0  0
   49.8120   37.4850   77.6490 C   0  0  0  0  0
   49.7000   38.4430   78.6320 N   0  0  0  0  0
   48.4820   38.6220   79.3700 C   0  0  0  0  0
   50.1980   40.1790   80.1470 C   0  0  0  0  0
   50.6610   39.2990   79.0600 C   0  0  0  0  0
   51.8280   39.3740   78.6190 O   0  0  0  0  0
   49.8530   35.4470   75.6810 C   0  0  0  0  0
   45.0340   34.1860   76.0080 O   0  0  0  0  0
   45.4885   38.0755   75.6112 H   0  0  0  0  0
   47.8452   36.7407   78.0997 H   0  0  0  0  0
   48.3499   39.7455   81.2556 H   0  0  0  0  0
   48.0886   40.7285   79.8629 H   0  0  0  0  0
   51.8156   37.9660   76.9422 H   0  0  0  0  0
   51.8412   36.1885   75.1921 H   0  0  0  0  0
   47.0731   36.2463   71.2297 H   0  0  0  0  0
   46.3257   38.6337   71.4056 H   0  0  0  0  0
   47.8251   33.7317   76.3293 H   0  0  0  0  0
   47.6285   38.7303   78.7008 H   0  0  0  0  0
   48.2688   37.7543   79.9943 H   0  0  0  0  0
   50.7103   39.9826   81.0888 H   0  0  0  0  0
   50.4125   41.2298   79.9522 H   0  0  0  0  0
   49.8677   34.6724   74.9143 H   0  0  0  0  0
  8  1  4  0  0  0
  1 13  4  0  0  0
  2 16  4  0  0  0
 17  2  4  0  0  0
 19  3  1  0  0  0
  3 20  1  0  0  0
  4  5  4  0  0  0
 17  4  4  0  0  0
  5 23  4  0  0  0
  7  6  2  0  0  0
  7  8  1  0  0  0
 15  7  1  0  0  0
  7 24  2  0  0  0
  8  9  4  0  0  0
  9 10  1  0  0  0
  9 11  4  0  0  0
 11 12  4  0  0  0
 13 12  4  0  0  0
 13 14  1  0  0  0
 16 15  1  0  0  0
 16 23  4  0  0  0
 18 17  1  0  0  0
 18 19  1  0  0  0
 18 21  1  0  0  0
 20 21  1  0  0  0
 21 22  2  0  0  0
  1 25  1  0  0  0
  2 26  1  0  0  0
  3 27  1  0  0  0
  3 28  1  0  0  0
  4 29  1  0  0  0
  5 30  1  0  0  0
 11 31  1  0  0  0
 12 32  1  0  0  0
 15 33  1  0  0  0
 19 34  1  0  0  0
 19 35  1  0  0  0
 20 36  1  0  0  0
 20 37  1  0  0  0
 23 38  1  0  0  0
M  END
$$$$
