4cwo_ligand
  -I-interpret- 

 36 39  0  0  0  0  0  0  0  0999 V2000
    6.4160    8.8860   22.9160 N   0  0  0  0  0
    5.8600    9.9440   23.5680 C   0  0  0  0  0
    4.5470    9.9200   23.8950 N   0  0  0  0  0
    6.5790   11.0490   23.9160 N   0  0  0  0  0
    5.6540   11.8240   24.5210 C   0  0  0  0  0
    5.7770   13.0870   25.0970 C   0  0  0  0  0
    6.9790   13.7990   25.1330 C   0  0  0  0  0
    7.0060   15.0670   25.7310 C   0  0  0  0  0
    5.8480   15.6190   26.2930 C   0  0  0  0  0
    4.6520   14.9040   26.2430 C   0  0  0  0  0
    4.6130   13.6400   25.6470 C   0  0  0  0  0
    3.4450   12.9360   25.6090 N   0  0  0  0  0
    4.4890   11.1760   24.4970 N   0  0  0  0  0
    3.3800   11.7120   25.0250 C   0  0  0  0  0
    2.1120   10.8840   25.0270 C   0  0  0  0  0
    0.7880   11.4280   24.5420 C   0  0  0  0  0
    0.7140   12.1360   23.3430 C   0  0  0  0  0
   -0.3650   11.1300   25.2860 C   0  0  0  0  0
   -1.6120   11.5730   24.8330 C   0  0  0  0  0
   -2.7400   11.3260   25.5480 O   0  0  0  0  0
   -1.7030   12.2900   23.6450 C   0  0  0  0  0
   -0.5380   12.5730   22.9060 C   0  0  0  0  0
   -0.6240   13.2550   21.7310 O   0  0  0  0  0
    5.8431    8.0772   22.6749 H   0  0  0  0  0
    7.4054    8.9021   22.6686 H   0  0  0  0  0
    7.8849   13.3736   24.7013 H   0  0  0  0  0
    7.9391   15.6297   25.7588 H   0  0  0  0  0
    5.8815   16.6004   26.7660 H   0  0  0  0  0
    3.7449   15.3318   26.6698 H   0  0  0  0  0
    1.9351   10.6953   26.0859 H   0  0  0  0  0
    2.3312   10.0844   24.3194 H   0  0  0  0  0
    1.6119   12.3433   22.7609 H   0  0  0  0  0
   -0.2888   10.5573   26.2103 H   0  0  0  0  0
   -3.4962   11.7002   25.0900 H   0  0  0  0  0
   -2.6738   12.6322   23.2865 H   0  0  0  0  0
   -1.5402   13.4879   21.5638 H   0  0  0  0  0
  1  2  1  0  0  0
  2  3  4  0  0  0
  2  4  4  0  0  0
  3 13  4  0  0  0
  4  5  4  0  0  0
  5  6  4  0  0  0
  5 13  4  0  0  0
  6  7  4  0  0  0
  6 11  4  0  0  0
  7  8  4  0  0  0
  8  9  4  0  0  0
  9 10  4  0  0  0
 10 11  4  0  0  0
 11 12  4  0  0  0
 12 14  4  0  0  0
 13 14  4  0  0  0
 14 15  1  0  0  0
 15 16  1  0  0  0
 16 17  4  0  0  0
 16 18  4  0  0  0
 17 22  4  0  0  0
 18 19  4  0  0  0
 19 20  1  0  0  0
 19 21  4  0  0  0
 21 22  4  0  0  0
 22 23  1  0  0  0
  1 24  1  0  0  0
  1 25  1  0  0  0
  7 26  1  0  0  0
  8 27  1  0  0  0
  9 28  1  0  0  0
 10 29  1  0  0  0
 15 30  1  0  0  0
 15 31  1  0  0  0
 17 32  1  0  0  0
 18 33  1  0  0  0
 20 34  1  0  0  0
 21 35  1  0  0  0
 23 36  1  0  0  0
M  END
$$$$
