4itp_ligand
  -I-interpret- 

 37 38  0  0  0  0  0  0  0  0999 V2000
   20.5970    7.7900   13.4970 C   0  0  0  0  0
   20.7170   10.1170   14.3890 C   0  0  0  0  0
   19.5130   11.9570   13.2490 C   0  0  0  0  0
   17.8560    3.2110   14.7970 C   0  0  0  0  0
   17.3040    2.1500   15.5670 C   0  0  0  0  0
   15.8770   -0.6040   16.1330 N   0  0  0  0  0
   15.3050    0.7690   16.8700 S   0  0  0  0  0
   15.8070    0.8600   18.1860 O   0  0  0  0  0
   13.8790    0.7860   16.7150 O   0  0  0  0  0
   15.9480    2.0620   15.9240 C   0  0  0  0  0
   15.2010    3.1300   15.4790 C   0  0  0  0  0
   15.6850    4.1890   14.7300 C   0  0  0  0  0
   17.0150    4.2690   14.3800 C   0  0  0  0  0
   17.5950    5.3690   13.5200 C   0  0  0  0  0
   18.6730    6.2000   14.0770 N   0  0  0  0  0
   19.4410    6.8450   13.0770 C   0  0  0  0  0
   19.1950    6.7080   11.9160 O   0  0  0  0  0
   20.2340    9.2400   13.3980 C   0  0  0  0  0
   20.3360   11.4830   14.2770 C   0  0  0  0  0
   19.0630   11.0260   12.3080 C   0  0  0  0  0
   19.4220    9.7100   12.4000 C   0  0  0  0  0
   21.4339    7.6107   12.8221 H   0  0  0  0  0
   20.8366    7.5784   14.5391 H   0  0  0  0  0
   21.3520    9.7659   15.2024 H   0  0  0  0  0
   19.2343   13.0088   13.1846 H   0  0  0  0  0
   18.9132    3.2087   14.5318 H   0  0  0  0  0
   17.9736    1.3572   15.9003 H   0  0  0  0  0
   16.4992   -1.2335   16.6399 H   0  0  0  0  0
   15.6063   -0.8182   15.1732 H   0  0  0  0  0
   14.1422    3.1426   15.7376 H   0  0  0  0  0
   15.0003    4.9748   14.4110 H   0  0  0  0  0
   16.7685    6.0567   13.3409 H   0  0  0  0  0
   18.0407    4.8585   12.6663 H   0  0  0  0  0
   18.8488    6.3010   15.0767 H   0  0  0  0  0
   20.7001   12.1898   15.0227 H   0  0  0  0  0
   18.4187   11.3530   11.4919 H   0  0  0  0  0
   19.0488    9.0099   11.6526 H   0  0  0  0  0
 16  1  1  0  0  0
  1 18  1  0  0  0
 18  2  4  0  0  0
  2 19  4  0  0  0
 19  3  4  0  0  0
  3 20  4  0  0  0
  4  5  4  0  0  0
 13  4  4  0  0  0
  5 10  4  0  0  0
  7  6  1  0  0  0
  7  8  2  0  0  0
  7  9  2  0  0  0
 10  7  1  0  0  0
 11 10  4  0  0  0
 12 11  4  0  0  0
 13 12  4  0  0  0
 14 13  1  0  0  0
 15 14  1  0  0  0
 15 16  1  0  0  0
 16 17  2  0  0  0
 18 21  4  0  0  0
 20 21  4  0  0  0
  1 22  1  0  0  0
  1 23  1  0  0  0
  2 24  1  0  0  0
  3 25  1  0  0  0
  4 26  1  0  0  0
  5 27  1  0  0  0
  6 28  1  0  0  0
  6 29  1  0  0  0
 11 30  1  0  0  0
 12 31  1  0  0  0
 14 32  1  0  0  0
 14 33  1  0  0  0
 15 34  1  0  0  0
 19 35  1  0  0  0
 20 36  1  0  0  0
 21 37  1  0  0  0
M  END
$$$$
