### 
### Created by X-TOOL on Mon Sep 10 21:13:27 2018
### 

@<TRIPOS>MOLECULE
5hhx_ligand
  236   241     1     0     0
SMALL
GAST_HUCK


@<TRIPOS>ATOM
      1 N          74.9040  -81.5070   87.1900 N.4       1 ILE         0.2381
      2 CA         75.4820  -80.1670   87.2850 C.3       1 ILE         0.0676
      3 C          75.3470  -79.5970   88.7090 C.2       1 ILE         0.2271
      4 O          74.3700  -79.8840   89.4070 O.2       1 ILE        -0.3907
      5 CB         74.9320  -79.2290   86.1610 C.3       1 ILE         0.0164
      6 CG1        75.7770  -79.4620   84.8680 C.3       1 ILE        -0.0460
      7 CG2        74.9010  -77.7260   86.5680 C.3       1 ILE        -0.0551
      8 CD1        75.2630  -78.8730   83.5060 C.3       1 ILE        -0.0647
      9 N          76.3770  -78.8330   89.1370 N.am      1 HIS        -0.2592
     10 CA         76.4790  -78.1650   90.4430 C.3       1 HIS         0.1422
     11 C          76.7450  -76.6710   90.2380 C.2       1 HIS         0.2060
     12 O          77.6400  -76.3090   89.4650 O.2       1 HIS        -0.3942
     13 CB         77.6180  -78.7650   91.3090 C.3       1 HIS         0.0427
     14 CG         77.4510  -80.2080   91.6770 C.2       1 HIS         0.0561
     15 ND1        76.5120  -80.6120   92.6130 N.pl3     1 HIS        -0.2623
     16 CD2        78.1400  -81.2950   91.2510 C.2       1 HIS        -0.0276
     17 CE1        76.6350  -81.9290   92.7030 C.2       1 HIS         0.0875
     18 NE2        77.6000  -82.3880   91.9010 N.2       1 HIS        -0.3437
     19 N          75.9870  -75.8100   90.9460 N.am      1 VAL        -0.2633
     20 CA         76.1140  -74.3460   90.8620 C.3       1 VAL         0.1333
     21 C          76.3600  -73.7500   92.2590 C.2       1 VAL         0.2042
     22 O          75.6540  -74.1120   93.1940 O.2       1 VAL        -0.3944
     23 CB         74.8940  -73.7000   90.1400 C.3       1 VAL        -0.0063
     24 CG1        74.9180  -72.1730   90.2420 C.3       1 VAL        -0.0584
     25 CG2        74.8160  -74.1440   88.6770 C.3       1 VAL        -0.0584
     26 N          77.3870  -72.8730   92.4040 N.am      1 THR        -0.2613
     27 CA         77.7090  -72.2480   93.6910 C.3       1 THR         0.1565
     28 C          77.4600  -70.7570   93.6220 C.2       1 THR         0.2065
     29 O          78.1690  -70.0060   92.9420 O.2       1 THR        -0.3943
     30 CB         79.1020  -72.6130   94.2320 C.3       1 THR         0.0924
     31 OG1        79.5050  -73.9170   93.8030 O.3       1 THR        -0.3874
     32 CG2        79.1680  -72.5200   95.7520 C.3       1 THR        -0.0346
     33 N          76.4130  -70.3420   94.3240 N.am      1 ILE        -0.2634
     34 CA         75.9560  -68.9540   94.3800 C.3       1 ILE         0.1337
     35 C          76.4340  -68.3100   95.6710 C.2       1 ILE         0.2067
     36 O          76.5350  -69.0190   96.6730 O.2       1 ILE        -0.3942
     37 CB         74.4080  -68.8480   94.1400 C.3       1 ILE        -0.0037
     38 CG1        73.5750  -69.6980   95.1270 C.3       1 ILE        -0.0491
     39 CG2        74.0830  -69.2570   92.6990 C.3       1 ILE        -0.0582
     40 CD1        73.1020  -69.0080   96.2900 C.3       1 ILE        -0.0648
     41 N          76.7630  -66.9990   95.6910 N.am      1 PRO        -0.2498
     42 CA         77.1840  -66.3870   96.9650 C.3       1 PRO         0.1338
     43 C          76.0170  -66.3050   97.9420 C.2       1 PRO         0.2041
     44 O          74.8590  -66.3390   97.5060 O.2       1 PRO        -0.3944
     45 CB         77.6750  -64.9860   96.5720 C.3       1 PRO        -0.0104
     46 CG         77.4240  -64.8320   95.1250 C.3       1 PRO        -0.0281
     47 CD         76.6780  -66.0050   94.6010 C.3       1 PRO         0.0369
     48 N          76.3170  -66.2020   99.2580 N.am      1 ALA        -0.2640
     49 CA         75.3250  -66.0710  100.3470 C.3       1 ALA         0.1282
     50 C          74.3460  -64.9110  100.0490 C.2       1 ALA         0.2037
     51 O          73.1360  -65.0410  100.2550 O.2       1 ALA        -0.3944
     52 CB         76.0360  -65.8330  101.6750 C.3       1 ALA        -0.0244
     53 N          74.8970  -63.8170   99.4890 N.am      1 ASP        -0.2622
     54 CA         74.2370  -62.6070   99.0350 C.3       1 ASP         0.1423
     55 C          73.0890  -62.9260   98.0490 C.2       1 ASP         0.2056
     56 O          71.9540  -62.5860   98.3370 O.2       1 ASP        -0.3943
     57 CB         75.3100  -61.7120   98.3960 C.3       1 ASP         0.0406
     58 CG         74.8610  -60.3260   97.9970 C.2       1 ASP         0.0393
     59 OD1        73.7000  -59.9570   98.3130 O.co2     1 ASP        -0.5688
     60 OD2        75.6600  -59.6110   97.3500 O.co2     1 ASP        -0.5688
     61 N          73.3810  -63.6210   96.9200 N.am      1 LEU        -0.2636
     62 CA         72.4070  -64.0010   95.8770 C.3       1 LEU         0.1312
     63 C          71.3020  -64.9140   96.3800 C.2       1 LEU         0.2040
     64 O          70.1980  -64.8740   95.8390 O.2       1 LEU        -0.3944
     65 CB         73.1160  -64.6100   94.6480 C.3       1 LEU        -0.0101
     66 CG         72.2630  -65.1340   93.4860 C.3       1 LEU        -0.0425
     67 CD1        71.4570  -64.0430   92.8660 C.3       1 LEU        -0.0625
     68 CD2        73.1120  -65.7490   92.4320 C.3       1 LEU        -0.0625
     69 N          71.5800  -65.7260   97.4060 N.am      1 TRP        -0.2627
     70 CA         70.5420  -66.5810   97.9540 C.3       1 TRP         0.1352
     71 C          69.3900  -65.7150   98.4710 C.2       1 TRP         0.2052
     72 O          68.2450  -65.9870   98.0990 O.2       1 TRP        -0.3942
     73 CB         71.0770  -67.5340   99.0180 C.3       1 TRP         0.0042
     74 CG         70.0480  -68.5350   99.4340 C.2       1 TRP        -0.0418
     75 CD1        69.2780  -68.4920  100.5580 C.2       1 TRP         0.0167
     76 CD2        69.5790  -69.6540   98.6690 C.ar      1 TRP        -0.0214
     77 NE1        68.3870  -69.5430  100.5650 N.pl3     1 TRP        -0.2890
     78 CE2        68.5510  -70.2730   99.4160 C.ar      1 TRP         0.0603
     79 CE3        69.9330  -70.2030   97.4270 C.ar      1 TRP        -0.0747
     80 CZ2        67.8660  -71.4030   98.9560 C.ar      1 TRP        -0.0443
     81 CZ3        69.2570  -71.3280   96.9780 C.ar      1 TRP        -0.0792
     82 CH2        68.2320  -71.9100   97.7350 C.ar      1 TRP        -0.0768
     83 N          69.7020  -64.6060   99.2140 N.am      1 ASP        -0.2621
     84 CA         68.7180  -63.6240   99.7000 C.3       1 ASP         0.1423
     85 C          67.8120  -63.1710   98.5370 C.2       1 ASP         0.2057
     86 O          66.5830  -63.1690   98.6550 O.2       1 ASP        -0.3943
     87 CB         69.4070  -62.4000  100.4030 C.3       1 ASP         0.0406
     88 CG         69.5220  -61.0390   99.6490 C.2       1 ASP         0.0393
     89 OD1        68.4650  -60.4620   99.2750 O.co2     1 ASP        -0.5688
     90 OD2        70.6600  -60.4970   99.5480 O.co2     1 ASP        -0.5688
     91 N          68.4400  -62.8100   97.4100 N.am      1 TRP        -0.2626
     92 CA         67.7600  -62.3160   96.2330 C.3       1 TRP         0.1352
     93 C          66.8520  -63.3660   95.5740 C.2       1 TRP         0.2052
     94 O          65.7010  -63.0420   95.2960 O.2       1 TRP        -0.3942
     95 CB         68.7820  -61.7280   95.2640 C.3       1 TRP         0.0042
     96 CG         68.1900  -61.1170   94.0360 C.2       1 TRP        -0.0418
     97 CD1        67.8450  -59.8130   93.8540 C.2       1 TRP         0.0167
     98 CD2        67.9320  -61.7790   92.7930 C.ar      1 TRP        -0.0214
     99 NE1        67.3580  -59.6270   92.5830 N.pl3     1 TRP        -0.2890
    100 CE2        67.3990  -60.8180   91.9100 C.ar      1 TRP         0.0603
    101 CE3        68.0880  -63.0960   92.3430 C.ar      1 TRP        -0.0747
    102 CZ2        67.0600  -61.1230   90.5930 C.ar      1 TRP        -0.0443
    103 CZ3        67.7270  -63.4020   91.0460 C.ar      1 TRP        -0.0792
    104 CH2        67.2300  -62.4220   90.1830 C.ar      1 TRP        -0.0768
    105 N          67.3450  -64.6100   95.3340 N.am      1 ILE        -0.2634
    106 CA         66.5520  -65.6850   94.7020 C.3       1 ILE         0.1335
    107 C          65.2920  -66.0080   95.5330 C.2       1 ILE         0.2037
    108 O          64.2420  -66.3570   94.9720 O.2       1 ILE        -0.3944
    109 CB         67.4130  -66.9470   94.3750 C.3       1 ILE        -0.0037
    110 CG1        68.6200  -66.5710   93.4640 C.3       1 ILE        -0.0491
    111 CG2        66.5510  -68.0760   93.7450 C.3       1 ILE        -0.0582
    112 CD1        69.5690  -67.7310   93.0150 C.3       1 ILE        -0.0648
    113 N          65.3980  -65.8210   96.8690 N.am      1 ASN        -0.2674
    114 CA         64.3290  -66.0660   97.8370 C.3       1 ASN         0.1110
    115 C          63.8480  -64.7600   98.4960 C.2       1 ASN         0.0624
    116 O          62.9590  -64.0740   97.9770 O.co2     1 ASN        -0.5665
    117 CB         64.8120  -67.0680   98.8900 C.3       1 ASN         0.0718
    118 CG         64.9190  -68.5060   98.4090 C.2       1 ASN         0.1774
    119 OD1        64.3170  -69.4100   98.9980 O.2       1 ASN        -0.3971
    120 ND2        65.7190  -68.7720   97.3660 N.am      1 ASN        -0.3007
    121 OXT        64.3390  -64.3650   99.5610 O.co2     1 ASN        -0.5665
    122 H1         75.2768  -82.0866   87.9256 H         1 ILE         0.2015
    123 H2         75.1348  -81.9098   86.2953 H         1 ILE         0.2015
    124 H3         73.9021  -81.4482   87.2837 H         1 ILE         0.2015
    125 H4         76.5607  -80.2719   87.0971 H         1 ILE         0.1101
    126 H5         73.8948  -79.5290   85.9506 H         1 ILE         0.0378
    127 H6         75.8686  -80.5500   84.7345 H         1 ILE         0.0269
    128 H7         76.7719  -79.0300   85.0509 H         1 ILE         0.0269
    129 H8         74.2978  -77.6055   87.4799 H         1 ILE         0.0236
    130 H9         74.4567  -77.1347   85.7538 H         1 ILE         0.0236
    131 H10        75.9265  -77.3763   86.7578 H         1 ILE         0.0236
    132 H11        75.9727  -79.1280   82.7052 H         1 ILE         0.0230
    133 H12        75.1799  -77.7792   83.5876 H         1 ILE         0.0230
    134 H13        74.2765  -79.2992   83.2711 H         1 ILE         0.0230
    135 H14        77.1424  -78.7105   88.5052 H         1 HIS         0.1886
    136 H15        75.5256  -78.2917   90.9768 H         1 HIS         0.0824
    137 H16        77.6802  -78.1821   92.2398 H         1 HIS         0.0491
    138 H17        78.5596  -78.6639   90.7494 H         1 HIS         0.0491
    139 H18        75.8543  -80.0126   93.1317 H         1 HIS         0.2386
    140 H19        78.9604  -81.3048   90.5349 H         1 HIS         0.0324
    141 H20        76.0255  -82.5582   93.3499 H         1 HIS         0.1149
    142 H21        75.2981  -76.1880   91.5645 H         1 VAL         0.1883
    143 H22        77.0023  -74.1261   90.2516 H         1 VAL         0.0802
    144 H23        73.9838  -74.0536   90.6464 H         1 VAL         0.0343
    145 H24        74.0429  -71.7570   89.7214 H         1 VAL         0.0234
    146 H25        75.8380  -71.7888   89.7772 H         1 VAL         0.0234
    147 H26        74.8903  -71.8757   91.3007 H         1 VAL         0.0234
    148 H27        74.7999  -75.2428   88.6277 H         1 VAL         0.0234
    149 H28        75.6930  -73.7653   88.1316 H         1 VAL         0.0234
    150 H29        73.8990  -73.7431   88.2205 H         1 VAL         0.0234
    151 H30        77.9433  -72.6454   91.6048 H         1 THR         0.1884
    152 H31        76.9908  -72.6510   94.4202 H         1 THR         0.0826
    153 H32        79.8173  -71.8859   93.8201 H         1 THR         0.0639
    154 H33        80.3665  -74.1120   94.1526 H         1 THR         0.2101
    155 H34        80.1790  -72.7888   96.0922 H         1 THR         0.0257
    156 H35        78.4363  -73.2124   96.1939 H         1 THR         0.0257
    157 H36        78.9365  -71.4918   96.0669 H         1 THR         0.0257
    158 H37        75.9030  -71.0232   94.8492 H         1 ILE         0.1883
    159 H38        76.4397  -68.4128   93.5535 H         1 ILE         0.0803
    160 H39        74.1183  -67.7958   94.2774 H         1 ILE         0.0345
    161 H40        74.2011  -70.5378   95.4628 H         1 ILE         0.0267
    162 H41        72.7004  -70.0866   94.5847 H         1 ILE         0.0267
    163 H42        74.6785  -68.6490   92.0021 H         1 ILE         0.0235
    164 H43        73.0126  -69.0949   92.5044 H         1 ILE         0.0235
    165 H44        74.3247  -70.3206   92.5563 H         1 ILE         0.0235
    166 H45        72.5253  -69.7022   96.9189 H         1 ILE         0.0230
    167 H46        72.4583  -68.1705   95.9830 H         1 ILE         0.0230
    168 H47        73.9591  -68.6216   96.8611 H         1 ILE         0.0230
    169 H48        77.9991  -66.9674   97.4218 H         1 PRO         0.0802
    170 H49        78.7506  -64.8899   96.7813 H         1 PRO         0.0313
    171 H50        77.1219  -64.2199   97.1351 H         1 PRO         0.0313
    172 H51        78.3855  -64.7487   94.5972 H         1 PRO         0.0287
    173 H52        76.8321  -63.9206   94.9548 H         1 PRO         0.0287
    174 H53        75.6305  -65.7411   94.3933 H         1 PRO         0.0524
    175 H54        77.1481  -66.3894   93.6838 H         1 PRO         0.0524
    176 H55        77.2837  -66.2155   99.5134 H         1 ALA         0.1883
    177 H56        74.7512  -67.0069  100.4160 H         1 ALA         0.0797
    178 H57        75.2904  -65.7370  102.4780 H         1 ALA         0.0277
    179 H58        76.6291  -64.9087  101.6129 H         1 ALA         0.0277
    180 H59        76.7013  -66.6817  101.8920 H         1 ALA         0.0277
    181 H60        75.8897  -63.8418   99.3707 H         1 ASP         0.1884
    182 H61        73.8077  -62.0852   99.9030 H         1 ASP         0.0819
    183 H62        75.6784  -62.2200   97.4926 H         1 ASP         0.0478
    184 H63        76.1331  -61.6048   99.1178 H         1 ASP         0.0478
    185 H64        74.3322  -63.8979   96.7836 H         1 LEU         0.1883
    186 H65        71.9218  -63.0715   95.5444 H         1 LEU         0.0800
    187 H66        73.7222  -65.4536   95.0098 H         1 LEU         0.0315
    188 H67        73.7773  -63.8324   94.2382 H         1 LEU         0.0315
    189 H68        71.5780  -65.8990   93.8803 H         1 LEU         0.0298
    190 H69        70.8593  -64.4535   92.0388 H         1 LEU         0.0232
    191 H70        72.1304  -63.2635   92.4802 H         1 LEU         0.0232
    192 H71        70.7867  -63.6075   93.6217 H         1 LEU         0.0232
    193 H72        73.7146  -66.5573   92.8719 H         1 LEU         0.0232
    194 H73        73.7788  -64.9848   92.0060 H         1 LEU         0.0232
    195 H74        72.4709  -66.1600   91.6382 H         1 LEU         0.0232
    196 H75        72.5011  -65.7442   97.7950 H         1 TRP         0.1884
    197 H76        70.1514  -67.2001   97.1330 H         1 TRP         0.0815
    198 H77        71.3818  -66.9496   99.8987 H         1 TRP         0.0397
    199 H78        71.9491  -68.0675   98.6122 H         1 TRP         0.0397
    200 H79        69.3558  -67.7360  101.3380 H         1 TRP         0.0795
    201 H80        67.7080  -69.7471  101.3121 H         1 TRP         0.2216
    202 H81        70.7198  -69.7564   96.8298 H         1 TRP         0.0540
    203 H82        67.0767  -71.8601   99.5418 H         1 TRP         0.0541
    204 H83        69.5270  -71.7650   96.0234 H         1 TRP         0.0510
    205 H84        67.7162  -72.7809   97.3471 H         1 TRP         0.0530
    206 H85        70.6637  -64.4534   99.4416 H         1 ASP         0.1884
    207 H86        68.0850  -64.1229  100.4486 H         1 ASP         0.0819
    208 H87        70.4311  -62.7122  100.6553 H         1 ASP         0.0478
    209 H88        68.8445  -62.2055  101.3281 H         1 ASP         0.0478
    210 H89        69.4366  -62.8865   97.3809 H         1 TRP         0.1884
    211 H90        67.1052  -61.4935   96.5565 H         1 TRP         0.0815
    212 H91        69.4636  -62.5333   94.9528 H         1 TRP         0.0397
    213 H92        69.3511  -60.9505   95.7946 H         1 TRP         0.0397
    214 H93        67.9410  -59.0313   94.6061 H         1 TRP         0.0795
    215 H94        67.0168  -58.7345   92.1983 H         1 TRP         0.2216
    216 H95        68.4848  -63.8609   93.0007 H         1 TRP         0.0540
    217 H96        66.6774  -60.3648   89.9194 H         1 TRP         0.0541
    218 H97        67.8310  -64.4209   90.6908 H         1 TRP         0.0510
    219 H98        66.9726  -62.6939   89.1657 H         1 TRP         0.0530
    220 H99        68.2893  -64.8070   95.5977 H         1 ILE         0.1883
    221 H100       66.1994  -65.2928   93.7367 H         1 ILE         0.0803
    222 H101       67.8177  -67.3300   95.3234 H         1 ILE         0.0345
    223 H102       69.2307  -65.8374   94.0107 H         1 ILE         0.0267
    224 H103       68.2145  -66.1049   92.5539 H         1 ILE         0.0267
    225 H104       65.7114  -68.3133   94.4148 H         1 ILE         0.0235
    226 H105       67.1705  -68.9736   93.6015 H         1 ILE         0.0235
    227 H106       66.1609  -67.7404   92.7728 H         1 ILE         0.0235
    228 H107       70.3707  -67.3243   92.3811 H         1 ILE         0.0230
    229 H108       68.9937  -68.4759   92.4457 H         1 ILE         0.0230
    230 H109       70.0099  -68.2084   93.9025 H         1 ILE         0.0230
    231 H110       66.2735  -65.4902   97.2213 H         1 ASN         0.1877
    232 H111       63.4760  -66.5096   97.3026 H         1 ASN         0.0752
    233 H112       64.1069  -67.0424   99.7339 H         1 ASN         0.0544
    234 H113       65.8069  -66.7485   99.2336 H         1 ASN         0.0544
    235 H114       65.8072  -69.7097   97.0299 H         1 ASN         0.1814
    236 H115       66.2273  -68.0327   96.9244 H         1 ASN         0.1814
@<TRIPOS>BOND
     1    1    2 1  
     2    2    3 1  
     3    2    5 1  
     4    3    4 2  
     5    3    9 am 
     6    5    6 1  
     7    5    7 1  
     8    6    8 1  
     9    9   10 1  
    10   10   11 1  
    11   10   13 1  
    12   11   12 2  
    13   11   19 am 
    14   13   14 1  
    15   14   15 1  
    16   14   16 2  
    17   15   17 1  
    18   16   18 1  
    19   17   18 2  
    20   19   20 1  
    21   20   21 1  
    22   20   23 1  
    23   21   22 2  
    24   21   26 am 
    25   23   24 1  
    26   23   25 1  
    27   26   27 1  
    28   27   28 1  
    29   27   30 1  
    30   28   29 2  
    31   28   33 am 
    32   30   31 1  
    33   30   32 1  
    34   33   34 1  
    35   34   35 1  
    36   34   37 1  
    37   35   36 2  
    38   35   41 am 
    39   37   38 1  
    40   37   39 1  
    41   38   40 1  
    42   41   42 1  
    43   41   47 1  
    44   42   43 1  
    45   42   45 1  
    46   43   44 2  
    47   43   48 am 
    48   45   46 1  
    49   46   47 1  
    50   48   49 1  
    51   49   50 1  
    52   49   52 1  
    53   50   51 2  
    54   50   53 am 
    55   53   54 1  
    56   54   55 1  
    57   54   57 1  
    58   55   56 2  
    59   55   61 am 
    60   57   58 1  
    61   58   59 ar 
    62   58   60 ar 
    63   61   62 1  
    64   62   63 1  
    65   62   65 1  
    66   63   64 2  
    67   63   69 am 
    68   65   66 1  
    69   66   67 1  
    70   66   68 1  
    71   69   70 1  
    72   70   71 1  
    73   70   73 1  
    74   71   72 2  
    75   71   83 am 
    76   73   74 1  
    77   74   75 2  
    78   74   76 1  
    79   75   77 1  
    80   76   78 ar 
    81   76   79 ar 
    82   77   78 1  
    83   78   80 ar 
    84   79   81 ar 
    85   80   82 ar 
    86   81   82 ar 
    87   83   84 1  
    88   84   85 1  
    89   84   87 1  
    90   85   86 2  
    91   85   91 am 
    92   87   88 1  
    93   88   89 ar 
    94   88   90 ar 
    95   91   92 1  
    96   92   93 1  
    97   92   95 1  
    98   93   94 2  
    99   93  105 am 
   100   95   96 1  
   101   96   97 2  
   102   96   98 1  
   103   97   99 1  
   104   98  100 ar 
   105   98  101 ar 
   106   99  100 1  
   107  100  102 ar 
   108  101  103 ar 
   109  102  104 ar 
   110  103  104 ar 
   111  105  106 1  
   112  106  107 1  
   113  106  109 1  
   114  107  108 2  
   115  107  113 am 
   116  109  110 1  
   117  109  111 1  
   118  110  112 1  
   119  113  114 1  
   120  114  115 1  
   121  114  117 1  
   122  115  116 ar 
   123  115  121 ar 
   124  117  118 1  
   125  118  119 2  
   126  118  120 am 
   127    1  122 1  
   128    1  123 1  
   129    1  124 1  
   130    2  125 1  
   131    5  126 1  
   132    6  127 1  
   133    6  128 1  
   134    7  129 1  
   135    7  130 1  
   136    7  131 1  
   137    8  132 1  
   138    8  133 1  
   139    8  134 1  
   140    9  135 1  
   141   10  136 1  
   142   13  137 1  
   143   13  138 1  
   144   15  139 1  
   145   16  140 1  
   146   17  141 1  
   147   19  142 1  
   148   20  143 1  
   149   23  144 1  
   150   24  145 1  
   151   24  146 1  
   152   24  147 1  
   153   25  148 1  
   154   25  149 1  
   155   25  150 1  
   156   26  151 1  
   157   27  152 1  
   158   30  153 1  
   159   31  154 1  
   160   32  155 1  
   161   32  156 1  
   162   32  157 1  
   163   33  158 1  
   164   34  159 1  
   165   37  160 1  
   166   38  161 1  
   167   38  162 1  
   168   39  163 1  
   169   39  164 1  
   170   39  165 1  
   171   40  166 1  
   172   40  167 1  
   173   40  168 1  
   174   42  169 1  
   175   45  170 1  
   176   45  171 1  
   177   46  172 1  
   178   46  173 1  
   179   47  174 1  
   180   47  175 1  
   181   48  176 1  
   182   49  177 1  
   183   52  178 1  
   184   52  179 1  
   185   52  180 1  
   186   53  181 1  
   187   54  182 1  
   188   57  183 1  
   189   57  184 1  
   190   61  185 1  
   191   62  186 1  
   192   65  187 1  
   193   65  188 1  
   194   66  189 1  
   195   67  190 1  
   196   67  191 1  
   197   67  192 1  
   198   68  193 1  
   199   68  194 1  
   200   68  195 1  
   201   69  196 1  
   202   70  197 1  
   203   73  198 1  
   204   73  199 1  
   205   75  200 1  
   206   77  201 1  
   207   79  202 1  
   208   80  203 1  
   209   81  204 1  
   210   82  205 1  
   211   83  206 1  
   212   84  207 1  
   213   87  208 1  
   214   87  209 1  
   215   91  210 1  
   216   92  211 1  
   217   95  212 1  
   218   95  213 1  
   219   97  214 1  
   220   99  215 1  
   221  101  216 1  
   222  102  217 1  
   223  103  218 1  
   224  104  219 1  
   225  105  220 1  
   226  106  221 1  
   227  109  222 1  
   228  110  223 1  
   229  110  224 1  
   230  111  225 1  
   231  111  226 1  
   232  111  227 1  
   233  112  228 1  
   234  112  229 1  
   235  112  230 1  
   236  113  231 1  
   237  114  232 1  
   238  117  233 1  
   239  117  234 1  
   240  120  235 1  
   241  120  236 1  
@<TRIPOS>SUBSTRUCTURE
     1 ILE         1

