5hhx_ligand
  -I-interpret- 

236241  0  0  0  0  0  0  0  0999 V2000
   74.9040  -81.5070   87.1900 N   0  3  0  0  0
   75.4820  -80.1670   87.2850 C   0  0  0  0  0
   75.3470  -79.5970   88.7090 C   0  0  0  0  0
   74.3700  -79.8840   89.4070 O   0  0  0  0  0
   74.9320  -79.2290   86.1610 C   0  0  0  0  0
   75.7770  -79.4620   84.8680 C   0  0  0  0  0
   74.9010  -77.7260   86.5680 C   0  0  0  0  0
   75.2630  -78.8730   83.5060 C   0  0  0  0  0
   76.3770  -78.8330   89.1370 N   0  0  0  0  0
   76.4790  -78.1650   90.4430 C   0  0  0  0  0
   76.7450  -76.6710   90.2380 C   0  0  0  0  0
   77.6400  -76.3090   89.4650 O   0  0  0  0  0
   77.6180  -78.7650   91.3090 C   0  0  0  0  0
   77.4510  -80.2080   91.6770 C   0  0  0  0  0
   76.5120  -80.6120   92.6130 N   0  0  0  0  0
   78.1400  -81.2950   91.2510 C   0  0  0  0  0
   76.6350  -81.9290   92.7030 C   0  0  0  0  0
   77.6000  -82.3880   91.9010 N   0  0  0  0  0
   75.9870  -75.8100   90.9460 N   0  0  0  0  0
   76.1140  -74.3460   90.8620 C   0  0  0  0  0
   76.3600  -73.7500   92.2590 C   0  0  0  0  0
   75.6540  -74.1120   93.1940 O   0  0  0  0  0
   74.8940  -73.7000   90.1400 C   0  0  0  0  0
   74.9180  -72.1730   90.2420 C   0  0  0  0  0
   74.8160  -74.1440   88.6770 C   0  0  0  0  0
   77.3870  -72.8730   92.4040 N   0  0  0  0  0
   77.7090  -72.2480   93.6910 C   0  0  0  0  0
   77.4600  -70.7570   93.6220 C   0  0  0  0  0
   78.1690  -70.0060   92.9420 O   0  0  0  0  0
   79.1020  -72.6130   94.2320 C   0  0  0  0  0
   79.5050  -73.9170   93.8030 O   0  0  0  0  0
   79.1680  -72.5200   95.7520 C   0  0  0  0  0
   76.4130  -70.3420   94.3240 N   0  0  0  0  0
   75.9560  -68.9540   94.3800 C   0  0  0  0  0
   76.4340  -68.3100   95.6710 C   0  0  0  0  0
   76.5350  -69.0190   96.6730 O   0  0  0  0  0
   74.4080  -68.8480   94.1400 C   0  0  0  0  0
   73.5750  -69.6980   95.1270 C   0  0  0  0  0
   74.0830  -69.2570   92.6990 C   0  0  0  0  0
   73.1020  -69.0080   96.2900 C   0  0  0  0  0
   76.7630  -66.9990   95.6910 N   0  0  0  0  0
   77.1840  -66.3870   96.9650 C   0  0  0  0  0
   76.0170  -66.3050   97.9420 C   0  0  0  0  0
   74.8590  -66.3390   97.5060 O   0  0  0  0  0
   77.6750  -64.9860   96.5720 C   0  0  0  0  0
   77.4240  -64.8320   95.1250 C   0  0  0  0  0
   76.6780  -66.0050   94.6010 C   0  0  0  0  0
   76.3170  -66.2020   99.2580 N   0  0  0  0  0
   75.3250  -66.0710  100.3470 C   0  0  0  0  0
   74.3460  -64.9110  100.0490 C   0  0  0  0  0
   73.1360  -65.0410  100.2550 O   0  0  0  0  0
   76.0360  -65.8330  101.6750 C   0  0  0  0  0
   74.8970  -63.8170   99.4890 N   0  0  0  0  0
   74.2370  -62.6070   99.0350 C   0  0  0  0  0
   73.0890  -62.9260   98.0490 C   0  0  0  0  0
   71.9540  -62.5860   98.3370 O   0  0  0  0  0
   75.3100  -61.7120   98.3960 C   0  0  0  0  0
   74.8610  -60.3260   97.9970 C   0  0  0  0  0
   73.7000  -59.9570   98.3130 O   0  0  0  0  0
   75.6600  -59.6110   97.3500 O   0  0  0  0  0
   73.3810  -63.6210   96.9200 N   0  0  0  0  0
   72.4070  -64.0010   95.8770 C   0  0  0  0  0
   71.3020  -64.9140   96.3800 C   0  0  0  0  0
   70.1980  -64.8740   95.8390 O   0  0  0  0  0
   73.1160  -64.6100   94.6480 C   0  0  0  0  0
   72.2630  -65.1340   93.4860 C   0  0  0  0  0
   71.4570  -64.0430   92.8660 C   0  0  0  0  0
   73.1120  -65.7490   92.4320 C   0  0  0  0  0
   71.5800  -65.7260   97.4060 N   0  0  0  0  0
   70.5420  -66.5810   97.9540 C   0  0  0  0  0
   69.3900  -65.7150   98.4710 C   0  0  0  0  0
   68.2450  -65.9870   98.0990 O   0  0  0  0  0
   71.0770  -67.5340   99.0180 C   0  0  0  0  0
   70.0480  -68.5350   99.4340 C   0  0  0  0  0
   69.2780  -68.4920  100.5580 C   0  0  0  0  0
   69.5790  -69.6540   98.6690 C   0  0  0  0  0
   68.3870  -69.5430  100.5650 N   0  0  0  0  0
   68.5510  -70.2730   99.4160 C   0  0  0  0  0
   69.9330  -70.2030   97.4270 C   0  0  0  0  0
   67.8660  -71.4030   98.9560 C   0  0  0  0  0
   69.2570  -71.3280   96.9780 C   0  0  0  0  0
   68.2320  -71.9100   97.7350 C   0  0  0  0  0
   69.7020  -64.6060   99.2140 N   0  0  0  0  0
   68.7180  -63.6240   99.7000 C   0  0  0  0  0
   67.8120  -63.1710   98.5370 C   0  0  0  0  0
   66.5830  -63.1690   98.6550 O   0  0  0  0  0
   69.4070  -62.4000  100.4030 C   0  0  0  0  0
   69.5220  -61.0390   99.6490 C   0  0  0  0  0
   68.4650  -60.4620   99.2750 O   0  0  0  0  0
   70.6600  -60.4970   99.5480 O   0  0  0  0  0
   68.4400  -62.8100   97.4100 N   0  0  0  0  0
   67.7600  -62.3160   96.2330 C   0  0  0  0  0
   66.8520  -63.3660   95.5740 C   0  0  0  0  0
   65.7010  -63.0420   95.2960 O   0  0  0  0  0
   68.7820  -61.7280   95.2640 C   0  0  0  0  0
   68.1900  -61.1170   94.0360 C   0  0  0  0  0
   67.8450  -59.8130   93.8540 C   0  0  0  0  0
   67.9320  -61.7790   92.7930 C   0  0  0  0  0
   67.3580  -59.6270   92.5830 N   0  0  0  0  0
   67.3990  -60.8180   91.9100 C   0  0  0  0  0
   68.0880  -63.0960   92.3430 C   0  0  0  0  0
   67.0600  -61.1230   90.5930 C   0  0  0  0  0
   67.7270  -63.4020   91.0460 C   0  0  0  0  0
   67.2300  -62.4220   90.1830 C   0  0  0  0  0
   67.3450  -64.6100   95.3340 N   0  0  0  0  0
   66.5520  -65.6850   94.7020 C   0  0  0  0  0
   65.2920  -66.0080   95.5330 C   0  0  0  0  0
   64.2420  -66.3570   94.9720 O   0  0  0  0  0
   67.4130  -66.9470   94.3750 C   0  0  0  0  0
   68.6200  -66.5710   93.4640 C   0  0  0  0  0
   66.5510  -68.0760   93.7450 C   0  0  0  0  0
   69.5690  -67.7310   93.0150 C   0  0  0  0  0
   65.3980  -65.8210   96.8690 N   0  0  0  0  0
   64.3290  -66.0660   97.8370 C   0  0  0  0  0
   63.8480  -64.7600   98.4960 C   0  0  0  0  0
   62.9590  -64.0740   97.9770 O   0  0  0  0  0
   64.8120  -67.0680   98.8900 C   0  0  0  0  0
   64.9190  -68.5060   98.4090 C   0  0  0  0  0
   64.3170  -69.4100   98.9980 O   0  0  0  0  0
   65.7190  -68.7720   97.3660 N   0  0  0  0  0
   64.3390  -64.3650   99.5610 O   0  0  0  0  0
   75.2819  -82.0926   87.9348 H   0  0  0  0  0
   73.8902  -81.4462   87.2849 H   0  0  0  0  0
   75.1381  -81.9135   86.2843 H   0  0  0  0  0
   76.5546  -80.2360   87.1036 H   0  0  0  0  0
   73.8888  -79.4873   85.9789 H   0  0  0  0  0
   75.7779  -80.5425   84.7241 H   0  0  0  0  0
   76.7225  -78.9529   85.0550 H   0  0  0  0  0
   75.9177  -77.3807   86.7558 H   0  0  0  0  0
   74.4606  -77.1412   85.7604 H   0  0  0  0  0
   74.3031  -77.6079   87.4717 H   0  0  0  0  0
   74.2855  -79.2961   83.2745 H   0  0  0  0  0
   75.1810  -77.7892   83.5882 H   0  0  0  0  0
   75.9670  -79.1263   82.7133 H   0  0  0  0  0
   77.1577  -78.7080   88.4926 H   0  0  0  0  0
   75.5345  -78.3167   90.9655 H   0  0  0  0  0
   77.6280  -78.2039   92.2434 H   0  0  0  0  0
   78.5296  -78.6980   90.7153 H   0  0  0  0  0
   78.9612  -81.3048   90.5343 H   0  0  0  0  0
   76.0249  -82.5588   93.3505 H   0  0  0  0  0
   75.2843  -76.1956   91.5768 H   0  0  0  0  0
   76.9830  -74.1101   90.2477 H   0  0  0  0  0
   73.9972  -74.0513   90.6503 H   0  0  0  0  0
   74.8906  -71.8798   91.2915 H   0  0  0  0  0
   75.8300  -71.7936   89.7811 H   0  0  0  0  0
   74.0504  -71.7620   89.7258 H   0  0  0  0  0
   75.7263  -73.8433   88.1584 H   0  0  0  0  0
   74.7123  -75.2282   88.6327 H   0  0  0  0  0
   73.9540  -73.6756   88.2019 H   0  0  0  0  0
   77.9544  -72.6409   91.5888 H   0  0  0  0  0
   77.0307  -72.6667   94.4344 H   0  0  0  0  0
   79.7956  -71.8805   93.8191 H   0  0  0  0  0
   80.3756  -74.1140   94.1563 H   0  0  0  0  0
   78.9384  -71.5008   96.0627 H   0  0  0  0  0
   78.4425  -73.2064   96.1886 H   0  0  0  0  0
   80.1701  -72.7865   96.0879 H   0  0  0  0  0
   75.8928  -71.0369   94.8597 H   0  0  0  0  0
   76.4013  -68.3859   93.5633 H   0  0  0  0  0
   74.1315  -67.8083   94.3151 H   0  0  0  0  0
   74.2317  -70.4917   95.4832 H   0  0  0  0  0
   72.6909  -70.0285   94.5818 H   0  0  0  0  0
   74.6039  -68.5940   92.0082 H   0  0  0  0  0
   74.4069  -70.2844   92.5324 H   0  0  0  0  0
   73.0080  -69.1825   92.5352 H   0  0  0  0  0
   73.9522  -68.6256   96.8549 H   0  0  0  0  0
   72.4644  -68.1784   95.9845 H   0  0  0  0  0
   72.5308  -69.6968   96.9124 H   0  0  0  0  0
   77.9555  -66.9683   97.4700 H   0  0  0  0  0
   78.7361  -64.8724   96.7940 H   0  0  0  0  0
   77.1477  -64.2189   97.1391 H   0  0  0  0  0
   78.3791  -64.7575   94.6050 H   0  0  0  0  0
   76.8310  -63.9322   94.9614 H   0  0  0  0  0
   75.6473  -65.7587   94.3460 H   0  0  0  0  0
   77.0987  -66.3787   93.6675 H   0  0  0  0  0
   77.3031  -66.2158   99.5186 H   0  0  0  0  0
   74.7539  -66.9971  100.4129 H   0  0  0  0  0
   76.6949  -66.6746  101.8888 H   0  0  0  0  0
   76.6233  -64.9169  101.6122 H   0  0  0  0  0
   75.2962  -65.7380  102.4698 H   0  0  0  0  0
   75.9095  -63.8423   99.3684 H   0  0  0  0  0
   73.7717  -62.0889   99.8736 H   0  0  0  0  0
   75.6187  -62.2110   97.4774 H   0  0  0  0  0
   76.0865  -61.5782   99.1492 H   0  0  0  0  0
   73.2650  -60.6582   98.8035 H   0  0  0  0  0
   74.3512  -63.9035   96.7809 H   0  0  0  0  0
   71.9165  -63.0758   95.5744 H   0  0  0  0  0
   73.6406  -65.4857   95.0302 H   0  0  0  0  0
   73.6982  -63.7918   94.2240 H   0  0  0  0  0
   71.5940  -65.8859   93.9045 H   0  0  0  0  0
   70.7934  -63.6123   93.6158 H   0  0  0  0  0
   72.1254  -63.2713   92.4842 H   0  0  0  0  0
   70.8653  -64.4509   92.0465 H   0  0  0  0  0
   73.8069  -65.0032   92.0459 H   0  0  0  0  0
   73.6709  -66.5823   92.8578 H   0  0  0  0  0
   72.4785  -66.1108   91.6222 H   0  0  0  0  0
   72.5195  -65.7446   97.8028 H   0  0  0  0  0
   70.1630  -67.2219   97.1579 H   0  0  0  0  0
   71.3583  -66.9479   99.8929 H   0  0  0  0  0
   71.9284  -68.0712   98.6001 H   0  0  0  0  0
   69.3559  -67.7353  101.3387 H   0  0  0  0  0
   70.7241  -69.7540   96.8265 H   0  0  0  0  0
   67.0723  -71.8626   99.5450 H   0  0  0  0  0
   69.5285  -71.7674   96.0181 H   0  0  0  0  0
   67.7134  -72.7858   97.3449 H   0  0  0  0  0
   70.6830  -64.4503   99.4461 H   0  0  0  0  0
   68.1003  -64.1071  100.4571 H   0  0  0  0  0
   70.4385  -62.7167  100.5573 H   0  0  0  0  0
   68.7733  -62.1848  101.2633 H   0  0  0  0  0
   71.3297  -61.0961   99.8861 H   0  0  0  0  0
   69.4566  -62.8881   97.3803 H   0  0  0  0  0
   67.0794  -61.5230   96.5429 H   0  0  0  0  0
   69.4203  -62.5486   94.9364 H   0  0  0  0  0
   69.3055  -60.9333   95.7955 H   0  0  0  0  0
   67.9411  -59.0306   94.6068 H   0  0  0  0  0
   68.4870  -63.8651   93.0044 H   0  0  0  0  0
   66.6753  -60.3606   89.9156 H   0  0  0  0  0
   67.8316  -64.4265   90.6889 H   0  0  0  0  0
   66.9712  -62.6954   89.1601 H   0  0  0  0  0
   68.3082  -64.8110   95.6030 H   0  0  0  0  0
   66.2058  -65.3156   93.7367 H   0  0  0  0  0
   67.8109  -67.3344   95.3129 H   0  0  0  0  0
   69.2382  -65.8968   94.0568 H   0  0  0  0  0
   68.1849  -66.1740   92.5468 H   0  0  0  0  0
   65.7657  -68.3646   94.4437 H   0  0  0  0  0
   66.1014  -67.7149   92.8200 H   0  0  0  0  0
   67.1833  -68.9376   93.5309 H   0  0  0  0  0
   70.0052  -68.2032   93.8953 H   0  0  0  0  0
   68.9977  -68.4684   92.4510 H   0  0  0  0  0
   70.3629  -67.3267   92.3870 H   0  0  0  0  0
   66.2910  -65.4836   97.2283 H   0  0  0  0  0
   63.4739  -66.4872   97.3083 H   0  0  0  0  0
   64.0752  -67.0594   99.6932 H   0  0  0  0  0
   65.8158  -66.7585   99.1811 H   0  0  0  0  0
   65.8383  -69.7334   97.0469 H   0  0  0  0  0
   66.2081  -68.0129   96.8918 H   0  0  0  0  0
   65.0115  -64.9854   99.8516 H   0  0  0  0  0
  1  2  1  0  0  0
  2  3  1  0  0  0
  2  5  1  0  0  0
  3  4  2  0  0  0
  3  9  1  0  0  0
  5  6  1  0  0  0
  5  7  1  0  0  0
  6  8  1  0  0  0
  9 10  1  0  0  0
 10 11  1  0  0  0
 10 13  1  0  0  0
 11 12  2  0  0  0
 11 19  1  0  0  0
 13 14  1  0  0  0
 14 15  4  0  0  0
 14 16  4  0  0  0
 15 17  4  0  0  0
 16 18  4  0  0  0
 17 18  4  0  0  0
 19 20  1  0  0  0
 20 21  1  0  0  0
 20 23  1  0  0  0
 21 22  2  0  0  0
 21 26  1  0  0  0
 23 24  1  0  0  0
 23 25  1  0  0  0
 26 27  1  0  0  0
 27 28  1  0  0  0
 27 30  1  0  0  0
 28 29  2  0  0  0
 28 33  1  0  0  0
 30 31  1  0  0  0
 30 32  1  0  0  0
 33 34  1  0  0  0
 34 35  1  0  0  0
 34 37  1  0  0  0
 35 36  2  0  0  0
 35 41  1  0  0  0
 37 38  1  0  0  0
 37 39  1  0  0  0
 38 40  1  0  0  0
 41 42  1  0  0  0
 41 47  1  0  0  0
 42 43  1  0  0  0
 42 45  1  0  0  0
 43 44  2  0  0  0
 43 48  1  0  0  0
 45 46  1  0  0  0
 46 47  1  0  0  0
 48 49  1  0  0  0
 49 50  1  0  0  0
 49 52  1  0  0  0
 50 51  2  0  0  0
 50 53  1  0  0  0
 53 54  1  0  0  0
 54 55  1  0  0  0
 54 57  1  0  0  0
 55 56  2  0  0  0
 55 61  1  0  0  0
 57 58  1  0  0  0
 58 59  1  0  0  0
 58 60  2  0  0  0
 61 62  1  0  0  0
 62 63  1  0  0  0
 62 65  1  0  0  0
 63 64  2  0  0  0
 63 69  1  0  0  0
 65 66  1  0  0  0
 66 67  1  0  0  0
 66 68  1  0  0  0
 69 70  1  0  0  0
 70 71  1  0  0  0
 70 73  1  0  0  0
 71 72  2  0  0  0
 71 83  1  0  0  0
 73 74  1  0  0  0
 74 75  4  0  0  0
 74 76  4  0  0  0
 75 77  4  0  0  0
 76 78  4  0  0  0
 76 79  4  0  0  0
 77 78  4  0  0  0
 78 80  4  0  0  0
 79 81  4  0  0  0
 80 82  4  0  0  0
 81 82  4  0  0  0
 83 84  1  0  0  0
 84 85  1  0  0  0
 84 87  1  0  0  0
 85 86  2  0  0  0
 85 91  1  0  0  0
 87 88  1  0  0  0
 88 89  2  0  0  0
 88 90  1  0  0  0
 91 92  1  0  0  0
 92 93  1  0  0  0
 92 95  1  0  0  0
 93 94  2  0  0  0
 93105  1  0  0  0
 95 96  1  0  0  0
 96 97  4  0  0  0
 96 98  4  0  0  0
 97 99  4  0  0  0
 98100  4  0  0  0
 98101  4  0  0  0
 99100  4  0  0  0
100102  4  0  0  0
101103  4  0  0  0
102104  4  0  0  0
103104  4  0  0  0
105106  1  0  0  0
106107  1  0  0  0
106109  1  0  0  0
107108  2  0  0  0
107113  1  0  0  0
109110  1  0  0  0
109111  1  0  0  0
110112  1  0  0  0
113114  1  0  0  0
114115  1  0  0  0
114117  1  0  0  0
115116  2  0  0  0
115121  1  0  0  0
117118  1  0  0  0
118119  2  0  0  0
118120  1  0  0  0
  1122  1  0  0  0
  1123  1  0  0  0
  1124  1  0  0  0
  2125  1  0  0  0
  5126  1  0  0  0
  6127  1  0  0  0
  6128  1  0  0  0
  7129  1  0  0  0
  7130  1  0  0  0
  7131  1  0  0  0
  8132  1  0  0  0
  8133  1  0  0  0
  8134  1  0  0  0
  9135  1  0  0  0
 10136  1  0  0  0
 13137  1  0  0  0
 13138  1  0  0  0
 16139  1  0  0  0
 17140  1  0  0  0
 19141  1  0  0  0
 20142  1  0  0  0
 23143  1  0  0  0
 24144  1  0  0  0
 24145  1  0  0  0
 24146  1  0  0  0
 25147  1  0  0  0
 25148  1  0  0  0
 25149  1  0  0  0
 26150  1  0  0  0
 27151  1  0  0  0
 30152  1  0  0  0
 31153  1  0  0  0
 32154  1  0  0  0
 32155  1  0  0  0
 32156  1  0  0  0
 33157  1  0  0  0
 34158  1  0  0  0
 37159  1  0  0  0
 38160  1  0  0  0
 38161  1  0  0  0
 39162  1  0  0  0
 39163  1  0  0  0
 39164  1  0  0  0
 40165  1  0  0  0
 40166  1  0  0  0
 40167  1  0  0  0
 42168  1  0  0  0
 45169  1  0  0  0
 45170  1  0  0  0
 46171  1  0  0  0
 46172  1  0  0  0
 47173  1  0  0  0
 47174  1  0  0  0
 48175  1  0  0  0
 49176  1  0  0  0
 52177  1  0  0  0
 52178  1  0  0  0
 52179  1  0  0  0
 53180  1  0  0  0
 54181  1  0  0  0
 57182  1  0  0  0
 57183  1  0  0  0
 59184  1  0  0  0
 61185  1  0  0  0
 62186  1  0  0  0
 65187  1  0  0  0
 65188  1  0  0  0
 66189  1  0  0  0
 67190  1  0  0  0
 67191  1  0  0  0
 67192  1  0  0  0
 68193  1  0  0  0
 68194  1  0  0  0
 68195  1  0  0  0
 69196  1  0  0  0
 70197  1  0  0  0
 73198  1  0  0  0
 73199  1  0  0  0
 75200  1  0  0  0
 79201  1  0  0  0
 80202  1  0  0  0
 81203  1  0  0  0
 82204  1  0  0  0
 83205  1  0  0  0
 84206  1  0  0  0
 87207  1  0  0  0
 87208  1  0  0  0
 90209  1  0  0  0
 91210  1  0  0  0
 92211  1  0  0  0
 95212  1  0  0  0
 95213  1  0  0  0
 97214  1  0  0  0
101215  1  0  0  0
102216  1  0  0  0
103217  1  0  0  0
104218  1  0  0  0
105219  1  0  0  0
106220  1  0  0  0
109221  1  0  0  0
110222  1  0  0  0
110223  1  0  0  0
111224  1  0  0  0
111225  1  0  0  0
111226  1  0  0  0
112227  1  0  0  0
112228  1  0  0  0
112229  1  0  0  0
113230  1  0  0  0
114231  1  0  0  0
117232  1  0  0  0
117233  1  0  0  0
120234  1  0  0  0
120235  1  0  0  0
121236  1  0  0  0
M  END
$$$$
