2yi7_ligand
  -I-interpret- 

 36 38  0  0  0  0  0  0  0  0999 V2000
   29.9550    9.2310   28.1610 N   0  0  0  0  0
   29.8940   10.0360   27.1790 N   0  0  0  0  0
   30.6790    9.6670   26.1280 C   0  0  0  0  0
   31.4010    8.4840   26.3290 C   0  0  0  0  0
   30.7760   10.4410   24.9340 C   0  0  0  0  0
   32.2820    7.7630   25.5100 C   0  0  0  0  0
   33.5610    7.3940   25.9190 C   0  0  0  0  0
   34.4230    6.7170   24.9990 C   0  0  0  0  0
   33.9660    6.4300   23.6960 C   0  0  0  0  0
   32.7060    6.7480   23.3680 C   0  0  0  0  0
   31.8840    7.4880   24.2010 C   0  0  0  0  0
   29.6680   10.8210   24.2350 C   0  0  0  0  0
   29.6630   11.5160   23.0100 C   0  0  0  0  0
   30.9030   11.9560   22.5330 C   0  0  0  0  0
   31.9960   11.6330   23.2480 C   0  0  0  0  0
   32.0140   10.9030   24.4280 C   0  0  0  0  0
   31.0130   12.5680   21.3180 O   0  0  0  0  0
   28.4160   10.4180   24.6800 O   0  0  0  0  0
   34.9240    5.7370   22.9910 O   0  0  0  0  0
   30.9240    7.9770   27.9530 S   0  0  0  0  0
   34.5470    5.3840   21.6320 C   0  0  0  0  0
   33.5760   12.2560   22.7250 Cl  0  0  0  0  0
   35.7260    4.6000   21.0860 C   0  0  0  0  0
   33.9020    7.6186   26.9296 H   0  0  0  0  0
   35.4278    6.4246   25.3038 H   0  0  0  0  0
   32.3133    6.4111   22.4086 H   0  0  0  0  0
   30.9257    7.8559   23.8342 H   0  0  0  0  0
   28.7398   11.7018   22.4611 H   0  0  0  0  0
   32.9492   10.6928   24.9470 H   0  0  0  0  0
   31.9312   12.7988   21.1592 H   0  0  0  0  0
   27.7418   10.7610   24.0889 H   0  0  0  0  0
   34.3367    6.2677   21.0295 H   0  0  0  0  0
   33.6277    4.7988   21.6078 H   0  0  0  0  0
   36.6178    5.2264   21.1060 H   0  0  0  0  0
   35.8882    3.7149   21.7011 H   0  0  0  0  0
   35.5158    4.2976   20.0601 H   0  0  0  0  0
  1  2  4  0  0  0
  1 20  4  0  0  0
  2  3  4  0  0  0
  3  4  4  0  0  0
  3  5  1  0  0  0
  4  6  1  0  0  0
  4 20  4  0  0  0
  5 12  4  0  0  0
  5 16  4  0  0  0
  6  7  4  0  0  0
  6 11  4  0  0  0
  7  8  4  0  0  0
  8  9  4  0  0  0
  9 10  4  0  0  0
  9 19  1  0  0  0
 10 11  4  0  0  0
 12 13  4  0  0  0
 12 18  1  0  0  0
 13 14  4  0  0  0
 14 15  4  0  0  0
 14 17  1  0  0  0
 15 16  4  0  0  0
 15 22  1  0  0  0
 19 21  1  0  0  0
 21 23  1  0  0  0
  7 24  1  0  0  0
  8 25  1  0  0  0
 10 26  1  0  0  0
 11 27  1  0  0  0
 13 28  1  0  0  0
 16 29  1  0  0  0
 17 30  1  0  0  0
 18 31  1  0  0  0
 21 32  1  0  0  0
 21 33  1  0  0  0
 23 34  1  0  0  0
 23 35  1  0  0  0
 23 36  1  0  0  0
M  END
$$$$
