6e05_ligand
  -I-interpret- 

 50 51  0  0  0  0  0  0  0  0999 V2000
  -12.6330  -37.0460   24.2270 N   0  0  0  0  0
  -14.0110  -37.6350   24.0660 C   0  0  0  0  0
  -15.1950  -36.7280   23.8990 N   0  0  0  0  0
  -15.0550  -35.2910   23.9170 C   0  0  0  0  0
  -13.6960  -34.6960   24.0910 C   0  0  0  0  0
  -12.4980  -35.5910   24.2460 C   0  0  0  0  0
  -14.1870  -38.8170   24.0530 O   0  0  0  0  0
  -16.2400  -34.4300   23.7490 N   0  3  0  0  0
  -11.5600  -37.8630   24.4180 C   0  0  0  0  0
  -10.8090  -38.3370   23.1640 C   0  0  0  0  0
  -11.2990  -39.6930   22.8190 O   0  0  0  0  0
   -9.5100  -38.3730   23.5360 C   0  0  0  0  0
   -9.3190  -37.2910   24.7390 C   0  0  0  0  0
  -10.4670  -37.1790   25.3450 O   0  0  0  0  0
   -9.1340  -39.6540   24.0700 O   0  0  0  0  0
   -8.9270  -35.9260   24.2120 C   0  0  0  0  0
   -9.4830  -35.7110   22.9460 O   0  0  0  0  0
   -8.4040  -35.1410   21.8400 P   0  0  0  0  0
   -9.1380  -34.4880   20.6820 O   0  0  0  0  0
   -7.4550  -36.2600   21.4060 O   0  0  0  0  0
   -7.6180  -33.9430   22.6550 O   0  0  0  0  0
   -6.4210  -33.1870   21.8030 P   0  0  0  0  0
   -6.8110  -33.1950   20.3310 O   0  0  0  0  0
   -6.1400  -31.7770   22.3050 O   0  0  0  0  0
   -5.1810  -34.2200   22.0440 O   0  0  0  0  0
   -3.6910  -33.8820   21.4980 P   0  0  0  0  0
   -3.8010  -33.5180   20.0440 O   0  0  0  0  0
   -2.8290  -35.1100   21.6770 O   0  0  0  0  0
   -3.1670  -32.7530   22.3440 O   0  0  0  0  0
  -16.1207  -37.1364   23.7697 H   0  0  0  0  0
  -15.5880  -34.5375   24.4969 H   0  0  0  0  0
  -13.7548  -34.1534   25.0345 H   0  0  0  0  0
  -13.5141  -34.1555   23.1621 H   0  0  0  0  0
  -11.8908  -35.3719   23.3677 H   0  0  0  0  0
  -12.1359  -35.3737   25.2509 H   0  0  0  0  0
  -17.0705  -35.0131   23.6453 H   0  0  0  0  0
  -16.3432  -33.8319   24.5688 H   0  0  0  0  0
  -16.1232  -33.8514   22.9171 H   0  0  0  0  0
  -12.0309  -38.7366   24.8687 H   0  0  0  0  0
  -10.9526  -37.6959   22.2942 H   0  0  0  0  0
  -10.8411  -40.0080   22.0362 H   0  0  0  0  0
   -8.8980  -38.1626   22.6589 H   0  0  0  0  0
   -8.5275  -37.6367   25.4039 H   0  0  0  0  0
   -8.2074  -39.6355   24.3205 H   0  0  0  0  0
   -7.8409  -35.8747   24.1351 H   0  0  0  0  0
   -9.2979  -35.1626   24.8959 H   0  0  0  0  0
   -7.0238  -36.6304   22.1796 H   0  0  0  0  0
   -5.8982  -31.8113   23.2334 H   0  0  0  0  0
   -2.7713  -35.3257   22.6107 H   0  0  0  0  0
   -3.1167  -33.0373   23.2595 H   0  0  0  0  0
  1  2  1  0  0  0
  1  6  1  0  0  0
  1  9  1  0  0  0
  2  3  1  0  0  0
  2  7  2  0  0  0
  3  4  1  0  0  0
  4  5  1  0  0  0
  4  8  1  0  0  0
  5  6  1  0  0  0
  9 10  1  0  0  0
  9 14  1  0  0  0
 10 11  1  0  0  0
 10 12  1  0  0  0
 12 13  1  0  0  0
 12 15  1  0  0  0
 13 14  1  0  0  0
 13 16  1  0  0  0
 16 17  1  0  0  0
 17 18  1  0  0  0
 18 19  2  0  0  0
 18 20  1  0  0  0
 18 21  1  0  0  0
 21 22  1  0  0  0
 22 23  2  0  0  0
 22 24  1  0  0  0
 22 25  1  0  0  0
 25 26  1  0  0  0
 26 27  2  0  0  0
 26 28  1  0  0  0
 26 29  1  0  0  0
  3 30  1  0  0  0
  4 31  1  0  0  0
  5 32  1  0  0  0
  5 33  1  0  0  0
  6 34  1  0  0  0
  6 35  1  0  0  0
  8 36  1  0  0  0
  8 37  1  0  0  0
  8 38  1  0  0  0
  9 39  1  0  0  0
 10 40  1  0  0  0
 11 41  1  0  0  0
 12 42  1  0  0  0
 13 43  1  0  0  0
 15 44  1  0  0  0
 16 45  1  0  0  0
 16 46  1  0  0  0
 20 47  1  0  0  0
 24 48  1  0  0  0
 28 49  1  0  0  0
 29 50  1  0  0  0
M  END
$$$$
