### 
### Created by X-TOOL on Wed Jan  1 15:39:38 2020
### 

@<TRIPOS>MOLECULE
6e05_ligand
   46    47     1     0     0
SMALL
GAST_HUCK


@<TRIPOS>ATOM
      1 N1        -12.6330  -37.0460   24.2270 N.am      1 CTP        -0.2299
      2 C2        -14.0110  -37.6350   24.0660 C.2       1 CTP         0.2660
      3 N3        -15.1950  -36.7280   23.8990 N.am      1 CTP        -0.2318
      4 C4        -15.0550  -35.2910   23.9170 C.3       1 CTP         0.0655
      5 C5        -13.6960  -34.6960   24.0910 C.3       1 CTP         0.0329
      6 C6        -12.4980  -35.5910   24.2460 C.3       1 CTP         0.0441
      7 O2        -14.1870  -38.8170   24.0530 O.2       1 CTP        -0.4004
      8 N4        -16.2400  -34.4300   23.7490 N.4       1 CTP         0.2380
      9 C1'       -11.5600  -37.8630   24.4180 C.3       1 CTP         0.1745
     10 C2'       -10.8090  -38.3370   23.1640 C.3       1 CTP         0.1307
     11 O2'       -11.2990  -39.6930   22.8190 O.3       1 CTP        -0.3844
     12 C3'        -9.5100  -38.3730   23.5360 C.3       1 CTP         0.1141
     13 C4'        -9.3190  -37.2910   24.7390 C.3       1 CTP         0.1181
     14 O4'       -10.4670  -37.1790   25.3450 O.3       1 CTP        -0.3432
     15 O3'        -9.1340  -39.6540   24.0700 O.3       1 CTP        -0.3864
     16 C5'        -8.9270  -35.9260   24.2120 C.3       1 CTP         0.1131
     17 O5'        -9.4830  -35.7110   22.9460 O.3       1 CTP        -0.2441
     18 PA         -8.4040  -35.1410   21.8400 P.3       1 CTP         0.3266
     19 O1A        -9.1380  -34.4880   20.6820 O.co2     1 CTP        -0.5692
     20 O2A        -7.4550  -36.2600   21.4060 O.co2     1 CTP        -0.5692
     21 O3A        -7.6180  -33.9430   22.6550 O.3       1 CTP        -0.1171
     22 PB         -6.4210  -33.1870   21.8030 P.3       1 CTP         0.3553
     23 O1B        -6.8110  -33.1950   20.3310 O.co2     1 CTP        -0.5652
     24 O2B        -6.1400  -31.7770   22.3050 O.co2     1 CTP        -0.5652
     25 O3B        -5.1810  -34.2200   22.0440 O.3       1 CTP        -0.1546
     26 PG         -3.6910  -33.8820   21.4980 P.3       1 CTP         0.1879
     27 O1G        -3.8010  -33.5180   20.0440 O.co2     1 CTP        -0.6091
     28 O2G        -2.8290  -35.1100   21.6770 O.co2     1 CTP        -0.6091
     29 O3G        -3.1670  -32.7530   22.3440 O.co2     1 CTP        -0.6091
     30 H1        -16.1025  -37.1284   23.7722 H         1 CTP         0.1900
     31 H2        -15.2031  -35.2830   25.0069 H         1 CTP         0.1137
     32 H3        -13.7387  -34.0641   24.9903 H         1 CTP         0.0362
     33 H4        -13.5097  -34.0661   23.2087 H         1 CTP         0.0362
     34 H5        -11.8071  -35.3312   23.4304 H         1 CTP         0.0523
     35 H6        -12.0389  -35.3330   25.2117 H         1 CTP         0.0523
     36 H7        -15.9603  -33.4623   23.7872 H         1 CTP         0.2017
     37 H8        -16.8997  -34.6185   24.4874 H         1 CTP         0.2017
     38 H9        -16.6701  -34.6204   22.8575 H         1 CTP         0.2017
     39 H10       -11.9414  -38.7586   24.9302 H         1 CTP         0.0895
     40 H11       -10.9583  -37.6497   22.3183 H         1 CTP         0.0668
     41 H12       -11.1313  -40.2832   23.5444 H         1 CTP         0.2101
     42 H13        -8.8697  -38.1224   22.6774 H         1 CTP         0.0648
     43 H14        -8.5495  -37.6484   25.4391 H         1 CTP         0.0651
     44 H15        -9.2313  -40.3173   23.3970 H         1 CTP         0.2100
     45 H16        -7.8309  -35.8666   24.1407 H         1 CTP         0.0648
     46 H17        -9.2920  -35.1525   24.9037 H         1 CTP         0.0648
@<TRIPOS>BOND
     1    1    2 am 
     2    1    6 1  
     3    1    9 1  
     4    2    3 am 
     5    2    7 2  
     6    3    4 1  
     7    4    5 1  
     8    4    8 1  
     9    5    6 1  
    10    9   10 1  
    11    9   14 1  
    12   10   11 1  
    13   10   12 1  
    14   12   13 1  
    15   12   15 1  
    16   13   14 1  
    17   13   16 1  
    18   16   17 1  
    19   17   18 1  
    20   18   19 ar 
    21   18   20 ar 
    22   18   21 1  
    23   21   22 1  
    24   22   23 ar 
    25   22   24 ar 
    26   22   25 1  
    27   25   26 1  
    28   26   27 ar 
    29   26   28 ar 
    30   26   29 ar 
    31    3   30 1  
    32    4   31 1  
    33    5   32 1  
    34    5   33 1  
    35    6   34 1  
    36    6   35 1  
    37    8   36 1  
    38    8   37 1  
    39    8   38 1  
    40    9   39 1  
    41   10   40 1  
    42   11   41 1  
    43   12   42 1  
    44   13   43 1  
    45   15   44 1  
    46   16   45 1  
    47   16   46 1  
@<TRIPOS>SUBSTRUCTURE
     1 CTP         1

