6pg3_ligand
  -I-interpret- 

 24 24  0  0  0  0  0  0  0  0999 V2000
  -24.0370  -16.9630  139.9390 C   0  0  0  0  0
  -28.6610  -10.7940  143.5710 C   0  0  0  0  0
  -27.2850  -11.0110  142.9360 C   0  0  0  0  0
  -27.2910  -12.2930  142.0960 C   0  0  0  0  0
  -26.0320  -12.5020  141.2850 C   0  0  0  0  0
  -25.8870  -13.8830  140.6790 C   0  0  0  0  0
  -26.7990  -14.5430  139.9310 N   0  0  0  0  0
  -26.2910  -15.7340  139.5290 C   0  0  0  0  0
  -25.0150  -15.8070  140.0880 C   0  0  0  0  0
  -24.8050  -14.6530  140.7740 N   0  0  0  0  0
  -24.5980  -18.0140  139.1780 O   0  0  0  0  0
  -23.7949  -17.3434  140.9314 H   0  0  0  0  0
  -23.1459  -16.6004  139.4267 H   0  0  0  0  0
  -29.4121  -10.7054  142.7861 H   0  0  0  0  0
  -28.9018  -11.6421  144.2120 H   0  0  0  0  0
  -28.6454   -9.8805  144.1655 H   0  0  0  0  0
  -26.5371  -11.1021  143.7237 H   0  0  0  0  0
  -27.0489  -10.1627  142.2936 H   0  0  0  0  0
  -28.1199  -12.2150  141.3924 H   0  0  0  0  0
  -27.3739  -13.1321  142.7868 H   0  0  0  0  0
  -25.1915  -12.3657  141.9655 H   0  0  0  0  0
  -26.0693  -11.7954  140.4559 H   0  0  0  0  0
  -26.7781  -16.4792  138.9001 H   0  0  0  0  0
  -23.9603  -18.7274  139.1008 H   0  0  0  0  0
  9  1  1  0  0  0
  1 11  1  0  0  0
  3  2  1  0  0  0
  4  3  1  0  0  0
  5  4  1  0  0  0
  6  5  1  0  0  0
  7  6  4  0  0  0
  6 10  4  0  0  0
  8  7  4  0  0  0
  8  9  4  0  0  0
  9 10  4  0  0  0
  1 12  1  0  0  0
  1 13  1  0  0  0
  2 14  1  0  0  0
  2 15  1  0  0  0
  2 16  1  0  0  0
  3 17  1  0  0  0
  3 18  1  0  0  0
  4 19  1  0  0  0
  4 20  1  0  0  0
  5 21  1  0  0  0
  5 22  1  0  0  0
  8 23  1  0  0  0
 11 24  1  0  0  0
M  END
$$$$
