1hfs_ligand
  -I-interpret- 

100104  0  0  0  0  0  0  0  0999 V2000
   32.9150   37.5740   23.1970 C   0  0  0  0  0
   32.6320   36.2230   23.8700 C   0  0  0  0  0
   32.1460   36.3930   25.3140 C   0  0  0  0  0
   37.6910   41.4960   22.8650 C   0  0  0  0  0
   38.6070   31.8190   30.3870 C   0  0  0  0  0
   38.5270   32.1740   31.7300 C   0  0  0  0  0
   35.1500   35.8090   24.3660 C   0  0  0  0  0
   35.9020   34.7400   25.1640 C   0  0  0  0  0
   35.2310   34.3540   26.4550 C   0  0  0  0  0
   36.1280   33.6970   27.4580 C   0  0  0  0  0
   36.1910   32.3140   27.5530 C   0  0  0  0  0
   36.9950   31.7110   28.5020 C   0  0  0  0  0
   37.7580   32.4750   29.3800 C   0  0  0  0  0
   37.6990   33.8600   29.2850 C   0  0  0  0  0
   36.8920   34.4630   28.3310 C   0  0  0  0  0
   36.0400   36.2680   23.2200 C   0  0  0  0  0
   39.3300   31.5500   32.6790 C   0  0  0  0  0
   33.8250   35.2660   23.8320 C   0  0  0  0  0
   37.9420   37.6140   22.5420 C   0  0  0  0  0
   38.2620   39.0930   22.7670 C   0  0  0  0  0
   37.1080   40.0990   22.7440 C   0  0  0  0  0
   36.2920   39.9630   21.4590 C   0  0  0  0  0
   31.7010   38.4800   23.0780 C   0  0  0  0  0
   32.0250   39.7350   22.2790 C   0  0  0  0  0
   30.9230   40.7780   22.3960 C   0  0  0  0  0
   28.7070   39.8810   22.8380 C   0  0  0  0  0
   39.2150   36.7850   22.6710 C   0  0  0  0  0
   29.1300   40.2090   20.5500 C   0  0  0  0  0
   27.5230   39.3830   22.1270 C   0  0  0  0  0
   40.7960   35.4580   21.3600 C   0  0  0  0  0
   41.0970   35.0520   20.0610 C   0  0  0  0  0
   42.2180   34.2710   19.7960 C   0  0  0  0  0
   43.0540   33.8830   20.8370 C   0  0  0  0  0
   42.7660   34.2820   22.1420 C   0  0  0  0  0
   41.6420   35.0640   22.3960 C   0  0  0  0  0
   27.7580   39.5650   20.7400 C   0  0  0  0  0
   26.3330   38.7800   22.5590 C   0  0  0  0  0
   26.7980   39.1400   19.8130 C   0  0  0  0  0
   25.6260   38.5430   20.2680 C   0  0  0  0  0
   25.3990   38.3650   21.6220 C   0  0  0  0  0
   40.2150   30.5500   32.3010 C   0  0  0  0  0
   40.3030   30.2010   30.9610 C   0  0  0  0  0
   39.5070   30.8280   30.0120 C   0  0  0  0  0
   29.6230   40.2980   21.9300 N   0  0  0  0  0
   37.0020   37.1270   23.5410 N   0  0  0  0  0
   39.6720   36.2400   21.5430 N   0  0  0  0  0
   28.8620   39.8810   24.0620 O   0  0  0  0  0
   31.2640   35.6240   25.7050 O   0  0  0  0  0
   32.6250   37.2370   26.1150 O   0  0  0  0  0
   35.8610   35.8530   22.0720 O   0  0  0  0  0
   39.7240   36.5970   23.7790 O   0  0  0  0  0
   40.9820   29.9220   33.2160 F   0  0  0  0  0
   33.6442   38.0948   23.8175 H   0  0  0  0  0
   33.2575   37.3622   22.1841 H   0  0  0  0  0
   31.8341   35.7728   23.2795 H   0  0  0  0  0
   38.2413   41.5788   23.8023 H   0  0  0  0  0
   38.3654   41.6806   22.0288 H   0  0  0  0  0
   36.8834   42.2279   22.8505 H   0  0  0  0  0
   37.8274   32.9496   32.0418 H   0  0  0  0  0
   34.9160   36.6512   25.0172 H   0  0  0  0  0
   36.8781   35.1533   25.4181 H   0  0  0  0  0
   35.9471   33.8453   24.5431 H   0  0  0  0  0
   34.4546   33.6313   26.2040 H   0  0  0  0  0
   34.8686   35.2754   26.9107 H   0  0  0  0  0
   35.6016   31.6981   26.8737 H   0  0  0  0  0
   37.0319   30.6234   28.5635 H   0  0  0  0  0
   38.2896   34.4758   29.9633 H   0  0  0  0  0
   36.8566   35.5504   28.2652 H   0  0  0  0  0
   39.2638   31.8481   33.7254 H   0  0  0  0  0
   33.9945   35.0357   22.7802 H   0  0  0  0  0
   33.5605   34.4272   24.4759 H   0  0  0  0  0
   37.5098   37.5180   21.5460 H   0  0  0  0  0
   38.9050   39.3764   21.9338 H   0  0  0  0  0
   38.6685   39.1472   23.7769 H   0  0  0  0  0
   36.4334   39.9047   23.5778 H   0  0  0  0  0
   36.9364   40.1481   20.5996 H   0  0  0  0  0
   35.8809   38.9555   21.3961 H   0  0  0  0  0
   35.4788   40.6887   21.4680 H   0  0  0  0  0
   31.3893   38.7766   24.0795 H   0  0  0  0  0
   30.9099   37.9349   22.5631 H   0  0  0  0  0
   32.1247   39.4575   21.2297 H   0  0  0  0  0
   32.9465   40.1639   22.6726 H   0  0  0  0  0
   31.2043   41.6267   21.7726 H   0  0  0  0  0
   30.8216   41.0342   23.4506 H   0  0  0  0  0
   29.7868   39.6373   19.8944 H   0  0  0  0  0
   29.0863   41.1742   20.0455 H   0  0  0  0  0
   40.4446   35.3507   19.2404 H   0  0  0  0  0
   42.4402   33.9640   18.7740 H   0  0  0  0  0
   43.9315   33.2691   20.6339 H   0  0  0  0  0
   43.4193   33.9824   22.9614 H   0  0  0  0  0
   41.4207   35.3721   23.4179 H   0  0  0  0  0
   26.1437   38.6386   23.6231 H   0  0  0  0  0
   26.9672   39.2756   18.7448 H   0  0  0  0  0
   24.8771   38.2113   19.5489 H   0  0  0  0  0
   24.4749   37.8929   21.9555 H   0  0  0  0  0
   41.0043   29.4266   30.6502 H   0  0  0  0  0
   39.5884   30.5408   28.9637 H   0  0  0  0  0
   37.0831   37.4508   24.5048 H   0  0  0  0  0
   39.1194   36.4247   20.7058 H   0  0  0  0  0
   33.2953   37.7577   25.6665 H   0  0  0  0  0
  1 23  1  0  0  0
  1  2  1  0  0  0
  2 18  1  0  0  0
  2  3  1  0  0  0
  3 49  1  0  0  0
  3 48  2  0  0  0
 18  7  1  0  0  0
  7 16  1  0  0  0
  7  8  1  0  0  0
  8  9  1  0  0  0
  9 10  1  0  0  0
 10 15  4  0  0  0
 10 11  4  0  0  0
 11 12  4  0  0  0
 12 13  4  0  0  0
 13 14  4  0  0  0
 13  5  1  0  0  0
  5 43  4  0  0  0
  5  6  4  0  0  0
  6 17  4  0  0  0
 17 41  4  0  0  0
 41 42  4  0  0  0
 42 43  4  0  0  0
 14 15  4  0  0  0
 16 50  2  0  0  0
 16 45  1  0  0  0
 45 19  1  0  0  0
 19 27  1  0  0  0
 19 20  1  0  0  0
 20 21  1  0  0  0
 21  4  1  0  0  0
 21 22  1  0  0  0
 27 51  2  0  0  0
 27 46  1  0  0  0
 46 30  1  0  0  0
 30 35  4  0  0  0
 30 31  4  0  0  0
 31 32  4  0  0  0
 32 33  4  0  0  0
 33 34  4  0  0  0
 34 35  4  0  0  0
 23 24  1  0  0  0
 24 25  1  0  0  0
 25 44  1  0  0  0
 44 28  1  0  0  0
 44 26  1  0  0  0
 26 47  2  0  0  0
 26 29  1  0  0  0
 29 37  4  0  0  0
 29 36  4  0  0  0
 36 28  1  0  0  0
 36 38  4  0  0  0
 38 39  4  0  0  0
 39 40  4  0  0  0
 40 37  4  0  0  0
 41 52  1  0  0  0
  1 53  1  0  0  0
  1 54  1  0  0  0
  2 55  1  0  0  0
  4 56  1  0  0  0
  4 57  1  0  0  0
  4 58  1  0  0  0
  6 59  1  0  0  0
  7 60  1  0  0  0
  8 61  1  0  0  0
  8 62  1  0  0  0
  9 63  1  0  0  0
  9 64  1  0  0  0
 11 65  1  0  0  0
 12 66  1  0  0  0
 14 67  1  0  0  0
 15 68  1  0  0  0
 17 69  1  0  0  0
 18 70  1  0  0  0
 18 71  1  0  0  0
 19 72  1  0  0  0
 20 73  1  0  0  0
 20 74  1  0  0  0
 21 75  1  0  0  0
 22 76  1  0  0  0
 22 77  1  0  0  0
 22 78  1  0  0  0
 23 79  1  0  0  0
 23 80  1  0  0  0
 24 81  1  0  0  0
 24 82  1  0  0  0
 25 83  1  0  0  0
 25 84  1  0  0  0
 28 85  1  0  0  0
 28 86  1  0  0  0
 31 87  1  0  0  0
 32 88  1  0  0  0
 33 89  1  0  0  0
 34 90  1  0  0  0
 35 91  1  0  0  0
 37 92  1  0  0  0
 38 93  1  0  0  0
 39 94  1  0  0  0
 40 95  1  0  0  0
 42 96  1  0  0  0
 43 97  1  0  0  0
 45 98  1  0  0  0
 46 99  1  0  0  0
 49100  1  0  0  0
M  END
$$$$
