1u9x_ligand
  -I-interpret- 

 70 74  0  0  0  0  0  0  0  0999 V2000
   63.2290   13.4970   -7.7640 N   0  0  0  0  0
   62.6390   12.3060   -8.1040 C   0  0  0  0  0
   61.4130   12.1700   -7.5960 N   0  0  0  0  0
   61.2040   15.7950   -5.6250 C   0  0  0  0  0
   62.3160   15.4290   -6.3430 N   0  0  0  0  0
   62.2680   14.1790   -6.9610 C   0  0  0  0  0
   61.2100   13.3480   -6.8880 C   0  0  0  0  0
   60.1310   13.7440   -6.1630 C   0  0  0  0  0
   60.1280   14.9810   -5.5250 N   0  0  0  0  0
   59.0830   12.8210   -6.1380 N   0  0  0  0  0
   62.1080   17.8940   -5.0030 N   0  0  0  0  0
   64.5490   14.0270   -8.1150 C   0  0  0  0  0
   64.6450   14.4460   -9.5750 C   0  0  0  0  0
   66.1410   14.3860   -9.8380 C   0  0  0  0  0
   66.5320   13.0670   -9.1810 C   0  0  0  0  0
   65.6930   13.0210   -7.8950 C   0  0  0  0  0
   57.9450   12.8490   -5.3170 C   0  0  0  0  0
   57.1360   14.0340   -5.1660 C   0  0  0  0  0
   55.9820   14.0200   -4.3210 C   0  0  0  0  0
   55.6210   12.8280   -3.6200 C   0  0  0  0  0
   56.4150   11.6500   -3.7630 C   0  0  0  0  0
   57.5870   11.6440   -4.6110 C   0  0  0  0  0
   58.3990   10.5370   -4.7910 O   0  0  0  0  0
   58.8220    9.7400   -3.6660 C   0  0  0  0  0
   59.6390    8.5610   -4.1950 C   0  0  0  0  0
   60.8890    9.0090   -4.9680 C   0  0  0  0  0
   61.6650    7.8540   -5.4760 N   0  3  0  0  0
   61.7120    7.7020   -6.9650 C   0  0  0  0  0
   62.3730    6.3640   -7.3700 C   0  0  0  0  0
   63.7490    6.2760   -6.7880 N   0  3  0  0  0
   63.7250    6.4160   -5.2940 C   0  0  0  0  0
   63.0520    7.7540   -4.8960 C   0  0  0  0  0
   64.3850    4.9880   -7.1690 C   0  0  0  0  0
   61.1410   17.0940   -4.9380 C   0  0  0  0  0
   63.1213   11.5503   -8.7240 H   0  0  0  0  0
   59.1525   12.0391   -6.7893 H   0  0  0  0  0
   62.9421   17.6438   -5.5342 H   0  0  0  0  0
   64.6584   14.8824   -7.4483 H   0  0  0  0  0
   64.2175   15.4304   -9.7653 H   0  0  0  0  0
   64.0686   13.8047  -10.2417 H   0  0  0  0  0
   66.6823   15.2428   -9.4367 H   0  0  0  0  0
   66.3928   14.4293  -10.8976 H   0  0  0  0  0
   67.6011   13.0114   -8.9760 H   0  0  0  0  0
   66.3378   12.2122   -9.8288 H   0  0  0  0  0
   65.3118   12.0182   -7.7022 H   0  0  0  0  0
   66.2890   13.2788   -7.0195 H   0  0  0  0  0
   57.4059   14.9456   -5.6992 H   0  0  0  0  0
   55.3769   14.9200   -4.2115 H   0  0  0  0  0
   54.7408   12.8182   -2.9771 H   0  0  0  0  0
   56.1345   10.7437   -3.2264 H   0  0  0  0  0
   57.9534    9.3771   -3.1166 H   0  0  0  0  0
   59.4278   10.3411   -2.9880 H   0  0  0  0  0
   59.0068    7.9942   -4.8785 H   0  0  0  0  0
   59.9669    7.9694   -3.3403 H   0  0  0  0  0
   61.5254    9.5778   -4.2901 H   0  0  0  0  0
   60.5683    9.6079   -5.8204 H   0  0  0  0  0
   61.1143    7.0669   -5.1332 H   0  0  0  0  0
   62.3005    8.5204   -7.3798 H   0  0  0  0  0
   60.6918    7.7161   -7.3485 H   0  0  0  0  0
   62.4392    6.3112   -8.4567 H   0  0  0  0  0
   61.7705    5.5377   -6.9927 H   0  0  0  0  0
   64.2974    7.0483   -7.1665 H   0  0  0  0  0
   64.7476    6.4035   -4.9168 H   0  0  0  0  0
   63.1583    5.5891   -4.8660 H   0  0  0  0  0
   62.9809    7.8001   -3.8093 H   0  0  0  0  0
   63.6532    8.5767   -5.2832 H   0  0  0  0  0
   63.7833    4.1614   -6.7912 H   0  0  0  0  0
   64.4512    4.9242   -8.2551 H   0  0  0  0  0
   65.3853    4.9370   -6.7391 H   0  0  0  0  0
   60.2510   17.3642   -4.3696 H   0  0  0  0  0
  1  2  4  0  0  0
  6  1  4  0  0  0
  1 12  1  0  0  0
  2  3  4  0  0  0
  3  7  4  0  0  0
  5  4  4  0  0  0
  4  9  4  0  0  0
  4 34  1  0  0  0
  5  6  4  0  0  0
  6  7  4  0  0  0
  7  8  4  0  0  0
  8  9  4  0  0  0
  8 10  1  0  0  0
 10 17  1  0  0  0
 34 11  2  0  0  0
 12 13  1  0  0  0
 12 16  1  0  0  0
 13 14  1  0  0  0
 14 15  1  0  0  0
 15 16  1  0  0  0
 17 18  4  0  0  0
 17 22  4  0  0  0
 18 19  4  0  0  0
 19 20  4  0  0  0
 20 21  4  0  0  0
 21 22  4  0  0  0
 22 23  1  0  0  0
 23 24  1  0  0  0
 24 25  1  0  0  0
 25 26  1  0  0  0
 26 27  1  0  0  0
 27 28  1  0  0  0
 27 32  1  0  0  0
 28 29  1  0  0  0
 29 30  1  0  0  0
 30 31  1  0  0  0
 30 33  1  0  0  0
 31 32  1  0  0  0
  2 35  1  0  0  0
 10 36  1  0  0  0
 11 37  1  0  0  0
 12 38  1  0  0  0
 13 39  1  0  0  0
 13 40  1  0  0  0
 14 41  1  0  0  0
 14 42  1  0  0  0
 15 43  1  0  0  0
 15 44  1  0  0  0
 16 45  1  0  0  0
 16 46  1  0  0  0
 18 47  1  0  0  0
 19 48  1  0  0  0
 20 49  1  0  0  0
 21 50  1  0  0  0
 24 51  1  0  0  0
 24 52  1  0  0  0
 25 53  1  0  0  0
 25 54  1  0  0  0
 26 55  1  0  0  0
 26 56  1  0  0  0
 27 57  1  0  0  0
 28 58  1  0  0  0
 28 59  1  0  0  0
 29 60  1  0  0  0
 29 61  1  0  0  0
 30 62  1  0  0  0
 31 63  1  0  0  0
 31 64  1  0  0  0
 32 65  1  0  0  0
 32 66  1  0  0  0
 33 67  1  0  0  0
 33 68  1  0  0  0
 33 69  1  0  0  0
 34 70  1  0  0  0
M  END
$$$$
