### 
### Created by X-TOOL on Mon Sep 10 21:12:52 2018
### 

@<TRIPOS>MOLECULE
1u9x_ligand
   70    74     1     0     0
SMALL
GAST_HUCK


@<TRIPOS>ATOM
      1 N01        63.2290   13.4970   -7.7640 N.pl3     1 IHJ        -0.2154
      2 C02        62.6390   12.3060   -8.1040 C.2       1 IHJ         0.1134
      3 N03        61.4130   12.1700   -7.5960 N.2       1 IHJ        -0.2898
      4 C05        61.2040   15.7950   -5.6250 C.ar      1 IHJ         0.1236
      5 N06        62.3160   15.4290   -6.3430 N.ar      1 IHJ        -0.2530
      6 C07        62.2680   14.1790   -6.9610 C.ar      1 IHJ         0.1680
      7 C08        61.2100   13.3480   -6.8880 C.ar      1 IHJ         0.1144
      8 C09        60.1310   13.7440   -6.1630 C.ar      1 IHJ         0.1546
      9 N10        60.1280   14.9810   -5.5250 N.ar      1 IHJ        -0.2528
     10 N11        59.0830   12.8210   -6.1380 N.pl3     1 IHJ        -0.2562
     11 N13        62.1080   17.8940   -5.0030 N.2       1 IHJ        -0.3350
     12 C16        64.5490   14.0270   -8.1150 C.3       1 IHJ         0.0721
     13 C17        64.6450   14.4460   -9.5750 C.3       1 IHJ        -0.0224
     14 C18        66.1410   14.3860   -9.8380 C.3       1 IHJ        -0.0502
     15 C19        66.5320   13.0670   -9.1810 C.3       1 IHJ        -0.0502
     16 C20        65.6930   13.0210   -7.8950 C.3       1 IHJ        -0.0224
     17 C30        57.9450   12.8490   -5.3170 C.ar      1 IHJ         0.0953
     18 C31        57.1360   14.0340   -5.1660 C.ar      1 IHJ        -0.0459
     19 C32        55.9820   14.0200   -4.3210 C.ar      1 IHJ        -0.0824
     20 C33        55.6210   12.8280   -3.6200 C.ar      1 IHJ        -0.0821
     21 C34        56.4150   11.6500   -3.7630 C.ar      1 IHJ        -0.0419
     22 C35        57.5870   11.6440   -4.6110 C.ar      1 IHJ         0.1157
     23 O40        58.3990   10.5370   -4.7910 O.3       1 IHJ        -0.3216
     24 C41        58.8220    9.7400   -3.6660 C.3       1 IHJ         0.0729
     25 C42        59.6390    8.5610   -4.1950 C.3       1 IHJ         0.0150
     26 C43        60.8890    9.0090   -4.9680 C.3       1 IHJ        -0.0290
     27 N51        61.6650    7.8540   -5.4760 N.4       1 IHJ         0.2428
     28 C52        61.7120    7.7020   -6.9650 C.3       1 IHJ         0.0094
     29 C53        62.3730    6.3640   -7.3700 C.3       1 IHJ         0.0092
     30 N54        63.7490    6.2760   -6.7880 N.4       1 IHJ         0.2405
     31 C55        63.7250    6.4160   -5.2940 C.3       1 IHJ         0.0092
     32 C56        63.0520    7.7540   -4.8960 C.3       1 IHJ         0.0094
     33 C61        64.3850    4.9880   -7.1690 C.3       1 IHJ        -0.0427
     34 C12        61.1410   17.0940   -4.9380 C.2       1 IHJ         0.0482
     35 H1         63.1208   11.5510   -8.7235 H         1 IHJ         0.1373
     36 H2         59.1532   12.0314   -6.7957 H         1 IHJ         0.2145
     37 H3         62.0594   18.7829   -4.5302 H         1 IHJ         0.1353
     38 H4         64.7274   14.9075   -7.4803 H         1 IHJ         0.0651
     39 H5         64.2562   15.4644   -9.7225 H         1 IHJ         0.0295
     40 H6         64.0989   13.7472  -10.2257 H         1 IHJ         0.0295
     41 H7         66.6623   15.2342   -9.3703 H         1 IHJ         0.0266
     42 H8         66.3559   14.3731  -10.9167 H         1 IHJ         0.0266
     43 H9         67.6065   13.0520   -8.9461 H         1 IHJ         0.0266
     44 H10        66.2880   12.2178   -9.8361 H         1 IHJ         0.0266
     45 H11        65.2905   12.0100   -7.7345 H         1 IHJ         0.0295
     46 H12        66.3023   13.3151   -7.0277 H         1 IHJ         0.0295
     47 H13        57.4044   14.9406   -5.6962 H         1 IHJ         0.0504
     48 H14        55.3802   14.9150   -4.2121 H         1 IHJ         0.0494
     49 H15        54.7457   12.8183   -2.9807 H         1 IHJ         0.0493
     50 H16        56.1360   10.7486   -3.2293 H         1 IHJ         0.0507
     51 H17        57.9417    9.3682   -3.1213 H         1 IHJ         0.0611
     52 H18        59.4411   10.3486   -2.9905 H         1 IHJ         0.0611
     53 H19        59.0038    7.9652   -4.8670 H         1 IHJ         0.0343
     54 H20        59.9548    7.9406   -3.3433 H         1 IHJ         0.0343
     55 H21        61.5293    9.6008   -4.2974 H         1 IHJ         0.0815
     56 H22        60.5769    9.6307   -5.8201 H         1 IHJ         0.0815
     57 H23        61.1680    7.0439   -5.1403 H         1 IHJ         0.2038
     58 H24        62.2926    8.5328   -7.3923 H         1 IHJ         0.0868
     59 H25        60.6862    7.7297   -7.3611 H         1 IHJ         0.0868
     60 H26        62.4370    6.3066   -8.4666 H         1 IHJ         0.0868
     61 H27        61.7644    5.5285   -6.9939 H         1 IHJ         0.0868
     62 H28        64.3005    7.0299   -7.1669 H         1 IHJ         0.2035
     63 H29        64.7557    6.3988   -4.9102 H         1 IHJ         0.0868
     64 H30        63.1578    5.5799   -4.8591 H         1 IHJ         0.0868
     65 H31        62.9885    7.8125   -3.7994 H         1 IHJ         0.0868
     66 H32        63.6607    8.5890   -5.2731 H         1 IHJ         0.0868
     67 H33        64.3975    4.8954   -8.2650 H         1 IHJ         0.0778
     68 H34        63.8120    4.1542   -6.7371 H         1 IHJ         0.0778
     69 H35        65.4162    4.9611   -6.7870 H         1 IHJ         0.0778
     70 H36        60.2519   17.3639   -4.3701 H         1 IHJ         0.1144
@<TRIPOS>BOND
     1    1    2 1  
     2    6    1 1  
     3    1   12 1  
     4    2    3 2  
     5    3    7 1  
     6    5    4 ar 
     7    4    9 ar 
     8    4   34 1  
     9    5    6 ar 
    10    6    7 ar 
    11    7    8 ar 
    12    8    9 ar 
    13    8   10 1  
    14   10   17 1  
    15   34   11 2  
    16   12   13 1  
    17   12   16 1  
    18   13   14 1  
    19   14   15 1  
    20   15   16 1  
    21   17   18 ar 
    22   17   22 ar 
    23   18   19 ar 
    24   19   20 ar 
    25   20   21 ar 
    26   21   22 ar 
    27   22   23 1  
    28   23   24 1  
    29   24   25 1  
    30   25   26 1  
    31   26   27 1  
    32   27   28 1  
    33   27   32 1  
    34   28   29 1  
    35   29   30 1  
    36   30   31 1  
    37   30   33 1  
    38   31   32 1  
    39    2   35 1  
    40   10   36 1  
    41   11   37 1  
    42   12   38 1  
    43   13   39 1  
    44   13   40 1  
    45   14   41 1  
    46   14   42 1  
    47   15   43 1  
    48   15   44 1  
    49   16   45 1  
    50   16   46 1  
    51   18   47 1  
    52   19   48 1  
    53   20   49 1  
    54   21   50 1  
    55   24   51 1  
    56   24   52 1  
    57   25   53 1  
    58   25   54 1  
    59   26   55 1  
    60   26   56 1  
    61   27   57 1  
    62   28   58 1  
    63   28   59 1  
    64   29   60 1  
    65   29   61 1  
    66   30   62 1  
    67   31   63 1  
    68   31   64 1  
    69   32   65 1  
    70   32   66 1  
    71   33   67 1  
    72   33   68 1  
    73   33   69 1  
    74   34   70 1  
@<TRIPOS>SUBSTRUCTURE
     1 IHJ         1

