5z1d_ligand
  -I-interpret- 

 37 39  0  0  0  0  0  0  0  0999 V2000
   13.5620   -1.9760  -13.9590 O   0  0  0  0  0
   12.9510   -1.1200  -13.3230 C   0  0  0  0  0
   13.6540    0.2220  -13.1860 C   0  0  0  0  0
   13.8320    0.5300  -11.7270 C   0  0  0  0  0
   11.7470   -1.3580  -12.7390 N   0  0  0  0  0
   11.0890   -2.5650  -12.6650 C   0  0  0  0  0
   11.5390   -3.7930  -13.1870 C   0  0  0  0  0
   10.7690   -4.9690  -13.0790 C   0  0  0  0  0
    9.5570   -4.9260  -12.4000 C   0  0  0  0  0
    9.0900   -3.7210  -11.9020 C   0  0  0  0  0
    9.8500   -2.5520  -12.0300 C   0  0  0  0  0
   11.2360   -6.3050  -13.6040 C   0  0  0  0  0
   10.7700   -7.4740  -13.1280 N   0  0  0  0  0
   11.4200   -8.5440  -13.7890 N   0  0  0  0  0
   12.2930   -8.1170  -14.6900 C   0  0  0  0  0
   12.1940   -6.6380  -14.5910 C   0  0  0  0  0
   13.1750   -8.7190  -15.5700 C   0  0  0  0  0
   13.9670   -7.9010  -16.3830 C   0  0  0  0  0
   14.9330   -8.5140  -17.3620 C   0  0  0  0  0
   13.8890   -6.5080  -16.3100 C   0  0  0  0  0
   13.0140   -5.8690  -15.4220 C   0  0  0  0  0
   13.0556    1.0017  -13.6572 H   0  0  0  0  0
   14.6270    0.1804  -13.6756 H   0  0  0  0  0
   12.8556    0.5734  -11.2444 H   0  0  0  0  0
   14.4337   -0.2514  -11.2628 H   0  0  0  0  0
   14.3354    1.4907  -11.6186 H   0  0  0  0  0
   11.2818   -0.5579  -12.3103 H   0  0  0  0  0
   12.5067   -3.8353  -13.6870 H   0  0  0  0  0
    8.9760   -5.8376  -12.2599 H   0  0  0  0  0
    8.1206   -3.6822  -11.4052 H   0  0  0  0  0
    9.4651   -1.6158  -11.6256 H   0  0  0  0  0
   13.2509   -9.8048  -15.6284 H   0  0  0  0  0
   15.6558   -9.1260  -16.8225 H   0  0  0  0  0
   14.3852   -9.1358  -18.0701 H   0  0  0  0  0
   15.4548   -7.7223  -17.8997 H   0  0  0  0  0
   14.5236   -5.9045  -16.9589 H   0  0  0  0  0
   12.9729   -4.7806  -15.3793 H   0  0  0  0  0
  1  2  2  0  0  0
  2  3  1  0  0  0
  2  5  1  0  0  0
  3  4  1  0  0  0
  5  6  1  0  0  0
  6  7  4  0  0  0
  6 11  4  0  0  0
  7  8  4  0  0  0
  8  9  4  0  0  0
  8 12  1  0  0  0
  9 10  4  0  0  0
 10 11  4  0  0  0
 12 13  4  0  0  0
 12 16  4  0  0  0
 13 14  4  0  0  0
 14 15  4  0  0  0
 15 16  4  0  0  0
 15 17  4  0  0  0
 16 21  4  0  0  0
 17 18  4  0  0  0
 18 19  1  0  0  0
 18 20  4  0  0  0
 20 21  4  0  0  0
  3 22  1  0  0  0
  3 23  1  0  0  0
  4 24  1  0  0  0
  4 25  1  0  0  0
  4 26  1  0  0  0
  5 27  1  0  0  0
  7 28  1  0  0  0
  9 29  1  0  0  0
 10 30  1  0  0  0
 11 31  1  0  0  0
 17 32  1  0  0  0
 19 33  1  0  0  0
 19 34  1  0  0  0
 19 35  1  0  0  0
 20 36  1  0  0  0
 21 37  1  0  0  0
M  END
$$$$
