1xow_ligand
  -I-interpret- 

 45 48  0  0  0  0  0  0  0  0999 V2000
   27.2730    5.3280    3.7120 C   0  0  0  0  0
   26.4510    6.5420    4.1340 C   0  0  0  0  0
   24.9630    6.4080    3.9610 C   0  0  0  0  0
   24.4020    5.1070    4.2980 C   0  0  0  0  0
   25.1310    3.9470    4.3720 C   0  0  0  0  0
   24.4330    2.6110    4.7480 C   0  0  0  0  0
   25.1750    1.4490    4.0730 C   0  0  0  0  0
   26.6550    1.4300    4.4970 C   0  0  0  0  0
   27.3360    2.8010    4.1460 C   0  0  0  0  0
   26.6220    3.9420    4.0680 C   0  0  0  0  0
   28.8100    2.7460    3.9390 C   0  0  0  0  0
   29.5530    1.6240    4.0180 C   0  0  0  0  0
   28.9480    0.2640    4.3110 C   0  0  0  0  0
   27.4610    0.2610    3.8450 C   0  0  0  0  0
   26.9340   -1.1800    4.1400 C   0  0  0  0  0
   28.2410   -1.9740    3.8510 C   0  0  0  0  0
   29.4280   -0.9660    3.5200 C   0  0  0  0  0
   29.0060    0.0310    5.8840 C   0  0  0  0  0
   29.4750   -0.7980    2.0210 C   0  0  0  0  0
   24.2470    7.3520    3.6270 O   0  0  0  0  0
   30.6330   -1.5560    4.0600 O   0  0  0  0  0
   28.2199    5.3823    4.2491 H   0  0  0  0  0
   27.3647    5.3673    2.6266 H   0  0  0  0  0
   26.7649    7.3670    3.4945 H   0  0  0  0  0
   26.6283    6.6815    5.2004 H   0  0  0  0  0
   23.3333    5.0512    4.5049 H   0  0  0  0  0
   23.3971    2.6306    4.4093 H   0  0  0  0  0
   24.4522    2.4791    5.8298 H   0  0  0  0  0
   25.1195    1.5757    2.9918 H   0  0  0  0  0
   24.7096    0.5107    4.3747 H   0  0  0  0  0
   26.6689    1.2687    5.5749 H   0  0  0  0  0
   29.3241    3.6788    3.7073 H   0  0  0  0  0
   30.6298    1.6967    3.8655 H   0  0  0  0  0
   27.3421    0.4635    2.7806 H   0  0  0  0  0
   26.0685   -1.4849    3.5517 H   0  0  0  0  0
   26.5165   -1.3243    5.1365 H   0  0  0  0  0
   28.0799   -2.6315    2.9967 H   0  0  0  0  0
   28.5048   -2.5628    4.7296 H   0  0  0  0  0
   30.0435    0.0625    6.2167 H   0  0  0  0  0
   28.4379    0.8135    6.3871 H   0  0  0  0  0
   28.5762   -0.9420    6.1220 H   0  0  0  0  0
   28.4764   -0.5649    1.6513 H   0  0  0  0  0
   30.1560    0.0149    1.7690 H   0  0  0  0  0
   29.8263   -1.7230    1.5638 H   0  0  0  0  0
   30.8825   -2.3150    3.5279 H   0  0  0  0  0
  1  2  1  0  0  0
  1 10  1  0  0  0
  2  3  1  0  0  0
  3  4  1  0  0  0
  3 20  2  0  0  0
  4  5  2  0  0  0
  5  6  1  0  0  0
  5 10  1  0  0  0
  6  7  1  0  0  0
  7  8  1  0  0  0
  8  9  1  0  0  0
  8 14  1  0  0  0
  9 10  2  0  0  0
  9 11  1  0  0  0
 11 12  2  0  0  0
 12 13  1  0  0  0
 13 14  1  0  0  0
 13 17  1  0  0  0
 13 18  1  0  0  0
 14 15  1  0  0  0
 15 16  1  0  0  0
 16 17  1  0  0  0
 17 19  1  0  0  0
 17 21  1  0  0  0
  1 22  1  0  0  0
  1 23  1  0  0  0
  2 24  1  0  0  0
  2 25  1  0  0  0
  4 26  1  0  0  0
  6 27  1  0  0  0
  6 28  1  0  0  0
  7 29  1  0  0  0
  7 30  1  0  0  0
  8 31  1  0  0  0
 11 32  1  0  0  0
 12 33  1  0  0  0
 14 34  1  0  0  0
 15 35  1  0  0  0
 15 36  1  0  0  0
 16 37  1  0  0  0
 16 38  1  0  0  0
 18 39  1  0  0  0
 18 40  1  0  0  0
 18 41  1  0  0  0
 19 42  1  0  0  0
 19 43  1  0  0  0
 19 44  1  0  0  0
 21 45  1  0  0  0
M  END
$$$$
