3ove_ligand
  -I-interpret- 

 72 73  0  0  0  0  0  0  0  0999 V2000
   -7.5820    7.1450    2.5380 C   0  0  0  0  0
   -8.7730    6.5600    2.5770 O   0  0  0  0  0
   -6.7720    7.0050    3.6880 C   0  0  0  0  0
   -7.1200    7.9360    1.5260 N   0  0  0  0  0
   -8.0060    8.1670    0.3510 C   0  0  0  0  0
   -7.2320    7.7880   -0.8920 C   0  0  0  0  0
   -6.0440    8.0950   -0.9580 O   0  0  0  0  0
   -8.3700    9.6550    0.2570 C   0  0  0  0  0
   -9.1210   10.0390    1.5460 C   0  0  0  0  0
  -10.5190    9.9000    1.6640 C   0  0  0  0  0
   -8.3640   10.4920    2.6000 C   0  0  0  0  0
  -11.1980   10.2020    2.8700 C   0  0  0  0  0
   -9.0390   10.7760    3.7940 C   0  0  0  0  0
  -10.4190   10.6810    3.9390 C   0  0  0  0  0
  -10.8740   11.0270    5.2180 O   0  0  0  0  0
  -12.3520   10.6820    5.6980 P   0  0  0  0  0
  -13.3120   11.7540    5.1280 O   0  0  0  0  0
  -12.6700    9.2380    5.3670 O   0  0  0  0  0
  -12.2600   10.8720    7.2540 O   0  0  0  0  0
   -5.7030    7.4870   -4.6350 O   0  0  0  0  0
   -8.2110    3.4420   -3.2480 C   0  0  0  0  0
   -7.3920    3.4140   -1.8870 C   0  0  0  0  0
   -9.0920    4.6730   -3.3540 C   0  0  0  0  0
   -6.4180    4.5520   -1.5960 C   0  0  0  0  0
   -8.4030    5.9290   -3.9250 C   0  0  0  0  0
   -6.1690    5.6180   -2.6910 C   0  0  0  0  0
   -7.9350    7.1360   -1.8330 N   0  0  0  0  0
   -6.7090    7.6910   -3.8710 C   0  0  0  0  0
   -7.3250    6.5890   -3.0470 C   0  0  0  0  0
   -7.4010    8.8360   -3.8310 N   0  0  0  0  0
   -6.9860   10.0110   -4.5670 C   0  0  0  0  0
   -6.2660   11.0090   -3.6720 C   0  0  0  0  0
   -6.1950   12.1670   -4.0750 O   0  0  0  0  0
   -8.2000   10.6410   -5.3250 C   0  0  0  0  0
   -9.2470   11.2750   -4.3600 C   0  0  0  0  0
   -9.3130   10.8650   -3.1780 O   0  0  0  0  0
  -10.0140   12.1970   -4.8870 N   0  0  0  0  0
   -5.7320   10.5940   -2.4830 N   0  0  0  0  0
   -7.2868    7.4336    4.5478 H   0  0  0  0  0
   -6.5791    5.9475    3.8684 H   0  0  0  0  0
   -5.8277    7.5263    3.5314 H   0  0  0  0  0
   -6.1925    8.3578    1.5731 H   0  0  0  0  0
   -8.9167    7.5763    0.4497 H   0  0  0  0  0
   -8.9983    9.8363   -0.6150 H   0  0  0  0  0
   -7.4688   10.2588    0.1502 H   0  0  0  0  0
  -11.0922    9.5511    0.8050 H   0  0  0  0  0
   -7.2858   10.6244    2.5106 H   0  0  0  0  0
  -12.2757   10.0692    2.9654 H   0  0  0  0  0
   -8.4506   11.0885    4.6567 H   0  0  0  0  0
  -13.0145   12.6253    5.3998 H   0  0  0  0  0
  -12.0584   11.7895    7.4518 H   0  0  0  0  0
   -8.8510    2.5603   -3.2796 H   0  0  0  0  0
   -7.5001    3.4587   -4.0741 H   0  0  0  0  0
   -6.7729    2.5189   -1.9467 H   0  0  0  0  0
   -8.1449    3.4770   -1.1014 H   0  0  0  0  0
   -9.4040    4.9219   -2.3397 H   0  0  0  0  0
   -9.8998    4.4206   -4.0409 H   0  0  0  0  0
   -5.4529    4.0674   -1.4486 H   0  0  0  0  0
   -6.8627    5.0991   -0.7647 H   0  0  0  0  0
   -9.1897    6.6740   -4.0436 H   0  0  0  0  0
   -7.8928    5.6042   -4.8318 H   0  0  0  0  0
   -5.9776    5.0530   -3.6033 H   0  0  0  0  0
   -5.3728    6.2511   -2.2994 H   0  0  0  0  0
   -8.9387    7.0165   -1.6958 H   0  0  0  0  0
   -8.2476    8.8819   -3.2639 H   0  0  0  0  0
   -6.2595    9.7070   -5.3206 H   0  0  0  0  0
   -8.6960    9.8463   -5.8822 H   0  0  0  0  0
   -7.8180   11.4315   -5.9710 H   0  0  0  0  0
  -10.7370   12.6429   -4.3223 H   0  0  0  0  0
   -9.8882   12.4690   -5.8620 H   0  0  0  0  0
   -5.2455   11.2596   -1.8824 H   0  0  0  0  0
   -5.8203    9.6189   -2.1969 H   0  0  0  0  0
  1  2  2  0  0  0
  1  3  1  0  0  0
  4  1  1  0  0  0
  5  4  1  0  0  0
  6  5  1  0  0  0
  5  8  1  0  0  0
  6  7  2  0  0  0
 27  6  1  0  0  0
  8  9  1  0  0  0
  9 10  4  0  0  0
  9 11  4  0  0  0
 10 12  4  0  0  0
 11 13  4  0  0  0
 12 14  4  0  0  0
 13 14  4  0  0  0
 14 15  1  0  0  0
 15 16  1  0  0  0
 16 17  1  0  0  0
 16 18  2  0  0  0
 16 19  1  0  0  0
 28 20  2  0  0  0
 22 21  1  0  0  0
 23 21  1  0  0  0
 24 22  1  0  0  0
 25 23  1  0  0  0
 26 24  1  0  0  0
 29 25  1  0  0  0
 29 26  1  0  0  0
 29 27  1  0  0  0
 28 29  1  0  0  0
 28 30  1  0  0  0
 30 31  1  0  0  0
 31 32  1  0  0  0
 31 34  1  0  0  0
 32 33  2  0  0  0
 32 38  1  0  0  0
 34 35  1  0  0  0
 35 36  2  0  0  0
 35 37  1  0  0  0
  3 39  1  0  0  0
  3 40  1  0  0  0
  3 41  1  0  0  0
  4 42  1  0  0  0
  5 43  1  0  0  0
  8 44  1  0  0  0
  8 45  1  0  0  0
 10 46  1  0  0  0
 11 47  1  0  0  0
 12 48  1  0  0  0
 13 49  1  0  0  0
 17 50  1  0  0  0
 19 51  1  0  0  0
 21 52  1  0  0  0
 21 53  1  0  0  0
 22 54  1  0  0  0
 22 55  1  0  0  0
 23 56  1  0  0  0
 23 57  1  0  0  0
 24 58  1  0  0  0
 24 59  1  0  0  0
 25 60  1  0  0  0
 25 61  1  0  0  0
 26 62  1  0  0  0
 26 63  1  0  0  0
 27 64  1  0  0  0
 30 65  1  0  0  0
 31 66  1  0  0  0
 34 67  1  0  0  0
 34 68  1  0  0  0
 37 69  1  0  0  0
 37 70  1  0  0  0
 38 71  1  0  0  0
 38 72  1  0  0  0
M  END
$$$$
