6h3q_ligand
  -I-interpret- 

 26 27  0  0  0  0  0  0  0  0999 V2000
   -3.9100    2.2990   15.5360 C   0  0  0  0  0
   -5.4790    4.3890   14.6030 C   0  0  0  0  0
   -6.0320    3.3060   15.3060 C   0  0  0  0  0
   -5.3750   -0.5240   16.0700 N   0  0  0  0  0
   -3.3550    7.3310   12.1740 C   0  0  0  0  0
   -4.0920    4.4250   14.3210 C   0  0  0  0  0
   -7.3440    0.9740   16.6350 O   0  0  0  0  0
   -5.8840    0.9030   16.7110 S   0  0  0  0  0
   -5.3920    1.0250   18.0770 O   0  0  0  0  0
   -5.2800    2.2230   15.8400 C   0  0  0  0  0
   -3.3420    3.3370   14.7910 C   0  0  0  0  0
   -3.4530    5.5680   13.5410 C   0  0  0  0  0
   -1.7730    5.8480   13.5340 Se  0  0  0  0  0
   -4.1760    6.4120   12.7640 N   0  0  0  0  0
   -2.0190    7.1440   12.5160 C   0  0  0  0  0
   -0.7820    7.9320   12.0650 C   0  0  0  0  0
   -0.6100    8.0050   10.2520 Cl  0  0  0  0  0
   -3.2557    1.5070   15.9002 H   0  0  0  0  0
   -6.1209    5.2058   14.2729 H   0  0  0  0  0
   -7.1121    3.2946   15.4525 H   0  0  0  0  0
   -6.0551   -1.1893   15.7022 H   0  0  0  0  0
   -4.3793   -0.7435   16.0404 H   0  0  0  0  0
   -3.7066    8.1212   11.5106 H   0  0  0  0  0
   -2.2759    3.2992   14.5670 H   0  0  0  0  0
    0.0980    7.4267   12.4629 H   0  0  0  0  0
   -0.8862    8.9534   12.4310 H   0  0  0  0  0
  1 10  4  0  0  0
 11  1  4  0  0  0
  2  3  4  0  0  0
  6  2  4  0  0  0
  3 10  4  0  0  0
  8  4  1  0  0  0
 14  5  1  0  0  0
  5 15  2  0  0  0
  6 11  4  0  0  0
 12  6  1  0  0  0
  8  7  2  0  0  0
  8  9  2  0  0  0
 10  8  1  0  0  0
 12 13  1  0  0  0
 12 14  2  0  0  0
 13 15  1  0  0  0
 15 16  1  0  0  0
 16 17  1  0  0  0
  1 18  1  0  0  0
  2 19  1  0  0  0
  3 20  1  0  0  0
  4 21  1  0  0  0
  4 22  1  0  0  0
  5 23  1  0  0  0
 11 24  1  0  0  0
 16 25  1  0  0  0
 16 26  1  0  0  0
M  END
$$$$
