### 
### Created by X-TOOL on Mon Aug  2 16:17:23 2021
### 

@<TRIPOS>MOLECULE
6h3q_ligand
   30    31     1     0     0
SMALL
GAST_HUCK


@<TRIPOS>ATOM
      1 C8         -3.9100    2.2990   15.5360 C.ar      1 FMH        -0.0304
      2 C5         -5.4790    4.3890   14.6030 C.ar      1 FMH        -0.0448
      3 C6         -6.0320    3.3060   15.3060 C.ar      1 FMH        -0.0304
      4 N1         -5.3750   -0.5240   16.0700 N.am      1 FMH        -0.2606
      5 C2         -3.3550    7.3310   12.1740 C.2       1 FMH        -0.0019
      6 C4         -4.0920    4.4250   14.3210 C.ar      1 FMH         0.0138
      7 O1         -7.3440    0.9740   16.6350 O.2       1 FMH        -0.1500
      8 S          -5.8840    0.9030   16.7110 S.o2      1 FMH         0.0674
      9 O          -5.3920    1.0250   18.0770 O.2       1 FMH        -0.1500
     10 C7         -5.2800    2.2230   15.8400 C.ar      1 FMH         0.1115
     11 C9         -3.3420    3.3370   14.7910 C.ar      1 FMH        -0.0448
     12 C3         -3.4530    5.5680   13.5410 C.2       1 FMH         0.0849
     13 SE         -1.7730    5.8480   13.5340 Se        1 FMH         0.0000
     14 N          -4.1760    6.4120   12.7640 N.2       1 FMH        -0.3002
     15 C1         -2.0190    7.1440   12.5160 C.2       1 FMH         0.0014
     16 C          -0.7820    7.9320   12.0650 C.3       1 FMH         0.0638
     17 CL         -0.6100    8.0050   10.2520 Cl        1 FMH        -0.1052
     18 H1         -3.2593    1.5113   15.8982 H         1 FMH         0.0647
     19 H2         -6.1173    5.2013   14.2747 H         1 FMH         0.0660
     20 H3         -7.1061    3.2947   15.4517 H         1 FMH         0.0647
     21 H4         -5.6253   -0.7689   15.1333 H         1 FMH         0.1635
     22 H5         -4.8153   -1.1465   16.6170 H         1 FMH         0.1635
     23 H6         -3.7063    8.1204   11.5112 H         1 FMH         0.0600
     24 H7         -2.2818    3.2994   14.5682 H         1 FMH         0.0660
     25 H8         -1.9690    7.0637   15.1290 H         1 FMH         0.0000
     26 H9         -1.4906    4.2781   14.7652 H         1 FMH         0.0000
     27 H10         0.2125    6.1912   13.5163 H         1 FMH         0.0000
     28 H11        -1.5770    4.6323   11.9390 H         1 FMH         0.0000
     29 H12         0.1135    7.4493   12.4833 H         1 FMH         0.0635
     30 H13        -0.8596    8.9588   12.4518 H         1 FMH         0.0635
@<TRIPOS>BOND
     1    1   10 ar 
     2   11    1 ar 
     3    2    3 ar 
     4    6    2 ar 
     5    3   10 ar 
     6    8    4 am 
     7   14    5 1  
     8    5   15 2  
     9    6   11 ar 
    10   12    6 1  
    11    8    7 2  
    12    8    9 2  
    13   10    8 1  
    14   12   13 1  
    15   12   14 2  
    16   13   15 1  
    17   15   16 1  
    18   16   17 1  
    19    1   18 1  
    20    2   19 1  
    21    3   20 1  
    22    4   21 1  
    23    4   22 1  
    24    5   23 1  
    25   11   24 1  
    26   13   25 1  
    27   13   26 1  
    28   13   27 1  
    29   13   28 1  
    30   16   29 1  
    31   16   30 1  
@<TRIPOS>SUBSTRUCTURE
     1 FMH         1

