1bqm_ligand
  -I-interpret- 

 42 43  0  0  0  0  0  0  0  0999 V2000
  143.3080  -26.7940   71.7780 C   0  0  0  0  0
  142.2270  -27.6930   70.8790 C   0  0  0  0  0
  141.9390  -29.2540   72.8390 C   0  0  0  0  0
  143.0130  -28.5030   73.6420 C   0  0  0  0  0
  143.6540  -29.1090   74.7660 C   0  0  0  0  0
  143.3430  -30.4270   75.1680 C   0  0  0  0  0
  142.1390  -31.1500   74.5210 C   0  0  0  0  0
  141.3980  -30.4820   73.3910 C   0  0  0  0  0
  144.0780  -26.0980   74.2440 C   0  0  0  0  0
  144.0830  -25.6040   76.7710 C   0  0  0  0  0
  145.2930  -24.8540   77.3910 C   0  0  0  0  0
  142.9760  -24.6160   76.2600 C   0  0  0  0  0
  144.7870  -26.7570   71.1570 C   0  0  0  0  0
  147.3120  -27.9380   70.9790 C   0  0  0  0  0
  143.8060  -32.2590   77.0390 C   0  0  0  0  0
  143.3390  -27.1230   73.3180 N   0  0  0  0  0
  141.4890  -28.7400   71.5500 N   0  0  0  0  0
  144.3020  -24.8810   73.8050 O   0  0  0  0  0
  144.4690  -26.5310   75.5540 O   0  0  0  0  0
  144.2650  -31.0640   76.2330 O   0  0  0  0  0
  141.9050  -27.1290   69.1770 S   0  0  0  0  0
  145.9590  -27.7730   72.2290 S   0  0  0  0  0
  142.8994  -25.7861   71.7057 H   0  0  0  0  0
  144.3987  -28.5424   75.3250 H   0  0  0  0  0
  141.8294  -32.1322   74.8782 H   0  0  0  0  0
  140.4768  -30.9117   72.9975 H   0  0  0  0  0
  143.7095  -26.2198   77.5892 H   0  0  0  0  0
  145.7388  -24.2025   76.6395 H   0  0  0  0  0
  144.9536  -24.2561   78.2368 H   0  0  0  0  0
  146.0330  -25.5788   77.7304 H   0  0  0  0  0
  142.6133  -24.0158   77.0944 H   0  0  0  0  0
  143.3985  -23.9621   75.4971 H   0  0  0  0  0
  142.1501  -25.1862   75.8348 H   0  0  0  0  0
  145.1361  -25.7250   71.1212 H   0  0  0  0  0
  144.7651  -27.1765   70.1512 H   0  0  0  0  0
  146.9279  -28.4465   70.0947 H   0  0  0  0  0
  147.6720  -26.9471   70.7022 H   0  0  0  0  0
  148.1307  -28.5173   71.4059 H   0  0  0  0  0
  142.9101  -31.9944   77.6006 H   0  0  0  0  0
  143.5829  -33.0862   76.3651 H   0  0  0  0  0
  144.5955  -32.5545   77.7300 H   0  0  0  0  0
  140.6473  -29.1221   71.1187 H   0  0  0  0  0
  1  2  1  0  0  0
  1 13  1  0  0  0
 16  1  1  0  0  0
  2 17  1  0  0  0
  2 21  2  0  0  0
  4  3  4  0  0  0
  3  8  4  0  0  0
  3 17  1  0  0  0
  4  5  4  0  0  0
 16  4  1  0  0  0
  5  6  4  0  0  0
  6  7  4  0  0  0
  6 20  1  0  0  0
  8  7  4  0  0  0
  9 16  1  0  0  0
  9 18  2  0  0  0
 19  9  1  0  0  0
 10 11  1  0  0  0
 10 12  1  0  0  0
 10 19  1  0  0  0
 13 22  1  0  0  0
 22 14  1  0  0  0
 20 15  1  0  0  0
  1 23  1  0  0  0
  5 24  1  0  0  0
  7 25  1  0  0  0
  8 26  1  0  0  0
 10 27  1  0  0  0
 11 28  1  0  0  0
 11 29  1  0  0  0
 11 30  1  0  0  0
 12 31  1  0  0  0
 12 32  1  0  0  0
 12 33  1  0  0  0
 13 34  1  0  0  0
 13 35  1  0  0  0
 14 36  1  0  0  0
 14 37  1  0  0  0
 14 38  1  0  0  0
 15 39  1  0  0  0
 15 40  1  0  0  0
 15 41  1  0  0  0
 17 42  1  0  0  0
M  END
$$$$
