6eaa_ligand
  -I-interpret- 

 50 52  0  0  0  0  0  0  0  0999 V2000
   16.2480    7.4940   10.2970 C   0  0  0  0  0
   16.1350    8.3780    8.9850 C   0  0  0  0  0
   17.5710    8.7080    8.4310 C   0  0  0  0  0
   18.5860    9.1760    9.5510 C   0  0  0  0  0
   18.5470    8.2900   10.8330 C   0  0  0  0  0
   17.1380    8.3620   11.0660 C   0  0  0  0  0
   16.6310    9.4880   11.9060 C   0  0  0  0  0
   17.4220   10.3660   12.1800 O   0  0  0  0  0
   15.3000    9.6070   11.9460 N   0  0  0  0  0
   14.6650   10.8790   12.3380 C   0  0  0  0  0
   13.7250   11.2680   11.1880 C   0  0  0  0  0
   12.8270   10.5190   10.7640 O   0  0  0  0  0
   14.0630   12.3960   10.6100 N   0  0  0  0  0
   13.2480   12.8190    9.5540 O   0  0  0  0  0
   14.1550   11.0190   13.6490 C   0  0  0  0  0
   13.8760   12.3170   14.0500 C   0  0  0  0  0
   13.4330   12.6050   15.3610 C   0  0  0  0  0
   14.0340    9.9560   14.5390 C   0  0  0  0  0
   13.5950   10.2410   15.8530 C   0  0  0  0  0
   13.2890   11.5440   16.2590 C   0  0  0  0  0
   12.9230   11.7880   17.5950 C   0  0  0  0  0
   13.8410   12.6000   18.3060 C   0  0  0  0  0
   13.6140   12.8760   19.6600 C   0  0  0  0  0
   14.4610   13.6480   20.4180 F   0  0  0  0  0
   12.5080   12.3510   20.2760 C   0  0  0  0  0
   12.2660   12.6270   21.6430 F   0  0  0  0  0
   11.6240   11.5470   19.5780 C   0  0  0  0  0
   10.5810   11.0820   20.2270 F   0  0  0  0  0
   11.8240   11.2280   18.2360 C   0  0  0  0  0
   16.6098    6.4775   10.1425 H   0  0  0  0  0
   15.3002    7.2558   10.7797 H   0  0  0  0  0
   15.6206    9.3089    9.2236 H   0  0  0  0  0
   15.5774    7.8261    8.2283 H   0  0  0  0  0
   17.4677    9.5268    7.7190 H   0  0  0  0  0
   17.9694    7.7953    7.9879 H   0  0  0  0  0
   18.3080   10.1886    9.8434 H   0  0  0  0  0
   19.5905    9.1053    9.1337 H   0  0  0  0  0
   19.1811    8.6191   11.6562 H   0  0  0  0  0
   18.9596    7.2865   10.7286 H   0  0  0  0  0
   16.9027    7.6646   11.8699 H   0  0  0  0  0
   14.7158    8.8072   11.7021 H   0  0  0  0  0
   15.4536   11.6207   12.4651 H   0  0  0  0  0
   14.8744   12.9346   10.9133 H   0  0  0  0  0
   13.5826   13.6486    9.2055 H   0  0  0  0  0
   14.0011   13.1331   13.3384 H   0  0  0  0  0
   13.2095   13.6280   15.6637 H   0  0  0  0  0
   14.2699    8.9367   14.2333 H   0  0  0  0  0
   13.4925    9.4243   16.5675 H   0  0  0  0  0
   14.7179   13.0070   17.8025 H   0  0  0  0  0
   11.1420   10.5622   17.7072 H   0  0  0  0  0
  1  2  1  0  0  0
  1  6  1  0  0  0
  2  3  1  0  0  0
  3  4  1  0  0  0
  4  5  1  0  0  0
  5  6  1  0  0  0
  6  7  1  0  0  0
  7  8  2  0  0  0
  7  9  1  0  0  0
  9 10  1  0  0  0
 10 11  1  0  0  0
 10 15  1  0  0  0
 11 12  2  0  0  0
 11 13  1  0  0  0
 13 14  1  0  0  0
 15 16  4  0  0  0
 15 18  4  0  0  0
 16 17  4  0  0  0
 17 20  4  0  0  0
 18 19  4  0  0  0
 19 20  4  0  0  0
 20 21  1  0  0  0
 21 22  4  0  0  0
 21 29  4  0  0  0
 22 23  4  0  0  0
 23 24  1  0  0  0
 23 25  4  0  0  0
 25 26  1  0  0  0
 25 27  4  0  0  0
 27 28  1  0  0  0
 27 29  4  0  0  0
  1 30  1  0  0  0
  1 31  1  0  0  0
  2 32  1  0  0  0
  2 33  1  0  0  0
  3 34  1  0  0  0
  3 35  1  0  0  0
  4 36  1  0  0  0
  4 37  1  0  0  0
  5 38  1  0  0  0
  5 39  1  0  0  0
  6 40  1  0  0  0
  9 41  1  0  0  0
 10 42  1  0  0  0
 13 43  1  0  0  0
 14 44  1  0  0  0
 16 45  1  0  0  0
 17 46  1  0  0  0
 18 47  1  0  0  0
 19 48  1  0  0  0
 22 49  1  0  0  0
 29 50  1  0  0  0
M  END
$$$$
