4hco_ligand
  -I-interpret- 

 24 24  0  0  0  0  0  0  0  0999 V2000
   -3.0530  -12.8610   -2.1730 C   0  0  0  0  0
   -4.1960  -12.4230   -2.6760 C   0  0  0  0  0
   -4.2320  -11.9330   -3.9060 C   0  0  0  0  0
   -3.0280  -11.8110   -4.6920 C   0  0  0  0  0
   -1.8650  -12.2230   -4.1930 C   0  0  0  0  0
   -1.8270  -12.7490   -2.9700 C   0  0  0  0  0
   -3.1400  -13.4360   -0.7900 C   0  0  0  0  0
   -2.9760  -11.2670   -6.0180 C   0  0  0  0  0
   -3.3110   -9.8040   -5.9610 C   0  0  0  0  0
   -0.7110  -13.0980   -2.5630 O   0  0  0  0  0
   -5.3120  -11.5790   -4.3070 O   0  0  0  0  0
   -3.9330  -12.0680   -6.8210 C   0  0  0  0  0
   -5.1068  -12.4654   -2.0787 H   0  0  0  0  0
   -0.9514  -12.1307   -4.7802 H   0  0  0  0  0
   -3.5091  -12.6739   -0.1036 H   0  0  0  0  0
   -3.8231  -14.2854   -0.7934 H   0  0  0  0  0
   -2.1507  -13.7650   -0.4718 H   0  0  0  0  0
   -1.9895  -11.3270   -6.4778 H   0  0  0  0  0
   -3.3116   -9.3931   -6.9706 H   0  0  0  0  0
   -4.2970   -9.6755   -5.5145 H   0  0  0  0  0
   -2.5667   -9.2854   -5.3567 H   0  0  0  0  0
   -4.9302  -11.9796   -6.3898 H   0  0  0  0  0
   -3.9448  -11.6972   -7.8459 H   0  0  0  0  0
   -3.6245  -13.1134   -6.8150 H   0  0  0  0  0
  1  2  2  0  0  0
  1  6  1  0  0  0
  1  7  1  0  0  0
  2  3  1  0  0  0
  3  4  1  0  0  0
  3 11  2  0  0  0
  4  5  2  0  0  0
  4  8  1  0  0  0
  5  6  1  0  0  0
  6 10  2  0  0  0
  8  9  1  0  0  0
  8 12  1  0  0  0
  2 13  1  0  0  0
  5 14  1  0  0  0
  7 15  1  0  0  0
  7 16  1  0  0  0
  7 17  1  0  0  0
  8 18  1  0  0  0
  9 19  1  0  0  0
  9 20  1  0  0  0
  9 21  1  0  0  0
 12 22  1  0  0  0
 12 23  1  0  0  0
 12 24  1  0  0  0
M  END
$$$$
