3wp0_ligand
  -I-interpret- 

266266  0  0  0  0  0  0  0  0999 V2000
   24.3020  -30.4240   19.4650 N   0  3  0  0  0
   25.0940  -31.3250   18.6320 C   0  0  0  0  0
   25.2950  -32.6910   19.2950 C   0  0  0  0  0
   26.4040  -33.0340   19.7410 O   0  0  0  0  0
   26.4490  -30.6980   18.2640 C   0  0  0  0  0
   24.2110  -33.4610   19.3640 N   0  0  0  0  0
   24.3060  -34.8810   19.6660 C   0  0  0  0  0
   23.8100  -35.6710   18.4600 C   0  0  0  0  0
   22.9420  -35.1940   17.7220 O   0  0  0  0  0
   23.4680  -35.2370   20.8840 C   0  0  0  0  0
   24.1160  -34.8050   22.0590 O   0  0  0  0  0
   24.3530  -36.8690   18.2660 N   0  0  0  0  0
   23.9300  -37.7320   17.1670 C   0  0  0  0  0
   24.0680  -37.0160   15.8310 C   0  0  0  0  0
   23.1620  -37.0350   14.9840 O   0  0  0  0  0
   22.5110  -38.2700   17.4100 C   0  0  0  0  0
   22.4750  -39.2270   18.5720 C   0  0  0  0  0
   21.0530  -39.7290   18.9210 C   0  0  0  0  0
   20.1160  -38.6420   19.1920 N   0  0  0  0  0
   20.0530  -37.9410   20.3270 C   0  0  0  0  0
   20.8910  -38.1800   21.3480 N   0  0  0  0  0
   19.1350  -36.9830   20.4500 N   0  0  0  0  0
   25.2330  -36.3860   15.6590 N   0  0  0  0  0
   25.6040  -35.6740   14.4470 C   0  0  0  0  0
   25.7200  -36.6740   13.2810 C   0  0  0  0  0
   26.2430  -37.7920   13.4490 O   0  0  0  0  0
   26.9480  -34.9280   14.6540 C   0  0  0  0  0
   27.4000  -34.2360   13.3540 C   0  0  0  0  0
   26.8310  -33.9000   15.7890 C   0  0  0  0  0
   25.2010  -36.3060   12.1130 N   0  0  0  0  0
   25.3160  -37.1760   10.9400 C   0  0  0  0  0
   26.7750  -37.5090   10.6380 C   0  0  0  0  0
   27.6810  -36.6970   10.8780 O   0  0  0  0  0
   24.6260  -36.5460    9.7180 C   0  0  0  0  0
   23.0930  -36.5980    9.8430 C   0  0  0  0  0
   22.3990  -36.0920    8.5860 C   0  0  0  0  0
   20.8800  -36.0470    8.8170 C   0  0  0  0  0
   20.1450  -35.7300    7.5330 N   0  3  0  0  0
   26.9960  -38.7150   10.1270 N   0  0  0  0  0
   28.3370  -39.2140    9.8660 C   0  0  0  0  0
   28.2350  -40.6730    9.3930 C   0  0  0  0  0
   27.4770  -40.7190    8.1960 O   0  0  0  0  0
   29.0890  -38.3480    8.8150 C   0  0  0  0  0
   30.3020  -38.1240    8.9350 O   0  0  0  0  0
   26.8360  -42.2020    7.9930 P   0  0  0  0  0
   25.9820  -42.1510    6.6430 O   0  0  0  0  0
   27.9810  -43.3360    7.9250 O   0  0  0  0  0
   25.9530  -42.6100    9.2830 O   0  0  0  0  0
   28.3830  -37.8610    7.8000 N   0  0  0  0  0
   29.0390  -37.0050    6.8150 C   0  0  0  0  0
   29.5760  -35.7540    7.4970 C   0  0  0  0  0
   30.7240  -35.3140    7.2320 O   0  0  0  0  0
   28.0880  -36.6050    5.6820 C   0  0  0  0  0
   28.6880  -35.6300    4.6400 C   0  0  0  0  0
   29.7470  -36.3310    3.7910 C   0  0  0  0  0
   27.5910  -35.0370    3.7280 C   0  0  0  0  0
   28.7530  -35.1650    8.3540 N   0  0  0  0  0
   29.1840  -33.9700    9.0930 C   0  0  0  0  0
   30.3390  -34.3020   10.0590 C   0  0  0  0  0
   31.2930  -33.5140   10.1860 O   0  0  0  0  0
   28.0160  -33.3010    9.8340 C   0  0  0  0  0
   28.3700  -31.8990   10.3870 C   0  0  0  0  0
   27.1410  -31.1900   10.9720 C   0  0  0  0  0
   27.4640  -29.7570   11.4170 C   0  0  0  0  0
   28.0720  -28.9440   10.2890 N   0  3  0  0  0
   30.2860  -35.4700   10.7060 N   0  0  0  0  0
   31.4380  -35.9060   11.5310 C   0  0  0  0  0
   32.7310  -36.0380   10.7120 C   0  0  0  0  0
   33.8060  -35.7510   11.2400 O   0  0  0  0  0
   31.1810  -37.2310   12.2450 C   0  0  0  0  0
   30.1640  -37.1840   13.4090 C   0  0  0  0  0
   30.3730  -38.3940   14.3220 C   0  0  0  0  0
   29.1090  -39.2310   14.5420 C   0  0  0  0  0
   28.2120  -38.6560   15.5950 N   0  3  0  0  0
   32.6330  -36.4840    9.4480 N   0  0  0  0  0
   33.8160  -36.6620    8.5970 C   0  0  0  0  0
   34.5770  -35.3390    8.3300 C   0  0  0  0  0
   35.7710  -35.3440    7.9750 O   0  0  0  0  0
   33.4580  -37.3610    7.2760 C   0  0  0  0  0
   32.8760  -36.4660    6.3160 O   0  0  0  0  0
   33.8890  -34.2150    8.5360 N   0  0  0  0  0
   34.4900  -32.8880    8.3810 C   0  0  0  0  0
   35.5450  -32.6790    9.4660 C   0  0  0  0  0
   36.4640  -31.8690    9.2930 O   0  0  0  0  0
   33.4210  -31.7750    8.4600 C   0  0  0  0  0
   32.3140  -31.7290    7.3820 C   0  0  0  0  0
   31.2730  -30.6370    7.7060 C   0  0  0  0  0
   32.9050  -31.4670    5.9890 C   0  0  0  0  0
   35.4410  -33.4160   10.5740 N   0  0  0  0  0
   36.4220  -33.2810   11.6660 C   0  0  0  0  0
   37.7920  -33.9130   11.3700 C   0  0  0  0  0
   38.7870  -33.5600   12.0340 O   0  0  0  0  0
   35.8710  -33.8680   12.9610 C   0  0  0  0  0
   34.5040  -33.3270   13.3120 C   0  0  0  0  0
   33.9800  -33.9550   14.5890 C   0  0  0  0  0
   34.8980  -33.6610   15.6870 N   0  0  0  0  0
   34.6060  -33.8210   16.9750 C   0  0  0  0  0
   33.4110  -34.2840   17.3320 N   0  0  0  0  0
   35.5100  -33.5190   17.9020 N   0  0  0  0  0
   37.8360  -34.9070   10.4690 N   0  0  0  0  0
   39.1220  -35.3410    9.9310 C   0  0  0  0  0
   39.1880  -35.1650    8.4160 C   0  0  0  0  0
   39.0370  -36.1310    7.6730 O   0  0  0  0  0
   39.3220  -36.8170   10.2910 C   0  0  0  0  0
   39.1330  -37.0860   11.8160 C   0  0  0  0  0
   39.1380  -38.5620   12.1750 C   0  0  0  0  0
   39.9070  -39.3530   11.6080 O   0  0  0  0  0
   38.2970  -38.9400   13.1480 N   0  0  0  0  0
   39.6670  -33.9980    8.0010 N   0  0  0  0  0
   39.6440  -33.5720    6.6080 C   0  0  0  0  0
   41.0330  -33.7010    6.0720 C   0  0  0  0  0
   42.0010  -33.5990    6.8390 O   0  0  0  0  0
   39.2200  -32.1070    6.4790 C   0  0  0  0  0
   37.8620  -31.9380    6.8230 O   0  0  0  0  0
   41.1090  -33.9440    4.7660 N   0  0  0  0  0
   42.3550  -34.0040    4.0170 C   0  0  0  0  0
   42.7340  -32.6360    3.4520 C   0  0  0  0  0
   41.9150  -31.7100    3.4540 O   0  0  0  0  0
   42.2080  -35.0180    2.8870 C   0  0  0  0  0
   41.8180  -36.3720    3.3650 C   0  0  0  0  0
   42.6400  -37.0680    4.2480 C   0  0  0  0  0
   40.6240  -36.9480    2.9660 C   0  0  0  0  0
   42.2790  -38.3280    4.7200 C   0  0  0  0  0
   40.2490  -38.2110    3.4330 C   0  0  0  0  0
   41.0760  -38.9030    4.3100 C   0  0  0  0  0
   43.8880  -32.4506    2.9813 O   0  0  0  0  0
   23.4116  -30.8670   19.6917 H   0  0  0  0  0
   24.8115  -30.2223   20.3253 H   0  0  0  0  0
   24.1316  -29.5556   18.9578 H   0  0  0  0  0
   24.5289  -31.4847   17.7137 H   0  0  0  0  0
   27.0454  -30.5687   19.1672 H   0  0  0  0  0
   26.9751  -31.3540   17.5705 H   0  0  0  0  0
   26.2836  -29.7284   17.7944 H   0  0  0  0  0
   23.2935  -33.0461   19.2015 H   0  0  0  0  0
   25.3450  -35.1279   19.8841 H   0  0  0  0  0
   23.3360  -36.3182   20.9245 H   0  0  0  0  0
   22.4983  -34.7450   20.8080 H   0  0  0  0  0
   23.5797  -35.0341   22.8216 H   0  0  0  0  0
   25.0829  -37.1931   18.9005 H   0  0  0  0  0
   24.5908  -38.5980   17.1267 H   0  0  0  0  0
   22.1851  -38.8007   16.5154 H   0  0  0  0  0
   21.8565  -37.4281   17.6358 H   0  0  0  0  0
   22.8560  -38.6954   19.4439 H   0  0  0  0  0
   23.0693  -40.0979   18.2954 H   0  0  0  0  0
   21.1269  -40.3369   19.8227 H   0  0  0  0  0
   20.6770  -40.2859   18.0628 H   0  0  0  0  0
   19.4556  -38.3982   18.4539 H   0  0  0  0  0
   20.8205  -37.6312   22.2049 H   0  0  0  0  0
   21.5983  -38.9104   21.2670 H   0  0  0  0  0
   18.4909  -36.7923   19.6824 H   0  0  0  0  0
   25.9047  -36.4056   16.4263 H   0  0  0  0  0
   24.8355  -34.9376   14.2117 H   0  0  0  0  0
   27.7004  -35.6668   14.9301 H   0  0  0  0  0
   27.5311  -34.9842   12.5723 H   0  0  0  0  0
   26.6429  -33.5152   13.0454 H   0  0  0  0  0
   28.3447  -33.7207   13.5277 H   0  0  0  0  0
   26.0588  -33.1721   15.5401 H   0  0  0  0  0
   26.5656  -34.4111   16.7144 H   0  0  0  0  0
   27.7859  -33.3898   15.9152 H   0  0  0  0  0
   24.7189  -35.4106   12.0333 H   0  0  0  0  0
   24.8054  -38.1116   11.1681 H   0  0  0  0  0
   24.9182  -37.1072    8.8304 H   0  0  0  0  0
   24.9307  -35.5016    9.6512 H   0  0  0  0  0
   22.7977  -35.9591   10.6753 H   0  0  0  0  0
   22.7994  -37.6360    9.9992 H   0  0  0  0  0
   22.6190  -36.7635    7.7560 H   0  0  0  0  0
   22.7592  -35.0902    8.3522 H   0  0  0  0  0
   20.6604  -35.2679    9.5470 H   0  0  0  0  0
   20.5520  -37.0226    9.1758 H   0  0  0  0  0
   19.1415  -35.7063    7.7141 H   0  0  0  0  0
   20.4502  -34.8217    7.1833 H   0  0  0  0  0
   20.3496  -36.4491    6.8391 H   0  0  0  0  0
   26.1977  -39.3117    9.9102 H   0  0  0  0  0
   28.9160  -39.1574   10.7878 H   0  0  0  0  0
   27.7471  -41.2745   10.1600 H   0  0  0  0  0
   29.2334  -41.0707    9.2110 H   0  0  0  0  0
   28.4744  -43.3408    8.7485 H   0  0  0  0  0
   26.5142  -42.6249   10.0618 H   0  0  0  0  0
   27.3916  -38.0830    7.7096 H   0  0  0  0  0
   29.8595  -37.5732    6.3769 H   0  0  0  0  0
   27.2447  -36.0922    6.1445 H   0  0  0  0  0
   27.8324  -37.5198    5.1472 H   0  0  0  0  0
   29.1568  -34.8129    5.1883 H   0  0  0  0  0
   30.5470  -36.6934    4.4366 H   0  0  0  0  0
   29.2925  -37.1716    3.2667 H   0  0  0  0  0
   30.1545  -35.6264    3.0660 H   0  0  0  0  0
   27.0858  -35.8441    3.1975 H   0  0  0  0  0
   26.8690  -34.4930    4.3369 H   0  0  0  0  0
   28.0469  -34.3570    3.0084 H   0  0  0  0  0
   27.8170  -35.5429    8.5009 H   0  0  0  0  0
   29.5523  -33.2524    8.3598 H   0  0  0  0  0
   27.7552  -33.9349   10.6815 H   0  0  0  0  0
   27.1990  -33.1796    9.1228 H   0  0  0  0  0
   28.7559  -31.2944    9.5662 H   0  0  0  0  0
   29.1062  -32.0200   11.1816 H   0  0  0  0  0
   26.8060  -31.7512   11.8443 H   0  0  0  0  0
   26.3738  -31.1429   10.1992 H   0  0  0  0  0
   28.1844  -29.8046   12.2336 H   0  0  0  0  0
   26.5363  -29.2757   11.7266 H   0  0  0  0  0
   28.2726  -28.0007   10.6212 H   0  0  0  0  0
   28.9367  -29.3877    9.9794 H   0  0  0  0  0
   27.4140  -28.8990    9.5109 H   0  0  0  0  0
   29.4565  -36.0590   10.6326 H   0  0  0  0  0
   31.5619  -35.1181   12.2740 H   0  0  0  0  0
   32.1328  -37.5349   12.6807 H   0  0  0  0  0
   30.7626  -37.9061   11.4985 H   0  0  0  0  0
   29.1513  -37.2046   13.0063 H   0  0  0  0  0
   30.3110  -36.2683   13.9817 H   0  0  0  0  0
   30.6848  -38.0156   15.2955 H   0  0  0  0  0
   31.1094  -39.0388   13.8423 H   0  0  0  0  0
   29.4174  -40.2236   14.8702 H   0  0  0  0  0
   28.5539  -39.2523   13.6042 H   0  0  0  0  0
   27.3894  -39.2498   15.7005 H   0  0  0  0  0
   28.7155  -38.6101   16.4809 H   0  0  0  0  0
   27.9224  -37.7180   15.3181 H   0  0  0  0  0
   31.7118  -36.7048    9.0697 H   0  0  0  0  0
   34.4940  -37.3062    9.1569 H   0  0  0  0  0
   32.7260  -38.1381    7.4960 H   0  0  0  0  0
   34.3779  -37.7592    6.8479 H   0  0  0  0  0
   32.6715  -36.9495    5.5123 H   0  0  0  0  0
   32.9091  -34.2818    8.8114 H   0  0  0  0  0
   34.9567  -32.8327    7.3975 H   0  0  0  0  0
   33.9734  -30.8433    8.3380 H   0  0  0  0  0
   32.8951  -31.9541    9.3978 H   0  0  0  0  0
   31.8246  -32.7030    7.3817 H   0  0  0  0  0
   30.8136  -30.8497    8.6713 H   0  0  0  0  0
   31.7666  -29.6659    7.7432 H   0  0  0  0  0
   30.5060  -30.6267    6.9316 H   0  0  0  0  0
   33.4282  -30.5108    5.9917 H   0  0  0  0  0
   33.6039  -32.2644    5.7364 H   0  0  0  0  0
   32.1008  -31.4405    5.2537 H   0  0  0  0  0
   34.6731  -34.0810   10.6663 H   0  0  0  0  0
   36.5861  -32.2082   11.7676 H   0  0  0  0  0
   36.5540  -33.5998   13.7670 H   0  0  0  0  0
   35.7800  -34.9460   12.8275 H   0  0  0  0  0
   33.8164  -33.5626   12.4997 H   0  0  0  0  0
   34.5824  -32.2499   13.4596 H   0  0  0  0  0
   33.9027  -35.0344   14.4585 H   0  0  0  0  0
   32.9959  -33.5463   14.8182 H   0  0  0  0  0
   35.8256  -33.3092   15.4499 H   0  0  0  0  0
   33.1862  -34.4082   18.3192 H   0  0  0  0  0
   32.7195  -34.5148   16.6186 H   0  0  0  0  0
   36.4258  -33.1652   17.6252 H   0  0  0  0  0
   36.9741  -35.3575   10.1613 H   0  0  0  0  0
   39.9109  -34.7266   10.3650 H   0  0  0  0  0
   40.3411  -37.0952   10.0225 H   0  0  0  0  0
   38.5772  -37.4007    9.7500 H   0  0  0  0  0
   38.1620  -36.6821   12.1024 H   0  0  0  0  0
   39.9684  -36.6188   12.3375 H   0  0  0  0  0
   38.2717  -39.9138   13.4505 H   0  0  0  0  0
   37.6823  -38.2538   13.5859 H   0  0  0  0  0
   40.0718  -33.3675    8.6931 H   0  0  0  0  0
   38.9313  -34.1889    6.0606 H   0  0  0  0  0
   39.3589  -31.7939    5.4442 H   0  0  0  0  0
   39.8282  -31.5073    7.1562 H   0  0  0  0  0
   37.6232  -31.0125    6.7335 H   0  0  0  0  0
   40.2383  -34.0980    4.2575 H   0  0  0  0  0
   43.1534  -34.3120    4.6921 H   0  0  0  0  0
   43.1759  -35.1069    2.3937 H   0  0  0  0  0
   41.4207  -34.6618    2.2226 H   0  0  0  0  0
   43.5789  -36.6206    4.5743 H   0  0  0  0  0
   39.9691  -36.4107    2.2801 H   0  0  0  0  0
   42.9344  -38.8628    5.4074 H   0  0  0  0  0
   39.3071  -38.6537    3.1091 H   0  0  0  0  0
   40.7865  -39.8884    4.6750 H   0  0  0  0  0
   44.3963  -33.2617    3.0543 H   0  0  0  0  0
  1  2  1  0  0  0
  2  3  1  0  0  0
  2  5  1  0  0  0
  3  4  2  0  0  0
  3  6  1  0  0  0
  6  7  1  0  0  0
  7  8  1  0  0  0
  7 10  1  0  0  0
  8  9  2  0  0  0
  8 12  1  0  0  0
 10 11  1  0  0  0
 12 13  1  0  0  0
 13 14  1  0  0  0
 13 16  1  0  0  0
 14 15  2  0  0  0
 14 23  1  0  0  0
 16 17  1  0  0  0
 17 18  1  0  0  0
 18 19  1  0  0  0
 19 20  1  0  0  0
 20 21  1  0  0  0
 20 22  2  0  0  0
 23 24  1  0  0  0
 24 25  1  0  0  0
 24 27  1  0  0  0
 25 26  2  0  0  0
 25 30  1  0  0  0
 27 28  1  0  0  0
 27 29  1  0  0  0
 30 31  1  0  0  0
 31 32  1  0  0  0
 31 34  1  0  0  0
 32 33  2  0  0  0
 32 39  1  0  0  0
 34 35  1  0  0  0
 35 36  1  0  0  0
 36 37  1  0  0  0
 37 38  1  0  0  0
 39 40  1  0  0  0
 40 41  1  0  0  0
 40 43  1  0  0  0
 41 42  1  0  0  0
 42 45  1  0  0  0
 43 44  2  0  0  0
 43 49  1  0  0  0
 45 46  2  0  0  0
 45 47  1  0  0  0
 45 48  1  0  0  0
 49 50  1  0  0  0
 50 51  1  0  0  0
 50 53  1  0  0  0
 51 52  2  0  0  0
 51 57  1  0  0  0
 53 54  1  0  0  0
 54 55  1  0  0  0
 54 56  1  0  0  0
 57 58  1  0  0  0
 58 59  1  0  0  0
 58 61  1  0  0  0
 59 60  2  0  0  0
 59 66  1  0  0  0
 61 62  1  0  0  0
 62 63  1  0  0  0
 63 64  1  0  0  0
 64 65  1  0  0  0
 66 67  1  0  0  0
 67 68  1  0  0  0
 67 70  1  0  0  0
 68 69  2  0  0  0
 68 75  1  0  0  0
 70 71  1  0  0  0
 71 72  1  0  0  0
 72 73  1  0  0  0
 73 74  1  0  0  0
 75 76  1  0  0  0
 76 77  1  0  0  0
 76 79  1  0  0  0
 77 78  2  0  0  0
 77 81  1  0  0  0
 79 80  1  0  0  0
 81 82  1  0  0  0
 82 83  1  0  0  0
 82 85  1  0  0  0
 83 84  2  0  0  0
 83 89  1  0  0  0
 85 86  1  0  0  0
 86 87  1  0  0  0
 86 88  1  0  0  0
 89 90  1  0  0  0
 90 91  1  0  0  0
 90 93  1  0  0  0
 91 92  2  0  0  0
 91100  1  0  0  0
 93 94  1  0  0  0
 94 95  1  0  0  0
 95 96  1  0  0  0
 96 97  1  0  0  0
 97 98  1  0  0  0
 97 99  2  0  0  0
100101  1  0  0  0
101102  1  0  0  0
101104  1  0  0  0
102103  2  0  0  0
102109  1  0  0  0
104105  1  0  0  0
105106  1  0  0  0
106107  2  0  0  0
106108  1  0  0  0
109110  1  0  0  0
110111  1  0  0  0
110113  1  0  0  0
111112  2  0  0  0
111115  1  0  0  0
113114  1  0  0  0
115116  1  0  0  0
116117  1  0  0  0
116119  1  0  0  0
117118  2  0  0  0
119120  1  0  0  0
120121  4  0  0  0
120122  4  0  0  0
121123  4  0  0  0
122124  4  0  0  0
123125  4  0  0  0
124125  4  0  0  0
117126  1  0  0  0
  1127  1  0  0  0
  1128  1  0  0  0
  1129  1  0  0  0
  2130  1  0  0  0
  5131  1  0  0  0
  5132  1  0  0  0
  5133  1  0  0  0
  6134  1  0  0  0
  7135  1  0  0  0
 10136  1  0  0  0
 10137  1  0  0  0
 11138  1  0  0  0
 12139  1  0  0  0
 13140  1  0  0  0
 16141  1  0  0  0
 16142  1  0  0  0
 17143  1  0  0  0
 17144  1  0  0  0
 18145  1  0  0  0
 18146  1  0  0  0
 19147  1  0  0  0
 21148  1  0  0  0
 21149  1  0  0  0
 22150  1  0  0  0
 23151  1  0  0  0
 24152  1  0  0  0
 27153  1  0  0  0
 28154  1  0  0  0
 28155  1  0  0  0
 28156  1  0  0  0
 29157  1  0  0  0
 29158  1  0  0  0
 29159  1  0  0  0
 30160  1  0  0  0
 31161  1  0  0  0
 34162  1  0  0  0
 34163  1  0  0  0
 35164  1  0  0  0
 35165  1  0  0  0
 36166  1  0  0  0
 36167  1  0  0  0
 37168  1  0  0  0
 37169  1  0  0  0
 38170  1  0  0  0
 38171  1  0  0  0
 38172  1  0  0  0
 39173  1  0  0  0
 40174  1  0  0  0
 41175  1  0  0  0
 41176  1  0  0  0
 47177  1  0  0  0
 48178  1  0  0  0
 49179  1  0  0  0
 50180  1  0  0  0
 53181  1  0  0  0
 53182  1  0  0  0
 54183  1  0  0  0
 55184  1  0  0  0
 55185  1  0  0  0
 55186  1  0  0  0
 56187  1  0  0  0
 56188  1  0  0  0
 56189  1  0  0  0
 57190  1  0  0  0
 58191  1  0  0  0
 61192  1  0  0  0
 61193  1  0  0  0
 62194  1  0  0  0
 62195  1  0  0  0
 63196  1  0  0  0
 63197  1  0  0  0
 64198  1  0  0  0
 64199  1  0  0  0
 65200  1  0  0  0
 65201  1  0  0  0
 65202  1  0  0  0
 66203  1  0  0  0
 67204  1  0  0  0
 70205  1  0  0  0
 70206  1  0  0  0
 71207  1  0  0  0
 71208  1  0  0  0
 72209  1  0  0  0
 72210  1  0  0  0
 73211  1  0  0  0
 73212  1  0  0  0
 74213  1  0  0  0
 74214  1  0  0  0
 74215  1  0  0  0
 75216  1  0  0  0
 76217  1  0  0  0
 79218  1  0  0  0
 79219  1  0  0  0
 80220  1  0  0  0
 81221  1  0  0  0
 82222  1  0  0  0
 85223  1  0  0  0
 85224  1  0  0  0
 86225  1  0  0  0
 87226  1  0  0  0
 87227  1  0  0  0
 87228  1  0  0  0
 88229  1  0  0  0
 88230  1  0  0  0
 88231  1  0  0  0
 89232  1  0  0  0
 90233  1  0  0  0
 93234  1  0  0  0
 93235  1  0  0  0
 94236  1  0  0  0
 94237  1  0  0  0
 95238  1  0  0  0
 95239  1  0  0  0
 96240  1  0  0  0
 98241  1  0  0  0
 98242  1  0  0  0
 99243  1  0  0  0
100244  1  0  0  0
101245  1  0  0  0
104246  1  0  0  0
104247  1  0  0  0
105248  1  0  0  0
105249  1  0  0  0
108250  1  0  0  0
108251  1  0  0  0
109252  1  0  0  0
110253  1  0  0  0
113254  1  0  0  0
113255  1  0  0  0
114256  1  0  0  0
115257  1  0  0  0
116258  1  0  0  0
119259  1  0  0  0
119260  1  0  0  0
121261  1  0  0  0
122262  1  0  0  0
123263  1  0  0  0
124264  1  0  0  0
125265  1  0  0  0
126266  1  0  0  0
M  END
$$$$
