### 
### Created by X-TOOL on Mon Sep 10 21:13:17 2018
### 

@<TRIPOS>MOLECULE
3wp0_ligand
  265   265     1     0     0
SMALL
GAST_HUCK


@<TRIPOS>ATOM
      1 N          24.3020  -30.4240   19.4650 N.4       1 LEU         0.2377
      2 CA         25.0940  -31.3250   18.6320 C.3       1 LEU         0.0621
      3 C          25.2950  -32.6910   19.2950 C.2       1 LEU         0.2265
      4 O          26.4040  -33.0340   19.7410 O.2       1 LEU        -0.3907
      5 CB         26.4490  -30.6980   18.2640 C.3       1 LEU        -0.0040
      6 N          24.2110  -33.4610   19.3640 N.am      1 SER        -0.2589
      7 CA         24.3060  -34.8810   19.6660 C.3       1 SER         0.1540
      8 C          23.8100  -35.6710   18.4600 C.2       1 SER         0.2062
      9 O          22.9420  -35.1940   17.7220 O.2       1 SER        -0.3943
     10 CB         23.4680  -35.2370   20.8840 C.3       1 SER         0.0843
     11 OG         24.1160  -34.8050   22.0590 O.3       1 SER        -0.3903
     12 N          24.3530  -36.8690   18.2660 N.am      1 ARG        -0.2637
     13 CA         23.9300  -37.7320   17.1670 C.3       1 ARG         0.1311
     14 C          24.0680  -37.0160   15.8310 C.2       1 ARG         0.2039
     15 O          23.1620  -37.0350   14.9840 O.2       1 ARG        -0.3944
     16 CB         22.5110  -38.2700   17.4100 C.3       1 ARG        -0.0092
     17 CG         22.4750  -39.2270   18.5720 C.3       1 ARG        -0.0156
     18 CD         21.0530  -39.7290   18.9210 C.3       1 ARG         0.0627
     19 NE         20.1160  -38.6420   19.1920 N.pl3     1 ARG        -0.2723
     20 CZ         20.0530  -37.9410   20.3270 C.cat     1 ARG         0.2882
     21 NH1        20.8910  -38.1800   21.3480 N.pl3     1 ARG        -0.2849
     22 NH2        19.1350  -36.9830   20.4500 N.pl3     1 ARG        -0.2849
     23 N          25.2330  -36.3860   15.6590 N.am      1 VAL        -0.2635
     24 CA         25.6040  -35.6740   14.4470 C.3       1 VAL         0.1332
     25 C          25.7200  -36.6740   13.2810 C.2       1 VAL         0.2041
     26 O          26.2430  -37.7920   13.4490 O.2       1 VAL        -0.3944
     27 CB         26.9480  -34.9280   14.6540 C.3       1 VAL        -0.0063
     28 CG1        27.4000  -34.2360   13.3540 C.3       1 VAL        -0.0584
     29 CG2        26.8310  -33.9000   15.7890 C.3       1 VAL        -0.0584
     30 N          25.2010  -36.3060   12.1130 N.am      1 LYS        -0.2637
     31 CA         25.3160  -37.1760   10.9400 C.3       1 LYS         0.1310
     32 C          26.7750  -37.5090   10.6380 C.2       1 LYS         0.2040
     33 O          27.6810  -36.6970   10.8780 O.2       1 LYS        -0.3944
     34 CB         24.6260  -36.5460    9.7180 C.3       1 LYS        -0.0122
     35 CG         23.0930  -36.5980    9.8430 C.3       1 LYS        -0.0440
     36 CD         22.3990  -36.0920    8.5860 C.3       1 LYS        -0.0124
     37 CE         20.8800  -36.0470    8.8170 C.3       1 LYS        -0.0354
     38 NZ         20.1450  -35.7300    7.5330 N.4       1 LYS         0.2185
     39 N          26.9960  -38.7150   10.1270 N.am      1 SEP        -0.2613
     40 CA         28.3370  -39.2140    9.8660 C.3       1 SEP         0.1586
     41 CB         28.2350  -40.6730    9.3930 C.3       1 SEP         0.1184
     42 OG         27.4770  -40.7190    8.1960 O.3       1 SEP        -0.2714
     43 C          29.0890  -38.3480    8.8150 C.2       1 SEP         0.2065
     44 O          30.3020  -38.1240    8.9350 O.2       1 SEP        -0.3943
     45 P          26.8360  -42.2020    7.9930 P.3       1 SEP         0.2010
     46 O1P        25.9820  -42.1510    6.6430 O.co2     1 SEP        -0.5537
     47 O2P        27.9810  -43.3360    7.9250 O.co2     1 SEP        -0.5537
     48 O3P        25.9530  -42.6100    9.2830 O.co2     1 SEP        -0.5537
     49 N          28.3830  -37.8610    7.8000 N.am      1 LEU        -0.2636
     50 CA         29.0390  -37.0050    6.8150 C.3       1 LEU         0.1312
     51 C          29.5760  -35.7540    7.4970 C.2       1 LEU         0.2039
     52 O          30.7240  -35.3140    7.2320 O.2       1 LEU        -0.3944
     53 CB         28.0880  -36.6050    5.6820 C.3       1 LEU        -0.0101
     54 CG         28.6880  -35.6300    4.6400 C.3       1 LEU        -0.0425
     55 CD1        29.7470  -36.3310    3.7910 C.3       1 LEU        -0.0625
     56 CD2        27.5910  -35.0370    3.7280 C.3       1 LEU        -0.0625
     57 N          28.7530  -35.1650    8.3540 N.am      1 LYS        -0.2637
     58 CA         29.1840  -33.9700    9.0930 C.3       1 LYS         0.1310
     59 C          30.3390  -34.3020   10.0590 C.2       1 LYS         0.2039
     60 O          31.2930  -33.5140   10.1860 O.2       1 LYS        -0.3944
     61 CB         28.0160  -33.3010    9.8340 C.3       1 LYS        -0.0122
     62 CG         28.3700  -31.8990   10.3870 C.3       1 LYS        -0.0440
     63 CD         27.1410  -31.1900   10.9720 C.3       1 LYS        -0.0124
     64 CE         27.4640  -29.7570   11.4170 C.3       1 LYS        -0.0354
     65 NZ         28.0720  -28.9440   10.2890 N.4       1 LYS         0.2185
     66 N          30.2860  -35.4700   10.7060 N.am      1 LYS        -0.2637
     67 CA         31.4380  -35.9060   11.5310 C.3       1 LYS         0.1310
     68 C          32.7310  -36.0380   10.7120 C.2       1 LYS         0.2040
     69 O          33.8060  -35.7510   11.2400 O.2       1 LYS        -0.3944
     70 CB         31.1810  -37.2310   12.2450 C.3       1 LYS        -0.0122
     71 CG         30.1640  -37.1840   13.4090 C.3       1 LYS        -0.0440
     72 CD         30.3730  -38.3940   14.3220 C.3       1 LYS        -0.0124
     73 CE         29.1090  -39.2310   14.5420 C.3       1 LYS        -0.0354
     74 NZ         28.2120  -38.6560   15.5950 N.4       1 LYS         0.2185
     75 N          32.6330  -36.4840    9.4480 N.am      1 SER        -0.2616
     76 CA         33.8160  -36.6620    8.5970 C.3       1 SER         0.1539
     77 C          34.5770  -35.3390    8.3300 C.2       1 SER         0.2062
     78 O          35.7710  -35.3440    7.9750 O.2       1 SER        -0.3943
     79 CB         33.4580  -37.3610    7.2760 C.3       1 SER         0.0843
     80 OG         32.8760  -36.4660    6.3160 O.3       1 SER        -0.3903
     81 N          33.8890  -34.2150    8.5360 N.am      1 LEU        -0.2636
     82 CA         34.4900  -32.8880    8.3810 C.3       1 LEU         0.1312
     83 C          35.5450  -32.6790    9.4660 C.2       1 LEU         0.2039
     84 O          36.4640  -31.8690    9.2930 O.2       1 LEU        -0.3944
     85 CB         33.4210  -31.7750    8.4600 C.3       1 LEU        -0.0101
     86 CG         32.3140  -31.7290    7.3820 C.3       1 LEU        -0.0425
     87 CD1        31.2730  -30.6370    7.7060 C.3       1 LEU        -0.0625
     88 CD2        32.9050  -31.4670    5.9890 C.3       1 LEU        -0.0625
     89 N          35.4410  -33.4160   10.5740 N.am      1 ARG        -0.2637
     90 CA         36.4220  -33.2810   11.6660 C.3       1 ARG         0.1311
     91 C          37.7920  -33.9130   11.3700 C.2       1 ARG         0.2039
     92 O          38.7870  -33.5600   12.0340 O.2       1 ARG        -0.3944
     93 CB         35.8710  -33.8680   12.9610 C.3       1 ARG        -0.0092
     94 CG         34.5040  -33.3270   13.3120 C.3       1 ARG        -0.0156
     95 CD         33.9800  -33.9550   14.5890 C.3       1 ARG         0.0627
     96 NE         34.8980  -33.6610   15.6870 N.pl3     1 ARG        -0.2723
     97 CZ         34.6060  -33.8210   16.9750 C.cat     1 ARG         0.2882
     98 NH1        33.4110  -34.2840   17.3320 N.pl3     1 ARG        -0.2849
     99 NH2        35.5100  -33.5190   17.9020 N.pl3     1 ARG        -0.2849
    100 N          37.8360  -34.9070   10.4690 N.am      1 GLN        -0.2636
    101 CA         39.1220  -35.3410    9.9310 C.3       1 GLN         0.1330
    102 C          39.1880  -35.1650    8.4160 C.2       1 GLN         0.2041
    103 O          39.0370  -36.1310    7.6730 O.2       1 GLN        -0.3944
    104 CB         39.3220  -36.8170   10.2910 C.3       1 GLN         0.0045
    105 CG         39.1330  -37.0860   11.8160 C.3       1 GLN         0.0412
    106 CD         39.1380  -38.5620   12.1750 C.2       1 GLN         0.1737
    107 OE1        39.9070  -39.3530   11.6080 O.2       1 GLN        -0.3973
    108 NE2        38.2970  -38.9400   13.1480 N.am      1 GLN        -0.3009
    109 N          39.6670  -33.9980    8.0010 N.am      1 SER        -0.2616
    110 CA         39.6440  -33.5720    6.6080 C.3       1 SER         0.1539
    111 C          41.0330  -33.7010    6.0720 C.2       1 SER         0.2058
    112 O          42.0010  -33.5990    6.8390 O.2       1 SER        -0.3943
    113 CB         39.2200  -32.1070    6.4790 C.3       1 SER         0.0843
    114 OG         37.8620  -31.9380    6.8230 O.3       1 SER        -0.3903
    115 N          41.1090  -33.9440    4.7660 N.am      1 PHE        -0.2652
    116 CA         42.3550  -34.0040    4.0170 C.3       1 PHE         0.1321
    117 C          42.7340  -32.6360    3.4520 C.2       1 PHE         0.2170
    118 O          41.9150  -31.7100    3.4540 O.co2     1 PHE        -0.4118
    119 CB         42.2080  -35.0180    2.8870 C.3       1 PHE         0.0183
    120 CG         41.8180  -36.3720    3.3650 C.ar      1 PHE        -0.0391
    121 CD1        42.6400  -37.0680    4.2480 C.ar      1 PHE        -0.0602
    122 CD2        40.6240  -36.9480    2.9660 C.ar      1 PHE        -0.0602
    123 CE1        42.2790  -38.3280    4.7200 C.ar      1 PHE        -0.0686
    124 CE2        40.2490  -38.2110    3.4330 C.ar      1 PHE        -0.0686
    125 CZ         41.0760  -38.9030    4.3100 C.ar      1 PHE        -0.0687
    126 H          24.1934  -29.5394   18.9940 H         1 LEU         0.2015
    127 H          24.7715  -30.2805   20.3453 H         1 LEU         0.2015
    128 H          23.3944  -30.8301   19.6305 H         1 LEU         0.2015
    129 H          24.5355  -31.4876   17.6984 H         1 LEU         0.1095
    130 H          27.0198  -31.3997   17.6381 H         1 LEU         0.0310
    131 H          27.0147  -30.4822   19.1824 H         1 LEU         0.0310
    132 H          26.2818  -29.7636   17.7082 H         1 LEU         0.0310
    133 H          23.3115  -33.0542   19.2047 H         1 SER         0.1885
    134 H          25.3566  -35.1382   19.8662 H         1 SER         0.0823
    135 H          23.3294  -36.3275   20.9246 H         1 SER         0.0606
    136 H          22.4870  -34.7453   20.8074 H         1 SER         0.0606
    137 H          23.5853  -35.0317   22.8136 H         1 SER         0.2097
    138 H          25.0686  -37.1867   18.8880 H         1 ARG         0.1883
    139 H          24.6076  -38.5982   17.1440 H         1 ARG         0.0800
    140 H          22.1673  -38.7931   16.5055 H         1 ARG         0.0313
    141 H          21.8398  -37.4248   17.6222 H         1 ARG         0.0313
    142 H          22.8897  -38.7176   19.4544 H         1 ARG         0.0301
    143 H          23.0995  -40.0979   18.3241 H         1 ARG         0.0301
    144 H          21.1160  -40.3685   19.8138 H         1 ARG         0.0689
    145 H          20.6713  -40.3181   18.0741 H         1 ARG         0.0689
    146 H          19.4491  -38.3958   18.4467 H         1 ARG         0.2642
    147 H          20.8210  -37.6246   22.2126 H         1 ARG         0.2615
    148 H          21.6041  -38.9188   21.2669 H         1 ARG         0.2615
    149 H          18.4857  -36.7892   19.6742 H         1 ARG         0.2615
    150 H          19.0747  -36.4363   21.3208 H         1 ARG         0.2615
    151 H          25.8916  -36.4053   16.4113 H         1 VAL         0.1883
    152 H          24.8220  -34.9375   14.2103 H         1 VAL         0.0802
    153 H          27.7118  -35.6681   14.9349 H         1 VAL         0.0343
    154 H          28.3534  -33.7156   13.5280 H         1 VAL         0.0234
    155 H          26.6367  -33.5082   13.0415 H         1 VAL         0.0234
    156 H          27.5328  -34.9901   12.5642 H         1 VAL         0.0234
    157 H          26.5079  -34.4064   16.7105 H         1 VAL         0.0234
    158 H          26.0924  -33.1327   15.5141 H         1 VAL         0.0234
    159 H          27.8089  -33.4247   15.9555 H         1 VAL         0.0234
    160 H          24.7284  -35.4282   12.0349 H         1 LYS         0.1883
    161 H          24.7979  -38.1188   11.1694 H         1 LYS         0.0800
    162 H          24.9292  -37.0952    8.8144 H         1 LYS         0.0312
    163 H          24.9416  -35.4958    9.6320 H         1 LYS         0.0312
    164 H          22.7850  -35.9731   10.6942 H         1 LYS         0.0269
    165 H          22.7868  -37.6391   10.0226 H         1 LYS         0.0269
    166 H          22.6217  -36.7684    7.7476 H         1 LYS         0.0317
    167 H          22.7630  -35.0815    8.3486 H         1 LYS         0.0317
    168 H          20.6524  -35.2709    9.5626 H         1 LYS         0.0813
    169 H          20.5440  -37.0252    9.1916 H         1 LYS         0.0813
    170 H          19.1531  -35.7063    7.7107 H         1 LYS         0.1994
    171 H          20.3464  -36.4400    6.8464 H         1 LYS         0.1994
    172 H          20.4457  -34.8325    7.1864 H         1 LYS         0.1994
    173 H          26.2133  -39.3000    9.9144 H         1 SEP         0.1884
    174 H          28.9091  -39.1852   10.8051 H         1 SEP         0.0827
    175 H          27.7392  -41.2776   10.1667 H         1 SEP         0.0662
    176 H          29.2432  -41.0714    9.2064 H         1 SEP         0.0662
    177 H          27.4110  -38.0787    7.7113 H         1 LEU         0.1883
    178 H          29.8823  -37.5612    6.3797 H         1 LEU         0.0800
    179 H          27.2055  -36.1251    6.1302 H         1 LEU         0.0315
    180 H          27.7799  -37.5203    5.1555 H         1 LEU         0.0315
    181 H          29.1695  -34.8032    5.1827 H         1 LEU         0.0298
    182 H          30.1590  -35.6209    3.0589 H         1 LEU         0.0232
    183 H          29.2896  -37.1796    3.2613 H         1 LEU         0.0232
    184 H          30.5550  -36.6972    4.4414 H         1 LEU         0.0232
    185 H          26.8326  -34.5342    4.3461 H         1 LEU         0.0232
    186 H          27.1171  -35.8451    3.1514 H         1 LEU         0.0232
    187 H          28.0421  -34.3094    3.0373 H         1 LEU         0.0232
    188 H          27.8354  -35.5355    8.4980 H         1 LYS         0.1883
    189 H          29.5642  -33.2466    8.3567 H         1 LYS         0.0800
    190 H          27.7208  -33.9448   10.6756 H         1 LYS         0.0312
    191 H          27.1715  -33.1990    9.1365 H         1 LYS         0.0312
    192 H          28.7788  -31.2867    9.5697 H         1 LYS         0.0269
    193 H          29.1274  -32.0087   11.1772 H         1 LYS         0.0269
    194 H          26.7822  -31.7599   11.8417 H         1 LYS         0.0317
    195 H          26.3525  -31.1551   10.2058 H         1 LYS         0.0317
    196 H          28.1772  -29.7954   12.2536 H         1 LYS         0.0813
    197 H          26.5358  -29.2686   11.7486 H         1 LYS         0.0813
    198 H          28.2706  -28.0115   10.6162 H         1 LYS         0.1994
    199 H          27.4226  -28.8988    9.5194 H         1 LYS         0.1994
    200 H          28.9267  -29.3816    9.9822 H         1 LYS         0.1994
    201 H          29.4728  -36.0475   10.6340 H         1 LYS         0.1883
    202 H          31.5990  -35.1336   12.2975 H         1 LYS         0.0800
    203 H          32.1398  -37.5877   12.6493 H         1 LYS         0.0312
    204 H          30.8075  -37.9487   11.4998 H         1 LYS         0.0312
    205 H          29.1418  -37.2038   13.0032 H         1 LYS         0.0269
    206 H          30.3113  -36.2596   13.9868 H         1 LYS         0.0269
    207 H          30.7242  -38.0334   15.3001 H         1 LYS         0.0317
    208 H          31.1416  -39.0392   13.8715 H         1 LYS         0.0317
    209 H          29.4068  -40.2446   14.8484 H         1 LYS         0.0813
    210 H          28.5519  -39.2830   13.5950 H         1 LYS         0.0813
    211 H          27.3987  -39.2421   15.7001 H         1 LYS         0.1994
    212 H          27.9251  -37.7289   15.3224 H         1 LYS         0.1994
    213 H          28.7086  -38.6102   16.4710 H         1 LYS         0.1994
    214 H          31.7299  -36.7005    9.0771 H         1 SER         0.1884
    215 H          34.5044  -37.3246    9.1420 H         1 SER         0.0823
    216 H          32.7391  -38.1663    7.4874 H         1 SER         0.0606
    217 H          34.3744  -37.7912    6.8457 H         1 SER         0.0606
    218 H          32.0789  -36.0938    6.6744 H         1 SER         0.2097
    219 H          32.9284  -34.2805    8.8060 H         1 LEU         0.1883
    220 H          34.9768  -32.8353    7.3960 H         1 LEU         0.0800
    221 H          33.9523  -30.8127    8.4192 H         1 LEU         0.0315
    222 H          32.9199  -31.8763    9.4340 H         1 LEU         0.0315
    223 H          31.8064  -32.7048    7.3688 H         1 LEU         0.0298
    224 H          30.4984  -30.6257    6.9251 H         1 LEU         0.0232
    225 H          31.7699  -29.6564    7.7438 H         1 LEU         0.0232
    226 H          30.8086  -30.8506    8.6800 H         1 LEU         0.0232
    227 H          33.6479  -32.2435    5.7539 H         1 LEU         0.0232
    228 H          33.3899  -30.4798    5.9762 H         1 LEU         0.0232
    229 H          32.1006  -31.4902    5.2391 H         1 LEU         0.0232
    230 H          34.6881  -34.0679   10.6645 H         1 ARG         0.1883
    231 H          36.5846  -32.2043   11.8216 H         1 ARG         0.0800
    232 H          36.5653  -33.6276   13.7796 H         1 ARG         0.0313
    233 H          35.7992  -34.9600   12.8498 H         1 ARG         0.0313
    234 H          33.8076  -33.5496   12.4902 H         1 ARG         0.0301
    235 H          34.5730  -32.2378   13.4493 H         1 ARG         0.0301
    236 H          33.9025  -35.0443   14.4573 H         1 ARG         0.0689
    237 H          32.9871  -33.5421   14.8204 H         1 ARG         0.0689
    238 H          35.8347  -33.3058   15.4476 H         1 ARG         0.2642
    239 H          33.1837  -34.4083   18.3289 H         1 ARG         0.2615
    240 H          32.7131  -34.5181   16.6115 H         1 ARG         0.2615
    241 H          36.4344  -33.1607   17.6225 H         1 ARG         0.2615
    242 H          35.2860  -33.6433   18.8996 H         1 ARG         0.2615
    243 H          36.9910  -35.3486   10.1674 H         1 GLN         0.1883
    244 H          39.9222  -34.7422   10.3905 H         1 GLN         0.0801
    245 H          40.3404  -37.1165   10.0027 H         1 GLN         0.0337
    246 H          38.5906  -37.4195    9.7324 H         1 GLN         0.0337
    247 H          38.1709  -36.6546   12.1293 H         1 GLN         0.0504
    248 H          39.9511  -36.5922   12.3609 H         1 GLN         0.0504
    249 H          38.2553  -39.8990   13.4282 H         1 GLN         0.1814
    250 H          37.7113  -38.2630   13.5936 H         1 GLN         0.1814
    251 H          40.0639  -33.3799    8.6795 H         1 SER         0.1884
    252 H          38.9522  -34.2085    6.0368 H         1 SER         0.0823
    253 H          39.3705  -31.7798    5.4396 H         1 SER         0.0606
    254 H          39.8393  -31.4935    7.1499 H         1 SER         0.0606
    255 H          37.3221  -32.4629    6.2438 H         1 SER         0.2097
    256 H          40.2554  -34.0950    4.2675 H         1 PHE         0.1878
    257 H          43.1569  -34.3362    4.6927 H         1 PHE         0.0774
    258 O1         43.8880  -32.4506    2.9813 O.co2     1 PHE        -0.4118
    259 H          43.1702  -35.0966    2.3597 H         1 PHE         0.0468
    260 H          41.4367  -34.6570    2.1907 H         1 PHE         0.0468
    261 H          43.5737  -36.6231    4.5725 H         1 PHE         0.0557
    262 H          39.9727  -36.4136    2.2839 H         1 PHE         0.0557
    263 H          42.9308  -38.8599    5.4036 H         1 PHE         0.0599
    264 H          39.3123  -38.6512    3.1109 H         1 PHE         0.0599
    265 H          40.7881  -39.8830    4.6730 H         1 PHE         0.0559
@<TRIPOS>BOND
     1    1    2 1  
     2    2    3 1  
     3    2    5 1  
     4    3    4 2  
     5    3    6 am 
     6    6    7 1  
     7    7    8 1  
     8    7   10 1  
     9    8    9 2  
    10    8   12 am 
    11   10   11 1  
    12   12   13 1  
    13   13   14 1  
    14   13   16 1  
    15   14   15 2  
    16   14   23 am 
    17   16   17 1  
    18   17   18 1  
    19   18   19 1  
    20   19   20 ar 
    21   20   21 ar 
    22   20   22 ar 
    23   23   24 1  
    24   24   25 1  
    25   24   27 1  
    26   25   26 2  
    27   25   30 am 
    28   27   28 1  
    29   27   29 1  
    30   30   31 1  
    31   31   32 1  
    32   31   34 1  
    33   32   33 2  
    34   32   39 am 
    35   34   35 1  
    36   35   36 1  
    37   36   37 1  
    38   37   38 1  
    39   39   40 1  
    40   40   41 1  
    41   40   43 1  
    42   41   42 1  
    43   42   45 1  
    44   43   44 2  
    45   43   49 am 
    46   45   46 ar 
    47   45   47 ar 
    48   45   48 ar 
    49   49   50 1  
    50   50   51 1  
    51   50   53 1  
    52   51   52 2  
    53   51   57 am 
    54   53   54 1  
    55   54   55 1  
    56   54   56 1  
    57   57   58 1  
    58   58   59 1  
    59   58   61 1  
    60   59   60 2  
    61   59   66 am 
    62   61   62 1  
    63   62   63 1  
    64   63   64 1  
    65   64   65 1  
    66   66   67 1  
    67   67   68 1  
    68   67   70 1  
    69   68   69 2  
    70   68   75 am 
    71   70   71 1  
    72   71   72 1  
    73   72   73 1  
    74   73   74 1  
    75   75   76 1  
    76   76   77 1  
    77   76   79 1  
    78   77   78 2  
    79   77   81 am 
    80   79   80 1  
    81   81   82 1  
    82   82   83 1  
    83   82   85 1  
    84   83   84 2  
    85   83   89 am 
    86   85   86 1  
    87   86   87 1  
    88   86   88 1  
    89   89   90 1  
    90   90   91 1  
    91   90   93 1  
    92   91   92 2  
    93   91  100 am 
    94   93   94 1  
    95   94   95 1  
    96   95   96 1  
    97   96   97 ar 
    98   97   98 ar 
    99   97   99 ar 
   100  100  101 1  
   101  101  102 1  
   102  101  104 1  
   103  102  103 2  
   104  102  109 am 
   105  104  105 1  
   106  105  106 1  
   107  106  107 2  
   108  106  108 am 
   109  109  110 1  
   110  110  111 1  
   111  110  113 1  
   112  111  112 2  
   113  111  115 am 
   114  113  114 1  
   115  115  116 1  
   116  116  117 1  
   117  116  119 1  
   118  117  118 ar 
   119  119  120 1  
   120  120  121 ar 
   121  120  122 ar 
   122  121  123 ar 
   123  122  124 ar 
   124  123  125 ar 
   125  124  125 ar 
   126    1  126 1  
   127    1  127 1  
   128    1  128 1  
   129    2  129 1  
   130    5  130 1  
   131    5  131 1  
   132    5  132 1  
   133    6  133 1  
   134    7  134 1  
   135   10  135 1  
   136   10  136 1  
   137   11  137 1  
   138   12  138 1  
   139   13  139 1  
   140   16  140 1  
   141   16  141 1  
   142   17  142 1  
   143   17  143 1  
   144   18  144 1  
   145   18  145 1  
   146   19  146 1  
   147   21  147 1  
   148   21  148 1  
   149   22  149 1  
   150   22  150 1  
   151   23  151 1  
   152   24  152 1  
   153   27  153 1  
   154   28  154 1  
   155   28  155 1  
   156   28  156 1  
   157   29  157 1  
   158   29  158 1  
   159   29  159 1  
   160   30  160 1  
   161   31  161 1  
   162   34  162 1  
   163   34  163 1  
   164   35  164 1  
   165   35  165 1  
   166   36  166 1  
   167   36  167 1  
   168   37  168 1  
   169   37  169 1  
   170   38  170 1  
   171   38  171 1  
   172   38  172 1  
   173   39  173 1  
   174   40  174 1  
   175   41  175 1  
   176   41  176 1  
   177   49  177 1  
   178   50  178 1  
   179   53  179 1  
   180   53  180 1  
   181   54  181 1  
   182   55  182 1  
   183   55  183 1  
   184   55  184 1  
   185   56  185 1  
   186   56  186 1  
   187   56  187 1  
   188   57  188 1  
   189   58  189 1  
   190   61  190 1  
   191   61  191 1  
   192   62  192 1  
   193   62  193 1  
   194   63  194 1  
   195   63  195 1  
   196   64  196 1  
   197   64  197 1  
   198   65  198 1  
   199   65  199 1  
   200   65  200 1  
   201   66  201 1  
   202   67  202 1  
   203   70  203 1  
   204   70  204 1  
   205   71  205 1  
   206   71  206 1  
   207   72  207 1  
   208   72  208 1  
   209   73  209 1  
   210   73  210 1  
   211   74  211 1  
   212   74  212 1  
   213   74  213 1  
   214   75  214 1  
   215   76  215 1  
   216   79  216 1  
   217   79  217 1  
   218   80  218 1  
   219   81  219 1  
   220   82  220 1  
   221   85  221 1  
   222   85  222 1  
   223   86  223 1  
   224   87  224 1  
   225   87  225 1  
   226   87  226 1  
   227   88  227 1  
   228   88  228 1  
   229   88  229 1  
   230   89  230 1  
   231   90  231 1  
   232   93  232 1  
   233   93  233 1  
   234   94  234 1  
   235   94  235 1  
   236   95  236 1  
   237   95  237 1  
   238   96  238 1  
   239   98  239 1  
   240   98  240 1  
   241   99  241 1  
   242   99  242 1  
   243  100  243 1  
   244  101  244 1  
   245  104  245 1  
   246  104  246 1  
   247  105  247 1  
   248  105  248 1  
   249  108  249 1  
   250  108  250 1  
   251  109  251 1  
   252  110  252 1  
   253  113  253 1  
   254  113  254 1  
   255  114  255 1  
   256  115  256 1  
   257  116  257 1  
   258  117  258 ar 
   259  119  259 1  
   260  119  260 1  
   261  121  261 1  
   262  122  262 1  
   263  123  263 1  
   264  124  264 1  
   265  125  265 1  
@<TRIPOS>SUBSTRUCTURE
     1 LEU         1

