### 
### Created by X-TOOL on Mon Sep 10 21:12:57 2018
### 

@<TRIPOS>MOLECULE
2pjb_ligand
   83    85     1     0     0
SMALL
GAST_HUCK


@<TRIPOS>ATOM
      1 C49        37.7940   19.6870   63.2180 C.ar      1 983        -0.0578
      2 C50        36.7250   20.5490   62.8660 C.ar      1 983        -0.0685
      3 C51        36.5290   20.9100   61.5110 C.ar      1 983        -0.0687
      4 C52        37.4010   20.4100   60.5090 C.ar      1 983        -0.0685
      5 C53        38.4690   19.5470   60.8570 C.ar      1 983        -0.0578
      6 C48        38.6680   19.1830   62.2130 C.ar      1 983        -0.0130
      7 C47        39.7220   18.3260   62.5570 C.3       1 983         0.1113
      8 O46        39.5900   17.4050   63.6810 O.3       1 983        -0.2507
      9 C44        39.0100   16.1800   63.3880 C.2       1 983         0.3220
     10 O45        38.6750   15.8940   62.2230 O.2       1 983        -0.3774
     11 N43        38.8440   15.3430   64.4150 N.am      1 983        -0.2558
     12 C34        38.2610   13.9890   64.2860 C.3       1 983         0.0744
     13 C35        39.1050   12.9850   65.0850 C.3       1 983         0.0055
     14 C36        40.5600   12.8390   64.5750 C.ar      1 983        -0.0408
     15 C37        40.8990   13.0350   63.1980 C.ar      1 983        -0.0603
     16 C38        42.2300   12.8310   62.7550 C.ar      1 983        -0.0686
     17 C41        43.2270   12.4320   63.6780 C.ar      1 983        -0.0687
     18 C40        42.8980   12.2400   65.0450 C.ar      1 983        -0.0686
     19 C39        41.5680   12.4450   65.4930 C.ar      1 983        -0.0603
     20 C33        36.8220   13.9470   64.8050 C.3       1 983         0.1091
     21 S32        35.6810   15.0550   63.9130 S.o2      1 983         0.0428
     22 O32        34.2720   14.6290   64.1990 O.2       1 983        -0.1554
     23 O33        35.8880   16.4640   64.3830 O.2       1 983        -0.1554
     24 N31        35.9690   14.9650   62.3010 N.am      1 983        -0.2317
     25 C27        34.9830   14.6650   61.3290 C.3       1 983         0.1039
     26 C28        34.8030   15.8310   60.3180 C.3       1 983        -0.0107
     27 C30        36.1110   16.2600   59.6420 C.3       1 983        -0.0594
     28 C29        34.1790   17.0430   61.0270 C.3       1 983        -0.0594
     29 P24        35.2460   12.9850   60.5990 P.3       1 983         0.0106
     30 O25        34.3460   12.8190   59.4470 O.co2     1 983        -0.6177
     31 O26        35.1120   12.0490   61.7410 O.co2     1 983        -0.6177
     32 C15        36.9770   12.9540   60.0040 C.3       1 983         0.0387
     33 C1         37.4180   11.4940   59.7180 C.3       1 983         0.0592
     34 C2         37.5980   10.6660   61.0090 C.2       1 983         0.0508
     35 O14        37.3250    9.4520   60.9320 O.co2     1 983        -0.5660
     36 O13        38.0190   11.2580   62.0270 O.co2     1 983        -0.5660
     37 C3         38.7430   11.4490   58.9300 C.ar      1 983        -0.0322
     38 C8         38.7910   10.6840   57.7440 C.ar      1 983        -0.0522
     39 C4         39.9290   12.0800   59.4190 C.ar      1 983        -0.0653
     40 C5         41.1480   11.9260   58.7160 C.ar      1 983        -0.0748
     41 C6         41.1880   11.1510   57.5290 C.ar      1 983        -0.0621
     42 C7         40.0080   10.5310   57.0450 C.ar      1 983        -0.0052
     43 C9         40.0470    9.6830   55.7750 C.3       1 983        -0.0032
     44 N10        40.0900    8.2580   56.1390 N.4       1 983         0.2307
     45 H1         37.9465   19.4108   64.2551 H         1 983         0.0557
     46 H2         36.0596   20.9306   63.6320 H         1 983         0.0599
     47 H3         35.7123   21.5688   61.2387 H         1 983         0.0559
     48 H4         37.2490   20.6898   59.4728 H         1 983         0.0599
     49 H5         39.1323   19.1659   60.0889 H         1 983         0.0557
     50 H6         40.5904   18.9654   62.7737 H         1 983         0.0776
     51 H7         39.9315   17.7116   61.6690 H         1 983         0.0776
     52 H8         39.1300   15.6486   65.3232 H         1 983         0.1873
     53 H9         38.2651   13.7024   63.2240 H         1 983         0.0595
     54 H10        38.6179   12.0004   65.0274 H         1 983         0.0449
     55 H11        39.1376   13.3173   66.1331 H         1 983         0.0449
     56 H12        40.1354   13.3404   62.4918 H         1 983         0.0557
     57 H13        42.4841   12.9801   61.7118 H         1 983         0.0599
     58 H14        44.2444   12.2728   63.3394 H         1 983         0.0559
     59 H15        43.6648   11.9360   65.7483 H         1 983         0.0599
     60 H16        41.3210   12.3005   66.5385 H         1 983         0.0557
     61 H17        36.8280   14.2376   65.8659 H         1 983         0.0543
     62 H18        36.4494   12.9165   64.7092 H         1 983         0.0543
     63 H19        36.9022   15.1330   61.9832 H         1 983         0.1689
     64 H20        34.0275   14.6005   61.8701 H         1 983         0.0720
     65 H21        34.1127   15.4903   59.5322 H         1 983         0.0330
     66 H22        35.9090   17.0851   58.9431 H         1 983         0.0233
     67 H23        36.5354   15.4080   59.0906 H         1 983         0.0233
     68 H24        36.8267   16.5947   60.4073 H         1 983         0.0233
     69 H25        33.2402   16.7399   61.5135 H         1 983         0.0233
     70 H26        33.9715   17.8324   60.2896 H         1 983         0.0233
     71 H27        34.8785   17.4243   61.7855 H         1 983         0.0233
     72 H28        37.6335   13.3881   60.7725 H         1 983         0.0508
     73 H29        37.0543   13.5448   59.0794 H         1 983         0.0508
     74 H30        36.6329   11.0207   59.1100 H         1 983         0.0638
     75 H31        37.8899   10.2124   57.3689 H         1 983         0.0499
     76 H32        39.8949   12.6743   60.3249 H         1 983         0.0502
     77 H33        42.0504   12.4002   59.0848 H         1 983         0.0582
     78 H34        42.1216   11.0324   56.9911 H         1 983         0.0503
     79 H35        40.9426    9.9393   55.1901 H         1 983         0.0978
     80 H36        39.1473    9.8810   55.1739 H         1 983         0.0978
     81 H37        40.1157    7.6979   55.3013 H         1 983         0.2008
     82 H38        39.2693    8.0232   56.6750 H         1 983         0.2008
     83 H39        40.9144    8.0766   56.6899 H         1 983         0.2008
@<TRIPOS>BOND
     1    1    2 ar 
     2    1    6 ar 
     3    2    3 ar 
     4    3    4 ar 
     5    4    5 ar 
     6    5    6 ar 
     7    6    7 1  
     8    7    8 1  
     9    8    9 1  
    10    9   10 2  
    11    9   11 am 
    12   11   12 1  
    13   12   13 1  
    14   12   20 1  
    15   13   14 1  
    16   14   15 ar 
    17   14   19 ar 
    18   15   16 ar 
    19   16   17 ar 
    20   17   18 ar 
    21   18   19 ar 
    22   20   21 1  
    23   21   22 2  
    24   21   23 2  
    25   21   24 am 
    26   24   25 1  
    27   25   26 1  
    28   25   29 1  
    29   26   27 1  
    30   26   28 1  
    31   29   30 ar 
    32   29   31 ar 
    33   29   32 1  
    34   32   33 1  
    35   33   34 1  
    36   33   37 1  
    37   34   35 ar 
    38   34   36 ar 
    39   37   38 ar 
    40   37   39 ar 
    41   38   42 ar 
    42   39   40 ar 
    43   40   41 ar 
    44   41   42 ar 
    45   42   43 1  
    46   43   44 1  
    47    1   45 1  
    48    2   46 1  
    49    3   47 1  
    50    4   48 1  
    51    5   49 1  
    52    7   50 1  
    53    7   51 1  
    54   11   52 1  
    55   12   53 1  
    56   13   54 1  
    57   13   55 1  
    58   15   56 1  
    59   16   57 1  
    60   17   58 1  
    61   18   59 1  
    62   19   60 1  
    63   20   61 1  
    64   20   62 1  
    65   24   63 1  
    66   25   64 1  
    67   26   65 1  
    68   27   66 1  
    69   27   67 1  
    70   27   68 1  
    71   28   69 1  
    72   28   70 1  
    73   28   71 1  
    74   32   72 1  
    75   32   73 1  
    76   33   74 1  
    77   38   75 1  
    78   39   76 1  
    79   40   77 1  
    80   41   78 1  
    81   43   79 1  
    82   43   80 1  
    83   44   81 1  
    84   44   82 1  
    85   44   83 1  
@<TRIPOS>SUBSTRUCTURE
     1 983         1

