6hvt_ligand
  -I-interpret- 

 82 83  0  0  0  0  0  0  0  0999 V2000
   55.2920 -134.9150   31.7080 C   0  0  0  0  0
   58.4600 -134.6070   33.9280 C   0  0  0  0  0
   59.6230 -134.9140   34.4870 C   0  0  0  0  0
   61.2150 -134.2910   37.0510 C   0  0  0  0  0
   62.7950 -135.7290   40.0790 C   0  0  0  0  0
   63.6420 -135.3070   42.3640 C   0  0  0  0  0
   64.1320 -132.8830   42.5500 C   0  0  0  0  0
   65.2040 -130.5720   41.3430 C   0  0  0  0  0
   65.7980 -129.5150   40.6410 C   0  0  0  0  0
   64.9620 -132.9660   41.4210 C   0  0  0  0  0
   61.8980 -136.7110   43.5010 C   0  0  0  0  0
   61.8810 -139.6510   42.7960 C   0  0  0  0  0
   56.4470 -134.5960   32.6570 C   0  0  0  0  0
   57.7280 -135.5760   32.7930 S   0  0  0  0  0
   56.5600 -133.5270   33.4790 N   0  0  0  0  0
   57.6940 -133.5350   34.2030 C   0  0  0  0  0
   59.9530 -136.0920   34.6440 O   0  0  0  0  0
   60.3560 -133.8810   34.8940 N   0  0  0  0  0
   61.6070 -134.0900   35.5970 C   0  0  0  0  0
   62.4230 -132.8380   35.3260 C   0  0  0  0  0
   63.9060 -133.0530   35.5580 C   0  0  0  0  0
   64.6730 -131.7640   35.2020 C   0  0  0  0  0
   64.3930 -134.1940   34.6710 C   0  0  0  0  0
   60.1600 -133.8230   37.4780 O   0  0  0  0  0
   62.0130 -135.0850   37.7750 N   0  0  0  0  0
   61.6200 -135.4410   39.1440 C   0  0  0  0  0
   60.7730 -136.7010   38.9870 C   0  0  0  0  0
   60.2330 -137.1150   40.2440 O   0  0  0  0  0
   58.9650 -137.7840   40.1180 C   0  0  0  0  0
   63.7140 -136.4710   39.7470 O   0  0  0  0  0
   62.6650 -135.1540   41.2760 N   0  0  0  0  0
   63.3980 -136.5820   43.1970 C   0  0  0  0  0
   61.2560 -138.3760   43.8720 S   0  0  0  0  0
   59.7530 -138.3180   43.6620 O   0  0  0  0  0
   61.5030 -138.7280   45.3200 O   0  0  0  0  0
   63.5790 -133.9950   43.2040 C   0  0  0  0  0
   63.8510 -131.6220   43.0700 C   0  0  0  0  0
   64.3730 -130.4750   42.4740 C   0  0  0  0  0
   65.7330 -128.1800   41.2550 N   0  3  0  0  0
   65.4810 -131.8310   40.8310 C   0  0  0  0  0
   55.6684 -134.9747   30.6868 H   0  0  0  0  0
   54.8459 -135.8692   31.9885 H   0  0  0  0  0
   54.5409 -134.1278   31.7743 H   0  0  0  0  0
   64.6484 -135.4457   41.9689 H   0  0  0  0  0
   65.2482 -129.4366   39.7031 H   0  0  0  0  0
   66.8581 -129.7604   40.5777 H   0  0  0  0  0
   65.2009 -133.9438   41.0028 H   0  0  0  0  0
   61.3858 -136.3944   42.5924 H   0  0  0  0  0
   61.7296 -136.1234   44.4035 H   0  0  0  0  0
   61.4176 -140.6029   43.0553 H   0  0  0  0  0
   61.6447 -139.4001   41.7619 H   0  0  0  0  0
   62.9618 -139.7273   42.9148 H   0  0  0  0  0
   57.9608 -132.7646   34.9265 H   0  0  0  0  0
   60.0343 -132.9308   34.7094 H   0  0  0  0  0
   62.2063 -134.9489   35.2952 H   0  0  0  0  0
   62.0840 -132.0599   36.0100 H   0  0  0  0  0
   62.2816 -132.5630   34.2808 H   0  0  0  0  0
   64.0807 -133.3021   36.6047 H   0  0  0  0  0
   64.5001 -131.5174   34.1544 H   0  0  0  0  0
   64.3204 -130.9472   35.8318 H   0  0  0  0  0
   65.7389 -131.9191   35.3690 H   0  0  0  0  0
   63.8477 -135.1043   34.9201 H   0  0  0  0  0
   64.2191 -133.9394   33.6255 H   0  0  0  0  0
   65.4590 -134.3509   34.8356 H   0  0  0  0  0
   62.8844 -135.4388   37.3801 H   0  0  0  0  0
   61.0971 -134.6028   39.6045 H   0  0  0  0  0
   61.4036 -137.5000   38.5971 H   0  0  0  0  0
   59.9493 -136.4861   38.3062 H   0  0  0  0  0
   58.2450 -137.1106   39.6531 H   0  0  0  0  0
   59.0847 -138.6733   39.4992 H   0  0  0  0  0
   58.6083 -138.0730   41.1066 H   0  0  0  0  0
   61.8419 -134.5760   41.4457 H   0  0  0  0  0
   63.9555 -136.5193   44.1316 H   0  0  0  0  0
   63.7326 -137.4542   42.6354 H   0  0  0  0  0
   64.1569 -134.1606   44.1132 H   0  0  0  0  0
   62.5276 -133.7757   43.3899 H   0  0  0  0  0
   63.2167 -131.5310   43.9517 H   0  0  0  0  0
   64.1353 -129.4950   42.8877 H   0  0  0  0  0
   66.1984 -127.5050   40.6482 H   0  0  0  0  0
   64.7569 -127.9112   41.3789 H   0  0  0  0  0
   66.1988 -128.2013   42.1622 H   0  0  0  0  0
   66.1171 -131.9255   39.9509 H   0  0  0  0  0
 13  1  1  0  0  0
  3  2  1  0  0  0
  2 14  4  0  0  0
  2 16  4  0  0  0
  3 17  2  0  0  0
 18  3  1  0  0  0
  4 19  1  0  0  0
  4 24  2  0  0  0
 25  4  1  0  0  0
 26  5  1  0  0  0
  5 30  2  0  0  0
  5 31  1  0  0  0
 31  6  1  0  0  0
  6 32  1  0  0  0
  6 36  1  0  0  0
  7 10  4  0  0  0
 36  7  1  0  0  0
  7 37  4  0  0  0
  8  9  1  0  0  0
  8 38  4  0  0  0
 40  8  4  0  0  0
  9 39  1  0  0  0
 10 40  4  0  0  0
 32 11  1  0  0  0
 11 33  1  0  0  0
 33 12  1  0  0  0
 14 13  4  0  0  0
 15 13  4  0  0  0
 16 15  4  0  0  0
 19 18  1  0  0  0
 19 20  1  0  0  0
 20 21  1  0  0  0
 21 22  1  0  0  0
 21 23  1  0  0  0
 25 26  1  0  0  0
 26 27  1  0  0  0
 27 28  1  0  0  0
 28 29  1  0  0  0
 33 34  2  0  0  0
 33 35  2  0  0  0
 37 38  4  0  0  0
  1 41  1  0  0  0
  1 42  1  0  0  0
  1 43  1  0  0  0
  6 44  1  0  0  0
  9 45  1  0  0  0
  9 46  1  0  0  0
 10 47  1  0  0  0
 11 48  1  0  0  0
 11 49  1  0  0  0
 12 50  1  0  0  0
 12 51  1  0  0  0
 12 52  1  0  0  0
 16 53  1  0  0  0
 18 54  1  0  0  0
 19 55  1  0  0  0
 20 56  1  0  0  0
 20 57  1  0  0  0
 21 58  1  0  0  0
 22 59  1  0  0  0
 22 60  1  0  0  0
 22 61  1  0  0  0
 23 62  1  0  0  0
 23 63  1  0  0  0
 23 64  1  0  0  0
 25 65  1  0  0  0
 26 66  1  0  0  0
 27 67  1  0  0  0
 27 68  1  0  0  0
 29 69  1  0  0  0
 29 70  1  0  0  0
 29 71  1  0  0  0
 31 72  1  0  0  0
 32 73  1  0  0  0
 32 74  1  0  0  0
 36 75  1  0  0  0
 36 76  1  0  0  0
 37 77  1  0  0  0
 38 78  1  0  0  0
 39 79  1  0  0  0
 39 80  1  0  0  0
 39 81  1  0  0  0
 40 82  1  0  0  0
M  END
$$$$
