2kbr_ligand
  -I-interpret- 

306307  0  0  0  0  0  0  0  0999 V2000
   -5.6940   12.5670    0.7430 N   0  3  0  0  0
   -6.0000   11.1480    0.6320 C   0  0  0  0  0
   -4.8540   10.2980    1.1750 C   0  0  0  0  0
   -4.3190    9.4360    0.4780 O   0  0  0  0  0
   -6.2830   10.7780   -0.8250 C   0  0  0  0  0
   -5.1540   11.1790   -1.7530 C   0  0  0  0  0
   -3.9830   11.1380   -1.3180 O   0  0  0  0  0
   -5.4370   11.5350   -2.9150 O   0  0  0  0  0
   -4.4810   10.5490    2.4270 N   0  0  0  0  0
   -3.3990    9.8100    3.0650 C   0  0  0  0  0
   -3.7200    9.5350    4.5310 C   0  0  0  0  0
   -4.2870   10.3810    5.2210 O   0  0  0  0  0
   -2.0880   10.5910    2.9560 C   0  0  0  0  0
   -2.2100   12.0040    3.4900 C   0  0  0  0  0
   -3.0510   12.7660    2.9680 O   0  0  0  0  0
   -1.4660   12.3490    4.4320 O   0  0  0  0  0
   -3.3500    8.3470    4.9990 N   0  0  0  0  0
   -3.5990    7.9610    6.3840 C   0  0  0  0  0
   -5.0970    7.9430    6.6840 C   0  0  0  0  0
   -5.5470    8.4750    7.6970 O   0  0  0  0  0
   -2.8770    8.9180    7.3380 C   0  0  0  0  0
   -1.7010    8.2630    8.0330 C   0  0  0  0  0
   -1.9270    7.3190    8.8200 O   0  0  0  0  0
   -0.5520    8.6910    7.7920 O   0  0  0  0  0
   -5.8630    7.3220    5.7920 N   0  0  0  0  0
   -7.3100    7.2330    5.9600 C   0  0  0  0  0
   -7.8750    6.0400    5.1940 C   0  0  0  0  0
   -8.6920    5.2840    5.7190 O   0  0  0  0  0
   -7.9800    8.5230    5.4840 C   0  0  0  0  0
   -9.4500    8.6190    5.8610 C   0  0  0  0  0
   -9.6500    9.4500    7.1180 C   0  0  0  0  0
  -11.0130    9.3440    7.6320 N   0  0  0  0  0
  -11.3660    9.6720    8.8730 C   0  0  0  0  0
  -10.4580   10.1240    9.7320 N   0  0  0  0  0
  -12.6270    9.5460    9.2590 N   0  0  0  0  0
   -7.4340    5.8790    3.9500 N   0  0  0  0  0
   -7.8990    4.7790    3.1120 C   0  0  0  0  0
   -7.3040    3.4520    3.5720 C   0  0  0  0  0
   -7.9330    2.4010    3.4380 O   0  0  0  0  0
   -7.5330    5.0400    1.6500 C   0  0  0  0  0
   -8.2810    6.2020    1.0350 C   0  0  0  0  0
   -7.8950    7.5110    1.2880 C   0  0  0  0  0
   -9.3730    5.9880    0.2040 C   0  0  0  0  0
   -8.5760    8.5770    0.7290 C   0  0  0  0  0
  -10.0580    7.0480   -0.3590 C   0  0  0  0  0
   -9.6570    8.3390   -0.0930 C   0  0  0  0  0
  -10.3360    9.3960   -0.6530 O   0  0  0  0  0
   -6.0920    3.5030    4.1160 N   0  0  0  0  0
   -5.4190    2.3010    4.5950 C   0  0  0  0  0
   -6.2400    1.6220    5.6860 C   0  0  0  0  0
   -6.5270    0.4270    5.6080 O   0  0  0  0  0
   -4.0260    2.6460    5.1260 C   0  0  0  0  0
   -2.9660    1.5620    4.9170 C   0  0  0  0  0
   -2.1240    1.8690    3.6900 C   0  0  0  0  0
   -2.0830    1.4320    6.1510 C   0  0  0  0  0
   -6.6180    2.3910    6.7020 N   0  0  0  0  0
   -7.4110    1.8670    7.8060 C   0  0  0  0  0
   -8.7750    1.3980    7.3140 C   0  0  0  0  0
   -9.3500    0.4520    7.8510 O   0  0  0  0  0
   -7.5810    2.9310    8.8920 C   0  0  0  0  0
   -6.6370    2.7520   10.0700 C   0  0  0  0  0
   -6.9280    3.7520   11.1790 C   0  0  0  0  0
   -7.7070    3.1550   12.2630 N   0  0  0  0  0
   -9.0390    3.1360   12.3020 C   0  0  0  0  0
   -9.7500    3.6940   11.3300 N   0  0  0  0  0
   -9.6610    2.5620   13.3220 N   0  0  0  0  0
   -9.2920    2.0680    6.2880 N   0  0  0  0  0
  -10.5900    1.7170    5.7220 C   0  0  0  0  0
  -10.6030    0.2630    5.2580 C   0  0  0  0  0
  -11.4270   -0.5330    5.7090 O   0  0  0  0  0
  -10.9250    2.6440    4.5500 C   0  0  0  0  0
  -11.7700    3.8450    4.9470 C   0  0  0  0  0
  -13.0540    3.4470    5.6460 C   0  0  0  0  0
  -13.9570    2.9120    4.9690 O   0  0  0  0  0
  -13.1580    3.6720    6.8700 O   0  0  0  0  0
   -9.6850   -0.0760    4.3600 N   0  0  0  0  0
   -9.5900   -1.4350    3.8400 C   0  0  0  0  0
   -9.0260   -2.3840    4.8930 C   0  0  0  0  0
   -9.5070   -3.5060    5.0540 O   0  0  0  0  0
   -8.7270   -1.4610    2.5860 C   0  0  0  0  0
   -8.0030   -1.9240    5.6060 N   0  0  0  0  0
   -7.3690   -2.7270    6.6460 C   0  0  0  0  0
   -8.3910   -3.1690    7.6940 C   0  0  0  0  0
   -8.5430   -4.3620    7.9660 O   0  0  0  0  0
   -6.2250   -1.9400    7.3280 C   0  0  0  0  0
   -5.0220   -1.8340    6.3890 C   0  0  0  0  0
   -5.8110   -2.5940    8.6410 C   0  0  0  0  0
   -3.9330   -0.9200    6.9040 C   0  0  0  0  0
   -9.0880   -2.2030    8.2800 N   0  0  0  0  0
  -10.0910   -2.4980    9.2940 C   0  0  0  0  0
  -11.2580   -3.2670    8.6920 C   0  0  0  0  0
  -11.8670   -4.1070    9.3550 O   0  0  0  0  0
  -10.5890   -1.2090    9.9480 C   0  0  0  0  0
  -10.9440   -1.3710   11.4180 C   0  0  0  0  0
  -12.0620   -0.4460   11.8530 C   0  0  0  0  0
  -11.9970    0.7670   11.6530 O   0  0  0  0  0
  -13.1000   -1.0150   12.4560 N   0  0  0  0  0
  -11.5610   -2.9890    7.4260 N   0  0  0  0  0
  -12.6510   -3.6770    6.7430 C   0  0  0  0  0
  -12.4410   -5.1820    6.8200 C   0  0  0  0  0
  -13.3670   -5.9410    7.1050 O   0  0  0  0  0
  -12.7440   -3.2290    5.2850 C   0  0  0  0  0
  -13.8770   -3.8890    4.5170 C   0  0  0  0  0
  -15.0960   -2.9970    4.3980 C   0  0  0  0  0
  -14.9290   -1.7590    4.3940 O   0  0  0  0  0
  -16.2200   -3.5360    4.3080 O   0  0  0  0  0
  -11.2040   -5.6000    6.5900 N   0  0  0  0  0
  -10.8570   -7.0110    6.6590 C   0  0  0  0  0
  -10.8710   -7.4630    8.1090 C   0  0  0  0  0
  -11.2580   -8.5890    8.4170 O   0  0  0  0  0
   -9.4840   -7.2620    6.0360 C   0  0  0  0  0
   -9.1550   -8.7280    5.8600 C   0  0  0  0  0
   -9.9090   -9.5330    5.0160 C   0  0  0  0  0
   -8.0910   -9.3060    6.5390 C   0  0  0  0  0
   -9.6120  -10.8720    4.8530 C   0  0  0  0  0
   -7.7860  -10.6450    6.3810 C   0  0  0  0  0
   -8.5490  -11.4240    5.5370 C   0  0  0  0  0
   -8.2490  -12.7570    5.3770 O   0  0  0  0  0
  -10.4690   -6.5610    9.0040 N   0  0  0  0  0
  -10.4640   -6.8630   10.4260 C   0  0  0  0  0
  -11.8760   -7.2120   10.8840 C   0  0  0  0  0
  -12.0660   -7.9980   11.8120 O   0  0  0  0  0
   -9.9320   -5.6710   11.2250 C   0  0  0  0  0
   -9.3340   -6.0870   12.5540 C   0  0  0  0  0
   -8.6440   -7.1270   12.5960 O   0  0  0  0  0
   -9.5550   -5.3720   13.5550 O   0  0  0  0  0
  -12.8650   -6.6270   10.2110 N   0  0  0  0  0
  -14.2630   -6.8770   10.5300 C   0  0  0  0  0
  -14.7400   -8.1700    9.8780 C   0  0  0  0  0
  -15.5410   -8.9080   10.4510 O   0  0  0  0  0
  -15.1330   -5.7080   10.0640 C   0  0  0  0  0
  -14.8050   -4.4170   10.7890 C   0  0  0  0  0
  -14.2170   -3.5020   10.2140 O   0  0  0  0  0
  -15.1850   -4.3380   12.0590 N   0  0  0  0  0
  -14.2410   -8.4400    8.6730 N   0  0  0  0  0
  -14.6180   -9.6440    7.9460 C   0  0  0  0  0
  -14.0840  -10.8950    8.6410 C   0  0  0  0  0
  -14.7420  -11.9350    8.6590 O   0  0  0  0  0
  -14.0990   -9.6050    6.4940 C   0  0  0  0  0
  -14.6160   -8.3540    5.7820 C   0  0  0  0  0
  -14.5200  -10.8590    5.7410 C   0  0  0  0  0
  -13.6670   -7.8230    4.7290 C   0  0  0  0  0
  -12.8890  -10.7840    9.2100 N   0  0  0  0  0
  -12.2660  -11.9050    9.9070 C   0  0  0  0  0
  -12.1550  -13.1270    9.0010 C   0  0  0  0  0
  -12.3150  -14.2610    9.4510 O   0  0  0  0  0
  -13.0510  -12.2470   11.1630 C   0  0  0  0  0
  -11.8800  -12.8870    7.7230 N   0  0  0  0  0
  -11.7500  -13.9690    6.7540 C   0  0  0  0  0
  -10.3020  -14.4400    6.6550 C   0  0  0  0  0
  -10.0510  -15.4290    5.9330 O   0  0  0  0  0
  -12.2480  -13.5140    5.3810 C   0  0  0  0  0
  -13.7030  -13.8640    5.1150 C   0  0  0  0  0
  -13.8550  -15.3050    4.6530 C   0  0  0  0  0
  -14.3580  -16.2000    5.7730 C   0  0  0  0  0
  -14.6500  -17.5790    5.2940 N   0  3  0  0  0
   -9.4320  -13.8160    7.2970 O   0  0  0  0  0
   -5.5079   12.7981    1.7189 H   0  0  0  0  0
   -4.8718   12.7814    0.1788 H   0  0  0  0  0
   -6.4887   13.1121    0.4089 H   0  0  0  0  0
   -6.8895   10.9462    1.2288 H   0  0  0  0  0
   -7.1820   11.3084   -1.1390 H   0  0  0  0  0
   -6.3977    9.6955   -0.8818 H   0  0  0  0  0
   -3.9919   10.8386   -0.4059 H   0  0  0  0  0
   -4.9643   11.2767    2.9535 H   0  0  0  0  0
   -3.2897    8.8556    2.5500 H   0  0  0  0  0
   -1.8186   10.6515    1.9016 H   0  0  0  0  0
   -1.3356   10.0707    3.5487 H   0  0  0  0  0
   -3.5113   12.3000    2.2662 H   0  0  0  0  0
   -2.8811    7.6900    4.3754 H   0  0  0  0  0
   -3.2103    6.9537    6.5334 H   0  0  0  0  0
   -3.5879    9.2322    8.1022 H   0  0  0  0  0
   -2.4986    9.7559    6.7525 H   0  0  0  0  0
   -2.8720    7.1542    8.8572 H   0  0  0  0  0
   -5.4295    6.8982    4.9717 H   0  0  0  0  0
   -7.5194    7.0929    7.0205 H   0  0  0  0  0
   -7.9194    8.5410    4.3958 H   0  0  0  0  0
   -7.4643    9.3555    5.9627 H   0  0  0  0  0
   -9.8244    7.6128    6.0493 H   0  0  0  0  0
   -9.9859    9.0981    5.0416 H   0  0  0  0  0
   -9.4590   10.4942    6.8705 H   0  0  0  0  0
   -8.9672    9.0808    7.8832 H   0  0  0  0  0
  -11.7374    8.9981    7.0027 H   0  0  0  0  0
  -10.7337   10.3716   10.6823 H   0  0  0  0  0
   -9.4855   10.2233    9.4409 H   0  0  0  0  0
  -13.3281    9.1975    8.6052 H   0  0  0  0  0
   -6.7548    6.5399    3.5728 H   0  0  0  0  0
   -8.9834    4.7165    3.2033 H   0  0  0  0  0
   -7.7954    4.1465    1.0835 H   0  0  0  0  0
   -6.4707    5.2821    1.6178 H   0  0  0  0  0
   -7.0411    7.7019    1.9380 H   0  0  0  0  0
   -9.6947    4.9682   -0.0074 H   0  0  0  0  0
   -8.2600    9.5992    0.9370 H   0  0  0  0  0
  -10.9120    6.8635   -1.0108 H   0  0  0  0  0
  -11.0555    9.0622   -1.1938 H   0  0  0  0  0
   -5.6216    4.4041    4.2004 H   0  0  0  0  0
   -5.3169    1.6112    3.7572 H   0  0  0  0  0
   -4.1256    2.7847    6.2025 H   0  0  0  0  0
   -3.6891    3.5250    4.5766 H   0  0  0  0  0
   -3.4746    0.6114    4.7565 H   0  0  0  0  0
   -2.7669    1.9101    2.8107 H   0  0  0  0  0
   -1.6267    2.8298    3.8233 H   0  0  0  0  0
   -1.3765    1.0866    3.5589 H   0  0  0  0  0
   -1.5846    2.3825    6.3414 H   0  0  0  0  0
   -2.6984    1.1645    7.0100 H   0  0  0  0  0
   -1.3362    0.6562    5.9818 H   0  0  0  0  0
   -6.3457    3.3740    6.7089 H   0  0  0  0  0
   -6.8832    1.0127    8.2298 H   0  0  0  0  0
   -8.5990    2.8502    9.2730 H   0  0  0  0  0
   -7.3610    3.8982    8.4401 H   0  0  0  0  0
   -5.6169    2.9125    9.7210 H   0  0  0  0  0
   -6.7717    1.7467   10.4692 H   0  0  0  0  0
   -7.5064    4.5729   10.7551 H   0  0  0  0  0
   -5.9774    4.0926   11.5894 H   0  0  0  0  0
   -7.1995    2.7266   13.0372 H   0  0  0  0  0
  -10.7691    3.6795   11.3707 H   0  0  0  0  0
   -9.2773    4.1373   10.5423 H   0  0  0  0  0
   -9.1203    2.1361   14.0748 H   0  0  0  0  0
   -8.7683    2.8461    5.8871 H   0  0  0  0  0
  -11.3451    1.8386    6.4986 H   0  0  0  0  0
  -11.4997    2.0639    3.8280 H   0  0  0  0  0
   -9.9833    3.0233    4.1534 H   0  0  0  0  0
  -12.0358    4.3840    4.0376 H   0  0  0  0  0
  -11.1860    4.4529    5.6380 H   0  0  0  0  0
  -13.6682    2.8346    4.0567 H   0  0  0  0  0
   -9.0305    0.6315    4.0260 H   0  0  0  0  0
  -10.5940   -1.7724    3.5829 H   0  0  0  0  0
   -9.1727   -0.8187    1.8264 H   0  0  0  0  0
   -7.7270   -1.1006    2.8272 H   0  0  0  0  0
   -8.6657   -2.4822    2.2098 H   0  0  0  0  0
   -7.6518   -0.9844    5.4211 H   0  0  0  0  0
   -6.9505   -3.6138    6.1700 H   0  0  0  0  0
   -6.5924   -0.9383    7.5509 H   0  0  0  0  0
   -5.3783   -1.4198    5.4458 H   0  0  0  0  0
   -4.5935   -2.8315    6.2919 H   0  0  0  0  0
   -6.6656   -2.6215    9.3170 H   0  0  0  0  0
   -5.4669   -3.6099    8.4468 H   0  0  0  0  0
   -5.0055   -2.0167    9.0949 H   0  0  0  0  0
   -4.3352    0.0846    7.0345 H   0  0  0  0  0
   -3.5688   -1.2941    7.8608 H   0  0  0  0  0
   -3.1128   -0.8940    6.1866 H   0  0  0  0  0
   -8.9174   -1.2331    8.0143 H   0  0  0  0  0
   -9.6258   -3.1202   10.0586 H   0  0  0  0  0
  -11.4953   -0.9053    9.4241 H   0  0  0  0  0
   -9.7833   -0.4776    9.8847 H   0  0  0  0  0
  -10.0590   -1.1268   12.0056 H   0  0  0  0  0
  -11.2790   -2.3969   11.5710 H   0  0  0  0  0
  -13.8826   -0.4425   12.7726 H   0  0  0  0  0
  -13.1144   -2.0243   12.6024 H   0  0  0  0  0
  -11.0218   -2.2829    6.9249 H   0  0  0  0  0
  -13.5881   -3.4220    7.2378 H   0  0  0  0  0
  -11.8109   -3.5099    4.7966 H   0  0  0  0  0
  -12.9307   -2.1551    5.2843 H   0  0  0  0  0
  -14.1705   -4.7883    5.0585 H   0  0  0  0  0
  -13.5192   -4.1048    3.5103 H   0  0  0  0  0
  -16.1188   -4.4904    4.3312 H   0  0  0  0  0
  -10.4809   -4.9183    6.3600 H   0  0  0  0  0
  -11.5919   -7.5851    6.0946 H   0  0  0  0  0
   -8.7383   -6.8391    6.7093 H   0  0  0  0  0
   -9.4876   -6.8075    5.0453 H   0  0  0  0  0
  -10.7495   -9.1007    4.4730 H   0  0  0  0  0
   -7.4860   -8.6938    7.2078 H   0  0  0  0  0
  -10.2147  -11.4895    4.1870 H   0  0  0  0  0
   -6.9465  -11.0829    6.9209 H   0  0  0  0  0
   -7.4881  -12.9798    5.9183 H   0  0  0  0  0
  -10.1594   -5.6427    8.6857 H   0  0  0  0  0
   -9.8088   -7.7163   10.6014 H   0  0  0  0  0
  -10.7672   -5.0001   11.4262 H   0  0  0  0  0
   -9.1480   -5.1938   10.6370 H   0  0  0  0  0
  -10.1045   -4.6273   13.2999 H   0  0  0  0  0
  -12.6366   -5.9861    9.4511 H   0  0  0  0  0
  -14.3527   -6.9768   11.6117 H   0  0  0  0  0
  -16.1731   -5.9574   10.2740 H   0  0  0  0  0
  -14.9485   -5.5536    9.0009 H   0  0  0  0  0
  -14.9915   -3.4937   12.5977 H   0  0  0  0  0
  -15.6704   -5.1216   12.4958 H   0  0  0  0  0
  -13.5798   -7.7887    8.2499 H   0  0  0  0  0
  -15.7072   -9.6822    7.9311 H   0  0  0  0  0
  -13.0098   -9.5693    6.5156 H   0  0  0  0  0
  -14.7386   -7.5755    6.5350 H   0  0  0  0  0
  -15.5452   -8.6233    5.2798 H   0  0  0  0  0
  -14.1088  -11.7363    6.2403 H   0  0  0  0  0
  -15.6079  -10.9243    5.7262 H   0  0  0  0  0
  -14.1437  -10.8112    4.7191 H   0  0  0  0  0
  -12.7165   -7.5644    5.1956 H   0  0  0  0  0
  -13.5043   -8.5878    3.9696 H   0  0  0  0  0
  -14.0993   -6.9358    4.2663 H   0  0  0  0  0
  -12.3944   -9.8934    9.1586 H   0  0  0  0  0
  -11.2571  -11.6058   10.1912 H   0  0  0  0  0
  -13.0697  -11.3814   11.8252 H   0  0  0  0  0
  -14.0705  -12.5192   10.8899 H   0  0  0  0  0
  -12.5737  -13.0848   11.6714 H   0  0  0  0  0
  -11.7570  -11.9232    7.4126 H   0  0  0  0  0
  -12.3611  -14.8048    7.0948 H   0  0  0  0  0
  -10.8647  -15.7493    5.5369 H   0  0  0  0  0
  -11.6462  -14.0248    4.6293 H   0  0  0  0  0
  -12.1612  -12.4281    5.3452 H   0  0  0  0  0
  -14.0774  -13.2084    4.3288 H   0  0  0  0  0
  -14.2631  -13.7379    6.0415 H   0  0  0  0  0
  -12.8789  -15.6692    4.3326 H   0  0  0  0  0
  -14.5792  -15.3315    3.8388 H   0  0  0  0  0
  -15.2809  -15.7717    6.1640 H   0  0  0  0  0
  -13.5821  -16.2607    6.5362 H   0  0  0  0  0
  -14.9838  -18.1450    6.0741 H   0  0  0  0  0
  -15.3663  -17.5412    4.5688 H   0  0  0  0  0
  -13.7993  -17.9923    4.9121 H   0  0  0  0  0
  1  2  1  0  0  0
  2  3  1  0  0  0
  2  5  1  0  0  0
  3  4  2  0  0  0
  3  9  1  0  0  0
  5  6  1  0  0  0
  6  7  1  0  0  0
  6  8  2  0  0  0
  9 10  1  0  0  0
 10 11  1  0  0  0
 10 13  1  0  0  0
 11 12  2  0  0  0
 11 17  1  0  0  0
 13 14  1  0  0  0
 14 15  1  0  0  0
 14 16  2  0  0  0
 17 18  1  0  0  0
 18 19  1  0  0  0
 18 21  1  0  0  0
 19 20  2  0  0  0
 19 25  1  0  0  0
 21 22  1  0  0  0
 22 23  1  0  0  0
 22 24  2  0  0  0
 25 26  1  0  0  0
 26 27  1  0  0  0
 26 29  1  0  0  0
 27 28  2  0  0  0
 27 36  1  0  0  0
 29 30  1  0  0  0
 30 31  1  0  0  0
 31 32  1  0  0  0
 32 33  1  0  0  0
 33 34  1  0  0  0
 33 35  2  0  0  0
 36 37  1  0  0  0
 37 38  1  0  0  0
 37 40  1  0  0  0
 38 39  2  0  0  0
 38 48  1  0  0  0
 40 41  1  0  0  0
 41 42  4  0  0  0
 41 43  4  0  0  0
 42 44  4  0  0  0
 43 45  4  0  0  0
 44 46  4  0  0  0
 45 46  4  0  0  0
 46 47  1  0  0  0
 48 49  1  0  0  0
 49 50  1  0  0  0
 49 52  1  0  0  0
 50 51  2  0  0  0
 50 56  1  0  0  0
 52 53  1  0  0  0
 53 54  1  0  0  0
 53 55  1  0  0  0
 56 57  1  0  0  0
 57 58  1  0  0  0
 57 60  1  0  0  0
 58 59  2  0  0  0
 58 67  1  0  0  0
 60 61  1  0  0  0
 61 62  1  0  0  0
 62 63  1  0  0  0
 63 64  1  0  0  0
 64 65  1  0  0  0
 64 66  2  0  0  0
 67 68  1  0  0  0
 68 69  1  0  0  0
 68 71  1  0  0  0
 69 70  2  0  0  0
 69 76  1  0  0  0
 71 72  1  0  0  0
 72 73  1  0  0  0
 73 74  1  0  0  0
 73 75  2  0  0  0
 76 77  1  0  0  0
 77 78  1  0  0  0
 77 80  1  0  0  0
 78 79  2  0  0  0
 78 81  1  0  0  0
 81 82  1  0  0  0
 82 83  1  0  0  0
 82 85  1  0  0  0
 83 84  2  0  0  0
 83 89  1  0  0  0
 85 86  1  0  0  0
 85 87  1  0  0  0
 86 88  1  0  0  0
 89 90  1  0  0  0
 90 91  1  0  0  0
 90 93  1  0  0  0
 91 92  2  0  0  0
 91 98  1  0  0  0
 93 94  1  0  0  0
 94 95  1  0  0  0
 95 96  2  0  0  0
 95 97  1  0  0  0
 98 99  1  0  0  0
 99100  1  0  0  0
 99102  1  0  0  0
100101  2  0  0  0
100107  1  0  0  0
102103  1  0  0  0
103104  1  0  0  0
104105  2  0  0  0
104106  1  0  0  0
107108  1  0  0  0
108109  1  0  0  0
108111  1  0  0  0
109110  2  0  0  0
109119  1  0  0  0
111112  1  0  0  0
112113  4  0  0  0
112114  4  0  0  0
113115  4  0  0  0
114116  4  0  0  0
115117  4  0  0  0
116117  4  0  0  0
117118  1  0  0  0
119120  1  0  0  0
120121  1  0  0  0
120123  1  0  0  0
121122  2  0  0  0
121127  1  0  0  0
123124  1  0  0  0
124125  2  0  0  0
124126  1  0  0  0
127128  1  0  0  0
128129  1  0  0  0
128131  1  0  0  0
129130  2  0  0  0
129135  1  0  0  0
131132  1  0  0  0
132133  2  0  0  0
132134  1  0  0  0
135136  1  0  0  0
136137  1  0  0  0
136139  1  0  0  0
137138  2  0  0  0
137143  1  0  0  0
139140  1  0  0  0
139141  1  0  0  0
140142  1  0  0  0
143144  1  0  0  0
144145  1  0  0  0
144147  1  0  0  0
145146  2  0  0  0
145148  1  0  0  0
148149  1  0  0  0
149150  1  0  0  0
149152  1  0  0  0
150151  1  0  0  0
150157  2  0  0  0
152153  1  0  0  0
153154  1  0  0  0
154155  1  0  0  0
155156  1  0  0  0
  1158  1  0  0  0
  1159  1  0  0  0
  1160  1  0  0  0
  2161  1  0  0  0
  5162  1  0  0  0
  5163  1  0  0  0
  7164  1  0  0  0
  9165  1  0  0  0
 10166  1  0  0  0
 13167  1  0  0  0
 13168  1  0  0  0
 15169  1  0  0  0
 17170  1  0  0  0
 18171  1  0  0  0
 21172  1  0  0  0
 21173  1  0  0  0
 23174  1  0  0  0
 25175  1  0  0  0
 26176  1  0  0  0
 29177  1  0  0  0
 29178  1  0  0  0
 30179  1  0  0  0
 30180  1  0  0  0
 31181  1  0  0  0
 31182  1  0  0  0
 32183  1  0  0  0
 34184  1  0  0  0
 34185  1  0  0  0
 35186  1  0  0  0
 36187  1  0  0  0
 37188  1  0  0  0
 40189  1  0  0  0
 40190  1  0  0  0
 42191  1  0  0  0
 43192  1  0  0  0
 44193  1  0  0  0
 45194  1  0  0  0
 47195  1  0  0  0
 48196  1  0  0  0
 49197  1  0  0  0
 52198  1  0  0  0
 52199  1  0  0  0
 53200  1  0  0  0
 54201  1  0  0  0
 54202  1  0  0  0
 54203  1  0  0  0
 55204  1  0  0  0
 55205  1  0  0  0
 55206  1  0  0  0
 56207  1  0  0  0
 57208  1  0  0  0
 60209  1  0  0  0
 60210  1  0  0  0
 61211  1  0  0  0
 61212  1  0  0  0
 62213  1  0  0  0
 62214  1  0  0  0
 63215  1  0  0  0
 65216  1  0  0  0
 65217  1  0  0  0
 66218  1  0  0  0
 67219  1  0  0  0
 68220  1  0  0  0
 71221  1  0  0  0
 71222  1  0  0  0
 72223  1  0  0  0
 72224  1  0  0  0
 74225  1  0  0  0
 76226  1  0  0  0
 77227  1  0  0  0
 80228  1  0  0  0
 80229  1  0  0  0
 80230  1  0  0  0
 81231  1  0  0  0
 82232  1  0  0  0
 85233  1  0  0  0
 86234  1  0  0  0
 86235  1  0  0  0
 87236  1  0  0  0
 87237  1  0  0  0
 87238  1  0  0  0
 88239  1  0  0  0
 88240  1  0  0  0
 88241  1  0  0  0
 89242  1  0  0  0
 90243  1  0  0  0
 93244  1  0  0  0
 93245  1  0  0  0
 94246  1  0  0  0
 94247  1  0  0  0
 97248  1  0  0  0
 97249  1  0  0  0
 98250  1  0  0  0
 99251  1  0  0  0
102252  1  0  0  0
102253  1  0  0  0
103254  1  0  0  0
103255  1  0  0  0
106256  1  0  0  0
107257  1  0  0  0
108258  1  0  0  0
111259  1  0  0  0
111260  1  0  0  0
113261  1  0  0  0
114262  1  0  0  0
115263  1  0  0  0
116264  1  0  0  0
118265  1  0  0  0
119266  1  0  0  0
120267  1  0  0  0
123268  1  0  0  0
123269  1  0  0  0
126270  1  0  0  0
127271  1  0  0  0
128272  1  0  0  0
131273  1  0  0  0
131274  1  0  0  0
134275  1  0  0  0
134276  1  0  0  0
135277  1  0  0  0
136278  1  0  0  0
139279  1  0  0  0
140280  1  0  0  0
140281  1  0  0  0
141282  1  0  0  0
141283  1  0  0  0
141284  1  0  0  0
142285  1  0  0  0
142286  1  0  0  0
142287  1  0  0  0
143288  1  0  0  0
144289  1  0  0  0
147290  1  0  0  0
147291  1  0  0  0
147292  1  0  0  0
148293  1  0  0  0
149294  1  0  0  0
151295  1  0  0  0
152296  1  0  0  0
152297  1  0  0  0
153298  1  0  0  0
153299  1  0  0  0
154300  1  0  0  0
154301  1  0  0  0
155302  1  0  0  0
155303  1  0  0  0
156304  1  0  0  0
156305  1  0  0  0
156306  1  0  0  0
M  END
$$$$
