### 
### Created by X-TOOL on Mon Sep 10 21:13:02 2018
### 

@<TRIPOS>MOLECULE
2kbr_ligand
  301   302     1     0     0
SMALL
GAST_HUCK


@<TRIPOS>ATOM
      1 N          -5.6940   12.5670    0.7430 N.4       1 ASP         0.2391
      2 CA         -6.0000   11.1480    0.6320 C.3       1 ASP         0.0764
      3 C          -4.8540   10.2980    1.1750 C.2       1 ASP         0.2285
      4 O          -4.3190    9.4360    0.4780 O.2       1 ASP        -0.3906
      5 CB         -6.2830   10.7780   -0.8250 C.3       1 ASP         0.0607
      6 CG         -5.1540   11.1790   -1.7530 C.2       1 ASP         0.0425
      7 OD1        -3.9830   11.1380   -1.3180 O.co2     1 ASP        -0.5686
      8 OD2        -5.4370   11.5350   -2.9150 O.co2     1 ASP        -0.5686
      9 N          -4.4810   10.5490    2.4270 N.am      1 ASP        -0.2594
     10 CA         -3.3990    9.8100    3.0650 C.3       1 ASP         0.1424
     11 C          -3.7200    9.5350    4.5310 C.2       1 ASP         0.2057
     12 O          -4.2870   10.3810    5.2210 O.2       1 ASP        -0.3943
     13 CB         -2.0880   10.5910    2.9560 C.3       1 ASP         0.0406
     14 CG         -2.2100   12.0040    3.4900 C.2       1 ASP         0.0393
     15 OD1        -3.0510   12.7660    2.9680 O.co2     1 ASP        -0.5688
     16 OD2        -1.4660   12.3490    4.4320 O.co2     1 ASP        -0.5688
     17 N          -3.3500    8.3470    4.9990 N.am      1 ASP        -0.2621
     18 CA         -3.5990    7.9610    6.3840 C.3       1 ASP         0.1423
     19 C          -5.0970    7.9430    6.6840 C.2       1 ASP         0.2056
     20 O          -5.5470    8.4750    7.6970 O.2       1 ASP        -0.3943
     21 CB         -2.8770    8.9180    7.3380 C.3       1 ASP         0.0406
     22 CG         -1.7010    8.2630    8.0330 C.2       1 ASP         0.0393
     23 OD1        -1.9270    7.3190    8.8200 O.co2     1 ASP        -0.5688
     24 OD2        -0.5520    8.6910    7.7920 O.co2     1 ASP        -0.5688
     25 N          -5.8630    7.3220    5.7920 N.am      1 ARG        -0.2636
     26 CA         -7.3100    7.2330    5.9600 C.3       1 ARG         0.1311
     27 C          -7.8750    6.0400    5.1940 C.2       1 ARG         0.2040
     28 O          -8.6920    5.2840    5.7190 O.2       1 ARG        -0.3944
     29 CB         -7.9800    8.5230    5.4840 C.3       1 ARG        -0.0092
     30 CG         -9.4500    8.6190    5.8610 C.3       1 ARG        -0.0156
     31 CD         -9.6500    9.4500    7.1180 C.3       1 ARG         0.0627
     32 NE        -11.0130    9.3440    7.6320 N.pl3     1 ARG        -0.2723
     33 CZ        -11.3660    9.6720    8.8730 C.cat     1 ARG         0.2882
     34 NH1       -10.4580   10.1240    9.7320 N.pl3     1 ARG        -0.2849
     35 NH2       -12.6270    9.5460    9.2590 N.pl3     1 ARG        -0.2849
     36 N          -7.4340    5.8790    3.9500 N.am      1 TYR        -0.2621
     37 CA         -7.8990    4.7790    3.1120 C.3       1 TYR         0.1390
     38 C          -7.3040    3.4520    3.5720 C.2       1 TYR         0.2057
     39 O          -7.9330    2.4010    3.4380 O.2       1 TYR        -0.3942
     40 CB         -7.5330    5.0400    1.6500 C.3       1 TYR         0.0163
     41 CG         -8.2810    6.2020    1.0350 C.ar      1 TYR        -0.0493
     42 CD1        -7.8950    7.5110    1.2880 C.ar      1 TYR        -0.0685
     43 CD2        -9.3730    5.9880    0.2040 C.ar      1 TYR        -0.0685
     44 CE1        -8.5760    8.5770    0.7290 C.ar      1 TYR        -0.0398
     45 CE2       -10.0580    7.0480   -0.3590 C.ar      1 TYR        -0.0398
     46 CZ         -9.6570    8.3390   -0.0930 C.ar      1 TYR         0.0805
     47 OH        -10.3360    9.3960   -0.6530 O.3       1 TYR        -0.3376
     48 N          -6.0920    3.5030    4.1160 N.am      1 LEU        -0.2636
     49 CA         -5.4190    2.3010    4.5950 C.3       1 LEU         0.1312
     50 C          -6.2400    1.6220    5.6860 C.2       1 LEU         0.2039
     51 O          -6.5270    0.4270    5.6080 O.2       1 LEU        -0.3944
     52 CB         -4.0260    2.6460    5.1260 C.3       1 LEU        -0.0101
     53 CG         -2.9660    1.5620    4.9170 C.3       1 LEU        -0.0425
     54 CD1        -2.1240    1.8690    3.6900 C.3       1 LEU        -0.0625
     55 CD2        -2.0830    1.4320    6.1510 C.3       1 LEU        -0.0625
     56 N          -6.6180    2.3910    6.7020 N.am      1 ARG        -0.2637
     57 CA         -7.4110    1.8670    7.8060 C.3       1 ARG         0.1311
     58 C          -8.7750    1.3980    7.3140 C.2       1 ARG         0.2039
     59 O          -9.3500    0.4520    7.8510 O.2       1 ARG        -0.3944
     60 CB         -7.5810    2.9310    8.8920 C.3       1 ARG        -0.0092
     61 CG         -6.6370    2.7520   10.0700 C.3       1 ARG        -0.0156
     62 CD         -6.9280    3.7520   11.1790 C.3       1 ARG         0.0627
     63 NE         -7.7070    3.1550   12.2630 N.pl3     1 ARG        -0.2723
     64 CZ         -9.0390    3.1360   12.3020 C.cat     1 ARG         0.2882
     65 NH1        -9.7500    3.6940   11.3300 N.pl3     1 ARG        -0.2849
     66 NH2        -9.6610    2.5620   13.3220 N.pl3     1 ARG        -0.2849
     67 N          -9.2920    2.0680    6.2880 N.am      1 GLU        -0.2636
     68 CA        -10.5900    1.7170    5.7220 C.3       1 GLU         0.1325
     69 C         -10.6030    0.2630    5.2580 C.2       1 GLU         0.2040
     70 O         -11.4270   -0.5330    5.7090 O.2       1 GLU        -0.3944
     71 CB        -10.9250    2.6440    4.5500 C.3       1 GLU        -0.0008
     72 CG        -11.7700    3.8450    4.9470 C.3       1 GLU         0.0044
     73 CD        -13.0540    3.4470    5.6460 C.2       1 GLU         0.0350
     74 OE1       -13.9570    2.9120    4.9690 O.co2     1 GLU        -0.5690
     75 OE2       -13.1580    3.6720    6.8700 O.co2     1 GLU        -0.5690
     76 N          -9.6850   -0.0760    4.3600 N.am      1 ALA        -0.2640
     77 CA         -9.5900   -1.4350    3.8400 C.3       1 ALA         0.1282
     78 C          -9.0260   -2.3840    4.8930 C.2       1 ALA         0.2036
     79 O          -9.5070   -3.5060    5.0540 O.2       1 ALA        -0.3944
     80 CB         -8.7270   -1.4610    2.5860 C.3       1 ALA        -0.0244
     81 N          -8.0030   -1.9240    5.6060 N.am      1 ILE        -0.2635
     82 CA         -7.3690   -2.7270    6.6460 C.3       1 ILE         0.1335
     83 C          -8.3910   -3.1690    7.6940 C.2       1 ILE         0.2042
     84 O          -8.5430   -4.3620    7.9660 O.2       1 ILE        -0.3944
     85 CB         -6.2250   -1.9400    7.3280 C.3       1 ILE        -0.0037
     86 CG1        -5.0220   -1.8340    6.3890 C.3       1 ILE        -0.0491
     87 CG2        -5.8110   -2.5940    8.6410 C.3       1 ILE        -0.0582
     88 CD1        -3.9330   -0.9200    6.9040 C.3       1 ILE        -0.0648
     89 N          -9.0880   -2.2030    8.2800 N.am      1 GLN        -0.2636
     90 CA        -10.0910   -2.4980    9.2940 C.3       1 GLN         0.1330
     91 C         -11.2580   -3.2670    8.6920 C.2       1 GLN         0.2040
     92 O         -11.8670   -4.1070    9.3550 O.2       1 GLN        -0.3944
     93 CB        -10.5890   -1.2090    9.9480 C.3       1 GLN         0.0045
     94 CG        -10.9440   -1.3710   11.4180 C.3       1 GLN         0.0412
     95 CD        -12.0620   -0.4460   11.8530 C.2       1 GLN         0.1737
     96 OE1       -11.9970    0.7670   11.6530 O.2       1 GLN        -0.3973
     97 NE2       -13.1000   -1.0150   12.4560 N.am      1 GLN        -0.3009
     98 N         -11.5610   -2.9890    7.4260 N.am      1 GLU        -0.2636
     99 CA        -12.6510   -3.6770    6.7430 C.3       1 GLU         0.1325
    100 C         -12.4410   -5.1820    6.8200 C.2       1 GLU         0.2041
    101 O         -13.3670   -5.9410    7.1050 O.2       1 GLU        -0.3944
    102 CB        -12.7440   -3.2290    5.2850 C.3       1 GLU        -0.0008
    103 CG        -13.8770   -3.8890    4.5170 C.3       1 GLU         0.0044
    104 CD        -15.0960   -2.9970    4.3980 C.2       1 GLU         0.0350
    105 OE1       -14.9290   -1.7590    4.3940 O.co2     1 GLU        -0.5690
    106 OE2       -16.2200   -3.5360    4.3080 O.co2     1 GLU        -0.5690
    107 N         -11.2040   -5.6000    6.5900 N.am      1 TYR        -0.2621
    108 CA        -10.8570   -7.0110    6.6590 C.3       1 TYR         0.1390
    109 C         -10.8710   -7.4630    8.1090 C.2       1 TYR         0.2058
    110 O         -11.2580   -8.5890    8.4170 O.2       1 TYR        -0.3942
    111 CB         -9.4840   -7.2620    6.0360 C.3       1 TYR         0.0163
    112 CG         -9.1550   -8.7280    5.8600 C.ar      1 TYR        -0.0493
    113 CD1        -9.9090   -9.5330    5.0160 C.ar      1 TYR        -0.0685
    114 CD2        -8.0910   -9.3060    6.5390 C.ar      1 TYR        -0.0685
    115 CE1        -9.6120  -10.8720    4.8530 C.ar      1 TYR        -0.0398
    116 CE2        -7.7860  -10.6450    6.3810 C.ar      1 TYR        -0.0398
    117 CZ         -8.5490  -11.4240    5.5370 C.ar      1 TYR         0.0805
    118 OH         -8.2490  -12.7570    5.3770 O.3       1 TYR        -0.3376
    119 N         -10.4690   -6.5610    9.0040 N.am      1 ASP        -0.2620
    120 CA        -10.4640   -6.8630   10.4260 C.3       1 ASP         0.1423
    121 C         -11.8760   -7.2120   10.8840 C.2       1 ASP         0.2057
    122 O         -12.0660   -7.9980   11.8120 O.2       1 ASP        -0.3943
    123 CB         -9.9320   -5.6710   11.2250 C.3       1 ASP         0.0406
    124 CG         -9.3340   -6.0870   12.5540 C.2       1 ASP         0.0393
    125 OD1        -8.6440   -7.1270   12.5960 O.co2     1 ASP        -0.5688
    126 OD2        -9.5550   -5.3720   13.5550 O.co2     1 ASP        -0.5688
    127 N         -12.8650   -6.6270   10.2110 N.am      1 ASN        -0.2615
    128 CA        -14.2630   -6.8770   10.5300 C.3       1 ASN         0.1476
    129 C         -14.7400   -8.1700    9.8780 C.2       1 ASN         0.2063
    130 O         -15.5410   -8.9080   10.4510 O.2       1 ASN        -0.3942
    131 CB        -15.1330   -5.7080   10.0640 C.3       1 ASN         0.0773
    132 CG        -14.8050   -4.4170   10.7890 C.2       1 ASN         0.1780
    133 OD1       -14.2170   -3.5020   10.2140 O.2       1 ASN        -0.3970
    134 ND2       -15.1850   -4.3380   12.0590 N.am      1 ASN        -0.3007
    135 N         -14.2410   -8.4400    8.6730 N.am      1 ILE        -0.2633
    136 CA        -14.6180   -9.6440    7.9460 C.3       1 ILE         0.1335
    137 C         -14.0840  -10.8950    8.6410 C.2       1 ILE         0.2041
    138 O         -14.7420  -11.9350    8.6590 O.2       1 ILE        -0.3944
    139 CB        -14.0990   -9.6050    6.4940 C.3       1 ILE        -0.0037
    140 CG1       -14.6160   -8.3540    5.7820 C.3       1 ILE        -0.0491
    141 CG2       -14.5200  -10.8590    5.7410 C.3       1 ILE        -0.0582
    142 CD1       -13.6670   -7.8230    4.7290 C.3       1 ILE        -0.0648
    143 N         -12.8890  -10.7840    9.2100 N.am      1 ALA        -0.2640
    144 CA        -12.2660  -11.9050    9.9070 C.3       1 ALA         0.1282
    145 C         -12.1550  -13.1270    9.0010 C.2       1 ALA         0.2031
    146 O         -12.3150  -14.2610    9.4510 O.2       1 ALA        -0.3944
    147 CB        -13.0510  -12.2470   11.1630 C.3       1 ALA        -0.0244
    148 N         -11.8800  -12.8870    7.7230 N.am      1 LYS        -0.2695
    149 CA        -11.7500  -13.9690    6.7540 C.3       1 LYS         0.0944
    150 C         -10.3020  -14.4400    6.6550 C.2       1 LYS         0.0601
    151 O         -10.0510  -15.4290    5.9330 O.co2     1 LYS        -0.5666
    152 CB        -12.2480  -13.5140    5.3810 C.3       1 LYS        -0.0177
    153 CG        -13.7030  -13.8640    5.1150 C.3       1 LYS        -0.0446
    154 CD        -13.8550  -15.3050    4.6530 C.3       1 LYS        -0.0125
    155 CE        -14.3580  -16.2000    5.7730 C.3       1 LYS        -0.0354
    156 NZ        -14.6500  -17.5790    5.2940 N.4       1 LYS         0.2185
    157 OXT        -9.4320  -13.8160    7.2970 O.co2     1 LYS        -0.5666
    158 H1         -6.4639   13.1062    0.3789 H         1 ASP         0.2016
    159 H2         -4.8602   12.7732    0.2155 H         1 ASP         0.2016
    160 H3         -5.5461   12.8041    1.7115 H         1 ASP         0.2016
    161 H4         -6.9008   10.9394    1.2278 H         1 ASP         0.1117
    162 H5         -7.2028   11.2883   -1.1468 H         1 ASP         0.0512
    163 H6         -6.4252    9.6893   -0.8917 H         1 ASP         0.0512
    164 H7         -4.9548   11.2625    2.9432 H         1 ASP         0.1886
    165 H8         -3.2800    8.8475    2.5459 H         1 ASP         0.0819
    166 H9         -1.7919   10.6379    1.8976 H         1 ASP         0.0478
    167 H10        -1.3132   10.0622    3.5305 H         1 ASP         0.0478
    168 H11        -2.8903    7.7029    4.3876 H         1 ASP         0.1884
    169 H12        -3.2017    6.9470    6.5390 H         1 ASP         0.0819
    170 H13        -3.5911    9.2619    8.1007 H         1 ASP         0.0478
    171 H14        -2.5111    9.7811    6.7625 H         1 ASP         0.0478
    172 H15        -5.4380    6.9065    4.9878 H         1 ARG         0.1883
    173 H16        -7.5287    7.0971    7.0294 H         1 ARG         0.0800
    174 H17        -7.8978    8.5740    4.3883 H         1 ARG         0.0313
    175 H18        -7.4495    9.3763    5.9317 H         1 ARG         0.0313
    176 H19        -9.8408    7.6059    6.0365 H         1 ARG         0.0301
    177 H20       -10.0017    9.0864    5.0321 H         1 ARG         0.0301
    178 H21        -9.4395   10.5041    6.8843 H         1 ARG         0.0689
    179 H22        -8.9506    9.0990    7.8910 H         1 ARG         0.0689
    180 H23       -11.7445    8.9947    6.9966 H         1 ARG         0.2642
    181 H24       -10.7369   10.3763   10.6909 H         1 ARG         0.2615
    182 H25        -9.4755   10.2220    9.4388 H         1 ARG         0.2615
    183 H26       -13.3354    9.1963    8.5981 H         1 ARG         0.2615
    184 H27       -12.8990    9.7977   10.2200 H         1 ARG         0.2615
    185 H28        -6.7681    6.5270    3.5802 H         1 TYR         0.1885
    186 H29        -8.9941    4.7171    3.1946 H         1 TYR         0.0821
    187 H30        -7.7591    4.1343    1.0682 H         1 TYR         0.0453
    188 H31        -6.4551    5.2521    1.5942 H         1 TYR         0.0453
    189 H32        -7.0458    7.7009    1.9344 H         1 TYR         0.0530
    190 H33        -9.6930    4.9739   -0.0062 H         1 TYR         0.0530
    191 H34        -8.2617    9.5936    0.9359 H         1 TYR         0.0525
    192 H35       -10.9073    6.8645   -1.0072 H         1 TYR         0.0525
    193 H36       -11.2432    9.3728   -0.3719 H         1 TYR         0.2458
    194 H37        -5.6309    4.3865    4.1987 H         1 LEU         0.1883
    195 H38        -5.3107    1.6024    3.7522 H         1 LEU         0.0800
    196 H39        -4.1103    2.8367    6.2061 H         1 LEU         0.0315
    197 H40        -3.6840    3.5597    4.6179 H         1 LEU         0.0315
    198 H41        -3.4787    0.6024    4.7548 H         1 LEU         0.0298
    199 H42        -1.3691    1.0801    3.5566 H         1 LEU         0.0232
    200 H43        -1.6215    2.8384    3.8233 H         1 LEU         0.0232
    201 H44        -2.7717    1.9107    2.8019 H         1 LEU         0.0232
    202 H45        -2.7089    1.2101    7.0280 H         1 LEU         0.0232
    203 H46        -1.5421    2.3755    6.3159 H         1 LEU         0.0232
    204 H47        -1.3603    0.6165    6.0005 H         1 LEU         0.0232
    205 H48        -6.3510    3.3547    6.7088 H         1 ARG         0.1883
    206 H49        -6.8804    1.0060    8.2386 H         1 ARG         0.0800
    207 H50        -8.6150    2.8860    9.2646 H         1 ARG         0.0313
    208 H51        -7.3953    3.9184    8.4441 H         1 ARG         0.0313
    209 H52        -5.6028    2.8946    9.7234 H         1 ARG         0.0301
    210 H53        -6.7530    1.7334   10.4687 H         1 ARG         0.0301
    211 H54        -7.4943    4.5955   10.7573 H         1 ARG         0.0689
    212 H55        -5.9742    4.1180   11.5867 H         1 ARG         0.0689
    213 H56        -7.1945    2.7224   13.0448 H         1 ARG         0.2642
    214 H57       -10.7791    3.6746   11.3684 H         1 ARG         0.2615
    215 H58        -9.2727    4.1464   10.5373 H         1 ARG         0.2615
    216 H59        -9.1150    2.1272   14.0795 H         1 ARG         0.2615
    217 H60       -10.6903    2.5507   13.3572 H         1 ARG         0.2615
    218 H61        -8.7786    2.8309    5.8950 H         1 GLU         0.1883
    219 H62       -11.3565    1.8430    6.5009 H         1 GLU         0.0801
    220 H63       -11.4767    2.0648    3.7949 H         1 GLU         0.0330
    221 H64        -9.9830    3.0098    4.1154 H         1 GLU         0.0330
    222 H65       -12.0240    4.4128    4.0397 H         1 GLU         0.0433
    223 H66       -11.1821    4.4810    5.6251 H         1 GLU         0.0433
    224 H67        -9.0434    0.6176    4.0325 H         1 ALA         0.1883
    225 H68       -10.6015   -1.7754    3.5738 H         1 ALA         0.0797
    226 H69        -8.6643   -2.4911    2.2053 H         1 ALA         0.0277
    227 H70        -7.7174   -1.0975    2.8281 H         1 ALA         0.0277
    228 H71        -9.1757   -0.8132    1.8185 H         1 ALA         0.0277
    229 H72        -7.6587   -1.0028    5.4247 H         1 ILE         0.1883
    230 H73        -6.9420   -3.6250    6.1757 H         1 ILE         0.0803
    231 H74        -6.5873   -0.9247    7.5470 H         1 ILE         0.0345
    232 H75        -5.3702   -1.4486    5.4193 H         1 ILE         0.0267
    233 H76        -4.5970   -2.8394    6.2528 H         1 ILE         0.0267
    234 H77        -6.6838   -2.6644    9.3068 H         1 ILE         0.0235
    235 H78        -5.0303   -1.9871    9.1228 H         1 ILE         0.0235
    236 H79        -5.4202   -3.6026    8.4411 H         1 ILE         0.0235
    237 H80        -3.1046   -0.8929    6.1808 H         1 ILE         0.0230
    238 H81        -3.5645   -1.2965    7.8696 H         1 ILE         0.0230
    239 H82        -4.3376    0.0943    7.0361 H         1 ILE         0.0230
    240 H83        -8.9207   -1.2521    8.0195 H         1 GLN         0.1883
    241 H84        -9.6254   -3.1242   10.0693 H         1 GLN         0.0801
    242 H85       -11.4856   -0.8692    9.4090 H         1 GLN         0.0337
    243 H86        -9.7994   -0.4479    9.8626 H         1 GLN         0.0337
    244 H87       -10.0511   -1.1527   12.0222 H         1 GLN         0.0504
    245 H88       -11.2592   -2.4104   11.5918 H         1 GLN         0.0504
    246 H89       -13.8679   -0.4539   12.7651 H         1 GLN         0.1814
    247 H90       -13.1135   -2.0044   12.6008 H         1 GLN         0.1814
    248 H91       -11.0324   -2.2967    6.9347 H         1 GLU         0.1883
    249 H92       -13.5959   -3.4260    7.2472 H         1 GLU         0.0801
    250 H93       -11.7956   -3.4742    4.7846 H         1 GLU         0.0330
    251 H94       -12.8983   -2.1401    5.2649 H         1 GLU         0.0330
    252 H95       -14.1659   -4.8128    5.0396 H         1 GLU         0.0433
    253 H96       -13.5208   -4.1357    3.5060 H         1 GLU         0.0433
    254 H97       -10.4951   -4.9317    6.3645 H         1 TYR         0.1885
    255 H98       -11.6072   -7.5885    6.0990 H         1 TYR         0.0821
    256 H99        -8.7200   -6.8102    6.6857 H         1 TYR         0.0453
    257 H100       -9.4574   -6.7791    5.0480 H         1 TYR         0.0453
    258 H101      -10.7448   -9.1031    4.4760 H         1 TYR         0.0530
    259 H102       -7.4893   -8.6972    7.2042 H         1 TYR         0.0530
    260 H103      -10.2114  -11.4861    4.1907 H         1 TYR         0.0525
    261 H104       -6.9511  -11.0805    6.9180 H         1 TYR         0.0525
    262 H105       -8.3101  -13.1972    6.2166 H         1 TYR         0.2458
    263 H106      -10.1655   -5.6607    8.6919 H         1 ASP         0.1884
    264 H107       -9.8081   -7.7282   10.6027 H         1 ASP         0.0819
    265 H108      -10.7615   -4.9737   11.4137 H         1 ASP         0.0478
    266 H109       -9.1561   -5.1657   10.6312 H         1 ASP         0.0478
    267 H110      -12.6411   -5.9987    9.4660 H         1 ASN         0.1885
    268 H111      -14.3607   -6.9763   11.6211 H         1 ASN         0.0826
    269 H112      -16.1883   -5.9579   10.2480 H         1 ASN         0.0551
    270 H113      -14.9744   -5.5576    8.9860 H         1 ASN         0.0551
    271 H114      -14.9953   -3.5103   12.5871 H         1 ASN         0.1814
    272 H115      -15.6608   -5.1063   12.4873 H         1 ASN         0.1814
    273 H116      -13.5928   -7.8014    8.2582 H         1 ILE         0.1883
    274 H117      -15.7163   -9.6998    7.9221 H         1 ILE         0.0803
    275 H118      -13.0000   -9.5652    6.5169 H         1 ILE         0.0345
    276 H119      -14.7775   -7.5673    6.5336 H         1 ILE         0.0267
    277 H120      -15.5722   -8.5996    5.2969 H         1 ILE         0.0267
    278 H121      -14.1400  -11.7473    6.2668 H         1 ILE         0.0235
    279 H122      -14.1064  -10.8311    4.7221 H         1 ILE         0.0235
    280 H123      -15.6178  -10.9049    5.6900 H         1 ILE         0.0235
    281 H124      -14.1022   -6.9276    4.2612 H         1 ILE         0.0230
    282 H125      -13.5019   -8.5939    3.9619 H         1 ILE         0.0230
    283 H126      -12.7073   -7.5616    5.1986 H         1 ILE         0.0230
    284 H127      -12.4041   -9.9109    9.1596 H         1 ALA         0.1883
    285 H128      -11.2505  -11.6039   10.2037 H         1 ALA         0.0797
    286 H129      -12.5703  -13.0924   11.6770 H         1 ALA         0.0277
    287 H130      -14.0802  -12.5219   10.8887 H         1 ALA         0.0277
    288 H131      -13.0706  -11.3742   11.8322 H         1 ALA         0.0277
    289 H132      -11.7594  -11.9421    7.4187 H         1 LYS         0.1875
    290 H133      -12.3695  -14.8136    7.0900 H         1 LYS         0.0726
    291 H134      -11.6282  -13.9942    4.6095 H         1 LYS         0.0305
    292 H135      -12.1353  -12.4218    5.3145 H         1 LYS         0.0305
    293 H136      -14.0944  -13.1953    4.3342 H         1 LYS         0.0269
    294 H137      -14.2795  -13.7231    6.0412 H         1 LYS         0.0269
    295 H138      -12.8773  -15.6756    4.3114 H         1 LYS         0.0317
    296 H139      -14.5718  -15.3391    3.8193 H         1 LYS         0.0317
    297 H140      -15.2791  -15.7656    6.1887 H         1 LYS         0.0813
    298 H141      -13.5900  -16.2519    6.5588 H         1 LYS         0.0813
    299 H142      -14.9800  -18.1393    6.0642 H         1 LYS         0.1994
    300 H143      -13.8099  -17.9885    4.9164 H         1 LYS         0.1994
    301 H144      -15.3578  -17.5429    4.5772 H         1 LYS         0.1994
@<TRIPOS>BOND
     1    1    2 1  
     2    2    3 1  
     3    2    5 1  
     4    3    4 2  
     5    3    9 am 
     6    5    6 1  
     7    6    7 ar 
     8    6    8 ar 
     9    9   10 1  
    10   10   11 1  
    11   10   13 1  
    12   11   12 2  
    13   11   17 am 
    14   13   14 1  
    15   14   15 ar 
    16   14   16 ar 
    17   17   18 1  
    18   18   19 1  
    19   18   21 1  
    20   19   20 2  
    21   19   25 am 
    22   21   22 1  
    23   22   23 ar 
    24   22   24 ar 
    25   25   26 1  
    26   26   27 1  
    27   26   29 1  
    28   27   28 2  
    29   27   36 am 
    30   29   30 1  
    31   30   31 1  
    32   31   32 1  
    33   32   33 ar 
    34   33   34 ar 
    35   33   35 ar 
    36   36   37 1  
    37   37   38 1  
    38   37   40 1  
    39   38   39 2  
    40   38   48 am 
    41   40   41 1  
    42   41   42 ar 
    43   41   43 ar 
    44   42   44 ar 
    45   43   45 ar 
    46   44   46 ar 
    47   45   46 ar 
    48   46   47 1  
    49   48   49 1  
    50   49   50 1  
    51   49   52 1  
    52   50   51 2  
    53   50   56 am 
    54   52   53 1  
    55   53   54 1  
    56   53   55 1  
    57   56   57 1  
    58   57   58 1  
    59   57   60 1  
    60   58   59 2  
    61   58   67 am 
    62   60   61 1  
    63   61   62 1  
    64   62   63 1  
    65   63   64 ar 
    66   64   65 ar 
    67   64   66 ar 
    68   67   68 1  
    69   68   69 1  
    70   68   71 1  
    71   69   70 2  
    72   69   76 am 
    73   71   72 1  
    74   72   73 1  
    75   73   74 ar 
    76   73   75 ar 
    77   76   77 1  
    78   77   78 1  
    79   77   80 1  
    80   78   79 2  
    81   78   81 am 
    82   81   82 1  
    83   82   83 1  
    84   82   85 1  
    85   83   84 2  
    86   83   89 am 
    87   85   86 1  
    88   85   87 1  
    89   86   88 1  
    90   89   90 1  
    91   90   91 1  
    92   90   93 1  
    93   91   92 2  
    94   91   98 am 
    95   93   94 1  
    96   94   95 1  
    97   95   96 2  
    98   95   97 am 
    99   98   99 1  
   100   99  100 1  
   101   99  102 1  
   102  100  101 2  
   103  100  107 am 
   104  102  103 1  
   105  103  104 1  
   106  104  105 ar 
   107  104  106 ar 
   108  107  108 1  
   109  108  109 1  
   110  108  111 1  
   111  109  110 2  
   112  109  119 am 
   113  111  112 1  
   114  112  113 ar 
   115  112  114 ar 
   116  113  115 ar 
   117  114  116 ar 
   118  115  117 ar 
   119  116  117 ar 
   120  117  118 1  
   121  119  120 1  
   122  120  121 1  
   123  120  123 1  
   124  121  122 2  
   125  121  127 am 
   126  123  124 1  
   127  124  125 ar 
   128  124  126 ar 
   129  127  128 1  
   130  128  129 1  
   131  128  131 1  
   132  129  130 2  
   133  129  135 am 
   134  131  132 1  
   135  132  133 2  
   136  132  134 am 
   137  135  136 1  
   138  136  137 1  
   139  136  139 1  
   140  137  138 2  
   141  137  143 am 
   142  139  140 1  
   143  139  141 1  
   144  140  142 1  
   145  143  144 1  
   146  144  145 1  
   147  144  147 1  
   148  145  146 2  
   149  145  148 am 
   150  148  149 1  
   151  149  150 1  
   152  149  152 1  
   153  150  151 ar 
   154  150  157 ar 
   155  152  153 1  
   156  153  154 1  
   157  154  155 1  
   158  155  156 1  
   159    1  158 1  
   160    1  159 1  
   161    1  160 1  
   162    2  161 1  
   163    5  162 1  
   164    5  163 1  
   165    9  164 1  
   166   10  165 1  
   167   13  166 1  
   168   13  167 1  
   169   17  168 1  
   170   18  169 1  
   171   21  170 1  
   172   21  171 1  
   173   25  172 1  
   174   26  173 1  
   175   29  174 1  
   176   29  175 1  
   177   30  176 1  
   178   30  177 1  
   179   31  178 1  
   180   31  179 1  
   181   32  180 1  
   182   34  181 1  
   183   34  182 1  
   184   35  183 1  
   185   35  184 1  
   186   36  185 1  
   187   37  186 1  
   188   40  187 1  
   189   40  188 1  
   190   42  189 1  
   191   43  190 1  
   192   44  191 1  
   193   45  192 1  
   194   47  193 1  
   195   48  194 1  
   196   49  195 1  
   197   52  196 1  
   198   52  197 1  
   199   53  198 1  
   200   54  199 1  
   201   54  200 1  
   202   54  201 1  
   203   55  202 1  
   204   55  203 1  
   205   55  204 1  
   206   56  205 1  
   207   57  206 1  
   208   60  207 1  
   209   60  208 1  
   210   61  209 1  
   211   61  210 1  
   212   62  211 1  
   213   62  212 1  
   214   63  213 1  
   215   65  214 1  
   216   65  215 1  
   217   66  216 1  
   218   66  217 1  
   219   67  218 1  
   220   68  219 1  
   221   71  220 1  
   222   71  221 1  
   223   72  222 1  
   224   72  223 1  
   225   76  224 1  
   226   77  225 1  
   227   80  226 1  
   228   80  227 1  
   229   80  228 1  
   230   81  229 1  
   231   82  230 1  
   232   85  231 1  
   233   86  232 1  
   234   86  233 1  
   235   87  234 1  
   236   87  235 1  
   237   87  236 1  
   238   88  237 1  
   239   88  238 1  
   240   88  239 1  
   241   89  240 1  
   242   90  241 1  
   243   93  242 1  
   244   93  243 1  
   245   94  244 1  
   246   94  245 1  
   247   97  246 1  
   248   97  247 1  
   249   98  248 1  
   250   99  249 1  
   251  102  250 1  
   252  102  251 1  
   253  103  252 1  
   254  103  253 1  
   255  107  254 1  
   256  108  255 1  
   257  111  256 1  
   258  111  257 1  
   259  113  258 1  
   260  114  259 1  
   261  115  260 1  
   262  116  261 1  
   263  118  262 1  
   264  119  263 1  
   265  120  264 1  
   266  123  265 1  
   267  123  266 1  
   268  127  267 1  
   269  128  268 1  
   270  131  269 1  
   271  131  270 1  
   272  134  271 1  
   273  134  272 1  
   274  135  273 1  
   275  136  274 1  
   276  139  275 1  
   277  140  276 1  
   278  140  277 1  
   279  141  278 1  
   280  141  279 1  
   281  141  280 1  
   282  142  281 1  
   283  142  282 1  
   284  142  283 1  
   285  143  284 1  
   286  144  285 1  
   287  147  286 1  
   288  147  287 1  
   289  147  288 1  
   290  148  289 1  
   291  149  290 1  
   292  152  291 1  
   293  152  292 1  
   294  153  293 1  
   295  153  294 1  
   296  154  295 1  
   297  154  296 1  
   298  155  297 1  
   299  155  298 1  
   300  156  299 1  
   301  156  300 1  
   302  156  301 1  
@<TRIPOS>SUBSTRUCTURE
     1 ASP         1

