### 
### Created by X-TOOL on Mon Sep 10 21:13:30 2018
### 

@<TRIPOS>MOLECULE
5dhq_ligand
   56    59     1     0     0
SMALL
GAST_HUCK


@<TRIPOS>ATOM
      1 C4         11.2650  -18.0840  -44.8740 C.2       1 5AK         0.2263
      2 C5         11.2490  -17.5560  -46.1020 C.2       1 5AK         0.0839
      3 C6         12.3410  -17.5530  -46.8610 C.2       1 5AK         0.0367
      4 C8          9.3010  -17.3430  -45.2600 C.2       1 5AK         0.1878
      5 N1         13.5080  -18.0690  -46.4570 N.2       1 5AK        -0.2644
      6 N3         12.3800  -18.6290  -44.3650 N.pl3     1 5AK        -0.1969
      7 CAK         9.5640  -19.6920  -48.5390 C.ar      1 5AK        -0.0506
      8 CAW         9.8290  -20.3550  -47.3460 C.ar      1 5AK         0.0063
      9 BR         11.5480  -21.0220  -47.0050 Br        1 5AK        -0.0517
     10 CAI         8.8190  -20.5230  -46.4060 C.ar      1 5AK        -0.0591
     11 CAG         7.5450  -20.0280  -46.6580 C.ar      1 5AK        -0.0657
     12 CAJ         7.2800  -19.3650  -47.8510 C.ar      1 5AK        -0.0575
     13 CAY         8.2900  -19.1970  -48.7920 C.ar      1 5AK        -0.0383
     14 CAN         8.0260  -18.5350  -49.9840 C.3       1 5AK         0.0017
     15 CAM         7.2480  -17.2490  -49.6930 C.3       1 5AK         0.0405
     16 NAS         7.6910  -16.6890  -48.4080 N.am      1 5AK        -0.2842
     17 CAV         6.8400  -16.0920  -47.5630 C.2       1 5AK         0.1890
     18 OAB         5.6360  -15.9610  -47.7780 O.2       1 5AK        -0.3960
     19 CAO         7.4720  -15.5670  -46.2730 C.3       1 5AK         0.1031
     20 SAU         7.6110  -16.9310  -45.0610 S.3       1 5AK        -0.0250
     21 N7         10.0230  -17.0930  -46.3430 N.2       1 5AK        -0.3152
     22 N6         12.2100  -17.0020  -48.0650 N.2       1 5AK        -0.4395
     23 C2         13.6520  -18.6820  -45.1190 C.2       1 5AK         0.1398
     24 N9         10.0480  -17.9500  -44.3500 N.pl3     1 5AK        -0.1589
     25 C1'         9.6130  -18.3950  -43.0080 C.3       1 5AK         0.2052
     26 O4'         8.5070  -19.3000  -43.1380 O.3       1 5AK        -0.3365
     27 C4'         7.9140  -19.3130  -41.8320 C.3       1 5AK         0.1135
     28 C5'         6.4780  -19.8310  -41.9280 C.3       1 5AK         0.0730
     29 O5'         6.4510  -21.2250  -41.6130 O.3       1 5AK        -0.3924
     30 C3'         7.8990  -17.8490  -41.4210 C.3       1 5AK         0.1146
     31 O3'         8.1690  -17.7430  -40.0160 O.3       1 5AK        -0.3864
     32 C2'         9.0470  -17.2330  -42.2060 C.3       1 5AK         0.1388
     33 O2'        10.0440  -16.7480  -41.2960 O.3       1 5AK        -0.3836
     34 H1         12.3496  -19.0250  -43.4147 H         1 5AK         0.2507
     35 H2         10.3515  -19.5610  -49.2723 H         1 5AK         0.0583
     36 H3          9.0251  -21.0403  -45.4760 H         1 5AK         0.0585
     37 H4          6.7578  -20.1589  -45.9243 H         1 5AK         0.0606
     38 H5          6.2863  -18.9791  -48.0476 H         1 5AK         0.0581
     39 H6          7.4277  -19.1849  -50.6395 H         1 5AK         0.0446
     40 H7          8.9743  -18.2849  -50.4822 H         1 5AK         0.0446
     41 H8          6.1725  -17.4742  -49.6436 H         1 5AK         0.0542
     42 H9          7.4333  -16.5189  -50.4946 H         1 5AK         0.0542
     43 H10         8.6567  -16.7557  -48.1571 H         1 5AK         0.1853
     44 H11         6.8419  -14.7682  -45.8549 H         1 5AK         0.0648
     45 H12         8.4734  -15.1677  -46.4916 H         1 5AK         0.0648
     46 H13        12.9988  -16.9665  -48.6916 H         1 5AK         0.0383
     47 H14        14.5750  -19.1163  -44.7378 H         1 5AK         0.1611
     48 H15        10.4544  -18.8661  -42.4787 H         1 5AK         0.1000
     49 H16         8.4977  -19.9249  -41.1285 H         1 5AK         0.0647
     50 H17         6.1012  -19.6790  -42.9502 H         1 5AK         0.0584
     51 H18         5.8423  -19.2824  -41.2174 H         1 5AK         0.0584
     52 H19         5.5585  -21.5449  -41.6731 H         1 5AK         0.2095
     53 H20         6.9393  -17.3703  -41.6656 H         1 5AK         0.0648
     54 H21         8.1593  -16.8279  -39.7609 H         1 5AK         0.2100
     55 H22         8.6982  -16.4217  -42.8618 H         1 5AK         0.0676
     56 H23         9.6597  -16.0905  -40.7281 H         1 5AK         0.2101
@<TRIPOS>BOND
     1    1    2 2  
     2    1    6 1  
     3   24    1 1  
     4    2    3 1  
     5   21    2 1  
     6    3    5 1  
     7    3   22 2  
     8   20    4 1  
     9    4   21 2  
    10    4   24 1  
    11   23    5 2  
    12    6   23 1  
    13    7    8 ar 
    14   13    7 ar 
    15    8    9 1  
    16    8   10 ar 
    17   11   10 ar 
    18   12   11 ar 
    19   13   12 ar 
    20   14   13 1  
    21   15   14 1  
    22   16   15 1  
    23   17   16 am 
    24   17   18 2  
    25   19   17 1  
    26   19   20 1  
    27   24   25 1  
    28   25   26 1  
    29   25   32 1  
    30   26   27 1  
    31   27   28 1  
    32   27   30 1  
    33   28   29 1  
    34   30   31 1  
    35   30   32 1  
    36   32   33 1  
    37    6   34 1  
    38    7   35 1  
    39   10   36 1  
    40   11   37 1  
    41   12   38 1  
    42   14   39 1  
    43   14   40 1  
    44   15   41 1  
    45   15   42 1  
    46   16   43 1  
    47   19   44 1  
    48   19   45 1  
    49   22   46 1  
    50   23   47 1  
    51   25   48 1  
    52   27   49 1  
    53   28   50 1  
    54   28   51 1  
    55   29   52 1  
    56   30   53 1  
    57   31   54 1  
    58   32   55 1  
    59   33   56 1  
@<TRIPOS>SUBSTRUCTURE
     1 5AK         1

