5dhq_ligand
  -I-interpret- 

 56 59  0  0  0  0  0  0  0  0999 V2000
   11.2650  -18.0840  -44.8740 C   0  0  0  0  0
   11.2490  -17.5560  -46.1020 C   0  0  0  0  0
   12.3410  -17.5530  -46.8610 C   0  0  0  0  0
    9.3010  -17.3430  -45.2600 C   0  0  0  0  0
   13.5080  -18.0690  -46.4570 N   0  0  0  0  0
   12.3800  -18.6290  -44.3650 N   0  0  0  0  0
    9.5640  -19.6920  -48.5390 C   0  0  0  0  0
    9.8290  -20.3550  -47.3460 C   0  0  0  0  0
   11.5480  -21.0220  -47.0050 Br  0  0  0  0  0
    8.8190  -20.5230  -46.4060 C   0  0  0  0  0
    7.5450  -20.0280  -46.6580 C   0  0  0  0  0
    7.2800  -19.3650  -47.8510 C   0  0  0  0  0
    8.2900  -19.1970  -48.7920 C   0  0  0  0  0
    8.0260  -18.5350  -49.9840 C   0  0  0  0  0
    7.2480  -17.2490  -49.6930 C   0  0  0  0  0
    7.6910  -16.6890  -48.4080 N   0  0  0  0  0
    6.8400  -16.0920  -47.5630 C   0  0  0  0  0
    5.6360  -15.9610  -47.7780 O   0  0  0  0  0
    7.4720  -15.5670  -46.2730 C   0  0  0  0  0
    7.6110  -16.9310  -45.0610 S   0  0  0  0  0
   10.0230  -17.0930  -46.3430 N   0  0  0  0  0
   12.2100  -17.0020  -48.0650 N   0  0  0  0  0
   13.6520  -18.6820  -45.1190 C   0  0  0  0  0
   10.0480  -17.9500  -44.3500 N   0  0  0  0  0
    9.6130  -18.3950  -43.0080 C   0  0  0  0  0
    8.5070  -19.3000  -43.1380 O   0  0  0  0  0
    7.9140  -19.3130  -41.8320 C   0  0  0  0  0
    6.4780  -19.8310  -41.9280 C   0  0  0  0  0
    6.4510  -21.2250  -41.6130 O   0  0  0  0  0
    7.8990  -17.8490  -41.4210 C   0  0  0  0  0
    8.1690  -17.7430  -40.0160 O   0  0  0  0  0
    9.0470  -17.2330  -42.2060 C   0  0  0  0  0
   10.0440  -16.7480  -41.2960 O   0  0  0  0  0
   12.3499  -19.0212  -43.4239 H   0  0  0  0  0
   10.3558  -19.5603  -49.2764 H   0  0  0  0  0
    9.0262  -21.0432  -45.4708 H   0  0  0  0  0
    6.7535  -20.1596  -45.9202 H   0  0  0  0  0
    6.2808  -18.9770  -48.0487 H   0  0  0  0  0
    7.4330  -19.1790  -50.6333 H   0  0  0  0  0
    8.9658  -18.2870  -50.4774 H   0  0  0  0  0
    6.1822  -17.4721  -49.6442 H   0  0  0  0  0
    7.4314  -16.5255  -50.4874 H   0  0  0  0  0
    8.6760  -16.7571  -48.1521 H   0  0  0  0  0
    6.8472  -14.7757  -45.8587 H   0  0  0  0  0
    8.4644  -15.1717  -46.4898 H   0  0  0  0  0
   13.0079  -16.9672  -48.6995 H   0  0  0  0  0
   14.5759  -19.1167  -44.7375 H   0  0  0  0  0
   10.4832  -18.8400  -42.5255 H   0  0  0  0  0
    8.4507  -19.9479  -41.1271 H   0  0  0  0  0
    6.1049  -19.6806  -42.9411 H   0  0  0  0  0
    5.8483  -19.2875  -41.2235 H   0  0  0  0  0
    5.5491  -21.5482  -41.6738 H   0  0  0  0  0
    6.9426  -17.3633  -41.6147 H   0  0  0  0  0
    8.1592  -16.8183  -39.7583 H   0  0  0  0  0
    8.7330  -16.3981  -42.8324 H   0  0  0  0  0
    9.6850  -16.0148  -40.7908 H   0  0  0  0  0
  1  2  4  0  0  0
  1  6  1  0  0  0
 24  1  4  0  0  0
  2  3  1  0  0  0
 21  2  4  0  0  0
  3  5  1  0  0  0
  3 22  2  0  0  0
 20  4  1  0  0  0
  4 21  4  0  0  0
  4 24  4  0  0  0
 23  5  2  0  0  0
  6 23  1  0  0  0
  7  8  4  0  0  0
 13  7  4  0  0  0
  8  9  1  0  0  0
  8 10  4  0  0  0
 11 10  4  0  0  0
 12 11  4  0  0  0
 13 12  4  0  0  0
 14 13  1  0  0  0
 15 14  1  0  0  0
 16 15  1  0  0  0
 17 16  1  0  0  0
 17 18  2  0  0  0
 19 17  1  0  0  0
 19 20  1  0  0  0
 24 25  1  0  0  0
 25 26  1  0  0  0
 25 32  1  0  0  0
 26 27  1  0  0  0
 27 28  1  0  0  0
 27 30  1  0  0  0
 28 29  1  0  0  0
 30 31  1  0  0  0
 30 32  1  0  0  0
 32 33  1  0  0  0
  6 34  1  0  0  0
  7 35  1  0  0  0
 10 36  1  0  0  0
 11 37  1  0  0  0
 12 38  1  0  0  0
 14 39  1  0  0  0
 14 40  1  0  0  0
 15 41  1  0  0  0
 15 42  1  0  0  0
 16 43  1  0  0  0
 19 44  1  0  0  0
 19 45  1  0  0  0
 22 46  1  0  0  0
 23 47  1  0  0  0
 25 48  1  0  0  0
 27 49  1  0  0  0
 28 50  1  0  0  0
 28 51  1  0  0  0
 29 52  1  0  0  0
 30 53  1  0  0  0
 31 54  1  0  0  0
 32 55  1  0  0  0
 33 56  1  0  0  0
M  END
$$$$
