6r8p_ligand
  -I-interpret- 

 32 33  0  0  0  0  0  0  0  0999 V2000
    4.2330   -4.5630    6.7740 C   0  0  0  0  0
    4.1940   -5.4980    7.9450 N   0  0  0  0  0
    5.3630   -5.6920    8.9520 C   0  0  0  0  0
    6.1620   -6.3540   11.1340 C   0  0  0  0  0
    0.9370   -7.7920    6.7990 C   0  0  0  0  0
    0.3370   -6.7140    5.8410 C   0  0  0  0  0
   -0.7950   -7.0200    5.0890 C   0  0  0  0  0
   -1.3160   -6.0740    4.2290 C   0  0  0  0  0
   -0.7160   -4.8240    4.1120 C   0  0  0  0  0
    0.4140   -4.5030    4.8650 C   0  0  0  0  0
    0.9320   -5.4740    5.7260 C   0  0  0  0  0
    3.0300   -4.4460    5.8560 C   0  0  0  0  0
    5.1050   -6.1800   10.2310 C   0  0  0  0  0
    7.4740   -6.0250   10.7150 C   0  0  0  0  0
    6.6960   -5.4000    8.6190 C   0  0  0  0  0
    7.6820   -5.5710    9.5020 N   0  0  0  0  0
    2.0290   -5.1980    6.4830 O   0  0  0  0  0
    5.1410   -3.9100    6.5580 O   0  0  0  0  0
    3.3443   -6.0431    8.0910 H   0  0  0  0  0
    5.9782   -6.7349   12.1386 H   0  0  0  0  0
    0.1892   -8.0743    7.5401 H   0  0  0  0  0
    1.2265   -8.6694    6.2207 H   0  0  0  0  0
    1.8125   -7.3819    7.3024 H   0  0  0  0  0
   -1.2658   -7.9989    5.1789 H   0  0  0  0  0
   -2.2020   -6.3075    3.6386 H   0  0  0  0  0
   -1.1331   -4.0878    3.4249 H   0  0  0  0  0
    0.8802   -3.5211    4.7838 H   0  0  0  0  0
    3.2468   -4.8140    4.8532 H   0  0  0  0  0
    2.7285   -3.4085    5.7115 H   0  0  0  0  0
    4.0853   -6.4254   10.5279 H   0  0  0  0  0
    8.3119   -6.1491   11.4010 H   0  0  0  0  0
    6.9293   -5.0271    7.6217 H   0  0  0  0  0
  1  2  1  0  0  0
 12  1  1  0  0  0
  1 18  2  0  0  0
  2  3  1  0  0  0
  3 13  4  0  0  0
  3 15  4  0  0  0
 13  4  4  0  0  0
  4 14  4  0  0  0
  6  5  1  0  0  0
  6  7  4  0  0  0
 11  6  4  0  0  0
  7  8  4  0  0  0
  9  8  4  0  0  0
 10  9  4  0  0  0
 11 10  4  0  0  0
 17 11  1  0  0  0
 12 17  1  0  0  0
 14 16  4  0  0  0
 15 16  4  0  0  0
  2 19  1  0  0  0
  4 20  1  0  0  0
  5 21  1  0  0  0
  5 22  1  0  0  0
  5 23  1  0  0  0
  7 24  1  0  0  0
  8 25  1  0  0  0
  9 26  1  0  0  0
 10 27  1  0  0  0
 12 28  1  0  0  0
 12 29  1  0  0  0
 13 30  1  0  0  0
 14 31  1  0  0  0
 15 32  1  0  0  0
M  END
$$$$
