4zlz_ligand
  -I-interpret- 

 34 36  0  0  0  0  0  0  0  0999 V2000
  -22.5830    9.3550   -6.7420 C   0  0  0  0  0
  -23.2120    7.9630   -4.9900 C   0  0  0  0  0
  -22.2320    8.5140   -4.1430 C   0  0  0  0  0
  -22.1080    8.0350   -2.7350 C   0  0  0  0  0
  -22.9880    8.0250   -0.4820 C   0  0  0  0  0
  -19.8600    6.0020   -0.5610 C   0  0  0  0  0
  -18.9190    5.6570   -1.5550 C   0  0  0  0  0
  -20.3380   10.2270   -3.8050 C   0  0  0  0  0
  -21.4080    9.5540   -4.6480 C   0  0  0  0  0
  -21.6020    9.9700   -5.9680 C   0  0  0  0  0
  -23.3410    8.3880   -6.2370 N   0  0  0  0  0
  -23.0690    8.4210   -1.8010 C   0  0  0  0  0
  -21.9540    7.2300   -0.0600 C   0  0  0  0  0
  -20.9580    6.8180   -0.9600 C   0  0  0  0  0
  -19.7460    5.6110    0.7560 N   0  0  0  0  0
  -19.0890    6.0950   -2.8100 N   0  0  0  0  0
  -20.0760    6.8260   -3.1700 N   0  0  0  0  0
  -21.0340    7.2180   -2.3180 C   0  0  0  0  0
  -17.7130    4.8590   -1.2960 C   0  0  0  0  0
  -16.7710    4.7780   -2.2590 N   0  0  0  0  0
  -17.5250    4.3260   -0.2190 O   0  0  0  0  0
  -22.7306    9.6710   -7.7747 H   0  0  0  0  0
  -23.8706    7.1793   -4.6157 H   0  0  0  0  0
  -23.7500    8.3459    0.2282 H   0  0  0  0  0
  -20.8014   10.6896   -2.9336 H   0  0  0  0  0
  -19.6119    9.4821   -3.4794 H   0  0  0  0  0
  -19.8358   10.9904   -4.3993 H   0  0  0  0  0
  -20.9909   10.7688   -6.3881 H   0  0  0  0  0
  -23.9013    9.0485   -2.1197 H   0  0  0  0  0
  -21.9046    6.9152    0.9824 H   0  0  0  0  0
  -18.9518    5.0439    1.0527 H   0  0  0  0  0
  -20.4559    5.8888    1.4337 H   0  0  0  0  0
  -15.9038    4.2707   -2.0828 H   0  0  0  0  0
  -16.9262    5.2241   -3.1631 H   0  0  0  0  0
 10  1  4  0  0  0
 11  1  4  0  0  0
  3  2  4  0  0  0
  2 11  4  0  0  0
  4  3  1  0  0  0
  3  9  4  0  0  0
 12  4  4  0  0  0
  4 18  4  0  0  0
  5 12  4  0  0  0
 13  5  4  0  0  0
  6  7  4  0  0  0
 14  6  4  0  0  0
  6 15  1  0  0  0
  7 16  4  0  0  0
  7 19  1  0  0  0
  9  8  1  0  0  0
  9 10  4  0  0  0
 13 14  4  0  0  0
 14 18  4  0  0  0
 16 17  4  0  0  0
 17 18  4  0  0  0
 19 20  1  0  0  0
 19 21  2  0  0  0
  1 22  1  0  0  0
  2 23  1  0  0  0
  5 24  1  0  0  0
  8 25  1  0  0  0
  8 26  1  0  0  0
  8 27  1  0  0  0
 10 28  1  0  0  0
 12 29  1  0  0  0
 13 30  1  0  0  0
 15 31  1  0  0  0
 15 32  1  0  0  0
 20 33  1  0  0  0
 20 34  1  0  0  0
M  END
$$$$
