5aip_ligand
  -I-interpret- 

 19 19  0  0  0  0  0  0  0  0999 V2000
   33.2160   21.4810   15.6430 C   0  0  0  0  0
   34.0070   21.1190   14.7250 O   0  0  0  0  0
   33.6700   21.9330   16.7370 O   0  0  0  0  0
   31.7390   21.3760   15.4260 C   0  0  0  0  0
   31.1970   20.2150   16.1960 C   0  0  0  0  0
   31.0570   18.8840   15.5360 C   0  0  0  0  0
   30.5610   17.8220   16.2300 C   0  0  0  0  0
   30.1670   17.9810   17.6570 C   0  0  0  0  0
   30.2990   19.1960   18.2700 C   0  0  0  0  0
   30.8320   20.3640   17.5040 C   0  0  0  0  0
   29.6740   16.9020   18.3510 O   0  0  0  0  0
   32.9388   22.1583   17.3169 H   0  0  0  0  0
   31.5396   21.2298   14.3644 H   0  0  0  0  0
   31.2578   22.2923   15.7681 H   0  0  0  0  0
   31.3529   18.7611   14.4942 H   0  0  0  0  0
   30.4524   16.8544   15.7400 H   0  0  0  0  0
   30.0159   19.3129   19.3161 H   0  0  0  0  0
   30.9294   21.3351   17.9894 H   0  0  0  0  0
   29.4689   17.1680   19.2503 H   0  0  0  0  0
  1  2  2  0  0  0
  1  3  1  0  0  0
  1  4  1  0  0  0
  4  5  1  0  0  0
  5  6  4  0  0  0
  5 10  4  0  0  0
  6  7  4  0  0  0
  7  8  4  0  0  0
  8  9  4  0  0  0
  8 11  1  0  0  0
  9 10  4  0  0  0
  3 12  1  0  0  0
  4 13  1  0  0  0
  4 14  1  0  0  0
  6 15  1  0  0  0
  7 16  1  0  0  0
  9 17  1  0  0  0
 10 18  1  0  0  0
 11 19  1  0  0  0
M  END
$$$$
