4nmx_ligand
  -I-interpret- 

234239  0  0  0  0  0  0  0  0999 V2000
   11.7450   22.4940  -31.5800 C   0  0  0  0  0
   10.6270   22.5060  -32.1160 O   0  0  0  0  0
   12.4520   23.7960  -31.2110 C   0  0  0  0  0
   12.3850   22.2450  -32.8210 N   0  3  0  0  0
   11.7660   21.2820  -33.7330 C   0  0  0  0  0
   11.7400   19.8910  -33.1070 C   0  0  0  0  0
   12.7710   19.3880  -32.6780 O   0  0  0  0  0
   12.5680   21.2650  -35.0360 C   0  0  0  0  0
   12.5770   22.5860  -35.5880 O   0  0  0  0  0
   11.9820   20.3010  -36.0290 C   0  0  0  0  0
   10.5580   19.2890  -33.0490 N   0  0  0  0  0
   10.4300   17.8910  -32.6530 C   0  0  0  0  0
   10.3880   17.0140  -33.9090 C   0  0  0  0  0
    9.4880   17.1200  -34.7380 O   0  0  0  0  0
    9.1810   17.6470  -31.7750 C   0  0  0  0  0
    9.0130   16.1670  -31.4650 C   0  0  0  0  0
    9.2880   18.4470  -30.4800 C   0  0  0  0  0
   11.3820   16.1530  -34.0460 N   0  0  0  0  0
   11.4320   15.2180  -35.1560 C   0  0  0  0  0
   10.6290   13.9850  -34.7810 C   0  0  0  0  0
   10.6850   13.5300  -33.6440 O   0  0  0  0  0
   12.8820   14.8730  -35.4820 C   0  0  0  0  0
   13.7330   16.0810  -35.7330 C   0  0  0  0  0
   13.7580   16.6730  -36.9920 C   0  0  0  0  0
   14.4810   16.6570  -34.7120 C   0  0  0  0  0
   14.5310   17.7920  -37.2280 C   0  0  0  0  0
   15.2660   17.7770  -34.9470 C   0  0  0  0  0
   15.2840   18.3500  -36.2020 C   0  0  0  0  0
    9.8620   13.4560  -35.7310 N   0  0  0  0  0
    8.9360   12.3570  -35.4470 C   0  0  0  0  0
    9.5840   10.9850  -35.6130 C   0  0  0  0  0
    8.9670    9.9600  -35.3010 O   0  0  0  0  0
    7.6270   12.4600  -36.2800 C   0  0  0  0  0
    7.9220   12.4340  -37.6830 O   0  0  0  0  0
    6.8900   13.7500  -35.9430 C   0  0  0  0  0
   10.8360   10.9700  -36.0600 N   0  0  0  0  0
   11.6050    9.7400  -36.1870 C   0  0  0  0  0
   13.0830   10.0700  -36.1830 C   0  0  0  0  0
   13.4700   11.2200  -36.4100 O   0  0  0  0  0
   11.2390    8.9770  -37.4590 C   0  0  0  0  0
   11.7610    9.6100  -38.6150 O   0  0  0  0  0
   13.9160    9.0680  -35.9210 N   0  0  0  0  0
   15.3670    9.2600  -36.0070 C   0  0  0  0  0
   15.7460    9.5790  -37.4580 C   0  0  0  0  0
   16.5560   10.4540  -37.7060 O   0  0  0  0  0
   16.1000    8.0160  -35.5250 C   0  0  0  0  0
   17.5780    8.1560  -35.4880 C   0  0  0  0  0
   18.4830    7.4280  -36.1970 C   0  0  0  0  0
   18.3320    9.0870  -34.7070 C   0  0  0  0  0
   19.7560    7.8390  -35.8970 N   0  0  0  0  0
   19.6920    8.8620  -34.9890 C   0  0  0  0  0
   17.9880   10.0900  -33.7930 C   0  0  0  0  0
   20.7130    9.5960  -34.3860 C   0  0  0  0  0
   19.0060   10.8300  -33.1990 C   0  0  0  0  0
   20.3460   10.5710  -33.4920 C   0  0  0  0  0
   15.1000    8.8960  -38.4010 N   0  0  0  0  0
   15.3080    9.1520  -39.8420 C   0  0  0  0  0
   14.9980   10.6090  -40.2000 C   0  0  0  0  0
   15.7750   11.2550  -40.9160 O   0  0  0  0  0
   14.4610    8.2030  -40.6950 C   0  0  0  0  0
   15.0280    6.7900  -40.7880 C   0  0  0  0  0
   14.9230    5.9910  -39.4910 C   0  0  0  0  0
   14.1280    6.3600  -38.5900 O   0  0  0  0  0
   15.6390    4.9720  -39.3710 O   0  0  0  0  0
   13.8730   11.1160  -39.7020 N   0  0  0  0  0
   13.5240   12.5210  -39.8910 C   0  0  0  0  0
   14.6410   13.4460  -39.3830 C   0  0  0  0  0
   14.9960   14.4230  -40.0460 O   0  0  0  0  0
   12.1940   12.8450  -39.2130 C   0  0  0  0  0
   11.8130   14.3130  -39.2830 C   0  0  0  0  0
   10.3170   14.5410  -39.2700 C   0  0  0  0  0
    9.6410   14.1160  -40.2340 O   0  0  0  0  0
    9.8260   15.1660  -38.3080 O   0  0  0  0  0
   15.1890   13.1440  -38.2160 N   0  0  0  0  0
   16.2940   13.9330  -37.6690 C   0  0  0  0  0
   17.5330   13.8280  -38.5600 C   0  0  0  0  0
   18.2050   14.8340  -38.8140 O   0  0  0  0  0
   16.6430   13.4920  -36.2410 C   0  0  0  0  0
   18.0310   13.9020  -35.8380 C   0  0  0  0  0
   19.0790   12.9880  -35.8620 C   0  0  0  0  0
   18.3150   15.2170  -35.4940 C   0  0  0  0  0
   20.3640   13.3680  -35.5270 C   0  0  0  0  0
   19.6010   15.6030  -35.1500 C   0  0  0  0  0
   20.6180   14.6700  -35.1740 C   0  0  0  0  0
   21.8990   15.0420  -34.8560 O   0  0  0  0  0
   17.8420   12.6080  -39.0000 N   0  0  0  0  0
   18.9870   12.3630  -39.8740 C   0  0  0  0  0
   18.8610   13.1320  -41.1950 C   0  0  0  0  0
   19.8280   13.7290  -41.6660 O   0  0  0  0  0
   19.1360   10.8710  -40.1600 C   0  0  0  0  0
   19.5430    9.9800  -38.9850 C   0  0  0  0  0
   19.6240    8.5290  -39.4210 C   0  0  0  0  0
   20.8780   10.4300  -38.4270 C   0  0  0  0  0
   17.6700   13.1160  -41.7800 N   0  0  0  0  0
   17.4290   13.8520  -43.0260 C   0  0  0  0  0
   17.6430   15.3460  -42.8440 C   0  0  0  0  0
   18.1690   16.0030  -43.7320 O   0  0  0  0  0
   16.0160   13.5880  -43.5660 C   0  0  0  0  0
   15.9300   12.3160  -44.3690 C   0  0  0  0  0
   16.9940   11.7960  -44.7760 O   0  0  0  0  0
   14.7960   11.8380  -44.5990 O   0  0  0  0  0
   17.2360   15.8760  -41.6910 N   0  0  0  0  0
   17.3370   17.3050  -41.4280 C   0  0  0  0  0
   18.7610   17.7720  -41.1200 C   0  0  0  0  0
   19.2020   18.8100  -41.6210 O   0  0  0  0  0
   16.4120   17.7050  -40.2820 C   0  0  0  0  0
   16.6900   19.0780  -39.7480 C   0  0  0  0  0
   16.2240   20.2610  -40.2490 C   0  0  0  0  0
   17.5080   19.4130  -38.6180 C   0  0  0  0  0
   16.6970   21.3130  -39.4980 N   0  0  0  0  0
   17.4870   20.8210  -38.4900 C   0  0  0  0  0
   18.2530   18.6610  -37.6960 C   0  0  0  0  0
   18.1850   21.4960  -37.4740 C   0  0  0  0  0
   18.9500   19.3320  -36.6850 C   0  0  0  0  0
   18.9080   20.7370  -36.5850 C   0  0  0  0  0
   19.4610   17.0210  -40.2780 N   0  0  0  0  0
   20.7710   17.4300  -39.7790 C   0  0  0  0  0
   21.8230   17.3120  -40.8840 C   0  0  0  0  0
   21.6340   16.6000  -41.8780 O   0  0  0  0  0
   21.1990   16.6050  -38.5340 C   0  0  0  0  0
   21.8630   15.2940  -38.9410 C   0  0  0  0  0
   22.1210   17.4180  -37.6330 C   0  0  0  0  0
   22.9140   18.1370  -40.7370 N   0  0  0  0  0
   11.7342   21.9035  -30.6639 H   0  0  0  0  0
    9.9555   22.6679  -31.4493 H   0  0  0  0  0
   13.5249   23.6177  -31.1396 H   0  0  0  0  0
   12.2571   24.5442  -31.9793 H   0  0  0  0  0
   12.0769   24.1523  -30.2516 H   0  0  0  0  0
   13.2927   21.8459  -32.5818 H   0  0  0  0  0
   12.3689   23.1361  -33.3171 H   0  0  0  0  0
   10.7358   21.5755  -33.9345 H   0  0  0  0  0
   13.5845   20.9376  -34.8180 H   0  0  0  0  0
   12.9523   23.1961  -34.9489 H   0  0  0  0  0
   10.9607   20.6002  -36.2648 H   0  0  0  0  0
   12.5831   20.3078  -36.9383 H   0  0  0  0  0
   11.9787   19.2983  -35.6016 H   0  0  0  0  0
    9.7186   19.8173  -33.2873 H   0  0  0  0  0
   11.2963   17.6264  -32.0467 H   0  0  0  0  0
    8.3032   17.9794  -32.3291 H   0  0  0  0  0
    8.8999   15.6125  -32.3966 H   0  0  0  0  0
    9.8923   15.8069  -30.9308 H   0  0  0  0  0
    8.1269   16.0250  -30.8463 H   0  0  0  0  0
   10.1776   18.1340  -29.9335 H   0  0  0  0  0
    9.3595   19.5089  -30.7153 H   0  0  0  0  0
    8.4031   18.2676  -29.8694 H   0  0  0  0  0
   12.1322   16.1453  -33.3550 H   0  0  0  0  0
   10.9971   15.6609  -36.0520 H   0  0  0  0  0
   12.8827   14.2731  -36.3920 H   0  0  0  0  0
   13.2984   14.3479  -34.6223 H   0  0  0  0  0
   13.1614   16.2490  -37.7997 H   0  0  0  0  0
   14.4503   16.2226  -33.7128 H   0  0  0  0  0
   14.5508   18.2392  -38.2219 H   0  0  0  0  0
   15.8663   18.2026  -34.1429 H   0  0  0  0  0
   15.8875   19.2384  -36.3883 H   0  0  0  0  0
    9.9203   13.8248  -36.6802 H   0  0  0  0  0
    8.6666   12.4603  -34.3959 H   0  0  0  0  0
    6.9959   11.6066  -36.0320 H   0  0  0  0  0
    7.1044   12.4984  -38.1820 H   0  0  0  0  0
    6.6403   13.7578  -34.8820 H   0  0  0  0  0
    7.5287   14.6027  -36.1735 H   0  0  0  0  0
    5.9755   13.8093  -36.5332 H   0  0  0  0  0
   11.2740   11.8526  -36.3237 H   0  0  0  0  0
   11.3673    9.0973  -35.3394 H   0  0  0  0  0
   10.1526    8.9480  -37.5429 H   0  0  0  0  0
   11.6629    7.9749  -37.3938 H   0  0  0  0  0
   11.5133    9.1062  -39.3937 H   0  0  0  0  0
   13.5421    8.1563  -35.6575 H   0  0  0  0  0
   15.6600   10.0912  -35.3657 H   0  0  0  0  0
   15.8704    7.2150  -36.2277 H   0  0  0  0  0
   15.7696    7.8234  -34.5043 H   0  0  0  0  0
   18.2324    6.6341  -36.9006 H   0  0  0  0  0
   16.9436   10.2874  -33.5514 H   0  0  0  0  0
   21.7610    9.4032  -34.6155 H   0  0  0  0  0
   18.7534   11.6230  -32.4951 H   0  0  0  0  0
   21.1207   11.1578  -32.9984 H   0  0  0  0  0
   14.4393    8.1717  -38.1196 H   0  0  0  0  0
   16.3601    8.9662  -40.0582 H   0  0  0  0  0
   14.4337    8.6102  -41.7057 H   0  0  0  0  0
   13.4803    8.1301  -40.2249 H   0  0  0  0  0
   16.0878    6.8822  -41.0256 H   0  0  0  0  0
   14.4483    6.2584  -41.5427 H   0  0  0  0  0
   13.6743    7.1576  -38.8721 H   0  0  0  0  0
   13.2415   10.5106  -39.1775 H   0  0  0  0  0
   13.4112   12.6965  -40.9608 H   0  0  0  0  0
   12.2941   12.5848  -38.1593 H   0  0  0  0  0
   11.4184   12.2825  -39.7327 H   0  0  0  0  0
   12.1999   14.7106  -40.2212 H   0  0  0  0  0
   12.2301   14.8051  -38.4044 H   0  0  0  0  0
   10.2189   13.6673  -40.8555 H   0  0  0  0  0
   14.8344   12.3464  -37.6882 H   0  0  0  0  0
   15.9660   14.9721  -37.6392 H   0  0  0  0  0
   16.5877   12.4041  -36.2010 H   0  0  0  0  0
   15.9391   13.9692  -35.5592 H   0  0  0  0  0
   18.8831   11.9551  -36.1498 H   0  0  0  0  0
   17.5145   15.9568  -35.4945 H   0  0  0  0  0
   21.1727   12.6373  -35.5429 H   0  0  0  0  0
   19.8074   16.6341  -34.8631 H   0  0  0  0  0
   21.9139   15.9756  -34.6329 H   0  0  0  0  0
   17.2599   11.8196  -38.7172 H   0  0  0  0  0
   19.8755   12.7196  -39.3529 H   0  0  0  0  0
   19.9390   10.7856  -40.8922 H   0  0  0  0  0
   18.1494   10.5258  -40.4693 H   0  0  0  0  0
   18.7855   10.0672  -38.2061 H   0  0  0  0  0
   18.6501    8.2068  -39.7896 H   0  0  0  0  0
   20.3650    8.4301  -40.2142 H   0  0  0  0  0
   19.9149    7.9113  -38.5713 H   0  0  0  0  0
   21.6371   10.3636  -39.2064 H   0  0  0  0  0
   20.7977   11.4612  -38.0832 H   0  0  0  0  0
   21.1562    9.7877  -37.5914 H   0  0  0  0  0
   16.9100   12.5835  -41.3566 H   0  0  0  0  0
   18.1541   13.4876  -43.7537 H   0  0  0  0  0
   15.7473   14.4167  -44.2211 H   0  0  0  0  0
   15.3439   13.4921  -42.7133 H   0  0  0  0  0
   17.7396   12.3265  -44.4857 H   0  0  0  0  0
   16.8437   15.2653  -40.9744 H   0  0  0  0  0
   17.0319   17.7995  -42.3502 H   0  0  0  0  0
   16.5696   16.9968  -39.4686 H   0  0  0  0  0
   15.3916   17.7007  -40.6651 H   0  0  0  0  0
   15.5723   20.3574  -41.1174 H   0  0  0  0  0
   18.2879   17.5738  -37.7663 H   0  0  0  0  0
   18.1541   22.5826  -37.3939 H   0  0  0  0  0
   19.5339   18.7595  -35.9643 H   0  0  0  0  0
   19.4602   21.2320  -35.7862 H   0  0  0  0  0
   19.0713   16.1301  -39.9699 H   0  0  0  0  0
   20.6937   18.4727  -39.4709 H   0  0  0  0  0
   20.2971   16.3636  -37.9715 H   0  0  0  0  0
   21.1622   14.7001  -39.5277 H   0  0  0  0  0
   22.7494   15.5073  -39.5384 H   0  0  0  0  0
   22.1504   14.7408  -38.0468 H   0  0  0  0  0
   23.0140   17.7014  -38.1901 H   0  0  0  0  0
   21.6006   18.3151  -37.2975 H   0  0  0  0  0
   22.4054   16.8170  -36.7693 H   0  0  0  0  0
   23.6205   18.1839  -41.4712 H   0  0  0  0  0
   23.0164   18.7018  -39.8938 H   0  0  0  0  0
  1  2  1  0  0  0
  1  3  1  0  0  0
  1  4  1  0  0  0
  4  5  1  0  0  0
  5  6  1  0  0  0
  5  8  1  0  0  0
  6  7  2  0  0  0
  6 11  1  0  0  0
  8  9  1  0  0  0
  8 10  1  0  0  0
 11 12  1  0  0  0
 12 13  1  0  0  0
 12 15  1  0  0  0
 13 14  2  0  0  0
 13 18  1  0  0  0
 15 16  1  0  0  0
 15 17  1  0  0  0
 18 19  1  0  0  0
 19 20  1  0  0  0
 19 22  1  0  0  0
 20 21  2  0  0  0
 20 29  1  0  0  0
 22 23  1  0  0  0
 23 24  4  0  0  0
 23 25  4  0  0  0
 24 26  4  0  0  0
 25 27  4  0  0  0
 26 28  4  0  0  0
 27 28  4  0  0  0
 29 30  1  0  0  0
 30 31  1  0  0  0
 30 33  1  0  0  0
 31 32  2  0  0  0
 31 36  1  0  0  0
 33 34  1  0  0  0
 33 35  1  0  0  0
 36 37  1  0  0  0
 37 38  1  0  0  0
 37 40  1  0  0  0
 38 39  2  0  0  0
 38 42  1  0  0  0
 40 41  1  0  0  0
 42 43  1  0  0  0
 43 44  1  0  0  0
 43 46  1  0  0  0
 44 45  2  0  0  0
 44 56  1  0  0  0
 46 47  1  0  0  0
 47 48  4  0  0  0
 47 49  4  0  0  0
 48 50  4  0  0  0
 49 51  4  0  0  0
 49 52  4  0  0  0
 50 51  4  0  0  0
 51 53  4  0  0  0
 52 54  4  0  0  0
 53 55  4  0  0  0
 54 55  4  0  0  0
 56 57  1  0  0  0
 57 58  1  0  0  0
 57 60  1  0  0  0
 58 59  2  0  0  0
 58 65  1  0  0  0
 60 61  1  0  0  0
 61 62  1  0  0  0
 62 63  1  0  0  0
 62 64  2  0  0  0
 65 66  1  0  0  0
 66 67  1  0  0  0
 66 69  1  0  0  0
 67 68  2  0  0  0
 67 74  1  0  0  0
 69 70  1  0  0  0
 70 71  1  0  0  0
 71 72  1  0  0  0
 71 73  2  0  0  0
 74 75  1  0  0  0
 75 76  1  0  0  0
 75 78  1  0  0  0
 76 77  2  0  0  0
 76 86  1  0  0  0
 78 79  1  0  0  0
 79 80  4  0  0  0
 79 81  4  0  0  0
 80 82  4  0  0  0
 81 83  4  0  0  0
 82 84  4  0  0  0
 83 84  4  0  0  0
 84 85  1  0  0  0
 86 87  1  0  0  0
 87 88  1  0  0  0
 87 90  1  0  0  0
 88 89  2  0  0  0
 88 94  1  0  0  0
 90 91  1  0  0  0
 91 92  1  0  0  0
 91 93  1  0  0  0
 94 95  1  0  0  0
 95 96  1  0  0  0
 95 98  1  0  0  0
 96 97  2  0  0  0
 96102  1  0  0  0
 98 99  1  0  0  0
 99100  1  0  0  0
 99101  2  0  0  0
102103  1  0  0  0
103104  1  0  0  0
103106  1  0  0  0
104105  2  0  0  0
104116  1  0  0  0
106107  1  0  0  0
107108  4  0  0  0
107109  4  0  0  0
108110  4  0  0  0
109111  4  0  0  0
109112  4  0  0  0
110111  4  0  0  0
111113  4  0  0  0
112114  4  0  0  0
113115  4  0  0  0
114115  4  0  0  0
116117  1  0  0  0
117118  1  0  0  0
117120  1  0  0  0
118119  2  0  0  0
118123  1  0  0  0
120121  1  0  0  0
120122  1  0  0  0
  1124  1  0  0  0
  2125  1  0  0  0
  3126  1  0  0  0
  3127  1  0  0  0
  3128  1  0  0  0
  4129  1  0  0  0
  4130  1  0  0  0
  5131  1  0  0  0
  8132  1  0  0  0
  9133  1  0  0  0
 10134  1  0  0  0
 10135  1  0  0  0
 10136  1  0  0  0
 11137  1  0  0  0
 12138  1  0  0  0
 15139  1  0  0  0
 16140  1  0  0  0
 16141  1  0  0  0
 16142  1  0  0  0
 17143  1  0  0  0
 17144  1  0  0  0
 17145  1  0  0  0
 18146  1  0  0  0
 19147  1  0  0  0
 22148  1  0  0  0
 22149  1  0  0  0
 24150  1  0  0  0
 25151  1  0  0  0
 26152  1  0  0  0
 27153  1  0  0  0
 28154  1  0  0  0
 29155  1  0  0  0
 30156  1  0  0  0
 33157  1  0  0  0
 34158  1  0  0  0
 35159  1  0  0  0
 35160  1  0  0  0
 35161  1  0  0  0
 36162  1  0  0  0
 37163  1  0  0  0
 40164  1  0  0  0
 40165  1  0  0  0
 41166  1  0  0  0
 42167  1  0  0  0
 43168  1  0  0  0
 46169  1  0  0  0
 46170  1  0  0  0
 48171  1  0  0  0
 52172  1  0  0  0
 53173  1  0  0  0
 54174  1  0  0  0
 55175  1  0  0  0
 56176  1  0  0  0
 57177  1  0  0  0
 60178  1  0  0  0
 60179  1  0  0  0
 61180  1  0  0  0
 61181  1  0  0  0
 63182  1  0  0  0
 65183  1  0  0  0
 66184  1  0  0  0
 69185  1  0  0  0
 69186  1  0  0  0
 70187  1  0  0  0
 70188  1  0  0  0
 72189  1  0  0  0
 74190  1  0  0  0
 75191  1  0  0  0
 78192  1  0  0  0
 78193  1  0  0  0
 80194  1  0  0  0
 81195  1  0  0  0
 82196  1  0  0  0
 83197  1  0  0  0
 85198  1  0  0  0
 86199  1  0  0  0
 87200  1  0  0  0
 90201  1  0  0  0
 90202  1  0  0  0
 91203  1  0  0  0
 92204  1  0  0  0
 92205  1  0  0  0
 92206  1  0  0  0
 93207  1  0  0  0
 93208  1  0  0  0
 93209  1  0  0  0
 94210  1  0  0  0
 95211  1  0  0  0
 98212  1  0  0  0
 98213  1  0  0  0
100214  1  0  0  0
102215  1  0  0  0
103216  1  0  0  0
106217  1  0  0  0
106218  1  0  0  0
108219  1  0  0  0
112220  1  0  0  0
113221  1  0  0  0
114222  1  0  0  0
115223  1  0  0  0
116224  1  0  0  0
117225  1  0  0  0
120226  1  0  0  0
121227  1  0  0  0
121228  1  0  0  0
121229  1  0  0  0
122230  1  0  0  0
122231  1  0  0  0
122232  1  0  0  0
123233  1  0  0  0
123234  1  0  0  0
M  END
$$$$
