### 
### Created by X-TOOL on Mon Sep 10 21:13:14 2018
### 

@<TRIPOS>MOLECULE
4nmx_ligand
  233   238     1     0     0
SMALL
GAST_HUCK


@<TRIPOS>ATOM
      1 C          11.7450   22.4940  -31.5800 C.3       1 ACE         0.0797
      2 O          10.6270   22.5060  -32.1160 O.3       1 ACE        -0.3533
      3 CH3        12.4520   23.7960  -31.2110 C.3       1 ACE         0.0048
      4 N          12.3850   22.2450  -32.8210 N.4       1 THR         0.2695
      5 CA         11.7660   21.2820  -33.7330 C.3       1 THR         0.0953
      6 C          11.7400   19.8910  -33.1070 C.2       1 THR         0.2294
      7 O          12.7710   19.3880  -32.6780 O.2       1 THR        -0.3906
      8 CB         12.5680   21.2650  -35.0360 C.3       1 THR         0.1121
      9 OG1        12.5770   22.5860  -35.5880 O.3       1 THR        -0.3840
     10 CG2        11.9820   20.3010  -36.0290 C.3       1 THR        -0.0313
     11 N          10.5580   19.2890  -33.0490 N.am      1 VAL        -0.2607
     12 CA         10.4300   17.8910  -32.6530 C.3       1 VAL         0.1334
     13 C          10.3880   17.0140  -33.9090 C.2       1 VAL         0.2043
     14 O           9.4880   17.1200  -34.7380 O.2       1 VAL        -0.3944
     15 CB          9.1810   17.6470  -31.7750 C.3       1 VAL        -0.0063
     16 CG1         9.0130   16.1670  -31.4650 C.3       1 VAL        -0.0584
     17 CG2         9.2880   18.4470  -30.4800 C.3       1 VAL        -0.0584
     18 N          11.3820   16.1530  -34.0460 N.am      1 PHE        -0.2619
     19 CA         11.4320   15.2180  -35.1560 C.3       1 PHE         0.1404
     20 C          10.6290   13.9850  -34.7810 C.2       1 PHE         0.2060
     21 O          10.6850   13.5300  -33.6440 O.2       1 PHE        -0.3942
     22 CB         12.8820   14.8730  -35.4820 C.3       1 PHE         0.0214
     23 CG         13.7330   16.0810  -35.7330 C.ar      1 PHE        -0.0386
     24 CD1        13.7580   16.6730  -36.9920 C.ar      1 PHE        -0.0601
     25 CD2        14.4810   16.6570  -34.7120 C.ar      1 PHE        -0.0601
     26 CE1        14.5310   17.7920  -37.2280 C.ar      1 PHE        -0.0686
     27 CE2        15.2660   17.7770  -34.9470 C.ar      1 PHE        -0.0686
     28 CZ         15.2840   18.3500  -36.2020 C.ar      1 PHE        -0.0687
     29 N           9.8620   13.4560  -35.7310 N.am      1 THR        -0.2612
     30 CA          8.9360   12.3570  -35.4470 C.3       1 THR         0.1565
     31 C           9.5840   10.9850  -35.6130 C.2       1 THR         0.2065
     32 O           8.9670    9.9600  -35.3010 O.2       1 THR        -0.3943
     33 CB          7.6270   12.4600  -36.2800 C.3       1 THR         0.0924
     34 OG1         7.9220   12.4340  -37.6830 O.3       1 THR        -0.3874
     35 CG2         6.8900   13.7500  -35.9430 C.3       1 THR        -0.0346
     36 N          10.8360   10.9700  -36.0600 N.am      1 SER        -0.2615
     37 CA         11.6050    9.7400  -36.1870 C.3       1 SER         0.1539
     38 C          13.0830   10.0700  -36.1830 C.2       1 SER         0.2063
     39 O          13.4700   11.2200  -36.4100 O.2       1 SER        -0.3943
     40 CB         11.2390    8.9770  -37.4590 C.3       1 SER         0.0843
     41 OG         11.7610    9.6100  -38.6150 O.3       1 SER        -0.3903
     42 N          13.9160    9.0680  -35.9210 N.am      1 TRP        -0.2626
     43 CA         15.3670    9.2600  -36.0070 C.3       1 TRP         0.1352
     44 C          15.7460    9.5790  -37.4580 C.2       1 TRP         0.2052
     45 O          16.5560   10.4540  -37.7060 O.2       1 TRP        -0.3942
     46 CB         16.1000    8.0160  -35.5250 C.3       1 TRP         0.0042
     47 CG         17.5780    8.1560  -35.4880 C.2       1 TRP        -0.0418
     48 CD1        18.4830    7.4280  -36.1970 C.2       1 TRP         0.0167
     49 CD2        18.3320    9.0870  -34.7070 C.ar      1 TRP        -0.0214
     50 NE1        19.7560    7.8390  -35.8970 N.pl3     1 TRP        -0.2890
     51 CE2        19.6920    8.8620  -34.9890 C.ar      1 TRP         0.0603
     52 CE3        17.9880   10.0900  -33.7930 C.ar      1 TRP        -0.0747
     53 CZ2        20.7130    9.5960  -34.3860 C.ar      1 TRP        -0.0443
     54 CZ3        19.0060   10.8300  -33.1990 C.ar      1 TRP        -0.0792
     55 CH2        20.3460   10.5710  -33.4920 C.ar      1 TRP        -0.0768
     56 N          15.1000    8.8960  -38.4010 N.am      1 GLU        -0.2635
     57 CA         15.3080    9.1520  -39.8420 C.3       1 GLU         0.1325
     58 C          14.9980   10.6090  -40.2000 C.2       1 GLU         0.2040
     59 O          15.7750   11.2550  -40.9160 O.2       1 GLU        -0.3944
     60 CB         14.4610    8.2030  -40.6950 C.3       1 GLU        -0.0008
     61 CG         15.0280    6.7900  -40.7880 C.3       1 GLU         0.0044
     62 CD         14.9230    5.9910  -39.4910 C.2       1 GLU         0.0350
     63 OE1        14.1280    6.3600  -38.5900 O.co2     1 GLU        -0.5690
     64 OE2        15.6390    4.9720  -39.3710 O.co2     1 GLU        -0.5690
     65 N          13.8730   11.1160  -39.7020 N.am      1 GLU        -0.2636
     66 CA         13.5240   12.5210  -39.8910 C.3       1 GLU         0.1325
     67 C          14.6410   13.4460  -39.3830 C.2       1 GLU         0.2041
     68 O          14.9960   14.4230  -40.0460 O.2       1 GLU        -0.3944
     69 CB         12.1940   12.8450  -39.2130 C.3       1 GLU        -0.0008
     70 CG         11.8130   14.3130  -39.2830 C.3       1 GLU         0.0044
     71 CD         10.3170   14.5410  -39.2700 C.2       1 GLU         0.0350
     72 OE1         9.6410   14.1160  -40.2340 O.co2     1 GLU        -0.5690
     73 OE2         9.8260   15.1660  -38.3080 O.co2     1 GLU        -0.5690
     74 N          15.1890   13.1440  -38.2160 N.am      1 TYR        -0.2621
     75 CA         16.2940   13.9330  -37.6690 C.3       1 TYR         0.1390
     76 C          17.5330   13.8280  -38.5600 C.2       1 TYR         0.2057
     77 O          18.2050   14.8340  -38.8140 O.2       1 TYR        -0.3942
     78 CB         16.6430   13.4920  -36.2410 C.3       1 TYR         0.0163
     79 CG         18.0310   13.9020  -35.8380 C.ar      1 TYR        -0.0493
     80 CD1        19.0790   12.9880  -35.8620 C.ar      1 TYR        -0.0685
     81 CD2        18.3150   15.2170  -35.4940 C.ar      1 TYR        -0.0685
     82 CE1        20.3640   13.3680  -35.5270 C.ar      1 TYR        -0.0398
     83 CE2        19.6010   15.6030  -35.1500 C.ar      1 TYR        -0.0398
     84 CZ         20.6180   14.6700  -35.1740 C.ar      1 TYR         0.0805
     85 OH         21.8990   15.0420  -34.8560 O.3       1 TYR        -0.3376
     86 N          17.8420   12.6080  -39.0000 N.am      1 LEU        -0.2636
     87 CA         18.9870   12.3630  -39.8740 C.3       1 LEU         0.1312
     88 C          18.8610   13.1320  -41.1950 C.2       1 LEU         0.2040
     89 O          19.8280   13.7290  -41.6660 O.2       1 LEU        -0.3944
     90 CB         19.1360   10.8710  -40.1600 C.3       1 LEU        -0.0101
     91 CG         19.5430    9.9800  -38.9850 C.3       1 LEU        -0.0425
     92 CD1        19.6240    8.5290  -39.4210 C.3       1 LEU        -0.0625
     93 CD2        20.8780   10.4300  -38.4270 C.3       1 LEU        -0.0625
     94 N          17.6700   13.1160  -41.7800 N.am      1 ASP        -0.2622
     95 CA         17.4290   13.8520  -43.0260 C.3       1 ASP         0.1423
     96 C          17.6430   15.3460  -42.8440 C.2       1 ASP         0.2057
     97 O          18.1690   16.0030  -43.7320 O.2       1 ASP        -0.3943
     98 CB         16.0160   13.5880  -43.5660 C.3       1 ASP         0.0406
     99 CG         15.9300   12.3160  -44.3690 C.2       1 ASP         0.0393
    100 OD1        16.9940   11.7960  -44.7760 O.co2     1 ASP        -0.5688
    101 OD2        14.7960   11.8380  -44.5990 O.co2     1 ASP        -0.5688
    102 N          17.2360   15.8760  -41.6910 N.am      1 TRP        -0.2626
    103 CA         17.3370   17.3050  -41.4280 C.3       1 TRP         0.1352
    104 C          18.7610   17.7720  -41.1200 C.2       1 TRP         0.2052
    105 O          19.2020   18.8100  -41.6210 O.2       1 TRP        -0.3942
    106 CB         16.4120   17.7050  -40.2820 C.3       1 TRP         0.0042
    107 CG         16.6900   19.0780  -39.7480 C.2       1 TRP        -0.0418
    108 CD1        16.2240   20.2610  -40.2490 C.2       1 TRP         0.0167
    109 CD2        17.5080   19.4130  -38.6180 C.ar      1 TRP        -0.0214
    110 NE1        16.6970   21.3130  -39.4980 N.pl3     1 TRP        -0.2890
    111 CE2        17.4870   20.8210  -38.4900 C.ar      1 TRP         0.0603
    112 CE3        18.2530   18.6610  -37.6960 C.ar      1 TRP        -0.0747
    113 CZ2        18.1850   21.4960  -37.4740 C.ar      1 TRP        -0.0443
    114 CZ3        18.9500   19.3320  -36.6850 C.ar      1 TRP        -0.0792
    115 CH2        18.9080   20.7370  -36.5850 C.ar      1 TRP        -0.0768
    116 N          19.4610   17.0210  -40.2780 N.am      1 VAL        -0.2634
    117 CA         20.7710   17.4300  -39.7790 C.3       1 VAL         0.1329
    118 C          21.8230   17.3120  -40.8840 C.2       1 VAL         0.1994
    119 O          21.6340   16.6000  -41.8780 O.2       1 VAL        -0.3947
    120 CB         21.1990   16.6050  -38.5340 C.3       1 VAL        -0.0063
    121 CG1        21.8630   15.2940  -38.9410 C.3       1 VAL        -0.0584
    122 CG2        22.1210   17.4180  -37.6330 C.3       1 VAL        -0.0584
    123 N          22.9140   18.1370  -40.7370 N.am      1 NH2        -0.2990
    124 H1         11.8355   21.7386  -30.7855 H         1 ACE         0.1181
    125 H2          9.9625   22.6662  -31.4563 H         1 ACE         0.2154
    126 H3         13.4242   23.5674  -30.7499 H         1 ACE         0.0310
    127 H4         11.8323   24.3607  -30.4990 H         1 ACE         0.0310
    128 H5         12.6090   24.3979  -32.1182 H         1 ACE         0.0310
    129 H6         13.3138   21.9105  -32.6174 H         1 THR         0.2064
    130 H7         12.4443   23.1248  -33.3094 H         1 THR         0.2064
    131 H8         10.7334   21.5958  -33.9458 H         1 THR         0.1126
    132 H9         13.6009   20.9581  -34.8146 H         1 THR         0.0674
    133 H10        12.9793   23.1839  -34.9690 H         1 THR         0.2102
    134 H11        12.5817   20.3146  -36.9510 H         1 THR         0.0258
    135 H12        10.9478   20.5959  -36.2600 H         1 THR         0.0258
    136 H13        11.9877   19.2869  -35.6029 H         1 THR         0.0258
    137 H14         9.7351   19.8069  -33.2826 H         1 VAL         0.1885
    138 H15        11.3177   17.6168  -32.0641 H         1 VAL         0.0802
    139 H16         8.2939   17.9898  -32.3277 H         1 VAL         0.0343
    140 H17         8.1190   16.0224  -30.8406 H         1 VAL         0.0234
    141 H18         9.8997   15.8023  -30.9258 H         1 VAL         0.0234
    142 H19         8.8987   15.6063  -32.4044 H         1 VAL         0.0234
    143 H20         9.4090   19.5143  -30.7173 H         1 VAL         0.0234
    144 H21        10.1582   18.0984  -29.9045 H         1 VAL         0.0234
    145 H22         8.3739   18.3051  -29.8847 H         1 VAL         0.0234
    146 H23        12.1175   16.1455  -33.3685 H         1 PHE         0.1885
    147 H24        10.9756   15.6833  -36.0421 H         1 PHE         0.0823
    148 H25        12.8974   14.2411  -36.3823 H         1 PHE         0.0474
    149 H26        13.3078   14.3150  -34.6350 H         1 PHE         0.0474
    150 H27        13.1647   16.2513  -37.7953 H         1 PHE         0.0557
    151 H28        14.4505   16.2250  -33.7183 H         1 PHE         0.0557
    152 H29        14.5507   18.2367  -38.2164 H         1 PHE         0.0599
    153 H30        15.8630   18.2002  -34.1473 H         1 PHE         0.0599
    154 H31        15.8842   19.2335  -36.3872 H         1 PHE         0.0559
    155 H32         9.9191   13.8175  -36.6616 H         1 THR         0.1884
    156 H33         8.6512   12.4501  -34.3886 H         1 THR         0.0826
    157 H34         6.9819   11.6036  -36.0342 H         1 THR         0.0639
    158 H35         8.4857   13.1671  -37.9006 H         1 THR         0.2101
    159 H36         5.9669   13.8110  -36.5381 H         1 THR         0.0257
    160 H37         7.5335   14.6114  -36.1752 H         1 THR         0.0257
    161 H38         6.6374   13.7591  -34.8724 H         1 THR         0.0257
    162 H39        11.2654   11.8353  -36.3185 H         1 SER         0.1884
    163 H40        11.3827    9.0980  -35.3219 H         1 SER         0.0823
    164 H41        10.1433    8.9276  -37.5430 H         1 SER         0.0606
    165 H42        11.6482    7.9580  -37.3944 H         1 SER         0.0606
    166 H43        11.5159    9.1115  -39.3856 H         1 SER         0.2097
    167 H44        13.5494    8.1742  -35.6626 H         1 TRP         0.1884
    168 H45        15.6540   10.1079  -35.3678 H         1 TRP         0.0815
    169 H46        15.8491    7.1845  -36.2001 H         1 TRP         0.0397
    170 H47        15.7503    7.7816  -34.5088 H         1 TRP         0.0397
    171 H48        18.2326    6.6348  -36.9000 H         1 TRP         0.0795
    172 H49        20.6210    7.4423  -36.2910 H         1 TRP         0.2216
    173 H50        16.9494   10.2864  -33.5527 H         1 TRP         0.0540
    174 H51        21.7552    9.4042  -34.6142 H         1 TRP         0.0541
    175 H52        18.7548   11.6186  -32.4990 H         1 TRP         0.0510
    176 H53        21.1164   11.1546  -33.0011 H         1 TRP         0.0530
    177 H54        14.4522    8.1859  -38.1251 H         1 GLU         0.1883
    178 H55        16.3674    8.9632  -40.0698 H         1 GLU         0.0801
    179 H56        14.3929    8.6173  -41.7117 H         1 GLU         0.0330
    180 H57        13.4547    8.1449  -40.2545 H         1 GLU         0.0330
    181 H58        16.0901    6.8612  -41.0651 H         1 GLU         0.0433
    182 H59        14.4798    6.2484  -41.5729 H         1 GLU         0.0433
    183 H60        13.2539   10.5225  -39.1877 H         1 GLU         0.1883
    184 H61        13.4055   12.6972  -40.9703 H         1 GLU         0.0801
    185 H62        12.2645   12.5550  -38.1543 H         1 GLU         0.0330
    186 H63        11.4030   12.2576  -39.7022 H         1 GLU         0.0330
    187 H64        12.2233   14.7370  -40.2114 H         1 GLU         0.0433
    188 H65        12.2531   14.8303  -38.4177 H         1 GLU         0.0433
    189 H66        14.8414   12.3621  -37.6985 H         1 TYR         0.1885
    190 H67        15.9780   14.9861  -37.6373 H         1 TYR         0.0821
    191 H68        16.5670   12.3963  -36.1811 H         1 TYR         0.0453
    192 H69        15.9238   13.9481  -35.5447 H         1 TYR         0.0453
    193 H70        18.8842   11.9608  -36.1482 H         1 TYR         0.0530
    194 H71        17.5189   15.9528  -35.4945 H         1 TYR         0.0530
    195 H72        21.1682   12.6414  -35.5428 H         1 TYR         0.0525
    196 H73        19.8063   16.6284  -34.8647 H         1 TYR         0.0525
    197 H74        21.9183   15.3801  -33.9684 H         1 TYR         0.2458
    198 H75        17.2713   11.8351  -38.7227 H         1 LEU         0.1883
    199 H76        19.8931   12.7111  -39.3565 H         1 LEU         0.0800
    200 H77        19.8994   10.7571  -40.9438 H         1 LEU         0.0315
    201 H78        18.1684   10.5059  -40.5347 H         1 LEU         0.0315
    202 H79        18.7819   10.0688  -38.1958 H         1 LEU         0.0298
    203 H80        19.9175    7.9046  -38.5643 H         1 LEU         0.0232
    204 H81        20.3716    8.4278  -40.2215 H         1 LEU         0.0232
    205 H82        18.6417    8.2026  -39.7932 H         1 LEU         0.0232
    206 H83        20.8087   11.4823  -38.1141 H         1 LEU         0.0232
    207 H84        21.6523   10.3281  -39.2016 H         1 LEU         0.0232
    208 H85        21.1421    9.8064  -37.5602 H         1 LEU         0.0232
    209 H86        16.9249   12.5939  -41.3649 H         1 ASP         0.1884
    210 H87        18.1524   13.4930  -43.7728 H         1 ASP         0.0819
    211 H88        15.7215   14.4307  -44.2087 H         1 ASP         0.0478
    212 H89        15.3219   13.5152  -42.7157 H         1 ASP         0.0478
    213 H90        16.8514   15.2773  -40.9884 H         1 TRP         0.1884
    214 H91        17.0048   17.8298  -42.3359 H         1 TRP         0.0815
    215 H92        16.5361   16.9804  -39.4638 H         1 TRP         0.0397
    216 H93        15.3738   17.6748  -40.6443 H         1 TRP         0.0397
    217 H94        15.5729   20.3574  -41.1166 H         1 TRP         0.0795
    218 H95        16.4912   22.3082  -39.6656 H         1 TRP         0.2216
    219 H96        18.2877   17.5798  -37.7660 H         1 TRP         0.0540
    220 H97        18.1543   22.5766  -37.3943 H         1 TRP         0.0541
    221 H98        19.5307   18.7627  -35.9683 H         1 TRP         0.0510
    222 H99        19.4572   21.2293  -35.7906 H         1 TRP         0.0530
    223 H100       19.0790   16.1476  -39.9760 H         1 VAL         0.1883
    224 H101       20.7044   18.4861  -39.4788 H         1 VAL         0.0802
    225 H102       20.2918   16.3619  -37.9614 H         1 VAL         0.0343
    226 H103       22.1535   14.7348  -38.0394 H         1 VAL         0.0234
    227 H104       22.7578   15.5079  -39.5440 H         1 VAL         0.0234
    228 H105       21.1567   14.6936  -39.5331 H         1 VAL         0.0234
    229 H106       21.6234   18.3578  -37.3517 H         1 VAL         0.0234
    230 H107       23.0537   17.6436  -38.1707 H         1 VAL         0.0234
    231 H108       22.3513   16.8394  -36.7263 H         1 VAL         0.0234
    232 H109       23.6477   18.1216  -41.4163 H         1 NH2         0.1815
    233 H110       22.9734   18.7521  -39.9508 H         1 NH2         0.1815
@<TRIPOS>BOND
     1    1    2 1  
     2    1    3 1  
     3    1    4 1  
     4    4    5 1  
     5    5    6 1  
     6    5    8 1  
     7    6    7 2  
     8    6   11 am 
     9    8    9 1  
    10    8   10 1  
    11   11   12 1  
    12   12   13 1  
    13   12   15 1  
    14   13   14 2  
    15   13   18 am 
    16   15   16 1  
    17   15   17 1  
    18   18   19 1  
    19   19   20 1  
    20   19   22 1  
    21   20   21 2  
    22   20   29 am 
    23   22   23 1  
    24   23   24 ar 
    25   23   25 ar 
    26   24   26 ar 
    27   25   27 ar 
    28   26   28 ar 
    29   27   28 ar 
    30   29   30 1  
    31   30   31 1  
    32   30   33 1  
    33   31   32 2  
    34   31   36 am 
    35   33   34 1  
    36   33   35 1  
    37   36   37 1  
    38   37   38 1  
    39   37   40 1  
    40   38   39 2  
    41   38   42 am 
    42   40   41 1  
    43   42   43 1  
    44   43   44 1  
    45   43   46 1  
    46   44   45 2  
    47   44   56 am 
    48   46   47 1  
    49   47   48 2  
    50   47   49 1  
    51   48   50 1  
    52   49   51 ar 
    53   49   52 ar 
    54   50   51 1  
    55   51   53 ar 
    56   52   54 ar 
    57   53   55 ar 
    58   54   55 ar 
    59   56   57 1  
    60   57   58 1  
    61   57   60 1  
    62   58   59 2  
    63   58   65 am 
    64   60   61 1  
    65   61   62 1  
    66   62   63 ar 
    67   62   64 ar 
    68   65   66 1  
    69   66   67 1  
    70   66   69 1  
    71   67   68 2  
    72   67   74 am 
    73   69   70 1  
    74   70   71 1  
    75   71   72 ar 
    76   71   73 ar 
    77   74   75 1  
    78   75   76 1  
    79   75   78 1  
    80   76   77 2  
    81   76   86 am 
    82   78   79 1  
    83   79   80 ar 
    84   79   81 ar 
    85   80   82 ar 
    86   81   83 ar 
    87   82   84 ar 
    88   83   84 ar 
    89   84   85 1  
    90   86   87 1  
    91   87   88 1  
    92   87   90 1  
    93   88   89 2  
    94   88   94 am 
    95   90   91 1  
    96   91   92 1  
    97   91   93 1  
    98   94   95 1  
    99   95   96 1  
   100   95   98 1  
   101   96   97 2  
   102   96  102 am 
   103   98   99 1  
   104   99  100 ar 
   105   99  101 ar 
   106  102  103 1  
   107  103  104 1  
   108  103  106 1  
   109  104  105 2  
   110  104  116 am 
   111  106  107 1  
   112  107  108 2  
   113  107  109 1  
   114  108  110 1  
   115  109  111 ar 
   116  109  112 ar 
   117  110  111 1  
   118  111  113 ar 
   119  112  114 ar 
   120  113  115 ar 
   121  114  115 ar 
   122  116  117 1  
   123  117  118 1  
   124  117  120 1  
   125  118  119 2  
   126  118  123 am 
   127  120  121 1  
   128  120  122 1  
   129    1  124 1  
   130    2  125 1  
   131    3  126 1  
   132    3  127 1  
   133    3  128 1  
   134    4  129 1  
   135    4  130 1  
   136    5  131 1  
   137    8  132 1  
   138    9  133 1  
   139   10  134 1  
   140   10  135 1  
   141   10  136 1  
   142   11  137 1  
   143   12  138 1  
   144   15  139 1  
   145   16  140 1  
   146   16  141 1  
   147   16  142 1  
   148   17  143 1  
   149   17  144 1  
   150   17  145 1  
   151   18  146 1  
   152   19  147 1  
   153   22  148 1  
   154   22  149 1  
   155   24  150 1  
   156   25  151 1  
   157   26  152 1  
   158   27  153 1  
   159   28  154 1  
   160   29  155 1  
   161   30  156 1  
   162   33  157 1  
   163   34  158 1  
   164   35  159 1  
   165   35  160 1  
   166   35  161 1  
   167   36  162 1  
   168   37  163 1  
   169   40  164 1  
   170   40  165 1  
   171   41  166 1  
   172   42  167 1  
   173   43  168 1  
   174   46  169 1  
   175   46  170 1  
   176   48  171 1  
   177   50  172 1  
   178   52  173 1  
   179   53  174 1  
   180   54  175 1  
   181   55  176 1  
   182   56  177 1  
   183   57  178 1  
   184   60  179 1  
   185   60  180 1  
   186   61  181 1  
   187   61  182 1  
   188   65  183 1  
   189   66  184 1  
   190   69  185 1  
   191   69  186 1  
   192   70  187 1  
   193   70  188 1  
   194   74  189 1  
   195   75  190 1  
   196   78  191 1  
   197   78  192 1  
   198   80  193 1  
   199   81  194 1  
   200   82  195 1  
   201   83  196 1  
   202   85  197 1  
   203   86  198 1  
   204   87  199 1  
   205   90  200 1  
   206   90  201 1  
   207   91  202 1  
   208   92  203 1  
   209   92  204 1  
   210   92  205 1  
   211   93  206 1  
   212   93  207 1  
   213   93  208 1  
   214   94  209 1  
   215   95  210 1  
   216   98  211 1  
   217   98  212 1  
   218  102  213 1  
   219  103  214 1  
   220  106  215 1  
   221  106  216 1  
   222  108  217 1  
   223  110  218 1  
   224  112  219 1  
   225  113  220 1  
   226  114  221 1  
   227  115  222 1  
   228  116  223 1  
   229  117  224 1  
   230  120  225 1  
   231  121  226 1  
   232  121  227 1  
   233  121  228 1  
   234  122  229 1  
   235  122  230 1  
   236  122  231 1  
   237  123  232 1  
   238  123  233 1  
@<TRIPOS>SUBSTRUCTURE
     1 ACE         1

