5d0j_ligand
  -I-interpret- 

 86 86  0  0  0  0  0  0  0  0999 V2000
   10.5610   20.3260    9.2640 N   0  3  0  0  0
   10.9540   20.4800    7.8660 C   0  0  0  0  0
    9.8640   21.2120    7.0580 C   0  0  0  0  0
    9.9950   22.4050    6.7620 O   0  0  0  0  0
   11.2660   19.1120    7.2530 C   0  0  0  0  0
    8.7900   20.5060    6.7120 N   0  0  0  0  0
    7.6420   21.1550    6.1080 C   0  0  0  0  0
    6.3470   21.1350    6.9190 C   0  0  0  0  0
    5.2810   20.8860    6.3680 O   0  0  0  0  0
    6.4300   21.4070    8.2190 N   0  0  0  0  0
    5.2490   21.4600    9.0850 C   0  0  0  0  0
    5.0390   22.8530    9.6940 C   0  0  0  0  0
    6.0000   23.5260   10.0500 O   0  0  0  0  0
    5.3580   20.4280   10.2170 C   0  0  0  0  0
    5.6130   19.0060    9.7640 C   0  0  0  0  0
    4.5790   18.2110    9.2780 C   0  0  0  0  0
    6.8870   18.4560    9.8320 C   0  0  0  0  0
    4.8100   16.9100    8.8670 C   0  0  0  0  0
    7.1290   17.1560    9.4210 C   0  0  0  0  0
    6.0900   16.3860    8.9430 C   0  0  0  0  0
    6.3420   15.0930    8.5390 O   0  0  0  0  0
    3.7830   23.2710    9.8410 N   0  0  0  0  0
    3.4770   24.6030   10.3630 C   0  0  0  0  0
    3.7110   24.6940   11.8630 C   0  0  0  0  0
    3.6990   25.7850   12.4300 O   0  0  0  0  0
    2.0350   24.9970   10.0460 C   0  0  0  0  0
    3.9180   23.5450   12.5020 N   0  0  0  0  0
    4.2380   23.5000   13.9260 C   0  0  0  0  0
    5.6990   23.0820   14.1870 C   0  0  0  0  0
    6.0110   22.4770   15.2140 O   0  0  0  0  0
    3.2650   22.5670   14.6580 C   0  0  0  0  0
    3.1780   21.1820   14.0310 C   0  0  0  0  0
    3.3650   21.0110   12.8240 O   0  0  0  0  0
    2.8830   20.1850   14.8560 N   0  0  0  0  0
    6.5730   23.4110   13.2330 N   0  0  0  0  0
    8.0360   23.3090   13.3630 C   0  0  0  0  0
    8.5720   21.9590   13.8280 C   0  0  0  0  0
    9.4370   21.9050   14.6990 O   0  0  0  0  0
    8.5520   24.3910   14.3210 C   0  0  0  0  0
    8.0870   20.8720   13.2410 N   0  0  0  0  0
    8.5150   19.5450   13.6740 C   0  0  0  0  0
    9.2420   18.7920   12.5590 C   0  0  0  0  0
   10.1320   17.9790   12.8210 O   0  0  0  0  0
    7.3120   18.7340   14.1750 C   0  0  0  0  0
    8.9530   18.9820   11.3750 O   0  0  0  0  0
   10.3559   21.2428    9.6612 H   0  0  0  0  0
    9.7304   19.7365    9.3195 H   0  0  0  0  0
   11.3232   19.8915    9.7843 H   0  0  0  0  0
   11.8554   21.0916    7.8276 H   0  0  0  0  0
   10.3628   18.5018    7.2506 H   0  0  0  0  0
   11.6186   19.2455    6.2303 H   0  0  0  0  0
   12.0380   18.6183    7.8433 H   0  0  0  0  0
    8.7741   19.4989    6.8731 H   0  0  0  0  0
    7.4327   20.6071    5.1892 H   0  0  0  0  0
    7.9123   22.2048    5.9944 H   0  0  0  0  0
    7.3478   21.5848    8.6270 H   0  0  0  0  0
    4.3902   21.2285    8.4549 H   0  0  0  0  0
    4.3987   20.4262   10.7346 H   0  0  0  0  0
    6.2110   20.7211   10.8290 H   0  0  0  0  0
    3.5703   18.6201    9.2202 H   0  0  0  0  0
    7.7105   19.0584   10.2156 H   0  0  0  0  0
    3.9900   16.3014    8.4859 H   0  0  0  0  0
    8.1364   16.7433    9.4751 H   0  0  0  0  0
    7.2740   14.8971    8.6597 H   0  0  0  0  0
    3.0171   22.6484    9.5838 H   0  0  0  0  0
    4.1568   25.2971    9.8689 H   0  0  0  0  0
    1.8903   25.0024    8.9657 H   0  0  0  0  0
    1.3546   24.2775   10.5014 H   0  0  0  0  0
    1.8351   25.9912   10.4456 H   0  0  0  0  0
    3.8512   22.6702   11.9817 H   0  0  0  0  0
    4.1259   24.5110   14.3177 H   0  0  0  0  0
    2.2734   23.0165   14.6062 H   0  0  0  0  0
    3.6275   22.4459   15.6788 H   0  0  0  0  0
    2.8033   19.2333   14.4978 H   0  0  0  0  0
    2.7360   20.3705   15.8482 H   0  0  0  0  0
    6.2000   23.7584   12.3495 H   0  0  0  0  0
    8.4059   23.4429   12.3465 H   0  0  0  0  0
    8.2930   25.3747   13.9294 H   0  0  0  0  0
    8.0932   24.2561   15.3005 H   0  0  0  0  0
    9.6351   24.3081   14.4112 H   0  0  0  0  0
    7.4111   20.9642   12.4827 H   0  0  0  0  0
    9.2207   19.6762   14.4943 H   0  0  0  0  0
   10.2510   17.9320   13.7724 H   0  0  0  0  0
    6.8512   19.2519   15.0162 H   0  0  0  0  0
    6.5854   18.6288   13.3693 H   0  0  0  0  0
    7.6480   17.7474   14.4941 H   0  0  0  0  0
  1  2  1  0  0  0
  2  3  1  0  0  0
  2  5  1  0  0  0
  3  4  2  0  0  0
  3  6  1  0  0  0
  6  7  1  0  0  0
  7  8  1  0  0  0
  8  9  2  0  0  0
  8 10  1  0  0  0
 10 11  1  0  0  0
 11 12  1  0  0  0
 11 14  1  0  0  0
 12 13  2  0  0  0
 12 22  1  0  0  0
 14 15  1  0  0  0
 15 16  4  0  0  0
 15 17  4  0  0  0
 16 18  4  0  0  0
 17 19  4  0  0  0
 18 20  4  0  0  0
 19 20  4  0  0  0
 20 21  1  0  0  0
 22 23  1  0  0  0
 23 24  1  0  0  0
 23 26  1  0  0  0
 24 25  2  0  0  0
 24 27  1  0  0  0
 27 28  1  0  0  0
 28 29  1  0  0  0
 28 31  1  0  0  0
 29 30  2  0  0  0
 29 35  1  0  0  0
 31 32  1  0  0  0
 32 33  2  0  0  0
 32 34  1  0  0  0
 35 36  1  0  0  0
 36 37  1  0  0  0
 36 39  1  0  0  0
 37 38  2  0  0  0
 37 40  1  0  0  0
 40 41  1  0  0  0
 41 42  1  0  0  0
 41 44  1  0  0  0
 42 43  1  0  0  0
 42 45  2  0  0  0
  1 46  1  0  0  0
  1 47  1  0  0  0
  1 48  1  0  0  0
  2 49  1  0  0  0
  5 50  1  0  0  0
  5 51  1  0  0  0
  5 52  1  0  0  0
  6 53  1  0  0  0
  7 54  1  0  0  0
  7 55  1  0  0  0
 10 56  1  0  0  0
 11 57  1  0  0  0
 14 58  1  0  0  0
 14 59  1  0  0  0
 16 60  1  0  0  0
 17 61  1  0  0  0
 18 62  1  0  0  0
 19 63  1  0  0  0
 21 64  1  0  0  0
 22 65  1  0  0  0
 23 66  1  0  0  0
 26 67  1  0  0  0
 26 68  1  0  0  0
 26 69  1  0  0  0
 27 70  1  0  0  0
 28 71  1  0  0  0
 31 72  1  0  0  0
 31 73  1  0  0  0
 34 74  1  0  0  0
 34 75  1  0  0  0
 35 76  1  0  0  0
 36 77  1  0  0  0
 39 78  1  0  0  0
 39 79  1  0  0  0
 39 80  1  0  0  0
 40 81  1  0  0  0
 41 82  1  0  0  0
 43 83  1  0  0  0
 44 84  1  0  0  0
 44 85  1  0  0  0
 44 86  1  0  0  0
M  END
$$$$
