5fqt_ligand
  -I-interpret- 

 55 57  0  0  0  0  0  0  0  0999 V2000
   14.7780   27.3530   64.4220 C   0  0  0  0  0
   15.5160   26.0770   64.6130 C   0  0  0  0  0
   16.8430   26.0730   64.9790 C   0  0  0  0  0
   17.4980   24.8820   65.1700 C   0  0  0  0  0
   16.8160   23.6920   65.0160 C   0  0  0  0  0
   15.4720   23.6800   64.6530 C   0  0  0  0  0
   14.8160   24.8950   64.4610 C   0  0  0  0  0
   13.3680   24.9550   64.0470 C   0  0  0  0  0
   12.9960   23.6270   63.3520 C   0  0  0  0  0
   13.3140   22.5040   64.2990 N   0  3  0  0  0
   14.7730   22.3580   64.5380 C   0  0  0  0  0
   14.9820   21.6170   65.8300 C   0  0  0  0  0
   15.4810   20.3300   65.7490 C   0  0  0  0  0
   15.7110   19.5980   66.9080 C   0  0  0  0  0
   15.4440   20.1780   68.1350 C   0  0  0  0  0
   14.9160   21.4430   68.2360 C   0  0  0  0  0
   14.6700   22.1870   67.0630 C   0  0  0  0  0
   15.6730   19.3790   69.3670 C   0  0  0  0  0
   16.0370   20.0140   70.4880 C   0  0  0  0  0
   16.1770   19.0140   71.6480 C   0  0  0  0  0
   15.7020   17.8690   71.4080 O   0  0  0  0  0
   16.6420   19.4280   72.7300 O   0  0  0  0  0
   12.7520   21.1590   63.9770 C   0  0  0  0  0
   11.2570   21.1270   64.3170 C   0  0  0  0  0
   10.9310   21.4250   65.7760 C   0  0  0  0  0
   10.5860   19.8400   63.9060 C   0  0  0  0  0
   17.5450   27.2740   65.1800 O   0  0  0  0  0
   14.7863   27.9190   65.3535 H   0  0  0  0  0
   15.2597   27.9359   63.6370 H   0  0  0  0  0
   13.7487   27.1366   64.1359 H   0  0  0  0  0
   18.5534   24.8760   65.4424 H   0  0  0  0  0
   17.3368   22.7487   65.1808 H   0  0  0  0  0
   13.2133   25.7878   63.3610 H   0  0  0  0  0
   12.7380   25.1029   64.9241 H   0  0  0  0  0
   13.5629   23.5132   62.4280 H   0  0  0  0  0
   11.9359   23.6180   63.0987 H   0  0  0  0  0
   12.8294   22.8140   65.1413 H   0  0  0  0  0
   15.1882   21.8217   63.6847 H   0  0  0  0  0
   15.6942   19.8890   64.7753 H   0  0  0  0  0
   16.0968   18.5802   66.8507 H   0  0  0  0  0
   14.6893   21.8676   69.2140 H   0  0  0  0  0
   14.2440   23.1887   67.1198 H   0  0  0  0  0
   15.5470   18.2963   69.3581 H   0  0  0  0  0
   16.2096   21.0873   70.5673 H   0  0  0  0  0
   15.4174   17.8274   70.4921 H   0  0  0  0  0
   13.2716   20.4011   64.5632 H   0  0  0  0  0
   12.8847   20.9576   62.9140 H   0  0  0  0  0
   10.8508   21.9451   63.7223 H   0  0  0  0  0
   11.4165   20.6862   66.4137 H   0  0  0  0  0
   11.2924   22.4211   66.0316 H   0  0  0  0  0
    9.8518   21.3801   65.9223 H   0  0  0  0  0
   10.6838   19.7088   62.8284 H   0  0  0  0  0
   11.0608   19.0041   64.4197 H   0  0  0  0  0
    9.5302   19.8805   64.1740 H   0  0  0  0  0
   18.4509   27.0761   65.4287 H   0  0  0  0  0
  1  2  1  0  0  0
  2  3  4  0  0  0
  2  7  4  0  0  0
  3  4  4  0  0  0
  3 27  1  0  0  0
  4  5  4  0  0  0
  5  6  4  0  0  0
  6  7  4  0  0  0
  6 11  1  0  0  0
  7  8  1  0  0  0
  8  9  1  0  0  0
  9 10  1  0  0  0
 10 11  1  0  0  0
 10 23  1  0  0  0
 11 12  1  0  0  0
 12 13  4  0  0  0
 12 17  4  0  0  0
 13 14  4  0  0  0
 14 15  4  0  0  0
 15 16  4  0  0  0
 15 18  1  0  0  0
 16 17  4  0  0  0
 18 19  2  0  0  0
 19 20  1  0  0  0
 20 21  1  0  0  0
 20 22  2  0  0  0
 23 24  1  0  0  0
 24 25  1  0  0  0
 24 26  1  0  0  0
  1 28  1  0  0  0
  1 29  1  0  0  0
  1 30  1  0  0  0
  4 31  1  0  0  0
  5 32  1  0  0  0
  8 33  1  0  0  0
  8 34  1  0  0  0
  9 35  1  0  0  0
  9 36  1  0  0  0
 10 37  1  0  0  0
 11 38  1  0  0  0
 13 39  1  0  0  0
 14 40  1  0  0  0
 16 41  1  0  0  0
 17 42  1  0  0  0
 18 43  1  0  0  0
 19 44  1  0  0  0
 21 45  1  0  0  0
 23 46  1  0  0  0
 23 47  1  0  0  0
 24 48  1  0  0  0
 25 49  1  0  0  0
 25 50  1  0  0  0
 25 51  1  0  0  0
 26 52  1  0  0  0
 26 53  1  0  0  0
 26 54  1  0  0  0
 27 55  1  0  0  0
M  END
$$$$
