### 
### Created by X-TOOL on Mon Sep 10 21:13:08 2018
### 

@<TRIPOS>MOLECULE
3t0m_ligand
   41    42     1     0     0
SMALL
GAST_HUCK


@<TRIPOS>ATOM
      1 CAA        21.1890    7.2430   -5.2040 C.3       1 2CT         0.0567
      2 CAB        21.3420    6.9050  -11.4640 C.3       1 2CT         0.0538
      3 OAC        25.2550    9.4420   -8.5610 O.2       1 2CT        -0.3832
      4 OAD        21.8320   12.5200   -9.2150 O.co2     1 2CT        -0.5643
      5 OAE        20.8760   14.7540   -9.6380 O.co2     1 2CT        -0.5643
      6 OAF        21.7290   13.1780  -11.6870 O.co2     1 2CT        -0.5643
      7 CAG        26.1210   15.6270  -10.3040 C.ar      1 2CT        -0.0672
      8 CAH        24.9960   16.4440  -10.1750 C.ar      1 2CT        -0.0681
      9 CAI        25.9910   14.2230  -10.3950 C.ar      1 2CT        -0.0277
     10 CAJ        21.0850    7.1970   -7.9000 C.ar      1 2CT        -0.0573
     11 CAK        23.7070   15.8770  -10.1770 C.ar      1 2CT        -0.0499
     12 CAL        21.3030    7.0790   -9.2690 C.ar      1 2CT        -0.0543
     13 CAM        22.4050    9.1920   -7.8540 C.ar      1 2CT        -0.0210
     14 CAN        25.4280   11.3100  -10.0330 C.3       1 2CT         0.1655
     15 NAO        23.4040    9.9960   -9.8000 N.am      1 2CT        -0.2364
     16 OAP        21.4360    8.4560   -5.8570 O.3       1 2CT        -0.3321
     17 OAQ        22.3290    7.9170  -11.2110 O.3       1 2CT        -0.3346
     18 OAR        24.4460   12.3170  -10.4440 O.3       1 2CT        -0.2926
     19 CAS        24.6680   10.1710   -9.3820 C.2       1 2CT         0.2320
     20 CAT        21.6280    8.2680   -7.1960 C.ar      1 2CT         0.0660
     21 CAU        22.6550    9.0680   -9.2110 C.ar      1 2CT         0.0880
     22 CAV        22.1040    8.0260   -9.9070 C.ar      1 2CT         0.1008
     23 CAW        24.6950   13.6730  -10.3660 C.ar      1 2CT         0.1159
     24 CAX        23.5780   14.4960  -10.2240 C.ar      1 2CT         0.0641
     25 PAY        21.8790   13.6880  -10.2030 P.3       1 2CT         0.0783
     26 H1         21.0391    7.4286   -4.1302 H         1 2CT         0.0573
     27 H2         22.0478    6.5700   -5.3434 H         1 2CT         0.0573
     28 H3         20.2859    6.7771   -5.6251 H         1 2CT         0.0573
     29 H4         21.3490    6.6451  -12.5328 H         1 2CT         0.0568
     30 H5         20.3479    7.2846  -11.1855 H         1 2CT         0.0568
     31 H6         21.5731    6.0101  -10.8676 H         1 2CT         0.0568
     32 H7         27.1072   16.0759  -10.3347 H         1 2CT         0.0616
     33 H8         25.1151   17.5166  -10.0731 H         1 2CT         0.0533
     34 H9         26.8643   13.5871  -10.4846 H         1 2CT         0.0552
     35 H10        20.4912    6.4535   -7.3807 H         1 2CT         0.0388
     36 H11        22.8279   16.5103  -10.1423 H         1 2CT         0.0634
     37 H12        20.8581    6.2652   -9.8301 H         1 2CT         0.0470
     38 H13        22.8265   10.0264   -7.3051 H         1 2CT         0.0392
     39 H14        26.1365   11.7477   -9.3144 H         1 2CT         0.0866
     40 H15        25.9776   10.9410  -10.9115 H         1 2CT         0.0866
     41 H16        23.0320   10.5541  -10.5417 H         1 2CT         0.2223
@<TRIPOS>BOND
     1   16    1 1  
     2   17    2 1  
     3   19    3 2  
     4   25    4 ar 
     5   25    5 ar 
     6   25    6 ar 
     7    8    7 ar 
     8    9    7 ar 
     9   11    8 ar 
    10   23    9 ar 
    11   12   10 ar 
    12   20   10 ar 
    13   24   11 ar 
    14   22   12 ar 
    15   13   20 ar 
    16   21   13 ar 
    17   18   14 1  
    18   14   19 1  
    19   19   15 am 
    20   15   21 1  
    21   20   16 1  
    22   22   17 1  
    23   23   18 1  
    24   21   22 ar 
    25   24   23 ar 
    26   24   25 1  
    27    1   26 1  
    28    1   27 1  
    29    1   28 1  
    30    2   29 1  
    31    2   30 1  
    32    2   31 1  
    33    7   32 1  
    34    8   33 1  
    35    9   34 1  
    36   10   35 1  
    37   11   36 1  
    38   12   37 1  
    39   13   38 1  
    40   14   39 1  
    41   14   40 1  
    42   15   41 1  
@<TRIPOS>SUBSTRUCTURE
     1 2CT         1

