3t0m_ligand
  -I-interpret- 

 43 44  0  0  0  0  0  0  0  0999 V2000
   21.1890    7.2430   -5.2040 C   0  0  0  0  0
   21.3420    6.9050  -11.4640 C   0  0  0  0  0
   25.2550    9.4420   -8.5610 O   0  0  0  0  0
   21.8320   12.5200   -9.2150 O   0  0  0  0  0
   20.8760   14.7540   -9.6380 O   0  0  0  0  0
   21.7290   13.1780  -11.6870 O   0  0  0  0  0
   26.1210   15.6270  -10.3040 C   0  0  0  0  0
   24.9960   16.4440  -10.1750 C   0  0  0  0  0
   25.9910   14.2230  -10.3950 C   0  0  0  0  0
   21.0850    7.1970   -7.9000 C   0  0  0  0  0
   23.7070   15.8770  -10.1770 C   0  0  0  0  0
   21.3030    7.0790   -9.2690 C   0  0  0  0  0
   22.4050    9.1920   -7.8540 C   0  0  0  0  0
   25.4280   11.3100  -10.0330 C   0  0  0  0  0
   23.4040    9.9960   -9.8000 N   0  0  0  0  0
   21.4360    8.4560   -5.8570 O   0  0  0  0  0
   22.3290    7.9170  -11.2110 O   0  0  0  0  0
   24.4460   12.3170  -10.4440 O   0  0  0  0  0
   24.6680   10.1710   -9.3820 C   0  0  0  0  0
   21.6280    8.2680   -7.1960 C   0  0  0  0  0
   22.6550    9.0680   -9.2110 C   0  0  0  0  0
   22.1040    8.0260   -9.9070 C   0  0  0  0  0
   24.6950   13.6730  -10.3660 C   0  0  0  0  0
   23.5780   14.4960  -10.2240 C   0  0  0  0  0
   21.8790   13.6880  -10.2030 P   0  0  0  0  0
   20.2940    6.7824   -5.6222 H   0  0  0  0  0
   22.0407    6.5771   -5.3429 H   0  0  0  0  0
   21.0407    7.4282   -4.1401 H   0  0  0  0  0
   21.5721    6.0189  -10.8724 H   0  0  0  0  0
   20.3575    7.2823  -11.1876 H   0  0  0  0  0
   21.3499    6.6483  -12.5233 H   0  0  0  0  0
   20.8610   15.5175  -10.2197 H   0  0  0  0  0
   21.7615   13.9271  -12.2865 H   0  0  0  0  0
   27.1127   16.0784  -10.3349 H   0  0  0  0  0
   25.1158   17.5225  -10.0726 H   0  0  0  0  0
   26.8692   13.5836  -10.4851 H   0  0  0  0  0
   20.4879    6.4494   -7.3778 H   0  0  0  0  0
   22.8230   16.5138  -10.1421 H   0  0  0  0  0
   20.8556    6.2607   -9.8332 H   0  0  0  0  0
   22.8288   10.0310   -7.3021 H   0  0  0  0  0
   26.1442   11.7397   -9.3326 H   0  0  0  0  0
   25.9887   10.9501  -10.8957 H   0  0  0  0  0
   23.0246   10.5652  -10.5566 H   0  0  0  0  0
 16  1  1  0  0  0
 17  2  1  0  0  0
 19  3  2  0  0  0
 25  4  2  0  0  0
 25  5  1  0  0  0
 25  6  1  0  0  0
  8  7  4  0  0  0
  9  7  4  0  0  0
 11  8  4  0  0  0
 23  9  4  0  0  0
 12 10  4  0  0  0
 20 10  4  0  0  0
 24 11  4  0  0  0
 22 12  4  0  0  0
 13 20  4  0  0  0
 21 13  4  0  0  0
 18 14  1  0  0  0
 14 19  1  0  0  0
 19 15  1  0  0  0
 15 21  1  0  0  0
 20 16  1  0  0  0
 22 17  1  0  0  0
 23 18  1  0  0  0
 21 22  4  0  0  0
 24 23  4  0  0  0
 24 25  1  0  0  0
  1 26  1  0  0  0
  1 27  1  0  0  0
  1 28  1  0  0  0
  2 29  1  0  0  0
  2 30  1  0  0  0
  2 31  1  0  0  0
  5 32  1  0  0  0
  6 33  1  0  0  0
  7 34  1  0  0  0
  8 35  1  0  0  0
  9 36  1  0  0  0
 10 37  1  0  0  0
 11 38  1  0  0  0
 12 39  1  0  0  0
 13 40  1  0  0  0
 14 41  1  0  0  0
 14 42  1  0  0  0
 15 43  1  0  0  0
M  END
$$$$
