4ih3_ligand
  -I-interpret- 

 17 17  0  0  0  0  0  0  0  0999 V2000
   -0.3030  -12.9480    8.4730 N   0  0  0  0  0
   -1.4830  -12.2890    8.4450 C   0  0  0  0  0
   -2.6980  -12.8970    8.7810 C   0  0  0  0  0
   -2.7340  -14.2180    9.1880 C   0  0  0  0  0
   -1.5080  -14.9050    9.2190 C   0  0  0  0  0
   -0.3280  -14.2340    8.8680 C   0  0  0  0  0
   -1.5790  -10.8050    7.9950 C   0  0  0  0  0
   -0.7970   -9.9460    8.4870 O   0  0  0  0  0
   -2.4630  -10.5740    7.1310 O   0  0  0  0  0
    0.9610  -14.9810    8.9010 C   0  0  0  0  0
    1.3440  -15.5690    9.9530 O   0  0  0  0  0
    1.5720  -14.9540    7.8130 O   0  0  0  0  0
   -3.6236  -12.3244    8.7214 H   0  0  0  0  0
   -3.6681  -14.7033    9.4712 H   0  0  0  0  0
   -1.4749  -15.9537    9.5143 H   0  0  0  0  0
   -0.2171  -10.3703    9.1236 H   0  0  0  0  0
    0.6942  -15.4362   10.6471 H   0  0  0  0  0
  1  2  4  0  0  0
  1  6  4  0  0  0
  2  3  4  0  0  0
  2  7  1  0  0  0
  3  4  4  0  0  0
  4  5  4  0  0  0
  5  6  4  0  0  0
  6 10  1  0  0  0
  7  8  1  0  0  0
  7  9  2  0  0  0
 10 11  1  0  0  0
 10 12  2  0  0  0
  3 13  1  0  0  0
  4 14  1  0  0  0
  5 15  1  0  0  0
  8 16  1  0  0  0
 11 17  1  0  0  0
M  END
$$$$
