4lys_ligand
  -I-interpret- 

 51 53  0  0  0  0  0  0  0  0999 V2000
    6.9190   54.0140    4.4070 O   0  0  0  0  0
    6.3190   52.9510    4.5460 C   0  0  0  0  0
    6.1320   52.0800    3.3640 C   0  0  0  0  0
    5.8110   52.5710    5.7260 N   0  0  0  0  0
    5.1650   51.2900    5.9480 C   0  0  0  0  0
    3.8390   51.1530    5.2440 C   0  0  0  0  0
    3.2130   52.2960    4.9170 C   0  0  0  0  0
    4.9800   51.0260    7.4440 C   0  0  0  0  0
    4.3600   49.6620    7.7590 C   0  0  0  0  0
    4.7070   48.5800    6.7510 C   0  0  0  0  0
    5.4910   47.4970    7.1330 C   0  0  0  0  0
    5.8160   46.4940    6.2290 C   0  0  0  0  0
    5.3670   46.5710    4.9350 C   0  0  0  0  0
    4.5730   47.6270    4.5510 C   0  0  0  0  0
    4.1450   47.6790    3.2550 O   0  0  0  0  0
    4.7090   48.6710    2.3970 C   0  0  0  0  0
    5.6310   45.5580    4.0590 O   0  0  0  0  0
    6.6810   45.6610    3.1560 C   0  0  0  0  0
    6.5780   45.4050    6.5560 O   0  0  0  0  0
    7.1210   45.2290    7.8550 C   0  0  0  0  0
    4.2440   48.6430    5.4520 C   0  0  0  0  0
    3.3820   49.7870    4.9890 C   0  0  0  0  0
    2.2390   49.3840    4.3870 C   0  0  0  0  0
    1.1650   50.1400    3.7880 C   0  0  0  0  0
    1.0440   51.4650    3.7110 C   0  0  0  0  0
    1.9460   52.4870    4.2180 C   0  0  0  0  0
    1.6230   53.6540    4.0170 O   0  0  0  0  0
   -0.0210   51.9230    3.0840 O   0  0  0  0  0
    5.5678   52.6189    2.6028 H   0  0  0  0  0
    7.1061   51.7979    2.9644 H   0  0  0  0  0
    5.5849   51.1841    3.6574 H   0  0  0  0  0
    5.8820   53.2174    6.5118 H   0  0  0  0  0
    5.8338   50.5447    5.5174 H   0  0  0  0  0
    3.7242   53.2110    5.2164 H   0  0  0  0  0
    4.3009   51.7878    7.8269 H   0  0  0  0  0
    5.9687   51.0472    7.9024 H   0  0  0  0  0
    3.2773   49.7863    7.7410 H   0  0  0  0  0
    4.7523   49.3430    8.7246 H   0  0  0  0  0
    5.8562   47.4342    8.1581 H   0  0  0  0  0
    4.5007   49.6611    2.8024 H   0  0  0  0  0
    5.7869   48.5230    2.3320 H   0  0  0  0  0
    4.2684   48.5836    1.4039 H   0  0  0  0  0
    6.5206   46.5251    2.5113 H   0  0  0  0  0
    7.6170   45.7817    3.7014 H   0  0  0  0  0
    6.7266   44.7567    2.5491 H   0  0  0  0  0
    7.7790   46.0659    8.0888 H   0  0  0  0  0
    6.3111   45.1874    8.5834 H   0  0  0  0  0
    7.6885   44.2990    7.8872 H   0  0  0  0  0
    2.1066   48.3028    4.3476 H   0  0  0  0  0
    0.3359   49.8902    4.4500 H   0  0  0  0  0
    1.2821   49.8770    2.7367 H   0  0  0  0  0
  1  2  2  0  0  0
  2  3  1  0  0  0
  2  4  1  0  0  0
  4  5  1  0  0  0
  5  6  1  0  0  0
  5  8  1  0  0  0
  6  7  2  0  0  0
  6 22  1  0  0  0
  7 26  1  0  0  0
  8  9  1  0  0  0
  9 10  1  0  0  0
 10 11  4  0  0  0
 10 21  4  0  0  0
 11 12  4  0  0  0
 12 13  4  0  0  0
 12 19  1  0  0  0
 13 14  4  0  0  0
 13 17  1  0  0  0
 14 15  1  0  0  0
 14 21  4  0  0  0
 15 16  1  0  0  0
 17 18  1  0  0  0
 19 20  1  0  0  0
 21 22  1  0  0  0
 22 23  2  0  0  0
 23 24  1  0  0  0
 24 25  1  0  0  0
 25 26  1  0  0  0
 25 28  2  0  0  0
 26 27  2  0  0  0
  3 29  1  0  0  0
  3 30  1  0  0  0
  3 31  1  0  0  0
  4 32  1  0  0  0
  5 33  1  0  0  0
  7 34  1  0  0  0
  8 35  1  0  0  0
  8 36  1  0  0  0
  9 37  1  0  0  0
  9 38  1  0  0  0
 11 39  1  0  0  0
 16 40  1  0  0  0
 16 41  1  0  0  0
 16 42  1  0  0  0
 18 43  1  0  0  0
 18 44  1  0  0  0
 18 45  1  0  0  0
 20 46  1  0  0  0
 20 47  1  0  0  0
 20 48  1  0  0  0
 23 49  1  0  0  0
 24 50  1  0  0  0
 24 51  1  0  0  0
M  END
$$$$
