5ngs_ligand
  -I-interpret- 

 31 33  0  0  0  0  0  0  0  0999 V2000
   -3.0640  -11.1530   14.3730 N   0  0  0  0  0
   -1.8650   -7.5200   18.1660 N   0  0  0  0  0
    2.9170   -8.9040   14.8360 C   0  0  0  0  0
    3.8300   -9.1440   16.0260 C   0  0  0  0  0
    4.3040  -10.4150   16.3170 C   0  0  0  0  0
    5.1460  -10.6230   17.3980 C   0  0  0  0  0
    5.5360   -9.5630   18.1880 C   0  0  0  0  0
    4.2370   -8.0860   16.8270 C   0  0  0  0  0
   -3.2570   -8.7590   16.9740 C   0  0  0  0  0
   -2.6940  -10.2340   15.2820 C   0  0  0  0  0
   -1.3580   -9.9740   15.4350 N   0  0  0  0  0
   -0.9600   -9.0800   16.3410 C   0  0  0  0  0
    0.7270   -8.6660   16.5280 S   0  0  0  0  0
    1.4770   -9.3510   15.0260 C   0  0  0  0  0
    5.0870   -8.2930   17.8980 C   0  0  0  0  0
   -1.9100   -8.4440   17.1520 C   0  0  0  0  0
   -3.1340   -7.3190   18.5570 C   0  0  0  0  0
   -4.0060   -8.0320   17.8590 N   0  0  0  0  0
   -3.6570   -9.6560   16.0220 N   0  0  0  0  0
   -2.3567  -11.6360   13.8190 H   0  0  0  0  0
   -4.0520  -11.3672   14.2374 H   0  0  0  0  0
    3.3200   -9.4886   14.0090 H   0  0  0  0  0
    2.8917   -7.8266   14.6728 H   0  0  0  0  0
    4.0116  -11.2573   15.6900 H   0  0  0  0  0
    5.5011  -11.6284   17.6242 H   0  0  0  0  0
    6.1970   -9.7287   19.0387 H   0  0  0  0  0
    3.8820   -7.0788   16.6090 H   0  0  0  0  0
    1.4718  -10.4374   15.1138 H   0  0  0  0  0
    0.9003   -8.9969   14.1715 H   0  0  0  0  0
    5.4022   -7.4505   18.5135 H   0  0  0  0  0
   -3.4166   -6.6415   19.3627 H   0  0  0  0  0
 10  1  1  0  0  0
 16  2  4  0  0  0
  2 17  4  0  0  0
  3  4  1  0  0  0
 14  3  1  0  0  0
  4  5  4  0  0  0
  4  8  4  0  0  0
  5  6  4  0  0  0
  6  7  4  0  0  0
 15  7  4  0  0  0
  8 15  4  0  0  0
 16  9  4  0  0  0
  9 18  4  0  0  0
  9 19  4  0  0  0
 11 10  4  0  0  0
 10 19  4  0  0  0
 12 11  4  0  0  0
 13 12  1  0  0  0
 12 16  4  0  0  0
 13 14  1  0  0  0
 17 18  4  0  0  0
  1 20  1  0  0  0
  1 21  1  0  0  0
  3 22  1  0  0  0
  3 23  1  0  0  0
  5 24  1  0  0  0
  6 25  1  0  0  0
  7 26  1  0  0  0
  8 27  1  0  0  0
 14 28  1  0  0  0
 14 29  1  0  0  0
 15 30  1  0  0  0
 17 31  1  0  0  0
M  END
$$$$
