3w07_ligand
  -I-interpret- 

 34 35  0  0  0  0  0  0  0  0999 V2000
   16.6130   40.2200   35.8650 N   0  0  0  0  0
   15.6600   39.4660   36.5320 C   0  0  0  0  0
   14.3640   39.8100   36.3480 N   0  0  0  0  0
   13.9080   40.8370   35.5420 C   0  0  0  0  0
   14.9010   41.5900   34.8970 C   0  0  0  0  0
   16.2180   41.2370   34.9620 C   0  0  0  0  0
   15.9700   38.5160   37.2280 O   0  0  0  0  0
   12.6730   41.0020   35.4750 O   0  0  0  0  0
   18.0240   39.8990   35.9710 C   0  0  0  0  0
   18.6140   39.9020   37.3700 C   0  0  0  0  0
   19.1030   41.1590   37.7370 O   0  0  0  0  0
   19.7430   38.8950   37.2210 C   0  0  0  0  0
   19.1560   37.8860   36.2720 C   0  0  0  0  0
   20.8410   39.5530   36.5940 O   0  0  0  0  0
   18.2600   38.6160   35.4180 O   0  0  0  0  0
   18.4400   36.7360   36.9580 C   0  0  0  0  0
   19.4600   35.9430   37.5150 O   0  0  0  0  0
   19.1290   34.6010   38.3520 P   0  0  0  0  0
   17.8180   34.8100   39.0860 O   0  0  0  0  0
   20.3270   34.4950   39.2570 O   0  0  0  0  0
   19.0400   33.4700   37.3670 O   0  0  0  0  0
   13.6622   39.2639   36.8476 H   0  0  0  0  0
   14.6143   42.4766   34.3314 H   0  0  0  0  0
   16.9548   41.7306   34.3283 H   0  0  0  0  0
   18.5175   40.7059   35.4293 H   0  0  0  0  0
   17.8901   39.6605   38.1483 H   0  0  0  0  0
   19.4649   41.1135   38.6250 H   0  0  0  0  0
   20.0919   38.4587   38.1570 H   0  0  0  0  0
   19.9602   37.4053   35.7149 H   0  0  0  0  0
   21.5669   38.9334   36.4900 H   0  0  0  0  0
   17.8285   36.1685   36.2565 H   0  0  0  0  0
   17.7473   37.0923   37.7204 H   0  0  0  0  0
   17.9116   35.5379   39.7049 H   0  0  0  0  0
   20.3353   35.2391   39.8635 H   0  0  0  0  0
  1  2  1  0  0  0
  1  6  1  0  0  0
  1  9  1  0  0  0
  2  3  1  0  0  0
  2  7  2  0  0  0
  3  4  1  0  0  0
  4  5  1  0  0  0
  4  8  2  0  0  0
  5  6  2  0  0  0
  9 10  1  0  0  0
  9 15  1  0  0  0
 10 11  1  0  0  0
 10 12  1  0  0  0
 12 13  1  0  0  0
 12 14  1  0  0  0
 13 15  1  0  0  0
 13 16  1  0  0  0
 16 17  1  0  0  0
 17 18  1  0  0  0
 18 19  1  0  0  0
 18 20  1  0  0  0
 18 21  2  0  0  0
  3 22  1  0  0  0
  5 23  1  0  0  0
  6 24  1  0  0  0
  9 25  1  0  0  0
 10 26  1  0  0  0
 11 27  1  0  0  0
 12 28  1  0  0  0
 13 29  1  0  0  0
 14 30  1  0  0  0
 16 31  1  0  0  0
 16 32  1  0  0  0
 19 33  1  0  0  0
 20 34  1  0  0  0
M  END
$$$$
