3msk_ligand
  -I-interpret- 

 49 51  0  0  0  0  0  0  0  0999 V2000
   16.4360  -40.4020   10.7990 C   0  0  0  0  0
   16.1270  -40.0880    9.4680 C   0  0  0  0  0
   16.2950  -38.6630    8.9940 C   0  0  0  0  0
   16.7320  -37.6900    9.8770 C   0  0  0  0  0
   17.0050  -38.0750   11.2060 C   0  0  0  0  0
   16.8850  -39.3950   11.6600 C   0  0  0  0  0
   17.5870  -36.8000   12.3120 Cl  0  0  0  0  0
   15.6600  -40.8290    8.4290 N   0  0  0  0  0
   15.5780  -39.9150    7.4020 C   0  0  0  0  0
   15.9450  -38.6290    7.6980 N   0  0  0  0  0
   15.1920  -40.2020    6.1240 N   0  0  0  0  0
   15.3910  -42.2880    8.4970 C   0  0  0  0  0
   16.5360  -43.0620    7.8420 C   0  0  0  0  0
   17.8880  -42.3610    7.8490 C   0  0  0  0  0
   18.5540  -42.6200    9.2120 C   0  0  0  0  0
   18.2180  -43.6410    9.8190 O   0  0  0  0  0
   19.4970  -41.7650    9.7100 N   0  0  0  0  0
   20.1760  -41.9210   11.0060 C   0  0  0  0  0
   19.8440  -40.5630    8.9470 C   0  0  0  0  0
   21.0020  -39.8530    9.6330 C   0  0  0  0  0
   21.1580  -38.5200    8.9190 C   0  0  0  0  0
   21.2570  -38.6860    7.4070 C   0  0  0  0  0
   20.2680  -39.6870    6.7830 C   0  0  0  0  0
   20.3040  -40.9910    7.5620 C   0  0  0  0  0
   16.3271  -41.4245   11.1607 H   0  0  0  0  0
   16.8612  -36.6569    9.5544 H   0  0  0  0  0
   17.1431  -39.6389   12.6905 H   0  0  0  0  0
   14.9365  -41.1564    5.8706 H   0  0  0  0  0
   15.1591  -39.4620    5.4228 H   0  0  0  0  0
   14.4625  -42.5065    7.9695 H   0  0  0  0  0
   15.3060  -42.5887    9.5412 H   0  0  0  0  0
   16.2614  -43.1971    6.7959 H   0  0  0  0  0
   16.6590  -43.9802    8.4163 H   0  0  0  0  0
   17.7568  -41.2903    7.6925 H   0  0  0  0  0
   18.5152  -42.7465    7.0452 H   0  0  0  0  0
   19.4357  -41.9123   11.8060 H   0  0  0  0  0
   20.7167  -42.8673   11.0199 H   0  0  0  0  0
   20.8768  -41.0985   11.1489 H   0  0  0  0  0
   18.9811  -39.9001    8.8835 H   0  0  0  0  0
   21.9172  -40.4421    9.5738 H   0  0  0  0  0
   20.8044  -39.7111   10.6955 H   0  0  0  0  0
   22.0778  -38.0524    9.2702 H   0  0  0  0  0
   20.2792  -37.9131    9.1371 H   0  0  0  0  0
   22.2566  -39.0691    7.2020 H   0  0  0  0  0
   21.0285  -37.7127    6.9727 H   0  0  0  0  0
   20.5489  -39.8759    5.7469 H   0  0  0  0  0
   19.2610  -39.2714    6.8184 H   0  0  0  0  0
   19.6747  -41.7661    7.1246 H   0  0  0  0  0
   21.2888  -41.4581    7.5656 H   0  0  0  0  0
  1  2  4  0  0  0
  1  6  4  0  0  0
  2  3  4  0  0  0
  2  8  4  0  0  0
  3  4  4  0  0  0
  3 10  4  0  0  0
  4  5  4  0  0  0
  5  6  4  0  0  0
  5  7  1  0  0  0
  8  9  4  0  0  0
  8 12  1  0  0  0
  9 10  4  0  0  0
  9 11  1  0  0  0
 12 13  1  0  0  0
 13 14  1  0  0  0
 14 15  1  0  0  0
 15 16  2  0  0  0
 15 17  1  0  0  0
 17 18  1  0  0  0
 17 19  1  0  0  0
 19 20  1  0  0  0
 19 24  1  0  0  0
 20 21  1  0  0  0
 21 22  1  0  0  0
 22 23  1  0  0  0
 23 24  1  0  0  0
  1 25  1  0  0  0
  4 26  1  0  0  0
  6 27  1  0  0  0
 11 28  1  0  0  0
 11 29  1  0  0  0
 12 30  1  0  0  0
 12 31  1  0  0  0
 13 32  1  0  0  0
 13 33  1  0  0  0
 14 34  1  0  0  0
 14 35  1  0  0  0
 18 36  1  0  0  0
 18 37  1  0  0  0
 18 38  1  0  0  0
 19 39  1  0  0  0
 20 40  1  0  0  0
 20 41  1  0  0  0
 21 42  1  0  0  0
 21 43  1  0  0  0
 22 44  1  0  0  0
 22 45  1  0  0  0
 23 46  1  0  0  0
 23 47  1  0  0  0
 24 48  1  0  0  0
 24 49  1  0  0  0
M  END
$$$$
