4os5_ligand
  -I-interpret- 

202204  0  0  0  0  0  0  0  0999 V2000
    3.7280  -19.7580  -14.1070 N   0  3  0  0  0
    2.9720  -18.5740  -13.6100 C   0  0  0  0  0
    1.4670  -18.6970  -13.7670 C   0  0  0  0  0
    0.9550  -19.7860  -14.0560 O   0  0  0  0  0
    0.7580  -17.5920  -13.5140 N   0  0  0  0  0
   -0.7020  -17.5010  -13.7660 C   0  0  0  0  0
   -1.6650  -17.1010  -12.6810 C   0  0  0  0  0
   -1.1600  -16.8240  -11.2870 C   0  0  0  0  0
   -1.1650  -18.0270  -10.3660 C   0  0  0  0  0
   -0.9830  -19.4950  -11.1200 S   0  0  0  0  0
   -2.0920  -15.7760  -10.3600 S   0  0  0  0  0
   -0.6450  -16.4340  -14.6720 C   0  0  0  0  0
    0.2410  -15.5620  -14.5790 O   0  0  0  0  0
   -1.5600  -16.4060  -15.6470 N   0  0  0  0  0
   -1.7240  -15.2280  -16.5250 C   0  0  0  0  0
   -3.1230  -14.6470  -16.3280 C   0  0  0  0  0
   -3.7040  -14.0890  -17.2450 O   0  0  0  0  0
   -1.4740  -15.5900  -17.9950 C   0  0  0  0  0
   -3.6320  -14.7560  -15.1030 N   0  0  0  0  0
   -5.0420  -14.4940  -14.7940 C   0  0  0  0  0
   -5.3230  -13.0180  -14.4860 C   0  0  0  0  0
   -6.4620  -12.5720  -14.6300 O   0  0  0  0  0
   -5.4990  -15.3810  -13.6230 C   0  0  0  0  0
   -5.2460  -16.8870  -13.8030 C   0  0  0  0  0
   -5.6740  -17.6820  -12.5840 C   0  0  0  0  0
   -5.9470  -17.4160  -15.0450 C   0  0  0  0  0
   -4.2920  -12.2700  -14.0820 N   0  0  0  0  0
   -4.4340  -10.8300  -13.8340 C   0  0  0  0  0
   -3.3660  -10.2250  -12.9330 C   0  0  0  0  0
   -2.3710  -10.8590  -12.5830 O   0  0  0  0  0
   -3.5940   -8.9800  -12.5470 N   0  0  0  0  0
   -2.7310   -8.3170  -11.5690 C   0  0  0  0  0
   -2.7180   -9.1510  -10.2690 C   0  0  0  0  0
   -3.7680   -9.5230   -9.7340 O   0  0  0  0  0
   -3.2020   -6.8870  -11.3290 C   0  0  0  0  0
   -3.1300   -5.9860  -12.5590 C   0  0  0  0  0
   -4.1370   -4.8390  -12.4640 C   0  0  0  0  0
   -5.5230   -5.2260  -12.7870 N   0  0  0  0  0
   -6.5280   -4.3630  -12.9680 C   0  0  0  0  0
   -6.3240   -3.0610  -12.8570 N   0  0  0  0  0
   -7.7430   -4.7940  -13.2590 N   0  0  0  0  0
   -1.5190   -9.4760   -9.8020 N   0  0  0  0  0
   -1.3510  -10.3750   -8.6610 C   0  0  0  0  0
   -0.5650  -11.6190   -9.0230 C   0  0  0  0  0
   -0.0440  -12.2940   -8.1430 O   0  0  0  0  0
   -0.4450  -11.8740  -10.3270 N   0  0  0  0  0
    0.1230  -13.1050  -10.8780 C   0  0  0  0  0
    1.5300  -12.9620  -11.4290 C   0  0  0  0  0
    2.1460  -13.9630  -11.8000 O   0  0  0  0  0
   -0.7510  -13.6120  -12.0290 C   0  0  0  0  0
   -2.4040  -14.1630  -11.5440 S   0  0  0  0  0
    2.0460  -11.7390  -11.5060 N   0  0  0  0  0
    3.3650  -11.5280  -12.1040 C   0  0  0  0  0
    4.4320  -12.3360  -11.3500 C   0  0  0  0  0
    4.4460  -12.3460  -10.1200 O   0  0  0  0  0
    3.7280  -10.0460  -12.0900 C   0  0  0  0  0
    2.8080   -9.1780  -12.9340 C   0  0  0  0  0
    1.6570   -8.6010  -12.1700 C   0  0  0  0  0
    1.3420   -9.0900  -11.0560 O   0  0  0  0  0
    1.0910   -7.6210  -12.6730 O   0  0  0  0  0
    5.2950  -13.0290  -12.0860 N   0  0  0  0  0
    6.5130  -13.6350  -11.5000 C   0  0  0  0  0
    6.1510  -14.6670  -10.4100 C   0  0  0  0  0
    6.7420  -14.6840   -9.3160 O   0  0  0  0  0
    7.4170  -12.5160  -10.9180 C   0  0  0  0  0
    8.8520  -12.9700  -10.6480 C   0  0  0  0  0
    9.4330  -13.6980  -11.4410 O   0  0  0  0  0
    9.4360  -12.5090   -9.5290 N   0  0  0  0  0
    5.1490  -15.4960  -10.7080 N   0  0  0  0  0
    4.6840  -16.5110   -9.7770 C   0  0  0  0  0
    5.1230  -17.8980  -10.2220 C   0  0  0  0  0
    5.4160  -18.1300  -11.3930 O   0  0  0  0  0
    3.1630  -16.4490   -9.6110 C   0  0  0  0  0
    2.7210  -15.6240   -8.4460 C   0  0  0  0  0
    2.9570  -14.2660   -8.3600 N   0  0  0  0  0
    2.0810  -15.9660   -7.3040 C   0  0  0  0  0
    2.4720  -13.8090   -7.2180 C   0  0  0  0  0
    1.9290  -14.8170   -6.5600 N   0  0  0  0  0
    5.1850  -18.8040   -9.2540 N   0  0  0  0  0
    5.5160  -20.1950   -9.5180 C   0  0  0  0  0
    4.2000  -20.9470   -9.4940 C   0  0  0  0  0
    3.5530  -21.0300   -8.4510 O   0  0  0  0  0
    6.4540  -20.7400   -8.4460 C   0  0  0  0  0
    7.3710  -21.8500   -8.9380 C   0  0  0  0  0
    7.9500  -22.6720   -7.7900 C   0  0  0  0  0
    8.0140  -21.9050   -6.5590 N   0  0  0  0  0
    8.8780  -20.9240   -6.3140 C   0  0  0  0  0
    9.7890  -20.5540   -7.2160 N   0  0  0  0  0
    8.8250  -20.2980   -5.1510 N   0  0  0  0  0
    3.7790  -21.4730  -10.6350 N   0  0  0  0  0
    2.4400  -22.0670  -10.7120 C   0  0  0  0  0
    2.4750  -23.4820  -11.2480 C   0  0  0  0  0
    2.4460  -23.7180  -12.4590 O   0  0  0  0  0
    1.5250  -21.1890  -11.5450 C   0  0  0  0  0
    0.9980  -19.6890  -10.6780 S   0  0  0  0  0
    2.4970  -24.4170  -10.3100 N   0  0  0  0  0
    2.7780  -25.8090  -10.5980 C   0  0  0  0  0
    1.4460  -26.4670  -10.9230 C   0  0  0  0  0
    1.2570  -27.0140  -12.0050 O   0  0  0  0  0
    3.4420  -26.4910   -9.3880 C   0  0  0  0  0
    4.4210  -25.7150   -8.4790 C   0  0  0  0  0
    5.4440  -24.9440   -9.3040 C   0  0  0  0  0
    3.7320  -24.8010   -7.4600 C   0  0  0  0  0
    0.4900  -26.3690   -9.9620 N   0  0  0  0  0
    4.7269  -19.6043  -13.9695 H   0  0  0  0  0
    3.4361  -20.5876  -13.5903 H   0  0  0  0  0
    3.5366  -19.8897  -15.1002 H   0  0  0  0  0
    3.2908  -17.7143  -14.1994 H   0  0  0  0  0
    3.1807  -18.4793  -12.5444 H   0  0  0  0  0
    1.2401  -16.7782  -13.1322 H   0  0  0  0  0
   -1.0942  -18.4870  -14.0151 H   0  0  0  0  0
   -2.3198  -17.9648  -12.5664 H   0  0  0  0  0
   -2.0727  -16.1476  -13.0171 H   0  0  0  0  0
   -0.1760  -16.4334  -11.5462 H   0  0  0  0  0
   -2.1398  -18.0441   -9.8787 H   0  0  0  0  0
   -0.3132  -17.9116   -9.6957 H   0  0  0  0  0
   -2.1602  -17.2185  -15.7885 H   0  0  0  0  0
   -0.9836  -14.4755  -16.2538 H   0  0  0  0  0
   -0.4579  -15.9682  -18.1070 H   0  0  0  0  0
   -2.1845  -16.3563  -18.3051 H   0  0  0  0  0
   -1.6026  -14.7018  -18.6135 H   0  0  0  0  0
   -3.0120  -15.0351  -14.3426 H   0  0  0  0  0
   -5.6143  -14.7406  -15.6883 H   0  0  0  0  0
   -6.5781  -15.2535  -13.5371 H   0  0  0  0  0
   -4.9230  -15.0694  -12.7517 H   0  0  0  0  0
   -4.1705  -17.0145  -13.9264 H   0  0  0  0  0
   -5.1115  -17.3422  -11.7144 H   0  0  0  0  0
   -6.7396  -17.5326  -12.4101 H   0  0  0  0  0
   -5.4773  -18.7404  -12.7547 H   0  0  0  0  0
   -7.0205  -17.2510  -14.9528 H   0  0  0  0  0
   -5.5716  -16.8915  -15.9237 H   0  0  0  0  0
   -5.7495  -18.4832  -15.1453 H   0  0  0  0  0
   -3.3829  -12.7109  -13.9423 H   0  0  0  0  0
   -5.3893  -10.6901  -13.3281 H   0  0  0  0  0
   -4.3487  -10.3338  -14.8008 H   0  0  0  0  0
   -4.3871   -8.4724  -12.9390 H   0  0  0  0  0
   -1.7109   -8.2538  -11.9478 H   0  0  0  0  0
   -2.5428   -6.4547  -10.5762 H   0  0  0  0  0
   -4.2494   -6.9403  -11.0318 H   0  0  0  0  0
   -3.3638   -6.5821  -13.4411 H   0  0  0  0  0
   -2.1270   -5.5640  -12.6230 H   0  0  0  0  0
   -3.8354   -4.0842  -13.1903 H   0  0  0  0  0
   -4.1320   -4.4902  -11.4313 H   0  0  0  0  0
   -5.7291   -6.2208  -12.8786 H   0  0  0  0  0
   -7.0970   -2.4100  -12.9954 H   0  0  0  0  0
   -5.3937   -2.7078  -12.6330 H   0  0  0  0  0
   -7.9217   -5.7943  -13.3477 H   0  0  0  0  0
   -0.6904   -9.0873  -10.2522 H   0  0  0  0  0
   -2.3405  -10.6850   -8.3250 H   0  0  0  0  0
   -0.8016   -9.8404   -7.8861 H   0  0  0  0  0
   -0.7706  -11.1642  -10.9832 H   0  0  0  0  0
    0.1593  -13.7952  -10.0352 H   0  0  0  0  0
   -0.2421  -14.4770  -12.4544 H   0  0  0  0  0
   -0.8857  -12.7758  -12.7151 H   0  0  0  0  0
    1.5194  -10.9430  -11.1461 H   0  0  0  0  0
    3.3295  -11.8707  -13.1381 H   0  0  0  0  0
    4.7315   -9.9542  -12.5056 H   0  0  0  0  0
    3.6433   -9.7013  -11.0594 H   0  0  0  0  0
    2.3937   -9.8099  -13.7196 H   0  0  0  0  0
    3.4008   -8.3440  -13.3096 H   0  0  0  0  0
    1.9097   -9.8402  -10.8651 H   0  0  0  0  0
    5.1134  -13.1469  -13.0828 H   0  0  0  0  0
    7.0554  -14.1633  -12.2840 H   0  0  0  0  0
    6.9858  -12.2088   -9.9652 H   0  0  0  0  0
    7.4603  -11.7136  -11.6544 H   0  0  0  0  0
   10.4000  -12.7643   -9.3145 H   0  0  0  0  0
    8.9153  -11.9038   -8.8942 H   0  0  0  0  0
    4.6949  -15.4150  -11.6178 H   0  0  0  0  0
    5.1369  -16.3074   -8.8067 H   0  0  0  0  0
    2.8110  -17.4668   -9.4428 H   0  0  0  0  0
    2.7547  -15.9888  -10.5108 H   0  0  0  0  0
    1.7476  -16.9654   -7.0247 H   0  0  0  0  0
    2.5134  -12.7745   -6.8771 H   0  0  0  0  0
    4.9944  -18.5153   -8.2945 H   0  0  0  0  0
    6.0268  -20.3047  -10.4746 H   0  0  0  0  0
    5.8334  -21.1587   -7.6538 H   0  0  0  0  0
    7.0881  -19.9156   -8.1196 H   0  0  0  0  0
    8.1994  -21.3909   -9.4774 H   0  0  0  0  0
    6.7859  -22.5172   -9.5710 H   0  0  0  0  0
    8.9622  -22.9733   -8.0598 H   0  0  0  0  0
    7.3033  -23.5337   -7.6244 H   0  0  0  0  0
    7.3444  -22.1364   -5.8251 H   0  0  0  0  0
   10.4363  -19.7944   -7.0051 H   0  0  0  0  0
    9.8381  -21.0307   -8.1164 H   0  0  0  0  0
    8.1286  -20.5695   -4.4570 H   0  0  0  0  0
    4.3836  -21.4649  -11.4565 H   0  0  0  0  0
    2.0434  -22.1251   -9.6984 H   0  0  0  0  0
    0.6316  -21.7684  -11.7778 H   0  0  0  0  0
    2.0783  -20.8817  -12.4324 H   0  0  0  0  0
    2.3083  -24.1459   -9.3450 H   0  0  0  0  0
    3.4707  -25.9012  -11.4345 H   0  0  0  0  0
    4.0558  -27.2760   -9.8297 H   0  0  0  0  0
    2.6077  -26.7363   -8.7309 H   0  0  0  0  0
    4.9408  -26.4724   -7.8923 H   0  0  0  0  0
    6.0153  -25.6417   -9.9163 H   0  0  0  0  0
    4.9275  -24.2322   -9.9480 H   0  0  0  0  0
    6.1185  -24.4085   -8.6359 H   0  0  0  0  0
    3.1266  -24.0632   -7.9866 H   0  0  0  0  0
    3.0937  -25.3996   -6.8102 H   0  0  0  0  0
    4.4874  -24.2924   -6.8610 H   0  0  0  0  0
   -0.4377  -26.7611  -10.1236 H   0  0  0  0  0
    0.7002  -25.9034   -9.0792 H   0  0  0  0  0
  1  2  1  0  0  0
  2  3  1  0  0  0
  3  4  2  0  0  0
  3  5  1  0  0  0
  5  6  1  0  0  0
  6  7  1  0  0  0
  6 12  1  0  0  0
  7  8  1  0  0  0
  8  9  1  0  0  0
  8 11  1  0  0  0
  9 10  1  0  0  0
 10 95  1  0  0  0
 11 51  1  0  0  0
 12 13  2  0  0  0
 12 14  1  0  0  0
 14 15  1  0  0  0
 15 16  1  0  0  0
 15 18  1  0  0  0
 16 17  2  0  0  0
 16 19  1  0  0  0
 19 20  1  0  0  0
 20 21  1  0  0  0
 20 23  1  0  0  0
 21 22  2  0  0  0
 21 27  1  0  0  0
 23 24  1  0  0  0
 24 25  1  0  0  0
 24 26  1  0  0  0
 27 28  1  0  0  0
 28 29  1  0  0  0
 29 30  2  0  0  0
 29 31  1  0  0  0
 31 32  1  0  0  0
 32 33  1  0  0  0
 32 35  1  0  0  0
 33 34  2  0  0  0
 33 42  1  0  0  0
 35 36  1  0  0  0
 36 37  1  0  0  0
 37 38  1  0  0  0
 38 39  1  0  0  0
 39 40  1  0  0  0
 39 41  2  0  0  0
 42 43  1  0  0  0
 43 44  1  0  0  0
 44 45  2  0  0  0
 44 46  1  0  0  0
 46 47  1  0  0  0
 47 48  1  0  0  0
 47 50  1  0  0  0
 48 49  2  0  0  0
 48 52  1  0  0  0
 50 51  1  0  0  0
 52 53  1  0  0  0
 53 54  1  0  0  0
 53 56  1  0  0  0
 54 55  2  0  0  0
 54 61  1  0  0  0
 56 57  1  0  0  0
 57 58  1  0  0  0
 58 59  1  0  0  0
 58 60  2  0  0  0
 61 62  1  0  0  0
 62 63  1  0  0  0
 62 65  1  0  0  0
 63 64  2  0  0  0
 63 69  1  0  0  0
 65 66  1  0  0  0
 66 67  2  0  0  0
 66 68  1  0  0  0
 69 70  1  0  0  0
 70 71  1  0  0  0
 70 73  1  0  0  0
 71 72  2  0  0  0
 71 79  1  0  0  0
 73 74  1  0  0  0
 74 75  4  0  0  0
 74 76  4  0  0  0
 75 77  4  0  0  0
 76 78  4  0  0  0
 77 78  4  0  0  0
 79 80  1  0  0  0
 80 81  1  0  0  0
 80 83  1  0  0  0
 81 82  2  0  0  0
 81 90  1  0  0  0
 83 84  1  0  0  0
 84 85  1  0  0  0
 85 86  1  0  0  0
 86 87  1  0  0  0
 87 88  1  0  0  0
 87 89  2  0  0  0
 90 91  1  0  0  0
 91 92  1  0  0  0
 91 94  1  0  0  0
 92 93  2  0  0  0
 92 96  1  0  0  0
 94 95  1  0  0  0
 96 97  1  0  0  0
 97 98  1  0  0  0
 97100  1  0  0  0
 98 99  2  0  0  0
 98104  1  0  0  0
100101  1  0  0  0
101102  1  0  0  0
101103  1  0  0  0
  1105  1  0  0  0
  1106  1  0  0  0
  1107  1  0  0  0
  2108  1  0  0  0
  2109  1  0  0  0
  5110  1  0  0  0
  6111  1  0  0  0
  7112  1  0  0  0
  7113  1  0  0  0
  8114  1  0  0  0
  9115  1  0  0  0
  9116  1  0  0  0
 14117  1  0  0  0
 15118  1  0  0  0
 18119  1  0  0  0
 18120  1  0  0  0
 18121  1  0  0  0
 19122  1  0  0  0
 20123  1  0  0  0
 23124  1  0  0  0
 23125  1  0  0  0
 24126  1  0  0  0
 25127  1  0  0  0
 25128  1  0  0  0
 25129  1  0  0  0
 26130  1  0  0  0
 26131  1  0  0  0
 26132  1  0  0  0
 27133  1  0  0  0
 28134  1  0  0  0
 28135  1  0  0  0
 31136  1  0  0  0
 32137  1  0  0  0
 35138  1  0  0  0
 35139  1  0  0  0
 36140  1  0  0  0
 36141  1  0  0  0
 37142  1  0  0  0
 37143  1  0  0  0
 38144  1  0  0  0
 40145  1  0  0  0
 40146  1  0  0  0
 41147  1  0  0  0
 42148  1  0  0  0
 43149  1  0  0  0
 43150  1  0  0  0
 46151  1  0  0  0
 47152  1  0  0  0
 50153  1  0  0  0
 50154  1  0  0  0
 52155  1  0  0  0
 53156  1  0  0  0
 56157  1  0  0  0
 56158  1  0  0  0
 57159  1  0  0  0
 57160  1  0  0  0
 59161  1  0  0  0
 61162  1  0  0  0
 62163  1  0  0  0
 65164  1  0  0  0
 65165  1  0  0  0
 68166  1  0  0  0
 68167  1  0  0  0
 69168  1  0  0  0
 70169  1  0  0  0
 73170  1  0  0  0
 73171  1  0  0  0
 76172  1  0  0  0
 77173  1  0  0  0
 79174  1  0  0  0
 80175  1  0  0  0
 83176  1  0  0  0
 83177  1  0  0  0
 84178  1  0  0  0
 84179  1  0  0  0
 85180  1  0  0  0
 85181  1  0  0  0
 86182  1  0  0  0
 88183  1  0  0  0
 88184  1  0  0  0
 89185  1  0  0  0
 90186  1  0  0  0
 91187  1  0  0  0
 94188  1  0  0  0
 94189  1  0  0  0
 96190  1  0  0  0
 97191  1  0  0  0
100192  1  0  0  0
100193  1  0  0  0
101194  1  0  0  0
102195  1  0  0  0
102196  1  0  0  0
102197  1  0  0  0
103198  1  0  0  0
103199  1  0  0  0
103200  1  0  0  0
104201  1  0  0  0
104202  1  0  0  0
M  END
$$$$
