### 
### Created by X-TOOL on Mon Sep 10 21:13:17 2018
### 

@<TRIPOS>MOLECULE
4os5_ligand
  204   206     1     0     0
SMALL
GAST_HUCK


@<TRIPOS>ATOM
      1 N           3.7280  -19.7580  -14.1070 N.4       1 GLY         0.2357
      2 CA          2.9720  -18.5740  -13.6100 C.3       1 GLY         0.0545
      3 C           1.4670  -18.6970  -13.7670 C.2       1 GLY         0.2236
      4 O           0.9550  -19.7860  -14.0560 O.2       1 GLY        -0.3910
      5 N           0.7580  -17.5920  -13.5140 N.am      1 81R        -0.2612
      6 CA         -0.7020  -17.5010  -13.7660 C.3       1 81R         0.1321
      7 CB         -1.6650  -17.1010  -12.6810 C.3       1 81R         0.0010
      8 CG         -1.1600  -16.8240  -11.2870 C.3       1 81R         0.0294
      9 CD1        -1.1650  -18.0270  -10.3660 C.3       1 81R         0.0168
     10 SE         -0.9830  -19.4950  -11.1200 S.3       1 81R        -0.0918
     11 SD2        -2.0920  -15.7760  -10.3600 S.3       1 81R        -0.0885
     12 C          -0.6450  -16.4340  -14.6720 C.2       1 81R         0.2039
     13 O           0.2410  -15.5620  -14.5790 O.2       1 81R        -0.3944
     14 N          -1.5600  -16.4060  -15.6470 N.am      1 ALA        -0.2640
     15 CA         -1.7240  -15.2280  -16.5250 C.3       1 ALA         0.1282
     16 C          -3.1230  -14.6470  -16.3280 C.2       1 ALA         0.2036
     17 O          -3.7040  -14.0890  -17.2450 O.2       1 ALA        -0.3944
     18 CB         -1.4740  -15.5900  -17.9950 C.3       1 ALA        -0.0244
     19 N          -3.6320  -14.7560  -15.1030 N.am      1 LEU        -0.2637
     20 CA         -5.0420  -14.4940  -14.7940 C.3       1 LEU         0.1312
     21 C          -5.3230  -13.0180  -14.4860 C.2       1 LEU         0.2037
     22 O          -6.4620  -12.5720  -14.6300 O.2       1 LEU        -0.3944
     23 CB         -5.4990  -15.3810  -13.6230 C.3       1 LEU        -0.0101
     24 CG         -5.2460  -16.8870  -13.8030 C.3       1 LEU        -0.0425
     25 CD1        -5.6740  -17.6820  -12.5840 C.3       1 LEU        -0.0625
     26 CD2        -5.9470  -17.4160  -15.0450 C.3       1 LEU        -0.0625
     27 N          -4.2920  -12.2700  -14.0820 N.am      1 GLY        -0.2664
     28 CA         -4.4340  -10.8300  -13.8340 C.3       1 GLY         0.1201
     29 C          -3.3660  -10.2250  -12.9330 C.2       1 GLY         0.2007
     30 O          -2.3710  -10.8590  -12.5830 O.2       1 GLY        -0.3947
     31 N          -3.5940   -8.9800  -12.5470 N.am      1 ARG        -0.2640
     32 CA         -2.7310   -8.3170  -11.5690 C.3       1 ARG         0.1311
     33 C          -2.7180   -9.1510  -10.2690 C.2       1 ARG         0.2037
     34 O          -3.7680   -9.5230   -9.7340 O.2       1 ARG        -0.3944
     35 CB         -3.2020   -6.8870  -11.3290 C.3       1 ARG        -0.0092
     36 CG         -3.1300   -5.9860  -12.5590 C.3       1 ARG        -0.0156
     37 CD         -4.1370   -4.8390  -12.4640 C.3       1 ARG         0.0627
     38 NE         -5.5230   -5.2260  -12.7870 N.pl3     1 ARG        -0.2723
     39 CZ         -6.5280   -4.3630  -12.9680 C.cat     1 ARG         0.2882
     40 NH1        -6.3240   -3.0610  -12.8570 N.pl3     1 ARG        -0.2849
     41 NH2        -7.7430   -4.7940  -13.2590 N.pl3     1 ARG        -0.2849
     42 N          -1.5190   -9.4760   -9.8020 N.am      1 GLY        -0.2664
     43 CA         -1.3510  -10.3750   -8.6610 C.3       1 GLY         0.1201
     44 C          -0.5650  -11.6190   -9.0230 C.2       1 GLY         0.2008
     45 O          -0.0440  -12.2940   -8.1430 O.2       1 GLY        -0.3947
     46 N          -0.4450  -11.8740  -10.3270 N.am      1 CYS        -0.2631
     47 CA          0.1230  -13.1050  -10.8780 C.3       1 CYS         0.1406
     48 C           1.5300  -12.9620  -11.4290 C.2       1 CYS         0.2047
     49 O           2.1460  -13.9630  -11.8000 O.2       1 CYS        -0.3944
     50 CB         -0.7510  -13.6120  -12.0290 C.3       1 CYS         0.0443
     51 SG         -2.4040  -14.1630  -11.5440 S.3       1 CYS        -0.0881
     52 N           2.0460  -11.7390  -11.5060 N.am      1 GLU        -0.2636
     53 CA          3.3650  -11.5280  -12.1040 C.3       1 GLU         0.1325
     54 C           4.4320  -12.3360  -11.3500 C.2       1 GLU         0.2041
     55 O           4.4460  -12.3460  -10.1200 O.2       1 GLU        -0.3944
     56 CB          3.7280  -10.0460  -12.0900 C.3       1 GLU        -0.0008
     57 CG          2.8080   -9.1780  -12.9340 C.3       1 GLU         0.0044
     58 CD          1.6570   -8.6010  -12.1700 C.2       1 GLU         0.0350
     59 OE1         1.3420   -9.0900  -11.0560 O.co2     1 GLU        -0.5690
     60 OE2         1.0910   -7.6210  -12.6730 O.co2     1 GLU        -0.5690
     61 N           5.2950  -13.0290  -12.0860 N.am      1 ASN        -0.2616
     62 CA          6.5130  -13.6350  -11.5000 C.3       1 ASN         0.1476
     63 C           6.1510  -14.6670  -10.4100 C.2       1 ASN         0.2063
     64 O           6.7420  -14.6840   -9.3160 O.2       1 ASN        -0.3942
     65 CB          7.4170  -12.5160  -10.9180 C.3       1 ASN         0.0773
     66 CG          8.8520  -12.9700  -10.6480 C.2       1 ASN         0.1780
     67 OD1         9.4330  -13.6980  -11.4410 O.2       1 ASN        -0.3970
     68 ND2         9.4360  -12.5090   -9.5290 N.am      1 ASN        -0.3007
     69 N           5.1490  -15.4960  -10.7080 N.am      1 HIS        -0.2623
     70 CA          4.6840  -16.5110   -9.7770 C.3       1 HIS         0.1369
     71 C           5.1230  -17.8980  -10.2220 C.2       1 HIS         0.2054
     72 O           5.4160  -18.1300  -11.3930 O.2       1 HIS        -0.3942
     73 CB          3.1630  -16.4490   -9.6110 C.3       1 HIS         0.0145
     74 CG          2.7210  -15.6240   -8.4460 C.2       1 HIS        -0.0027
     75 ND1         2.9570  -14.2660   -8.3600 N.2       1 HIS        -0.3252
     76 CD2         2.0810  -15.9660   -7.3040 C.2       1 HIS         0.0291
     77 CE1         2.4720  -13.8090   -7.2180 C.2       1 HIS         0.0907
     78 NE2         1.9290  -14.8170   -6.5600 N.pl3     1 HIS        -0.2752
     79 N           5.1850  -18.8040   -9.2540 N.am      1 ARG        -0.2636
     80 CA          5.5160  -20.1950   -9.5180 C.3       1 ARG         0.1311
     81 C           4.2000  -20.9470   -9.4940 C.2       1 ARG         0.2039
     82 O           3.5530  -21.0300   -8.4510 O.2       1 ARG        -0.3944
     83 CB          6.4540  -20.7400   -8.4460 C.3       1 ARG        -0.0092
     84 CG          7.3710  -21.8500   -8.9380 C.3       1 ARG        -0.0156
     85 CD          7.9500  -22.6720   -7.7900 C.3       1 ARG         0.0627
     86 NE          8.0140  -21.9050   -6.5590 N.pl3     1 ARG        -0.2723
     87 CZ          8.8780  -20.9240   -6.3140 C.cat     1 ARG         0.2882
     88 NH1         9.7890  -20.5540   -7.2160 N.pl3     1 ARG        -0.2849
     89 NH2         8.8250  -20.2980   -5.1510 N.pl3     1 ARG        -0.2849
     90 N           3.7790  -21.4730  -10.6350 N.am      1 CYS        -0.2629
     91 CA          2.4400  -22.0670  -10.7120 C.3       1 CYS         0.1406
     92 C           2.4750  -23.4820  -11.2480 C.2       1 CYS         0.2047
     93 O           2.4460  -23.7180  -12.4590 O.2       1 CYS        -0.3944
     94 CB          1.5250  -21.1890  -11.5450 C.3       1 CYS         0.0443
     95 SG          0.9980  -19.6890  -10.6780 S.3       1 CYS        -0.0883
     96 N           2.4970  -24.4170  -10.3100 N.am      1 LEU        -0.2637
     97 CA          2.7780  -25.8090  -10.5980 C.3       1 LEU         0.1309
     98 C           1.4460  -26.4670  -10.9230 C.2       1 LEU         0.1992
     99 O           1.2570  -27.0140  -12.0050 O.2       1 LEU        -0.3947
    100 CB          3.4420  -26.4910   -9.3880 C.3       1 LEU        -0.0101
    101 CG          4.4210  -25.7150   -8.4790 C.3       1 LEU        -0.0425
    102 CD1         5.4440  -24.9440   -9.3040 C.3       1 LEU        -0.0625
    103 CD2         3.7320  -24.8010   -7.4600 C.3       1 LEU        -0.0625
    104 N           0.4900  -26.3690   -9.9620 N.am      1 NH2        -0.2990
    105 H           4.7154  -19.6072  -13.9716 H         1 GLY         0.2012
    106 H           3.5397  -19.8891  -15.0885 H         1 GLY         0.2012
    107 H           3.4404  -20.5786  -13.5971 H         1 GLY         0.2012
    108 H           3.3076  -17.6885  -14.1696 H         1 GLY         0.1061
    109 H           3.1993  -18.4408  -12.5420 H         1 GLY         0.1061
    110 H           1.2307  -16.7942  -13.1397 H         1 81R         0.1884
    111 H          -1.0646  -18.4357  -14.2186 H         1 81R         0.0800
    112 H          -2.4021  -17.9130  -12.5958 H         1 81R         0.0323
    113 H          -2.1671  -16.1845  -13.0244 H         1 81R         0.0323
    114 H          -0.1392  -16.4270  -11.3884 H         1 81R         0.0431
    115 H          -2.1233  -18.0383   -9.8260 H         1 81R         0.0396
    116 H          -0.3405  -17.9090   -9.6474 H         1 81R         0.0396
    117 H          -2.1485  -17.2025  -15.7857 H         1 ALA         0.1883
    118 H          -0.9857  -14.4677  -16.2304 H         1 ALA         0.0797
    119 H          -1.6035  -14.6943  -18.6203 H         1 ALA         0.0277
    120 H          -2.1905  -16.3632  -18.3092 H         1 ALA         0.0277
    121 H          -0.4488  -15.9718  -18.1094 H         1 ALA         0.0277
    122 H          -3.0242  -15.0296  -14.3575 H         1 LEU         0.1883
    123 H          -5.6332  -14.7663  -15.6807 H         1 LEU         0.0800
    124 H          -6.5801  -15.2320  -13.4853 H         1 LEU         0.0315
    125 H          -4.9654  -15.0523  -12.7190 H         1 LEU         0.0315
    126 H          -4.1635  -17.0301  -13.9363 H         1 LEU         0.0298
    127 H          -5.4760  -18.7504  -12.7550 H         1 LEU         0.0232
    128 H          -6.7493  -17.5321  -12.4075 H         1 LEU         0.0232
    129 H          -5.1070  -17.3401  -11.7056 H         1 LEU         0.0232
    130 H          -5.6293  -16.8326  -15.9218 H         1 LEU         0.0232
    131 H          -7.0359  -17.3244  -14.9186 H         1 LEU         0.0232
    132 H          -5.6827  -18.4735  -15.1929 H         1 LEU         0.0232
    133 H          -3.4007  -12.7023  -13.9451 H         1 GLY         0.1881
    134 H          -5.4138  -10.6594  -13.3641 H         1 GLY         0.0763
    135 H          -4.3969  -10.3113  -14.8033 H         1 GLY         0.0763
    136 H          -4.3716   -8.4824  -12.9314 H         1 ARG         0.1883
    137 H          -1.7068   -8.2782  -11.9683 H         1 ARG         0.0800
    138 H          -2.5739   -6.4452  -10.5414 H         1 ARG         0.0313
    139 H          -4.2473   -6.9214  -10.9882 H         1 ARG         0.0313
    140 H          -3.3510   -6.5841  -13.4553 H         1 ARG         0.0301
    141 H          -2.1159   -5.5674  -12.6383 H         1 ARG         0.0301
    142 H          -3.8272   -4.0486  -13.1634 H         1 ARG         0.0689
    143 H          -4.1184   -4.4472  -11.4363 H         1 ARG         0.0689
    144 H          -5.7311   -6.2305  -12.8795 H         1 ARG         0.2642
    145 H          -7.1042   -2.4036  -12.9982 H         1 ARG         0.2615
    146 H          -5.3849   -2.7044  -12.6294 H         1 ARG         0.2615
    147 H          -7.9231   -5.8040  -13.3500 H         1 ARG         0.2615
    148 H          -8.5098   -4.1199  -13.3948 H         1 ARG         0.2615
    149 H          -0.7066   -9.0949  -10.2434 H         1 GLY         0.1881
    150 H          -2.3447  -10.6769   -8.2986 H         1 GLY         0.0763
    151 H          -0.8170   -9.8385   -7.8629 H         1 GLY         0.0763
    152 H          -0.7642  -11.1781  -10.9703 H         1 CYS         0.1884
    153 H           0.1397  -13.8562  -10.0746 H         1 CYS         0.0808
    154 H          -0.2339  -14.4591  -12.5033 H         1 CYS         0.0432
    155 H          -0.8630  -12.7960  -12.7581 H         1 CYS         0.0432
    156 H           1.5297  -10.9586  -11.1532 H         1 GLU         0.1883
    157 H           3.3350  -11.8728  -13.1481 H         1 GLU         0.0801
    158 H           4.7537   -9.9371  -12.4722 H         1 GLU         0.0330
    159 H           3.6841   -9.6885  -11.0507 H         1 GLU         0.0330
    160 H           2.4075   -9.7917  -13.7543 H         1 GLU         0.0433
    161 H           3.3986   -8.3489  -13.3509 H         1 GLU         0.0433
    162 H           5.1169  -13.1446  -13.0632 H         1 ASN         0.1885
    163 H           7.0649  -14.1538  -12.2977 H         1 ASN         0.0826
    164 H           6.9772  -12.1704   -9.9709 H         1 ASN         0.0551
    165 H           7.4447  -11.6824  -11.6352 H         1 ASN         0.0551
    166 H          10.3737  -12.7769   -9.3076 H         1 ASN         0.1814
    167 H           8.9329  -11.8981   -8.9177 H         1 ASN         0.1814
    168 H           4.7038  -15.4166  -11.5999 H         1 HIS         0.1885
    169 H           5.1410  -16.3077   -8.7973 H         1 HIS         0.0817
    170 H           2.7861  -17.4733   -9.4745 H         1 HIS         0.0420
    171 H           2.7307  -16.0181  -10.5261 H         1 HIS         0.0420
    172 H           1.7479  -16.9645   -7.0249 H         1 HIS         0.0729
    173 H           2.5134  -12.7755   -6.8774 H         1 HIS         0.1199
    174 H           1.4676  -14.7542   -5.6413 H         1 HIS         0.2361
    175 H           4.9981  -18.5209   -8.3133 H         1 ARG         0.1883
    176 H           5.9936  -20.2917  -10.5041 H         1 ARG         0.0800
    177 H           5.8443  -21.1347   -7.6199 H         1 ARG         0.0313
    178 H           7.0782  -19.9123   -8.0781 H         1 ARG         0.0313
    179 H           8.1997  -21.3998   -9.5042 H         1 ARG         0.0301
    180 H           6.7967  -22.5177   -9.5970 H         1 ARG         0.0301
    181 H           8.9655  -22.9967   -8.0608 H         1 ARG         0.0689
    182 H           7.3140  -23.5546   -7.6273 H         1 ARG         0.0689
    183 H           7.3379  -22.1387   -5.8179 H         1 ARG         0.2642
    184 H          10.4465  -19.7910   -7.0008 H         1 ARG         0.2615
    185 H           9.8347  -21.0314   -8.1275 H         1 ARG         0.2615
    186 H           8.1255  -20.5760   -4.4479 H         1 ARG         0.2615
    187 H           9.4832  -19.5322   -4.9479 H         1 ARG         0.2615
    188 H           4.3717  -21.4650  -11.4404 H         1 CYS         0.1884
    189 H           2.0324  -22.1087   -9.6912 H         1 CYS         0.0808
    190 H           0.6308  -21.7706  -11.8136 H         1 CYS         0.0432
    191 H           2.0597  -20.8949  -12.4602 H         1 CYS         0.0432
    192 H           2.3120  -24.1512   -9.3639 H         1 LEU         0.1883
    193 H           3.4512  -25.8820  -11.4649 H         1 LEU         0.0800
    194 H           3.9977  -27.3550   -9.7813 H         1 LEU         0.0315
    195 H           2.6259  -26.8438   -8.7403 H         1 LEU         0.0315
    196 H           4.9745  -26.4686   -7.8997 H         1 LEU         0.0298
    197 H           6.1253  -24.4031   -8.6308 H         1 LEU         0.0232
    198 H           4.9240  -24.2252   -9.9543 H         1 LEU         0.0232
    199 H           6.0213  -25.6470   -9.9224 H         1 LEU         0.0232
    200 H           3.0008  -25.3836   -6.8805 H         1 LEU         0.0232
    201 H           3.2155  -23.9863   -7.9886 H         1 LEU         0.0232
    202 H           4.4851  -24.3771   -6.7795 H         1 LEU         0.0232
    203 H          -0.4103  -26.7789  -10.1087 H         1 NH2         0.1815
    204 H           0.6868  -25.8870   -9.1082 H         1 NH2         0.1815
@<TRIPOS>BOND
     1    1    2 1  
     2    2    3 1  
     3    3    4 2  
     4    3    5 am 
     5    5    6 1  
     6    6    7 1  
     7    6   12 1  
     8    7    8 1  
     9    8    9 1  
    10    8   11 1  
    11    9   10 1  
    12   10   95 1  
    13   11   51 1  
    14   12   13 2  
    15   12   14 am 
    16   14   15 1  
    17   15   16 1  
    18   15   18 1  
    19   16   17 2  
    20   16   19 am 
    21   19   20 1  
    22   20   21 1  
    23   20   23 1  
    24   21   22 2  
    25   21   27 am 
    26   23   24 1  
    27   24   25 1  
    28   24   26 1  
    29   27   28 1  
    30   28   29 1  
    31   29   30 2  
    32   29   31 am 
    33   31   32 1  
    34   32   33 1  
    35   32   35 1  
    36   33   34 2  
    37   33   42 am 
    38   35   36 1  
    39   36   37 1  
    40   37   38 1  
    41   38   39 ar 
    42   39   40 ar 
    43   39   41 ar 
    44   42   43 1  
    45   43   44 1  
    46   44   45 2  
    47   44   46 am 
    48   46   47 1  
    49   47   48 1  
    50   47   50 1  
    51   48   49 2  
    52   48   52 am 
    53   50   51 1  
    54   52   53 1  
    55   53   54 1  
    56   53   56 1  
    57   54   55 2  
    58   54   61 am 
    59   56   57 1  
    60   57   58 1  
    61   58   59 ar 
    62   58   60 ar 
    63   61   62 1  
    64   62   63 1  
    65   62   65 1  
    66   63   64 2  
    67   63   69 am 
    68   65   66 1  
    69   66   67 2  
    70   66   68 am 
    71   69   70 1  
    72   70   71 1  
    73   70   73 1  
    74   71   72 2  
    75   71   79 am 
    76   73   74 1  
    77   74   75 1  
    78   74   76 2  
    79   75   77 2  
    80   76   78 1  
    81   77   78 1  
    82   79   80 1  
    83   80   81 1  
    84   80   83 1  
    85   81   82 2  
    86   81   90 am 
    87   83   84 1  
    88   84   85 1  
    89   85   86 1  
    90   86   87 ar 
    91   87   88 ar 
    92   87   89 ar 
    93   90   91 1  
    94   91   92 1  
    95   91   94 1  
    96   92   93 2  
    97   92   96 am 
    98   94   95 1  
    99   96   97 1  
   100   97   98 1  
   101   97  100 1  
   102   98   99 2  
   103   98  104 am 
   104  100  101 1  
   105  101  102 1  
   106  101  103 1  
   107    1  105 1  
   108    1  106 1  
   109    1  107 1  
   110    2  108 1  
   111    2  109 1  
   112    5  110 1  
   113    6  111 1  
   114    7  112 1  
   115    7  113 1  
   116    8  114 1  
   117    9  115 1  
   118    9  116 1  
   119   14  117 1  
   120   15  118 1  
   121   18  119 1  
   122   18  120 1  
   123   18  121 1  
   124   19  122 1  
   125   20  123 1  
   126   23  124 1  
   127   23  125 1  
   128   24  126 1  
   129   25  127 1  
   130   25  128 1  
   131   25  129 1  
   132   26  130 1  
   133   26  131 1  
   134   26  132 1  
   135   27  133 1  
   136   28  134 1  
   137   28  135 1  
   138   31  136 1  
   139   32  137 1  
   140   35  138 1  
   141   35  139 1  
   142   36  140 1  
   143   36  141 1  
   144   37  142 1  
   145   37  143 1  
   146   38  144 1  
   147   40  145 1  
   148   40  146 1  
   149   41  147 1  
   150   41  148 1  
   151   42  149 1  
   152   43  150 1  
   153   43  151 1  
   154   46  152 1  
   155   47  153 1  
   156   50  154 1  
   157   50  155 1  
   158   52  156 1  
   159   53  157 1  
   160   56  158 1  
   161   56  159 1  
   162   57  160 1  
   163   57  161 1  
   164   61  162 1  
   165   62  163 1  
   166   65  164 1  
   167   65  165 1  
   168   68  166 1  
   169   68  167 1  
   170   69  168 1  
   171   70  169 1  
   172   73  170 1  
   173   73  171 1  
   174   76  172 1  
   175   77  173 1  
   176   78  174 1  
   177   79  175 1  
   178   80  176 1  
   179   83  177 1  
   180   83  178 1  
   181   84  179 1  
   182   84  180 1  
   183   85  181 1  
   184   85  182 1  
   185   86  183 1  
   186   88  184 1  
   187   88  185 1  
   188   89  186 1  
   189   89  187 1  
   190   90  188 1  
   191   91  189 1  
   192   94  190 1  
   193   94  191 1  
   194   96  192 1  
   195   97  193 1  
   196  100  194 1  
   197  100  195 1  
   198  101  196 1  
   199  102  197 1  
   200  102  198 1  
   201  102  199 1  
   202  103  200 1  
   203  103  201 1  
   204  103  202 1  
   205  104  203 1  
   206  104  204 1  
@<TRIPOS>SUBSTRUCTURE
     1 GLY         1

