6sde_ligand
  -I-interpret- 

 41 45  0  0  0  0  0  0  0  0999 V2000
   20.5380   31.2150   54.9570 C   0  0  0  0  0
   19.5540   31.9710   55.8070 C   0  0  0  0  0
   18.1930   31.4920   56.0800 C   0  0  0  0  0
   17.3180   32.2040   56.8640 C   0  0  0  0  0
   17.7430   33.4380   57.4280 C   0  0  0  0  0
   19.0350   33.8680   57.1570 N   0  0  0  0  0
   19.8930   33.1460   56.3710 C   0  0  0  0  0
   19.2120   35.0710   57.8070 C   0  0  0  0  0
   18.0400   35.3280   58.4360 C   0  0  0  0  0
   17.1240   34.3230   58.2060 N   0  0  0  0  0
   20.0450   30.9260   53.5420 C   0  0  0  0  0
   20.9050   29.9690   55.6580 N   0  0  0  0  0
   21.9270   29.6850   56.5070 C   0  0  0  0  0
   21.8290   28.3370   56.9030 C   0  0  0  0  0
   20.6970   27.8890   56.2290 N   0  0  0  0  0
   20.1630   28.8350   55.5160 N   0  0  0  0  0
   22.7580   27.8630   57.7490 N   0  0  0  0  0
   22.8840   30.5290   56.9180 N   0  0  0  0  0
   23.7980   30.0220   57.7600 C   0  0  0  0  0
   23.7260   28.6920   58.1680 C   0  0  0  0  0
   24.8650   30.9400   58.2200 C   0  0  0  0  0
   25.0230   32.2880   57.8620 C   0  0  0  0  0
   26.0800   32.8390   58.4380 N   0  0  0  0  0
   26.6340   31.8170   59.1990 N   0  0  0  0  0
   25.9140   30.6960   59.0720 C   0  0  0  0  0
   27.8340   32.0210   60.0050 C   0  0  0  0  0
   21.4121   31.8519   54.8217 H   0  0  0  0  0
   17.8680   30.5452   55.6486 H   0  0  0  0  0
   16.3121   31.8282   57.0510 H   0  0  0  0  0
   20.8940   33.5395   56.1941 H   0  0  0  0  0
   20.1103   35.6884   57.8134 H   0  0  0  0  0
   17.8466   36.2121   59.0435 H   0  0  0  0  0
   20.8340   30.4281   52.9783 H   0  0  0  0  0
   19.1677   30.2808   53.5890 H   0  0  0  0  0
   19.7824   31.8634   53.0516 H   0  0  0  0  0
   24.4838   28.3110   58.8526 H   0  0  0  0  0
   24.3524   32.8200   57.1872 H   0  0  0  0  0
   26.1253   29.7464   59.5636 H   0  0  0  0  0
   28.6584   32.3201   59.3577 H   0  0  0  0  0
   27.6469   32.8023   60.7416 H   0  0  0  0  0
   28.0896   31.0924   60.5153 H   0  0  0  0  0
  1  2  1  0  0  0
  1 11  1  0  0  0
  1 12  1  0  0  0
  2  3  4  0  0  0
  2  7  4  0  0  0
  3  4  4  0  0  0
  4  5  4  0  0  0
  5  6  4  0  0  0
  5 10  4  0  0  0
  6  7  4  0  0  0
  6  8  4  0  0  0
  8  9  4  0  0  0
  9 10  4  0  0  0
 12 13  4  0  0  0
 12 16  4  0  0  0
 13 14  4  0  0  0
 13 18  4  0  0  0
 14 15  4  0  0  0
 14 17  4  0  0  0
 15 16  4  0  0  0
 17 20  4  0  0  0
 18 19  4  0  0  0
 19 20  4  0  0  0
 19 21  1  0  0  0
 21 22  4  0  0  0
 21 25  4  0  0  0
 22 23  4  0  0  0
 23 24  4  0  0  0
 24 25  4  0  0  0
 24 26  1  0  0  0
  1 27  1  0  0  0
  3 28  1  0  0  0
  4 29  1  0  0  0
  7 30  1  0  0  0
  8 31  1  0  0  0
  9 32  1  0  0  0
 11 33  1  0  0  0
 11 34  1  0  0  0
 11 35  1  0  0  0
 20 36  1  0  0  0
 22 37  1  0  0  0
 25 38  1  0  0  0
 26 39  1  0  0  0
 26 40  1  0  0  0
 26 41  1  0  0  0
M  END
$$$$
