1ody_ligand
  -I-interpret- 

116119  0  0  0  0  0  0  0  0999 V2000
  -12.2680   12.0100   36.8600 C   0  0  0  0  0
  -11.8930   12.1010   35.3620 C   0  0  0  0  0
  -14.0120   11.2390   32.4260 C   0  0  0  0  0
  -15.2040   11.0480   33.1320 C   0  0  0  0  0
  -15.7010    9.7630   33.3620 C   0  0  0  0  0
  -15.0420    8.6280   32.8680 C   0  0  0  0  0
  -13.3550   10.1170   31.9280 C   0  0  0  0  0
  -13.8450    8.8080   32.1530 C   0  0  0  0  0
  -12.1960   10.2580   31.1770 C   0  0  0  0  0
  -13.1800    7.6870   31.6490 C   0  0  0  0  0
  -11.5530    9.1200   30.6970 C   0  0  0  0  0
  -12.0120    7.8480   30.9320 C   0  0  0  0  0
  -10.1890   15.5120   31.7260 C   0  0  0  0  0
  -10.0690   15.4200   30.2400 C   0  0  0  0  0
   -8.3520   17.0970   32.1000 C   0  0  0  0  0
  -10.7240   16.2430   29.4300 N   0  0  0  0  0
  -10.5930   15.9960   27.9990 C   0  0  0  0  0
  -13.8330   13.9280   28.6550 C   0  0  0  0  0
  -12.0430   12.6320   27.6600 C   0  0  0  0  0
  -10.2510   17.2570   27.1470 C   0  0  0  0  0
   -8.7700   17.3840   26.7540 C   0  0  0  0  0
   -8.2670   16.5330   25.5880 C   0  0  0  0  0
  -10.8840   11.5100   34.9730 O   0  0  0  0  0
  -12.7330   12.8620   34.6340 N   0  0  0  0  0
  -12.4490   13.0650   33.2380 C   0  0  0  0  0
  -13.5400   12.6390   32.2510 C   0  0  0  0  0
  -11.9660   14.4570   32.9100 C   0  0  0  0  0
  -12.3550   15.5880   33.1120 O   0  0  0  0  0
  -10.8220   14.3290   32.2390 N   0  0  0  0  0
   -9.3540   14.5530   29.8000 O   0  0  0  0  0
   -8.8630   15.7340   32.4870 C   0  0  0  0  0
   -9.1530   15.6940   33.9620 C   0  0  0  0  0
  -11.9030   15.2320   27.6080 C   0  0  0  0  0
  -12.3630   13.9440   28.3320 C   0  0  0  0  0
  -10.6590   18.4650   27.7340 O   0  0  0  0  0
   -7.9150   15.3530   25.6560 O   0  0  0  0  0
   -8.1860   17.0860   24.3750 N   0  0  0  0  0
   -7.6920   16.4950   23.1670 C   0  0  0  0  0
   -8.7970   15.8350   22.2930 C   0  0  0  0  0
   -9.8170   15.0860   23.1170 C   0  0  0  0  0
   -6.8950   17.4910   22.3410 C   0  0  0  0  0
   -7.3000   18.6310   22.0000 O   0  0  0  0  0
   -5.7040   17.0100   21.9170 N   0  0  0  0  0
   -4.8100   17.8080   21.1030 C   0  0  0  0  0
   -3.8720   18.7200   21.9460 C   0  0  0  0  0
   -3.2710   17.8900   23.0970 C   0  0  0  0  0
   -2.1820   17.0640   22.8050 C   0  0  0  0  0
   -1.6580   16.2200   23.7910 C   0  0  0  0  0
   -2.1820   16.2120   25.0730 C   0  0  0  0  0
   -3.8380   17.8700   24.3910 C   0  0  0  0  0
   -3.2620   17.0340   25.4140 C   0  0  0  0  0
   -4.9160   18.6860   24.7440 C   0  0  0  0  0
   -3.8040   17.0550   26.7070 C   0  0  0  0  0
   -5.4270   18.6830   26.0500 C   0  0  0  0  0
   -4.8990   17.8690   27.0190 C   0  0  0  0  0
   -4.2980   16.9850   19.9730 C   0  0  0  0  0
   -4.0630   15.7620   20.0710 O   0  0  0  0  0
   -4.1180   17.5210   18.7800 N   0  0  0  0  0
  -12.4336   10.9668   37.1290 H   0  0  0  0  0
  -11.4557   12.4173   37.4620 H   0  0  0  0  0
  -13.1780   12.5821   37.0408 H   0  0  0  0  0
  -15.7519   11.9123   33.5073 H   0  0  0  0  0
  -16.6190    9.6401   33.9367 H   0  0  0  0  0
  -15.4481    7.6302   33.0344 H   0  0  0  0  0
  -11.7937   11.2487   30.9654 H   0  0  0  0  0
  -13.5825    6.6889   31.8216 H   0  0  0  0  0
  -10.6443    9.2449   30.1082 H   0  0  0  0  0
  -11.4647    6.9821   30.5596 H   0  0  0  0  0
  -10.7889   16.4051   31.9008 H   0  0  0  0  0
   -8.1874   17.1296   31.0230 H   0  0  0  0  0
   -9.0868   17.8520   32.3795 H   0  0  0  0  0
   -7.4133   17.2924   32.6184 H   0  0  0  0  0
  -11.2909   17.0103   29.7909 H   0  0  0  0  0
   -9.7172   15.3891   27.7692 H   0  0  0  0  0
  -14.0701   14.7703   29.3049 H   0  0  0  0  0
  -14.4074   14.0067   27.7320 H   0  0  0  0  0
  -14.0823   12.9954   29.1612 H   0  0  0  0  0
  -12.5160   12.6031   26.6784 H   0  0  0  0  0
  -10.9630   12.5369   27.5473 H   0  0  0  0  0
  -12.4195   11.8112   28.2705 H   0  0  0  0  0
  -10.8309   17.0846   26.2403 H   0  0  0  0  0
   -8.2078   17.0462   27.6246 H   0  0  0  0  0
   -8.6409   18.4186   26.4362 H   0  0  0  0  0
  -13.5548   13.2863   35.0642 H   0  0  0  0  0
  -11.6277   12.3645   33.0870 H   0  0  0  0  0
  -13.1130   12.7106   31.2507 H   0  0  0  0  0
  -14.3976   13.2900   32.4207 H   0  0  0  0  0
  -10.4044   13.4100   32.0926 H   0  0  0  0  0
   -8.1231   14.9705   32.2466 H   0  0  0  0  0
   -9.8647   16.4806   34.2125 H   0  0  0  0  0
   -9.5758   14.7235   34.2217 H   0  0  0  0  0
   -8.2279   15.8490   34.5172 H   0  0  0  0  0
  -11.7025   14.8919   26.5920 H   0  0  0  0  0
  -12.6912   15.9476   27.8419 H   0  0  0  0  0
  -11.7581   14.0063   29.2366 H   0  0  0  0  0
  -10.4186   19.1958   27.1597 H   0  0  0  0  0
   -8.5167   18.0479   24.2993 H   0  0  0  0  0
   -7.0306   15.6926   23.4938 H   0  0  0  0  0
   -8.3152   15.1211   21.6249 H   0  0  0  0  0
   -9.3168   16.6271   21.7540 H   0  0  0  0  0
   -9.3186   14.2972   23.6804 H   0  0  0  0  0
  -10.3023   15.7761   23.8072 H   0  0  0  0  0
  -10.5638   14.6460   22.4561 H   0  0  0  0  0
   -5.4288   16.0628   22.1766 H   0  0  0  0  0
   -5.3203   18.6098   20.5694 H   0  0  0  0  0
   -4.4398   19.5568   22.3527 H   0  0  0  0  0
   -3.0723   19.1089   21.3156 H   0  0  0  0  0
   -1.7404   17.0771   21.8086 H   0  0  0  0  0
   -0.8259   15.5598   23.5465 H   0  0  0  0  0
   -1.7470   15.5561   25.8271 H   0  0  0  0  0
   -5.3666   19.3347   23.9929 H   0  0  0  0  0
   -3.3652   16.4268   27.4822 H   0  0  0  0  0
   -6.2599   19.3403   26.2996 H   0  0  0  0  0
   -5.3274   17.8560   28.0212 H   0  0  0  0  0
   -3.8037   16.9407   18.0023 H   0  0  0  0  0
   -4.2933   18.5155   18.6360 H   0  0  0  0  0
  1  2  1  0  0  0
  2 24  1  0  0  0
  2 23  2  0  0  0
 24 25  1  0  0  0
 25 27  1  0  0  0
 25 26  1  0  0  0
 26  3  1  0  0  0
  3  7  4  0  0  0
  3  4  4  0  0  0
  4  5  4  0  0  0
  5  6  4  0  0  0
  6  8  4  0  0  0
  8 10  4  0  0  0
  8  7  4  0  0  0
  7  9  4  0  0  0
  9 11  4  0  0  0
 11 12  4  0  0  0
 12 10  4  0  0  0
 27 29  1  0  0  0
 27 28  2  0  0  0
 29 13  1  0  0  0
 13 31  1  0  0  0
 13 14  1  0  0  0
 14 30  2  0  0  0
 14 16  1  0  0  0
 16 17  1  0  0  0
 17 33  1  0  0  0
 17 20  1  0  0  0
 20 35  1  0  0  0
 20 21  1  0  0  0
 21 22  1  0  0  0
 22 37  1  0  0  0
 22 36  2  0  0  0
 37 38  1  0  0  0
 38 41  1  0  0  0
 38 39  1  0  0  0
 39 40  1  0  0  0
 41 43  1  0  0  0
 41 42  2  0  0  0
 43 44  1  0  0  0
 44 56  1  0  0  0
 44 45  1  0  0  0
 45 46  1  0  0  0
 46 50  4  0  0  0
 46 47  4  0  0  0
 47 48  4  0  0  0
 48 49  4  0  0  0
 49 51  4  0  0  0
 51 53  4  0  0  0
 51 50  4  0  0  0
 50 52  4  0  0  0
 52 54  4  0  0  0
 54 55  4  0  0  0
 55 53  4  0  0  0
 56 58  1  0  0  0
 56 57  2  0  0  0
 33 34  1  0  0  0
 34 18  1  0  0  0
 34 19  1  0  0  0
 31 15  1  0  0  0
 31 32  1  0  0  0
  1 59  1  0  0  0
  1 60  1  0  0  0
  1 61  1  0  0  0
  4 62  1  0  0  0
  5 63  1  0  0  0
  6 64  1  0  0  0
  9 65  1  0  0  0
 10 66  1  0  0  0
 11 67  1  0  0  0
 12 68  1  0  0  0
 13 69  1  0  0  0
 15 70  1  0  0  0
 15 71  1  0  0  0
 15 72  1  0  0  0
 16 73  1  0  0  0
 17 74  1  0  0  0
 18 75  1  0  0  0
 18 76  1  0  0  0
 18 77  1  0  0  0
 19 78  1  0  0  0
 19 79  1  0  0  0
 19 80  1  0  0  0
 20 81  1  0  0  0
 21 82  1  0  0  0
 21 83  1  0  0  0
 24 84  1  0  0  0
 25 85  1  0  0  0
 26 86  1  0  0  0
 26 87  1  0  0  0
 29 88  1  0  0  0
 31 89  1  0  0  0
 32 90  1  0  0  0
 32 91  1  0  0  0
 32 92  1  0  0  0
 33 93  1  0  0  0
 33 94  1  0  0  0
 34 95  1  0  0  0
 35 96  1  0  0  0
 37 97  1  0  0  0
 38 98  1  0  0  0
 39 99  1  0  0  0
 39100  1  0  0  0
 40101  1  0  0  0
 40102  1  0  0  0
 40103  1  0  0  0
 43104  1  0  0  0
 44105  1  0  0  0
 45106  1  0  0  0
 45107  1  0  0  0
 47108  1  0  0  0
 48109  1  0  0  0
 49110  1  0  0  0
 52111  1  0  0  0
 53112  1  0  0  0
 54113  1  0  0  0
 55114  1  0  0  0
 58115  1  0  0  0
 58116  1  0  0  0
M  END
$$$$
