### 
### Created by X-TOOL on Mon Sep 10 21:12:46 2018
### 

@<TRIPOS>MOLECULE
1ody_ligand
  116   119     1     0     0
SMALL
GAST_HUCK


@<TRIPOS>ATOM
      1 C1        -12.2680   12.0100   36.8600 C.3       1 LP1         0.0258
      2 C2        -11.8930   12.1010   35.3620 C.2       1 LP1         0.1753
      3 C7        -14.0120   11.2390   32.4260 C.ar      1 LP1        -0.0279
      4 C8        -15.2040   11.0480   33.1320 C.ar      1 LP1        -0.0605
      5 C9        -15.7010    9.7630   33.3620 C.ar      1 LP1        -0.0707
      6 C10       -15.0420    8.6280   32.8680 C.ar      1 LP1        -0.0631
      7 C11       -13.3550   10.1170   31.9280 C.ar      1 LP1        -0.0119
      8 C12       -13.8450    8.8080   32.1530 C.ar      1 LP1        -0.0243
      9 C13       -12.1960   10.2580   31.1770 C.ar      1 LP1        -0.0548
     10 C14       -13.1800    7.6870   31.6490 C.ar      1 LP1        -0.0569
     11 C15       -11.5530    9.1200   30.6970 C.ar      1 LP1        -0.0625
     12 C16       -12.0120    7.8480   30.9320 C.ar      1 LP1        -0.0629
     13 C20       -10.1890   15.5120   31.7260 C.3       1 LP1         0.1331
     14 C21       -10.0690   15.4200   30.2400 C.2       1 LP1         0.2022
     15 C24        -8.3520   17.0970   32.1000 C.3       1 LP1        -0.0584
     16 N26       -10.7240   16.2430   29.4300 N.am      1 LP1        -0.2793
     17 C27       -10.5930   15.9960   27.9990 C.3       1 LP1         0.0703
     18 C30       -13.8330   13.9280   28.6550 C.3       1 LP1        -0.0626
     19 C31       -12.0430   12.6320   27.6600 C.3       1 LP1        -0.0626
     20 C32       -10.2510   17.2570   27.1470 C.3       1 LP1         0.0947
     21 C33        -8.7700   17.3840   26.7540 C.3       1 LP1         0.0655
     22 C35        -8.2670   16.5330   25.5880 C.2       1 LP1         0.1808
     23 O3        -10.8840   11.5100   34.9730 O.2       1 LP1        -0.3972
     24 N4        -12.7330   12.8620   34.6340 N.am      1 LP1        -0.2639
     25 C5        -12.4490   13.0650   33.2380 C.3       1 LP1         0.1411
     26 C6        -13.5400   12.6390   32.2510 C.3       1 LP1         0.0237
     27 C17       -11.9660   14.4570   32.9100 C.2       1 LP1         0.2061
     28 O18       -12.3550   15.5880   33.1120 O.2       1 LP1        -0.3942
     29 N19       -10.8220   14.3290   32.2390 N.am      1 LP1        -0.2633
     30 O22        -9.3540   14.5530   29.8000 O.2       1 LP1        -0.3945
     31 C23        -8.8630   15.7340   32.4870 C.3       1 LP1        -0.0063
     32 C25        -9.1530   15.6940   33.9620 C.3       1 LP1        -0.0584
     33 C28       -11.9030   15.2320   27.6080 C.3       1 LP1        -0.0250
     34 C29       -12.3630   13.9440   28.3320 C.3       1 LP1        -0.0446
     35 O34       -10.6590   18.4650   27.7340 O.3       1 LP1        -0.3872
     36 O36        -7.9150   15.3530   25.6560 O.2       1 LP1        -0.3968
     37 N37        -8.1860   17.0860   24.3750 N.am      1 LP1        -0.2656
     38 C38        -7.6920   16.4950   23.1670 C.3       1 LP1         0.1307
     39 C39        -8.7970   15.8350   22.2930 C.3       1 LP1        -0.0152
     40 C40        -9.8170   15.0860   23.1170 C.3       1 LP1        -0.0610
     41 C41        -6.8950   17.4910   22.3410 C.2       1 LP1         0.2040
     42 O42        -7.3000   18.6310   22.0000 O.2       1 LP1        -0.3944
     43 N43        -5.7040   17.0100   21.9170 N.am      1 LP1        -0.2618
     44 C44        -4.8100   17.8080   21.1030 C.3       1 LP1         0.1408
     45 C45        -3.8720   18.7200   21.9460 C.3       1 LP1         0.0237
     46 C46        -3.2710   17.8900   23.0970 C.ar      1 LP1        -0.0279
     47 C47        -2.1820   17.0640   22.8050 C.ar      1 LP1        -0.0605
     48 C48        -1.6580   16.2200   23.7910 C.ar      1 LP1        -0.0707
     49 C49        -2.1820   16.2120   25.0730 C.ar      1 LP1        -0.0631
     50 C50        -3.8380   17.8700   24.3910 C.ar      1 LP1        -0.0119
     51 C51        -3.2620   17.0340   25.4140 C.ar      1 LP1        -0.0243
     52 C52        -4.9160   18.6860   24.7440 C.ar      1 LP1        -0.0548
     53 C53        -3.8040   17.0550   26.7070 C.ar      1 LP1        -0.0569
     54 C54        -5.4270   18.6830   26.0500 C.ar      1 LP1        -0.0625
     55 C55        -4.8990   17.8690   27.0190 C.ar      1 LP1        -0.0629
     56 C56        -4.2980   16.9850   19.9730 C.2       1 LP1         0.2014
     57 O57        -4.0630   15.7620   20.0710 O.2       1 LP1        -0.3945
     58 N58        -4.1180   17.5210   18.7800 N.am      1 LP1        -0.2988
     59 H1        -11.5379   11.3746   37.3828 H         1 LP1         0.0467
     60 H2        -13.2726   11.5733   36.9607 H         1 LP1         0.0467
     61 H3        -12.2601   13.0173   37.3018 H         1 LP1         0.0467
     62 H4        -15.7488   11.9076   33.5053 H         1 LP1         0.0530
     63 H5        -16.6140    9.6407   33.9335 H         1 LP1         0.0595
     64 H6        -15.4458    7.6357   33.0335 H         1 LP1         0.0542
     65 H7        -11.7959   11.2433   30.9666 H         1 LP1         0.0628
     66 H8        -13.5803    6.6944   31.8207 H         1 LP1         0.0609
     67 H9        -10.6493    9.2443   30.1114 H         1 LP1         0.0601
     68 H10       -11.4677    6.9868   30.5616 H         1 LP1         0.0616
     69 H11       -10.8374   16.3736   31.9434 H         1 LP1         0.0802
     70 H12        -7.4046   17.2953   32.6226 H         1 LP1         0.0234
     71 H13        -9.0927   17.8599   32.3816 H         1 LP1         0.0234
     72 H14        -8.1854   17.1312   31.0132 H         1 LP1         0.0234
     73 H15       -11.2798   16.9952   29.7839 H         1 LP1         0.1856
     74 H16        -9.7505   15.3040   27.8531 H         1 LP1         0.0583
     75 H17       -14.0859   12.9873   29.1660 H         1 LP1         0.0232
     76 H18       -14.4138   14.0073   27.7242 H         1 LP1         0.0232
     77 H19       -14.0736   14.7776   29.3109 H         1 LP1         0.0232
     78 H20       -10.9732   12.6016   27.4057 H         1 LP1         0.0232
     79 H21       -12.6410   12.5348   26.7419 H         1 LP1         0.0232
     80 H22       -12.2813   11.8028   28.3423 H         1 LP1         0.0232
     81 H23       -10.8190   17.1475   26.2114 H         1 LP1         0.0642
     82 H24        -8.1719   17.1164   27.6375 H         1 LP1         0.0529
     83 H25        -8.5887   18.4373   26.4937 H         1 LP1         0.0529
     84 H26       -13.5387   13.2780   35.0557 H         1 LP1         0.1884
     85 H27       -11.5984   12.3989   33.0313 H         1 LP1         0.0825
     86 H28       -13.1414   12.7430   31.2311 H         1 LP1         0.0486
     87 H29       -14.4013   13.3112   32.3785 H         1 LP1         0.0486
     88 H30       -10.4126   13.4280   32.0955 H         1 LP1         0.1883
     89 H31        -8.1278   14.9594   32.2235 H         1 LP1         0.0343
     90 H32        -9.5254   14.6957   34.2355 H         1 LP1         0.0234
     91 H33        -9.9146   16.4491   34.2066 H         1 LP1         0.0234
     92 H34        -8.2312   15.9078   34.5229 H         1 LP1         0.0234
     93 H35       -11.7947   14.9635   26.5468 H         1 LP1         0.0291
     94 H36       -12.7238   15.9555   27.7213 H         1 LP1         0.0291
     95 H37       -11.8216   13.9428   29.2895 H         1 LP1         0.0296
     96 H38       -10.2301   18.5677   28.5755 H         1 LP1         0.2101
     97 H39        -8.5102   18.0291   24.3008 H         1 LP1         0.1883
     98 H40        -7.0019   15.6933   23.4686 H         1 LP1         0.0800
     99 H41        -8.3208   15.1301   21.5956 H         1 LP1         0.0310
    100 H42        -9.3131   16.6220   21.7235 H         1 LP1         0.0310
    101 H43       -10.5713   14.6414   22.4511 H         1 LP1         0.0232
    102 H44       -10.3075   15.7814   23.8140 H         1 LP1         0.0232
    103 H45        -9.3153   14.2895   23.6861 H         1 LP1         0.0232
    104 H46        -5.4342   16.0813   22.1715 H         1 LP1         0.1885
    105 H47        -5.4623   18.5386   20.6023 H         1 LP1         0.0825
    106 H48        -4.4483   19.5610   22.3591 H         1 LP1         0.0486
    107 H49        -3.0634   19.1074   21.3088 H         1 LP1         0.0486
    108 H50        -1.7428   17.0770   21.8140 H         1 LP1         0.0530
    109 H51        -0.8305   15.5634   23.5478 H         1 LP1         0.0595
    110 H52        -1.7494   15.5597   25.8230 H         1 LP1         0.0542
    111 H53        -5.3641   19.3312   23.9970 H         1 LP1         0.0628
    112 H54        -3.3676   16.4303   27.4779 H         1 LP1         0.0609
    113 H55        -6.2553   19.3367   26.2982 H         1 LP1         0.0601
    114 H56        -5.3250   17.8561   28.0157 H         1 LP1         0.0616
    115 H57        -3.7737   16.9605   18.0268 H         1 LP1         0.1815
    116 H58        -4.3260   18.4875   18.6295 H         1 LP1         0.1815
@<TRIPOS>BOND
     1    1    2 1  
     2    2   24 am 
     3    2   23 2  
     4   24   25 1  
     5   25   27 1  
     6   25   26 1  
     7   26    3 1  
     8    3    7 ar 
     9    3    4 ar 
    10    4    5 ar 
    11    5    6 ar 
    12    6    8 ar 
    13    8   10 ar 
    14    8    7 ar 
    15    7    9 ar 
    16    9   11 ar 
    17   11   12 ar 
    18   12   10 ar 
    19   27   29 am 
    20   27   28 2  
    21   29   13 1  
    22   13   31 1  
    23   13   14 1  
    24   14   30 2  
    25   14   16 am 
    26   16   17 1  
    27   17   33 1  
    28   17   20 1  
    29   20   35 1  
    30   20   21 1  
    31   21   22 1  
    32   22   37 am 
    33   22   36 2  
    34   37   38 1  
    35   38   41 1  
    36   38   39 1  
    37   39   40 1  
    38   41   43 am 
    39   41   42 2  
    40   43   44 1  
    41   44   56 1  
    42   44   45 1  
    43   45   46 1  
    44   46   50 ar 
    45   46   47 ar 
    46   47   48 ar 
    47   48   49 ar 
    48   49   51 ar 
    49   51   53 ar 
    50   51   50 ar 
    51   50   52 ar 
    52   52   54 ar 
    53   54   55 ar 
    54   55   53 ar 
    55   56   58 am 
    56   56   57 2  
    57   33   34 1  
    58   34   18 1  
    59   34   19 1  
    60   31   15 1  
    61   31   32 1  
    62    1   59 1  
    63    1   60 1  
    64    1   61 1  
    65    4   62 1  
    66    5   63 1  
    67    6   64 1  
    68    9   65 1  
    69   10   66 1  
    70   11   67 1  
    71   12   68 1  
    72   13   69 1  
    73   15   70 1  
    74   15   71 1  
    75   15   72 1  
    76   16   73 1  
    77   17   74 1  
    78   18   75 1  
    79   18   76 1  
    80   18   77 1  
    81   19   78 1  
    82   19   79 1  
    83   19   80 1  
    84   20   81 1  
    85   21   82 1  
    86   21   83 1  
    87   24   84 1  
    88   25   85 1  
    89   26   86 1  
    90   26   87 1  
    91   29   88 1  
    92   31   89 1  
    93   32   90 1  
    94   32   91 1  
    95   32   92 1  
    96   33   93 1  
    97   33   94 1  
    98   34   95 1  
    99   35   96 1  
   100   37   97 1  
   101   38   98 1  
   102   39   99 1  
   103   39  100 1  
   104   40  101 1  
   105   40  102 1  
   106   40  103 1  
   107   43  104 1  
   108   44  105 1  
   109   45  106 1  
   110   45  107 1  
   111   47  108 1  
   112   48  109 1  
   113   49  110 1  
   114   52  111 1  
   115   53  112 1  
   116   54  113 1  
   117   55  114 1  
   118   58  115 1  
   119   58  116 1  
@<TRIPOS>SUBSTRUCTURE
     1 LP1         1

