4crj_ligand
  -I-interpret- 

 35 37  0  0  0  0  0  0  0  0999 V2000
   27.1510  -32.9300    1.9290 C   0  0  0  0  0
   26.5740  -31.9360    1.1910 O   0  0  0  0  0
   28.3550  -31.4680    3.5690 N   0  0  0  0  0
   29.9440  -30.7820    5.6780 S   0  0  0  0  0
   34.8890  -32.0870    6.5380 C   0  0  0  0  0
   35.5290  -33.1740    5.9730 C   0  0  0  0  0
   35.0220  -33.7420    4.8320 C   0  0  0  0  0
   33.8850  -33.2370    4.2480 C   0  0  0  0  0
   37.1230  -33.2280    7.6690 C   0  0  0  0  0
   29.2380  -33.1960    4.6820 N   0  0  0  0  0
   27.9590  -32.6500    3.0070 C   0  0  0  0  0
   31.6530  -32.3700    3.1740 O   0  0  0  0  0
   28.2990  -35.0000    3.3940 N   0  0  0  0  0
   29.1160  -31.8420    4.5740 C   0  0  0  0  0
   36.6830  -33.7940    6.4460 O   0  0  0  0  0
   28.4910  -33.7200    3.6770 C   0  0  0  0  0
   26.9370  -34.1990    1.5870 N   0  0  0  0  0
   27.5120  -35.1550    2.3260 C   0  0  0  0  0
   27.2550  -36.4540    1.9420 N   0  0  0  0  0
   31.3140  -30.4340    4.5420 C   0  0  0  0  0
   32.0340  -31.6920    4.1190 C   0  0  0  0  0
   33.2470  -32.1550    4.8120 C   0  0  0  0  0
   33.7450  -31.5730    5.9590 C   0  0  0  0  0
   35.2889  -31.6332    7.4448 H   0  0  0  0  0
   35.5244  -34.6000    4.3853 H   0  0  0  0  0
   33.4891  -33.6921    3.3401 H   0  0  0  0  0
   37.3390  -32.1699    7.5213 H   0  0  0  0  0
   36.3419  -33.3392    8.4211 H   0  0  0  0  0
   38.0252  -33.7413    8.0016 H   0  0  0  0  0
   26.3521  -34.4354    0.7855 H   0  0  0  0  0
   27.6590  -37.2302    2.4661 H   0  0  0  0  0
   26.6608  -36.6388    1.1338 H   0  0  0  0  0
   32.0275  -29.7904    5.0566 H   0  0  0  0  0
   30.9042  -29.9603    3.6499 H   0  0  0  0  0
   33.2406  -30.7155    6.4044 H   0  0  0  0  0
  1  2  2  0  0  0
 11  1  1  0  0  0
  1 17  1  0  0  0
  3 11  4  0  0  0
 14  3  4  0  0  0
  4 14  1  0  0  0
 20  4  1  0  0  0
  6  5  4  0  0  0
  5 23  4  0  0  0
  7  6  4  0  0  0
  6 15  1  0  0  0
  8  7  4  0  0  0
 22  8  4  0  0  0
 15  9  1  0  0  0
 14 10  4  0  0  0
 10 16  4  0  0  0
 16 11  4  0  0  0
 21 12  2  0  0  0
 16 13  1  0  0  0
 13 18  2  0  0  0
 18 17  1  0  0  0
 18 19  1  0  0  0
 21 20  1  0  0  0
 21 22  1  0  0  0
 22 23  4  0  0  0
  5 24  1  0  0  0
  7 25  1  0  0  0
  8 26  1  0  0  0
  9 27  1  0  0  0
  9 28  1  0  0  0
  9 29  1  0  0  0
 17 30  1  0  0  0
 19 31  1  0  0  0
 19 32  1  0  0  0
 20 33  1  0  0  0
 20 34  1  0  0  0
 23 35  1  0  0  0
M  END
$$$$
