5tuz_ligand
  -I-interpret- 

 58 61  0  0  0  0  0  0  0  0999 V2000
  -21.0520  -14.6760    3.0700 C   0  0  0  0  0
  -21.2470  -13.4470    2.4440 C   0  0  0  0  0
  -22.0080  -12.4760    3.0950 C   0  0  0  0  0
  -25.0170  -13.6660    7.1050 C   0  0  0  0  0
  -22.5400  -12.7520    4.2990 N   0  0  0  0  0
  -24.2400  -15.8870    7.0900 C   0  0  0  0  0
  -21.6070  -14.9080    4.2790 N   0  0  0  0  0
  -22.8070  -15.4700    6.7860 C   0  0  0  0  0
  -22.9240  -14.1770    6.1330 N   0  0  0  0  0
  -22.3430  -13.9510    4.8850 C   0  0  0  0  0
  -20.2980  -15.6720    2.4460 C   0  0  0  0  0
  -19.7400  -15.4240    1.1940 C   0  0  0  0  0
  -18.9790  -16.3790    0.5720 O   0  0  0  0  0
  -18.8390  -17.6570    1.1940 C   0  0  0  0  0
  -19.9320  -14.2080    0.5690 C   0  0  0  0  0
  -19.3540  -14.0000   -0.6580 O   0  0  0  0  0
  -19.8290  -12.9520   -1.4990 C   0  0  0  0  0
  -20.6750  -13.2020    1.1960 C   0  0  0  0  0
  -22.2300  -11.2610    2.5560 N   0  0  0  0  0
  -22.8960  -10.2390    3.3510 C   0  0  0  0  0
  -24.3170  -10.0250    2.8400 C   0  0  0  0  0
  -22.1160   -8.9330    3.2820 C   0  0  0  0  0
  -22.8870   -7.7800    3.9210 C   0  0  0  0  0
  -24.1860   -7.6350    3.2480 N   0  3  0  0  0
  -24.8940   -6.4620    3.7740 C   0  0  0  0  0
  -24.9880   -8.8310    3.5150 C   0  0  0  0  0
  -23.6500  -13.0860    6.7680 C   0  0  0  0  0
  -24.8630  -14.8640    7.8670 O   0  0  0  0  0
  -25.5483  -13.8938    6.1809 H   0  0  0  0  0
  -25.5817  -12.9390    7.6887 H   0  0  0  0  0
  -24.2414  -16.8248    7.6456 H   0  0  0  0  0
  -24.7885  -16.0287    6.1588 H   0  0  0  0  0
  -22.2992  -16.1982    6.1536 H   0  0  0  0  0
  -22.2016  -15.4132    7.6906 H   0  0  0  0  0
  -20.1474  -16.6349    2.9342 H   0  0  0  0  0
  -18.3810  -17.5338    2.1754 H   0  0  0  0  0
  -19.8218  -18.1151    1.3052 H   0  0  0  0  0
  -18.2078  -18.2940    0.5744 H   0  0  0  0  0
  -20.8816  -13.1196   -1.7269 H   0  0  0  0  0
  -19.7145  -11.9967   -0.9868 H   0  0  0  0  0
  -19.2529  -12.9410   -2.4242 H   0  0  0  0  0
  -20.8058  -12.2338    0.7126 H   0  0  0  0  0
  -21.9345  -11.0594    1.6008 H   0  0  0  0  0
  -22.9385  -10.5706    4.3885 H   0  0  0  0  0
  -24.9002  -10.9181    3.0646 H   0  0  0  0  0
  -24.2704   -9.8313    1.7684 H   0  0  0  0  0
  -21.9434   -8.6911    2.2333 H   0  0  0  0  0
  -21.1800   -9.0630    3.8252 H   0  0  0  0  0
  -22.3166   -6.8569    3.8177 H   0  0  0  0  0
  -23.0446   -7.9876    4.9794 H   0  0  0  0  0
  -24.0390   -7.5185    2.2454 H   0  0  0  0  0
  -25.0555   -6.5866    4.8447 H   0  0  0  0  0
  -24.2954   -5.5684    3.5971 H   0  0  0  0  0
  -25.8551   -6.3628    3.2694 H   0  0  0  0  0
  -25.0562   -9.0010    4.5895 H   0  0  0  0  0
  -25.9957   -8.6988    3.1211 H   0  0  0  0  0
  -23.1353  -12.7218    7.6571 H   0  0  0  0  0
  -23.7296  -12.2184    6.1129 H   0  0  0  0  0
  1  2  4  0  0  0
  7  1  4  0  0  0
  1 11  4  0  0  0
  3  2  4  0  0  0
  2 18  4  0  0  0
  5  3  4  0  0  0
  3 19  1  0  0  0
  4 27  1  0  0  0
 28  4  1  0  0  0
 10  5  4  0  0  0
  8  6  1  0  0  0
  6 28  1  0  0  0
 10  7  4  0  0  0
  9  8  1  0  0  0
  9 10  1  0  0  0
  9 27  1  0  0  0
 11 12  4  0  0  0
 12 13  1  0  0  0
 12 15  4  0  0  0
 13 14  1  0  0  0
 15 16  1  0  0  0
 15 18  4  0  0  0
 16 17  1  0  0  0
 19 20  1  0  0  0
 20 21  1  0  0  0
 20 22  1  0  0  0
 21 26  1  0  0  0
 22 23  1  0  0  0
 23 24  1  0  0  0
 24 25  1  0  0  0
 24 26  1  0  0  0
  4 29  1  0  0  0
  4 30  1  0  0  0
  6 31  1  0  0  0
  6 32  1  0  0  0
  8 33  1  0  0  0
  8 34  1  0  0  0
 11 35  1  0  0  0
 14 36  1  0  0  0
 14 37  1  0  0  0
 14 38  1  0  0  0
 17 39  1  0  0  0
 17 40  1  0  0  0
 17 41  1  0  0  0
 18 42  1  0  0  0
 19 43  1  0  0  0
 20 44  1  0  0  0
 21 45  1  0  0  0
 21 46  1  0  0  0
 22 47  1  0  0  0
 22 48  1  0  0  0
 23 49  1  0  0  0
 23 50  1  0  0  0
 24 51  1  0  0  0
 25 52  1  0  0  0
 25 53  1  0  0  0
 25 54  1  0  0  0
 26 55  1  0  0  0
 26 56  1  0  0  0
 27 57  1  0  0  0
 27 58  1  0  0  0
M  END
$$$$
