6dtw_ligand
  -I-interpret- 

 45 48  0  0  0  0  0  0  0  0999 V2000
  192.4760  -28.5470  147.7350 N   0  0  0  0  0
  192.9560  -27.7870  147.0130 C   0  0  0  0  0
  199.1220  -26.0300  140.2990 C   0  0  0  0  0
  200.2570  -25.4390  140.8940 C   0  0  0  0  0
  200.2810  -25.1930  142.2860 C   0  0  0  0  0
  199.1710  -25.5370  143.0860 C   0  0  0  0  0
  198.0300  -26.1310  142.4900 C   0  0  0  0  0
  197.9930  -26.3830  141.0960 C   0  0  0  0  0
  195.9750  -25.5580  143.6180 C   0  0  0  0  0
  196.6910  -27.1770  139.2050 C   0  0  0  0  0
  195.5240  -28.1590  138.9560 C   0  0  0  0  0
  196.7850  -30.3240  138.7920 C   0  0  0  0  0
  196.2750  -32.1410  140.3400 C   0  0  0  0  0
  195.2590  -31.2850  140.9620 C   0  0  0  0  0
  195.0590  -30.0280  140.4840 C   0  0  0  0  0
  194.9980  -25.9700  144.5750 C   0  0  0  0  0
  193.9700  -23.7310  144.3900 C   0  0  0  0  0
  194.8770  -23.3110  143.4840 C   0  0  0  0  0
  195.9080  -24.2410  143.0830 C   0  0  0  0  0
  194.7050  -27.1350  145.3320 C   0  0  0  0  0
  193.1710  -25.5440  145.8350 C   0  0  0  0  0
  193.5530  -26.8260  146.1090 C   0  0  0  0  0
  201.3180  -25.1110  140.1240 F   0  0  0  0  0
  194.8560  -22.0840  142.9550 F   0  0  0  0  0
  195.8260  -29.5400  139.3920 N   0  0  0  0  0
  196.9430  -31.5720  139.3080 N   0  0  0  0  0
  194.0420  -25.0120  144.9040 N   0  0  0  0  0
  196.9430  -26.4710  143.2590 O   0  0  0  0  0
  196.8410  -26.9660  140.6060 O   0  0  0  0  0
  197.4790  -29.9590  137.8460 O   0  0  0  0  0
  196.5250  -33.2880  140.7030 O   0  0  0  0  0
  199.1081  -26.2176  139.2254 H   0  0  0  0  0
  201.1593  -24.7364  142.7423 H   0  0  0  0  0
  199.1906  -25.3467  144.1591 H   0  0  0  0  0
  196.4784  -26.2271  138.7145 H   0  0  0  0  0
  197.6120  -27.5957  138.7993 H   0  0  0  0  0
  195.3349  -28.1840  137.8828 H   0  0  0  0  0
  194.6675  -27.8091  139.5323 H   0  0  0  0  0
  194.6689  -31.6539  141.8010 H   0  0  0  0  0
  194.3040  -29.3893  140.9423 H   0  0  0  0  0
  193.1778  -23.0579  144.7178 H   0  0  0  0  0
  196.6530  -23.9258  142.3524 H   0  0  0  0  0
  195.2526  -28.0774  145.3205 H   0  0  0  0  0
  192.3200  -25.0263  146.2775 H   0  0  0  0  0
  197.6535  -32.1524  138.8622 H   0  0  0  0  0
  2  1  3  0  0  0
 22  2  1  0  0  0
  3  4  4  0  0  0
  8  3  4  0  0  0
  5  4  4  0  0  0
  4 23  1  0  0  0
  6  5  4  0  0  0
  7  6  4  0  0  0
  7  8  4  0  0  0
 28  7  1  0  0  0
  8 29  1  0  0  0
 16  9  4  0  0  0
  9 19  4  0  0  0
  9 28  1  0  0  0
 10 11  1  0  0  0
 29 10  1  0  0  0
 11 25  1  0  0  0
 25 12  1  0  0  0
 12 26  1  0  0  0
 12 30  2  0  0  0
 14 13  1  0  0  0
 26 13  1  0  0  0
 13 31  2  0  0  0
 15 14  2  0  0  0
 25 15  1  0  0  0
 20 16  4  0  0  0
 16 27  4  0  0  0
 17 18  4  0  0  0
 27 17  4  0  0  0
 19 18  4  0  0  0
 18 24  1  0  0  0
 20 22  4  0  0  0
 22 21  4  0  0  0
 21 27  4  0  0  0
  3 32  1  0  0  0
  5 33  1  0  0  0
  6 34  1  0  0  0
 10 35  1  0  0  0
 10 36  1  0  0  0
 11 37  1  0  0  0
 11 38  1  0  0  0
 14 39  1  0  0  0
 15 40  1  0  0  0
 17 41  1  0  0  0
 19 42  1  0  0  0
 20 43  1  0  0  0
 21 44  1  0  0  0
 26 45  1  0  0  0
M  END
$$$$
