### 
### Created by X-TOOL on Mon Sep 10 21:13:14 2018
### 

@<TRIPOS>MOLECULE
4ezw_ligand
  119   118     1     0     0
SMALL
GAST_HUCK


@<TRIPOS>ATOM
      1 N          50.9190   47.3310   24.6570 N.4       1 ASN         0.2396
      2 CA         49.7550   47.8940   23.9150 C.3       1 ASN         0.0818
      3 C          48.6880   46.7850   23.6010 C.2       1 ASN         0.2291
      4 O          48.8040   45.6140   23.9920 O.2       1 ASN        -0.3905
      5 CB         50.2440   48.7050   22.6680 C.3       1 ASN         0.0972
      6 CG         49.2420   49.8160   22.1950 C.2       1 ASN         0.1813
      7 OD1        48.1890   50.0750   22.8020 O.2       1 ASN        -0.3969
      8 ND2        49.5930   50.4760   21.0880 N.am      1 ASN        -0.3006
      9 N          47.6090   47.1900   22.9680 N.am      1 ARG        -0.2609
     10 CA         46.4830   46.3120   22.6160 C.3       1 ARG         0.1312
     11 C          46.9330   45.3150   21.5230 C.2       1 ARG         0.2039
     12 O          47.6080   45.7250   20.5330 O.2       1 ARG        -0.3944
     13 CB         45.4540   47.2840   22.0610 C.3       1 ARG        -0.0092
     14 CG         44.3090   46.6670   21.3390 C.3       1 ARG        -0.0156
     15 CD         43.2590   46.3060   22.3290 C.3       1 ARG         0.0627
     16 NE         42.7950   47.4280   23.1600 N.pl3     1 ARG        -0.2723
     17 CZ         42.5600   47.3320   24.4760 C.cat     1 ARG         0.2882
     18 NH1        42.8090   46.1880   25.1380 N.pl3     1 ARG        -0.2849
     19 NH2        42.0750   48.3690   25.1460 N.pl3     1 ARG        -0.2849
     20 N          46.5900   44.0380   21.6440 N.am      1 LEU        -0.2637
     21 CA         47.0390   43.0630   20.6050 C.3       1 LEU         0.1312
     22 C          46.0430   43.0280   19.3990 C.2       1 LEU         0.2039
     23 O          44.8910   43.4130   19.5180 O.2       1 LEU        -0.3944
     24 CB         47.1410   41.6480   21.1830 C.3       1 LEU        -0.0101
     25 CG         48.4120   41.3060   21.9950 C.3       1 LEU        -0.0425
     26 CD1        49.6850   41.5280   21.1500 C.3       1 LEU        -0.0625
     27 CD2        48.4630   42.1490   23.2570 C.3       1 LEU        -0.0625
     28 N          46.5190   42.5580   18.2700 N.am      1 LEU        -0.2637
     29 CA         45.7820   42.8090   16.9790 C.3       1 LEU         0.1312
     30 C          45.4940   41.5420   16.2540 C.2       1 LEU         0.2039
     31 O          46.1890   40.5000   16.4500 O.2       1 LEU        -0.3944
     32 CB         46.6750   43.7220   16.0760 C.3       1 LEU        -0.0101
     33 CG         47.0630   45.0140   16.8310 C.3       1 LEU        -0.0425
     34 CD1        47.9520   45.8160   15.8790 C.3       1 LEU        -0.0625
     35 CD2        45.8460   45.8390   17.2910 C.3       1 LEU        -0.0625
     36 N          44.4060   41.5680   15.4430 N.am      1 LEU        -0.2637
     37 CA         43.9330   40.3580   14.7810 C.3       1 LEU         0.1312
     38 C          43.8830   40.6560   13.2810 C.2       1 LEU         0.2040
     39 O          43.3910   41.7000   12.9140 O.2       1 LEU        -0.3944
     40 CB         42.5100   39.9970   15.1820 C.3       1 LEU        -0.0101
     41 CG         42.4610   39.6430   16.6960 C.3       1 LEU        -0.0425
     42 CD1        41.0280   39.6390   17.1590 C.3       1 LEU        -0.0625
     43 CD2        43.1370   38.3190   16.9440 C.3       1 LEU        -0.0625
     44 N          44.3480   39.6820   12.4980 N.am      1 THR        -0.2613
     45 CA         44.2070   39.8190   11.0380 C.3       1 THR         0.1564
     46 C          42.8550   39.2530   10.5980 C.2       1 THR         0.2057
     47 O          42.0970   38.6570   11.3690 O.2       1 THR        -0.3943
     48 CB         45.3760   39.1200   10.3130 C.3       1 THR         0.0924
     49 OG1        45.3830   37.7760   10.7590 O.3       1 THR        -0.3874
     50 CG2        46.7600   39.8100   10.6840 C.3       1 THR        -0.0346
     51 N          42.5890   39.4160    9.2930 N.am      1 GLY        -0.2721
     52 CA         41.2520   39.4310    8.7060 C.3       1 GLY         0.0833
     53 C          40.7300   38.0530    8.5840 C.2       1 GLY         0.0570
     54 O          39.5300   37.8250    8.3050 O.co2     1 GLY        -0.5669
     55 OXT        41.5420   37.1440    8.7640 O.co2     1 GLY        -0.5669
     56 H1         51.5849   48.0643   24.8437 H         1 ASN         0.2017
     57 H2         51.3567   46.6133   24.1009 H         1 ASN         0.2017
     58 H3         50.6024   46.9349   25.5282 H         1 ASN         0.2017
     59 H4         49.2625   48.6159   24.5831 H         1 ASN         0.1125
     60 H5         50.3977   48.0014   21.8365 H         1 ASN         0.0585
     61 H6         51.1997   49.1869   22.9220 H         1 ASN         0.0585
     62 H7         49.0023   51.1980   20.7278 H         1 ASN         0.1814
     63 H8         50.4465   50.2481   20.6194 H         1 ASN         0.1814
     64 H9         47.5505   48.1544   22.7101 H         1 ARG         0.1885
     65 H10        46.0969   45.7701   23.4920 H         1 ARG         0.0800
     66 H11        45.9694   47.9599   21.3628 H         1 ARG         0.0313
     67 H12        45.0494   47.8652   22.9027 H         1 ARG         0.0313
     68 H13        44.6476   45.7626   20.8124 H         1 ARG         0.0301
     69 H14        43.9007   47.3838   20.6114 H         1 ARG         0.0301
     70 H15        43.6658   45.5304   22.9945 H         1 ARG         0.0689
     71 H16        42.3942   45.9028   21.7816 H         1 ARG         0.0689
     72 H17        42.6421   48.3391   22.7045 H         1 ARG         0.2642
     73 H18        42.6239   46.1275   26.1494 H         1 ARG         0.2615
     74 H19        43.1848   45.3724   24.6335 H         1 ARG         0.2615
     75 H20        41.8784   49.2529   24.6552 H         1 ARG         0.2615
     76 H21        41.8950   48.2903   26.1571 H         1 ARG         0.2615
     77 H22        46.0384   43.7329   22.4203 H         1 LEU         0.1883
     78 H23        48.0299   43.3735   20.2421 H         1 LEU         0.0800
     79 H24        47.0862   40.9420   20.3413 H         1 LEU         0.0315
     80 H25        46.2752   41.4976   21.8447 H         1 LEU         0.0315
     81 H26        48.3669   40.2453   22.2829 H         1 LEU         0.0298
     82 H27        50.5720   41.2778   21.7506 H         1 LEU         0.0232
     83 H28        49.7388   42.5814   20.8378 H         1 LEU         0.0232
     84 H29        49.6512   40.8830   20.2596 H         1 LEU         0.0232
     85 H30        47.5506   41.9803   23.8477 H         1 LEU         0.0232
     86 H31        48.5322   43.2126   22.9850 H         1 LEU         0.0232
     87 H32        49.3431   41.8648   23.8525 H         1 LEU         0.0232
     88 H33        47.3704   42.0335   18.2660 H         1 LEU         0.1883
     89 H34        44.8327   43.3196   17.1986 H         1 LEU         0.0800
     90 H35        46.1174   43.9879   15.1659 H         1 LEU         0.0315
     91 H36        47.5888   43.1756   15.7997 H         1 LEU         0.0315
     92 H37        47.6430   44.7420   17.7252 H         1 LEU         0.0298
     93 H38        48.2604   46.7525   16.3668 H         1 LEU         0.0232
     94 H39        47.3913   46.0479   14.9615 H         1 LEU         0.0232
     95 H40        48.8437   45.2245   15.6242 H         1 LEU         0.0232
     96 H41        45.2295   45.2343   17.9724 H         1 LEU         0.0232
     97 H42        45.2473   46.1291   16.4150 H         1 LEU         0.0232
     98 H43        46.1921   46.7426   17.8141 H         1 LEU         0.0232
     99 H44        43.9212   42.4304   15.2972 H         1 LEU         0.1883
    100 H45        44.6125   39.5209   14.9990 H         1 LEU         0.0800
    101 H46        42.1738   39.1305   14.5937 H         1 LEU         0.0315
    102 H47        41.8474   40.8528   14.9858 H         1 LEU         0.0315
    103 H48        43.0049   40.4168   17.2575 H         1 LEU         0.0298
    104 H49        40.9893   39.3890   18.2295 H         1 LEU         0.0232
    105 H50        40.4599   38.8907   16.5870 H         1 LEU         0.0232
    106 H51        40.5881   40.6344   16.9988 H         1 LEU         0.0232
    107 H52        44.1780   38.3672   16.5917 H         1 LEU         0.0232
    108 H53        42.6021   37.5266   16.4000 H         1 LEU         0.0232
    109 H54        43.1244   38.0969   18.0213 H         1 LEU         0.0232
    110 H55        44.7841   38.8740   12.8942 H         1 THR         0.1884
    111 H56        44.2349   40.8885   10.7823 H         1 THR         0.0826
    112 H57        45.2247   39.1611    9.2242 H         1 THR         0.0639
    113 H58        44.5543   37.3664   10.5397 H         1 THR         0.2101
    114 H59        47.5782   39.2970   10.1573 H         1 THR         0.0257
    115 H60        46.9238   39.7429   11.7696 H         1 THR         0.0257
    116 H61        46.7353   40.8673   10.3816 H         1 THR         0.0257
    117 H62        43.3659   39.5364    8.6750 H         1 GLY         0.1873
    118 H63        41.2990   39.8910    7.7079 H         1 GLY         0.0689
    119 H64        40.5798   40.0181    9.3491 H         1 GLY         0.0689
@<TRIPOS>BOND
     1    1    2 1  
     2    2    3 1  
     3    2    5 1  
     4    3    4 2  
     5    3    9 am 
     6    5    6 1  
     7    6    7 2  
     8    6    8 am 
     9    9   10 1  
    10   10   11 1  
    11   10   13 1  
    12   11   12 2  
    13   11   20 am 
    14   13   14 1  
    15   14   15 1  
    16   15   16 1  
    17   16   17 ar 
    18   17   18 ar 
    19   17   19 ar 
    20   20   21 1  
    21   21   22 1  
    22   21   24 1  
    23   22   23 2  
    24   22   28 am 
    25   24   25 1  
    26   25   26 1  
    27   25   27 1  
    28   28   29 1  
    29   29   30 1  
    30   29   32 1  
    31   30   31 2  
    32   30   36 am 
    33   32   33 1  
    34   33   34 1  
    35   33   35 1  
    36   36   37 1  
    37   37   38 1  
    38   37   40 1  
    39   38   39 2  
    40   38   44 am 
    41   40   41 1  
    42   41   42 1  
    43   41   43 1  
    44   44   45 1  
    45   45   46 1  
    46   45   48 1  
    47   46   47 2  
    48   46   51 am 
    49   48   49 1  
    50   48   50 1  
    51   51   52 1  
    52   52   53 1  
    53   53   54 ar 
    54   53   55 ar 
    55    1   56 1  
    56    1   57 1  
    57    1   58 1  
    58    2   59 1  
    59    5   60 1  
    60    5   61 1  
    61    8   62 1  
    62    8   63 1  
    63    9   64 1  
    64   10   65 1  
    65   13   66 1  
    66   13   67 1  
    67   14   68 1  
    68   14   69 1  
    69   15   70 1  
    70   15   71 1  
    71   16   72 1  
    72   18   73 1  
    73   18   74 1  
    74   19   75 1  
    75   19   76 1  
    76   20   77 1  
    77   21   78 1  
    78   24   79 1  
    79   24   80 1  
    80   25   81 1  
    81   26   82 1  
    82   26   83 1  
    83   26   84 1  
    84   27   85 1  
    85   27   86 1  
    86   27   87 1  
    87   28   88 1  
    88   29   89 1  
    89   32   90 1  
    90   32   91 1  
    91   33   92 1  
    92   34   93 1  
    93   34   94 1  
    94   34   95 1  
    95   35   96 1  
    96   35   97 1  
    97   35   98 1  
    98   36   99 1  
    99   37  100 1  
   100   40  101 1  
   101   40  102 1  
   102   41  103 1  
   103   42  104 1  
   104   42  105 1  
   105   42  106 1  
   106   43  107 1  
   107   43  108 1  
   108   43  109 1  
   109   44  110 1  
   110   45  111 1  
   111   48  112 1  
   112   49  113 1  
   113   50  114 1  
   114   50  115 1  
   115   50  116 1  
   116   51  117 1  
   117   52  118 1  
   118   52  119 1  
@<TRIPOS>SUBSTRUCTURE
     1 ASN         1

