4ezw_ligand
  -I-interpret- 

119118  0  0  0  0  0  0  0  0999 V2000
   50.9190   47.3310   24.6570 N   0  3  0  0  0
   49.7550   47.8940   23.9150 C   0  0  0  0  0
   48.6880   46.7850   23.6010 C   0  0  0  0  0
   48.8040   45.6140   23.9920 O   0  0  0  0  0
   50.2440   48.7050   22.6680 C   0  0  0  0  0
   49.2420   49.8160   22.1950 C   0  0  0  0  0
   48.1890   50.0750   22.8020 O   0  0  0  0  0
   49.5930   50.4760   21.0880 N   0  0  0  0  0
   47.6090   47.1900   22.9680 N   0  0  0  0  0
   46.4830   46.3120   22.6160 C   0  0  0  0  0
   46.9330   45.3150   21.5230 C   0  0  0  0  0
   47.6080   45.7250   20.5330 O   0  0  0  0  0
   45.4540   47.2840   22.0610 C   0  0  0  0  0
   44.3090   46.6670   21.3390 C   0  0  0  0  0
   43.2590   46.3060   22.3290 C   0  0  0  0  0
   42.7950   47.4280   23.1600 N   0  0  0  0  0
   42.5600   47.3320   24.4760 C   0  0  0  0  0
   42.8090   46.1880   25.1380 N   0  0  0  0  0
   42.0750   48.3690   25.1460 N   0  0  0  0  0
   46.5900   44.0380   21.6440 N   0  0  0  0  0
   47.0390   43.0630   20.6050 C   0  0  0  0  0
   46.0430   43.0280   19.3990 C   0  0  0  0  0
   44.8910   43.4130   19.5180 O   0  0  0  0  0
   47.1410   41.6480   21.1830 C   0  0  0  0  0
   48.4120   41.3060   21.9950 C   0  0  0  0  0
   49.6850   41.5280   21.1500 C   0  0  0  0  0
   48.4630   42.1490   23.2570 C   0  0  0  0  0
   46.5190   42.5580   18.2700 N   0  0  0  0  0
   45.7820   42.8090   16.9790 C   0  0  0  0  0
   45.4940   41.5420   16.2540 C   0  0  0  0  0
   46.1890   40.5000   16.4500 O   0  0  0  0  0
   46.6750   43.7220   16.0760 C   0  0  0  0  0
   47.0630   45.0140   16.8310 C   0  0  0  0  0
   47.9520   45.8160   15.8790 C   0  0  0  0  0
   45.8460   45.8390   17.2910 C   0  0  0  0  0
   44.4060   41.5680   15.4430 N   0  0  0  0  0
   43.9330   40.3580   14.7810 C   0  0  0  0  0
   43.8830   40.6560   13.2810 C   0  0  0  0  0
   43.3910   41.7000   12.9140 O   0  0  0  0  0
   42.5100   39.9970   15.1820 C   0  0  0  0  0
   42.4610   39.6430   16.6960 C   0  0  0  0  0
   41.0280   39.6390   17.1590 C   0  0  0  0  0
   43.1370   38.3190   16.9440 C   0  0  0  0  0
   44.3480   39.6820   12.4980 N   0  0  0  0  0
   44.2070   39.8190   11.0380 C   0  0  0  0  0
   42.8550   39.2530   10.5980 C   0  0  0  0  0
   42.0970   38.6570   11.3690 O   0  0  0  0  0
   45.3760   39.1200   10.3130 C   0  0  0  0  0
   45.3830   37.7760   10.7590 O   0  0  0  0  0
   46.7600   39.8100   10.6840 C   0  0  0  0  0
   42.5890   39.4160    9.2930 N   0  0  0  0  0
   41.2520   39.4310    8.7060 C   0  0  0  0  0
   40.7300   38.0530    8.5840 C   0  0  0  0  0
   39.5300   37.8250    8.3050 O   0  0  0  0  0
   41.5420   37.1440    8.7640 O   0  0  0  0  0
   50.5841   46.8064   25.4651 H   0  0  0  0  0
   51.4451   46.7105   24.0416 H   0  0  0  0  0
   51.5215   48.0922   24.9701 H   0  0  0  0  0
   49.2307   48.6110   24.5468 H   0  0  0  0  0
   50.3540   47.9980   21.8457 H   0  0  0  0  0
   51.1705   49.2048   22.9508 H   0  0  0  0  0
   48.9909   51.2131   20.7211 H   0  0  0  0  0
   50.4631   50.2429   20.6095 H   0  0  0  0  0
   47.5493   48.1737   22.7049 H   0  0  0  0  0
   46.1030   45.7202   23.4488 H   0  0  0  0  0
   45.9772   47.9071   21.3356 H   0  0  0  0  0
   45.0321   47.8098   22.9175 H   0  0  0  0  0
   44.6425   45.7737   20.8109 H   0  0  0  0  0
   43.9059   47.3727   20.6127 H   0  0  0  0  0
   43.6949   45.5682   23.0026 H   0  0  0  0  0
   42.3975   45.9481   21.7652 H   0  0  0  0  0
   42.6436   48.3302   22.7089 H   0  0  0  0  0
   42.6248   46.1278   26.1394 H   0  0  0  0  0
   43.1821   45.3806   24.6386 H   0  0  0  0  0
   41.8794   49.2440   24.6597 H   0  0  0  0  0
   46.0274   43.7268   22.4359 H   0  0  0  0  0
   48.0203   43.3937   20.2647 H   0  0  0  0  0
   47.1494   40.9773   20.3238 H   0  0  0  0  0
   46.3094   41.5529   21.8812 H   0  0  0  0  0
   48.3705   40.2524   22.2713 H   0  0  0  0  0
   49.6503   40.8883   20.2681 H   0  0  0  0  0
   49.7371   42.5721   20.8413 H   0  0  0  0  0
   50.5631   41.2798   21.7461 H   0  0  0  0  0
   48.4822   43.2048   22.9866 H   0  0  0  0  0
   47.5818   41.9443   23.8650 H   0  0  0  0  0
   49.3615   41.9010   23.8220 H   0  0  0  0  0
   47.3874   42.0230   18.2659 H   0  0  0  0  0
   44.8294   43.2866   17.2080 H   0  0  0  0  0
   46.1160   43.9895   15.1793 H   0  0  0  0  0
   47.5827   43.1798   15.8111 H   0  0  0  0  0
   47.5852   44.7595   17.7533 H   0  0  0  0  0
   48.8351   45.2288   15.6272 H   0  0  0  0  0
   47.3953   46.0451   14.9703 H   0  0  0  0  0
   48.2569   46.7436   16.3634 H   0  0  0  0  0
   45.2565   46.1302   16.4216 H   0  0  0  0  0
   45.2332   45.2370   17.9620 H   0  0  0  0  0
   46.1902   46.7314   17.8137 H   0  0  0  0  0
   43.9115   42.4477   15.2943 H   0  0  0  0  0
   44.6007   39.5408   15.0538 H   0  0  0  0  0
   42.1797   39.1363   14.6004 H   0  0  0  0  0
   41.8554   40.8472   14.9899 H   0  0  0  0  0
   43.0025   40.3936   17.2717 H   0  0  0  0  0
   40.5933   40.6258   16.9997 H   0  0  0  0  0
   40.4662   38.8972   16.5914 H   0  0  0  0  0
   40.9909   39.3912   18.2198 H   0  0  0  0  0
   42.6258   37.5399   16.3784 H   0  0  0  0  0
   44.1775   38.3783   16.6247 H   0  0  0  0  0
   43.0949   38.0846   18.0077 H   0  0  0  0  0
   44.7928   38.8579   12.9022 H   0  0  0  0  0
   44.2417   40.8746   10.7687 H   0  0  0  0  0
   45.2512   39.1860    9.2322 H   0  0  0  0  0
   46.0991   37.3015   10.3304 H   0  0  0  0  0
   46.7342   40.8576   10.3839 H   0  0  0  0  0
   46.9211   39.7428   11.7599 H   0  0  0  0  0
   47.5699   39.3009   10.1616 H   0  0  0  0  0
   43.3814   39.5389    8.6627 H   0  0  0  0  0
   41.3035   39.8812    7.7147 H   0  0  0  0  0
   40.5873   40.0078    9.3491 H   0  0  0  0  0
   39.0624   38.6573    8.2039 H   0  0  0  0  0
  1  2  1  0  0  0
  2  3  1  0  0  0
  2  5  1  0  0  0
  3  4  2  0  0  0
  3  9  1  0  0  0
  5  6  1  0  0  0
  6  7  2  0  0  0
  6  8  1  0  0  0
  9 10  1  0  0  0
 10 11  1  0  0  0
 10 13  1  0  0  0
 11 12  2  0  0  0
 11 20  1  0  0  0
 13 14  1  0  0  0
 14 15  1  0  0  0
 15 16  1  0  0  0
 16 17  1  0  0  0
 17 18  1  0  0  0
 17 19  2  0  0  0
 20 21  1  0  0  0
 21 22  1  0  0  0
 21 24  1  0  0  0
 22 23  2  0  0  0
 22 28  1  0  0  0
 24 25  1  0  0  0
 25 26  1  0  0  0
 25 27  1  0  0  0
 28 29  1  0  0  0
 29 30  1  0  0  0
 29 32  1  0  0  0
 30 31  2  0  0  0
 30 36  1  0  0  0
 32 33  1  0  0  0
 33 34  1  0  0  0
 33 35  1  0  0  0
 36 37  1  0  0  0
 37 38  1  0  0  0
 37 40  1  0  0  0
 38 39  2  0  0  0
 38 44  1  0  0  0
 40 41  1  0  0  0
 41 42  1  0  0  0
 41 43  1  0  0  0
 44 45  1  0  0  0
 45 46  1  0  0  0
 45 48  1  0  0  0
 46 47  2  0  0  0
 46 51  1  0  0  0
 48 49  1  0  0  0
 48 50  1  0  0  0
 51 52  1  0  0  0
 52 53  1  0  0  0
 53 54  1  0  0  0
 53 55  2  0  0  0
  1 56  1  0  0  0
  1 57  1  0  0  0
  1 58  1  0  0  0
  2 59  1  0  0  0
  5 60  1  0  0  0
  5 61  1  0  0  0
  8 62  1  0  0  0
  8 63  1  0  0  0
  9 64  1  0  0  0
 10 65  1  0  0  0
 13 66  1  0  0  0
 13 67  1  0  0  0
 14 68  1  0  0  0
 14 69  1  0  0  0
 15 70  1  0  0  0
 15 71  1  0  0  0
 16 72  1  0  0  0
 18 73  1  0  0  0
 18 74  1  0  0  0
 19 75  1  0  0  0
 20 76  1  0  0  0
 21 77  1  0  0  0
 24 78  1  0  0  0
 24 79  1  0  0  0
 25 80  1  0  0  0
 26 81  1  0  0  0
 26 82  1  0  0  0
 26 83  1  0  0  0
 27 84  1  0  0  0
 27 85  1  0  0  0
 27 86  1  0  0  0
 28 87  1  0  0  0
 29 88  1  0  0  0
 32 89  1  0  0  0
 32 90  1  0  0  0
 33 91  1  0  0  0
 34 92  1  0  0  0
 34 93  1  0  0  0
 34 94  1  0  0  0
 35 95  1  0  0  0
 35 96  1  0  0  0
 35 97  1  0  0  0
 36 98  1  0  0  0
 37 99  1  0  0  0
 40100  1  0  0  0
 40101  1  0  0  0
 41102  1  0  0  0
 42103  1  0  0  0
 42104  1  0  0  0
 42105  1  0  0  0
 43106  1  0  0  0
 43107  1  0  0  0
 43108  1  0  0  0
 44109  1  0  0  0
 45110  1  0  0  0
 48111  1  0  0  0
 49112  1  0  0  0
 50113  1  0  0  0
 50114  1  0  0  0
 50115  1  0  0  0
 51116  1  0  0  0
 52117  1  0  0  0
 52118  1  0  0  0
 54119  1  0  0  0
M  END
$$$$
