2who_ligand
  -I-interpret- 

 41 44  0  0  0  0  0  0  0  0999 V2000
   23.4770   40.5870   79.4350 C   0  0  0  0  0
   24.2470   39.5840   78.8800 C   0  0  0  0  0
   23.7660   37.7450   79.1320 Br  0  0  0  0  0
   25.3650   39.9500   78.1400 C   0  0  0  0  0
   25.6950   41.2900   77.9730 C   0  0  0  0  0
   24.9090   42.2940   78.5340 C   0  0  0  0  0
   23.7870   41.9320   79.2630 C   0  0  0  0  0
   22.9260   42.8700   79.8680 N   0  0  0  0  0
   21.8590   43.4690   79.1360 C   0  0  0  0  0
   21.6770   43.2340   77.9420 O   0  0  0  0  0
   23.1050   43.1730   81.2220 C   0  0  0  0  0
   24.0320   42.6270   81.8120 O   0  0  0  0  0
   22.2450   44.0870   81.8520 C   0  0  0  0  0
   22.4040   44.4130   83.1940 C   0  0  0  0  0
   21.5360   45.3050   83.8130 C   0  0  0  0  0
   20.5040   45.9030   83.0860 C   0  0  0  0  0
   20.3300   45.5900   81.7340 C   0  0  0  0  0
   21.1990   44.6800   81.1210 C   0  0  0  0  0
   21.0150   44.3600   79.7710 C   0  0  0  0  0
   19.9950   44.9420   79.0430 C   0  0  0  0  0
   19.1350   45.8430   79.6520 C   0  0  0  0  0
   19.2950   46.1660   80.9920 C   0  0  0  0  0
   18.4540   47.0320   81.5230 N   0  0  0  0  0
   17.0480   46.6750   81.7120 C   0  0  0  0  0
   16.1490   47.8320   81.2960 C   0  0  0  0  0
   14.8240   47.3310   81.1190 O   0  0  0  0  0
   22.6011   40.3169   80.0248 H   0  0  0  0  0
   25.9886   39.1795   77.6866 H   0  0  0  0  0
   26.5798   41.5585   77.3959 H   0  0  0  0  0
   25.1712   43.3438   78.4023 H   0  0  0  0  0
   23.2166   43.9651   83.7660 H   0  0  0  0  0
   21.6612   45.5388   84.8702 H   0  0  0  0  0
   19.8348   46.6130   83.5720 H   0  0  0  0  0
   19.8664   44.6927   77.9897 H   0  0  0  0  0
   18.3301   46.2994   79.0759 H   0  0  0  0  0
   18.7854   47.9550   81.8032 H   0  0  0  0  0
   16.8759   46.4510   82.7648 H   0  0  0  0  0
   16.8158   45.8050   81.0978 H   0  0  0  0  0
   16.5101   48.2693   80.3652 H   0  0  0  0  0
   16.1562   48.6052   82.0643 H   0  0  0  0  0
   14.2439   48.0494   80.8562 H   0  0  0  0  0
  1  2  4  0  0  0
  1  7  4  0  0  0
  2  3  1  0  0  0
  2  4  4  0  0  0
  4  5  4  0  0  0
  5  6  4  0  0  0
  6  7  4  0  0  0
  7  8  1  0  0  0
  8  9  1  0  0  0
  8 11  1  0  0  0
  9 10  2  0  0  0
  9 19  1  0  0  0
 11 12  2  0  0  0
 11 13  1  0  0  0
 13 14  4  0  0  0
 13 18  4  0  0  0
 14 15  4  0  0  0
 15 16  4  0  0  0
 16 17  4  0  0  0
 17 18  4  0  0  0
 17 22  4  0  0  0
 18 19  4  0  0  0
 19 20  4  0  0  0
 20 21  4  0  0  0
 21 22  4  0  0  0
 22 23  1  0  0  0
 23 24  1  0  0  0
 24 25  1  0  0  0
 25 26  1  0  0  0
  1 27  1  0  0  0
  4 28  1  0  0  0
  5 29  1  0  0  0
  6 30  1  0  0  0
 14 31  1  0  0  0
 15 32  1  0  0  0
 16 33  1  0  0  0
 20 34  1  0  0  0
 21 35  1  0  0  0
 23 36  1  0  0  0
 24 37  1  0  0  0
 24 38  1  0  0  0
 25 39  1  0  0  0
 25 40  1  0  0  0
 26 41  1  0  0  0
M  END
$$$$
