2y7x_ligand
  -I-interpret- 

 54 58  0  0  0  0  0  0  0  0999 V2000
    7.6490    4.9200   19.0050 F   0  0  0  0  0
    7.5050    3.6470   19.4110 C   0  0  0  0  0
    8.1610    2.6140   18.7180 C   0  0  0  0  0
    9.0390    2.9240   17.5130 C   0  0  0  0  0
    9.8360    1.7210   17.0500 C   0  0  0  0  0
    9.0220    0.4870   17.0690 N   0  3  0  0  0
    8.6770    0.1320   18.4650 C   0  0  0  0  0
    7.9910    1.2850   19.1720 C   0  0  0  0  0
    7.1880    0.9920   20.2800 C   0  0  0  0  0
    6.5440    2.0350   20.9480 C   0  0  0  0  0
    6.6910    3.3750   20.5200 C   0  0  0  0  0
    6.0120    4.3820   21.2490 N   0  0  0  0  0
    6.5930    5.5330   21.6940 C   0  0  0  0  0
    7.7210    5.9480   21.4460 O   0  0  0  0  0
    4.6070    4.2470   21.6300 C   0  0  0  0  0
    4.2260    5.6310   22.1770 C   0  0  0  0  0
    5.5780    6.2420   22.5770 C   0  0  0  0  0
    5.6410    7.6780   22.3470 N   0  0  0  0  0
    6.0250    8.7300   23.5160 S   0  0  0  0  0
    5.8850   10.0030   22.8990 O   0  0  0  0  0
    5.1900    8.4420   24.6240 O   0  0  0  0  0
    7.7360    8.4420   23.9470 C   0  0  0  0  0
    8.0600    7.8230   25.1360 C   0  0  0  0  0
    8.7350    8.8290   23.0500 C   0  0  0  0  0
   10.0640    8.6260   23.3120 C   0  0  0  0  0
   10.4300    7.9900   24.5300 C   0  0  0  0  0
   11.7790    7.7440   24.8570 C   0  0  0  0  0
   12.0850    7.1440   26.0480 C   0  0  0  0  0
   13.7460    6.8670   26.4480 Cl  0  0  0  0  0
    9.4220    7.5760   25.4540 C   0  0  0  0  0
    9.7840    6.9510   26.6670 C   0  0  0  0  0
   11.1000    6.7500   26.9480 C   0  0  0  0  0
    9.7442    3.7031   17.8025 H   0  0  0  0  0
    8.3891    3.2320   16.6940 H   0  0  0  0  0
   10.6800    1.5866   17.7265 H   0  0  0  0  0
   10.1653    1.8999   16.0265 H   0  0  0  0  0
    9.5559   -0.2746   16.6503 H   0  0  0  0  0
    8.1641    0.6417   16.5394 H   0  0  0  0  0
    9.5962   -0.1062   19.0002 H   0  0  0  0  0
    7.9970   -0.7197   18.4490 H   0  0  0  0  0
    7.0669   -0.0375   20.6171 H   0  0  0  0  0
    5.9183    1.8133   21.8126 H   0  0  0  0  0
    4.4563    3.4590   22.3678 H   0  0  0  0  0
    3.9805    3.9524   20.7881 H   0  0  0  0  0
    3.5295    5.5728   23.0135 H   0  0  0  0  0
    3.6931    6.2378   21.4449 H   0  0  0  0  0
    5.7586    6.1110   23.6439 H   0  0  0  0  0
    5.4354    8.0349   21.4139 H   0  0  0  0  0
    7.2736    7.5244   25.8292 H   0  0  0  0  0
    8.4480    9.3069   22.1134 H   0  0  0  0  0
   10.8259    8.9456   22.6010 H   0  0  0  0  0
   12.5723    8.0296   24.1662 H   0  0  0  0  0
    9.0162    6.6324   27.3720 H   0  0  0  0  0
   11.3852    6.2758   27.8871 H   0  0  0  0  0
  1  2  1  0  0  0
  2  3  4  0  0  0
  2 11  4  0  0  0
  3  4  1  0  0  0
  3  8  4  0  0  0
  4  5  1  0  0  0
  5  6  1  0  0  0
  6  7  1  0  0  0
  7  8  1  0  0  0
  8  9  4  0  0  0
  9 10  4  0  0  0
 10 11  4  0  0  0
 11 12  1  0  0  0
 12 13  1  0  0  0
 12 15  1  0  0  0
 13 14  2  0  0  0
 13 17  1  0  0  0
 15 16  1  0  0  0
 16 17  1  0  0  0
 17 18  1  0  0  0
 18 19  1  0  0  0
 19 20  2  0  0  0
 19 21  2  0  0  0
 19 22  1  0  0  0
 22 23  4  0  0  0
 22 24  4  0  0  0
 23 30  4  0  0  0
 24 25  4  0  0  0
 25 26  4  0  0  0
 26 27  4  0  0  0
 26 30  4  0  0  0
 27 28  4  0  0  0
 28 29  1  0  0  0
 28 32  4  0  0  0
 30 31  4  0  0  0
 31 32  4  0  0  0
  4 33  1  0  0  0
  4 34  1  0  0  0
  5 35  1  0  0  0
  5 36  1  0  0  0
  6 37  1  0  0  0
  6 38  1  0  0  0
  7 39  1  0  0  0
  7 40  1  0  0  0
  9 41  1  0  0  0
 10 42  1  0  0  0
 15 43  1  0  0  0
 15 44  1  0  0  0
 16 45  1  0  0  0
 16 46  1  0  0  0
 17 47  1  0  0  0
 18 48  1  0  0  0
 23 49  1  0  0  0
 24 50  1  0  0  0
 25 51  1  0  0  0
 27 52  1  0  0  0
 31 53  1  0  0  0
 32 54  1  0  0  0
M  END
$$$$
