2y7i_ligand
  -I-interpret- 

 27 26  0  0  0  0  0  0  0  0999 V2000
    1.5220    2.5190   36.5710 N   0  3  0  0  0
    1.3060    1.5670   37.7050 C   0  0  0  0  0
    2.6500    1.0640   38.2180 C   0  0  0  0  0
    2.6940    0.2440   39.1320 O   0  0  0  0  0
    0.4220    0.3780   37.2730 C   0  0  0  0  0
    0.9400   -0.3730   36.0330 C   0  0  0  0  0
    0.1250   -1.6270   35.7240 C   0  0  0  0  0
    0.4370   -2.1070   34.3750 N   0  0  0  0  0
   -0.0810   -3.1960   33.8100 C   0  0  0  0  0
   -0.9540   -3.9660   34.4630 N   0  0  0  0  0
    0.2790   -3.5170   32.5850 N   0  0  0  0  0
    3.7180    1.4530   37.7080 O   0  0  0  0  0
    2.1081    3.2925   36.8850 H   0  0  0  0  0
    1.9830    2.0317   35.8027 H   0  0  0  0  0
    0.6216    2.8795   36.2551 H   0  0  0  0  0
    0.7887    2.0966   38.5050 H   0  0  0  0  0
   -0.5586    0.7808   37.0196 H   0  0  0  0  0
    0.4115   -0.3328   38.0993 H   0  0  0  0  0
    1.9668   -0.6803   36.2313 H   0  0  0  0  0
    0.8617    0.2976   35.1773 H   0  0  0  0  0
   -0.9369   -1.3885   35.7833 H   0  0  0  0  0
    0.3732   -2.4036   36.4475 H   0  0  0  0  0
    1.1033   -1.5643   33.8256 H   0  0  0  0  0
   -1.3376   -4.7969   34.0127 H   0  0  0  0  0
   -1.2375   -3.7235   35.4123 H   0  0  0  0  0
    0.9470   -2.9342   32.0805 H   0  0  0  0  0
    3.5271    2.0867   37.0126 H   0  0  0  0  0
  1  2  1  0  0  0
  2  3  1  0  0  0
  2  5  1  0  0  0
  3  4  2  0  0  0
  3 12  1  0  0  0
  5  6  1  0  0  0
  6  7  1  0  0  0
  7  8  1  0  0  0
  8  9  1  0  0  0
  9 10  1  0  0  0
  9 11  2  0  0  0
  1 13  1  0  0  0
  1 14  1  0  0  0
  1 15  1  0  0  0
  2 16  1  0  0  0
  5 17  1  0  0  0
  5 18  1  0  0  0
  6 19  1  0  0  0
  6 20  1  0  0  0
  7 21  1  0  0  0
  7 22  1  0  0  0
  8 23  1  0  0  0
 10 24  1  0  0  0
 10 25  1  0  0  0
 11 26  1  0  0  0
 12 27  1  0  0  0
M  END
$$$$
