3uh4_ligand
  -I-interpret- 

 32 34  0  0  0  0  0  0  0  0999 V2000
  -23.3660   -8.5370    8.2000 N   0  0  0  0  0
  -24.5070   -7.9250    7.8160 C   0  0  0  0  0
  -25.6060   -8.5920    7.4440 N   0  0  0  0  0
  -25.6390   -9.9290    7.5170 C   0  0  0  0  0
  -24.5330  -10.6420    8.0540 C   0  0  0  0  0
  -23.3850   -9.8810    8.3130 C   0  0  0  0  0
  -22.2730  -10.5080    8.7590 O   0  0  0  0  0
  -23.9010   -1.4400    7.5820 F   0  0  0  0  0
  -23.7810   -2.0830    5.5550 F   0  0  0  0  0
  -25.7290   -1.7220    6.3650 F   0  0  0  0  0
  -25.4900   -5.8760    6.7380 C   0  0  0  0  0
  -23.5470   -5.5850    8.2160 C   0  0  0  0  0
  -25.4840   -4.5050    6.4530 C   0  0  0  0  0
  -23.5510   -4.2000    7.9410 C   0  0  0  0  0
  -26.8790  -12.0970    6.9370 C   0  0  0  0  0
  -26.9700  -10.5630    7.0920 C   0  0  0  0  0
  -24.4850  -12.1530    8.2730 C   0  0  0  0  0
  -26.1490  -12.8390    8.4240 S   0  0  0  0  0
  -24.4990   -6.4520    7.5820 C   0  0  0  0  0
  -24.5330   -3.6520    7.0720 C   0  0  0  0  0
  -24.5080   -2.1850    6.6660 C   0  0  0  0  0
  -22.5202   -8.0021    8.3975 H   0  0  0  0  0
  -26.2643   -6.5110    6.3075 H   0  0  0  0  0
  -22.8176   -5.9976    8.9130 H   0  0  0  0  0
  -26.2113   -4.0918    5.7542 H   0  0  0  0  0
  -22.8015   -3.5517    8.3949 H   0  0  0  0  0
  -26.2506  -12.3309    6.0777 H   0  0  0  0  0
  -27.8816  -12.5001    6.7940 H   0  0  0  0  0
  -27.2449  -10.1451    6.1235 H   0  0  0  0  0
  -27.7049  -10.3487    7.8679 H   0  0  0  0  0
  -23.9386  -12.3554    9.1942 H   0  0  0  0  0
  -23.9930  -12.6148    7.4170 H   0  0  0  0  0
  2  1  1  0  0  0
  1  6  1  0  0  0
  2  3  2  0  0  0
 19  2  1  0  0  0
  3  4  1  0  0  0
  4  5  2  0  0  0
  4 16  1  0  0  0
  6  5  1  0  0  0
  5 17  1  0  0  0
  6  7  2  0  0  0
 21  8  1  0  0  0
 21  9  1  0  0  0
 21 10  1  0  0  0
 13 11  4  0  0  0
 11 19  4  0  0  0
 14 12  4  0  0  0
 12 19  4  0  0  0
 20 13  4  0  0  0
 20 14  4  0  0  0
 16 15  1  0  0  0
 15 18  1  0  0  0
 17 18  1  0  0  0
 20 21  1  0  0  0
  1 22  1  0  0  0
 11 23  1  0  0  0
 12 24  1  0  0  0
 13 25  1  0  0  0
 14 26  1  0  0  0
 15 27  1  0  0  0
 15 28  1  0  0  0
 16 29  1  0  0  0
 16 30  1  0  0  0
 17 31  1  0  0  0
 17 32  1  0  0  0
M  END
$$$$
