3zw3_ligand
  -I-interpret- 

 31 33  0  0  0  0  0  0  0  0999 V2000
   51.7910   15.7450   30.3700 C   0  0  0  0  0
   50.3140   15.7200   30.6570 C   0  0  0  0  0
   49.8290   16.5620   31.3550 O   0  0  0  0  0
   49.6070   14.7580   30.0380 N   0  0  0  0  0
   48.2950   14.4400   30.1060 C   0  0  0  0  0
   47.3380   14.9630   30.8760 C   0  0  0  0  0
   46.1770   14.2790   30.6530 N   0  0  0  0  0
   44.8960   14.3720   31.1780 C   0  0  0  0  0
   43.9030   13.4900   30.7490 C   0  0  0  0  0
   42.4910   13.4430   31.1970 C   0  0  0  0  0
   41.9730   14.0860   32.3410 C   0  0  0  0  0
   42.7010   15.1270   33.6360 S   0  0  0  0  0
   41.1980   15.3490   34.4750 C   0  0  0  0  0
   40.9950   16.0230   35.4790 O   0  0  0  0  0
   40.3200   14.6540   33.7870 N   0  0  0  0  0
   40.5900   14.0270   32.7490 C   0  0  0  0  0
   39.7490   13.4260   32.1900 O   0  0  0  0  0
   44.2390   12.5350   29.7930 C   0  0  0  0  0
   45.4840   12.4910   29.2900 C   0  0  0  0  0
   46.4950   13.3500   29.7080 C   0  0  0  0  0
   47.7950   13.4640   29.3770 N   0  0  0  0  0
   52.0478   16.6813   29.8746 H   0  0  0  0  0
   52.3432   15.6646   31.3063 H   0  0  0  0  0
   52.0481   14.9071   29.7220 H   0  0  0  0  0
   50.1536   14.1681   29.4106 H   0  0  0  0  0
   47.4624   15.7966   31.5672 H   0  0  0  0  0
   44.6656   15.1325   31.9241 H   0  0  0  0  0
   41.7943   12.8630   30.5918 H   0  0  0  0  0
   39.3583   14.6278   34.1259 H   0  0  0  0  0
   43.4896   11.8209   29.4517 H   0  0  0  0  0
   45.7113   11.7513   28.5223 H   0  0  0  0  0
  1  2  1  0  0  0
  2  3  2  0  0  0
  2  4  1  0  0  0
  4  5  1  0  0  0
  5  6  4  0  0  0
  5 21  4  0  0  0
  6  7  4  0  0  0
  7  8  4  0  0  0
  7 20  4  0  0  0
  8  9  4  0  0  0
  9 10  1  0  0  0
  9 18  4  0  0  0
 10 11  2  0  0  0
 11 12  1  0  0  0
 11 16  1  0  0  0
 12 13  1  0  0  0
 13 14  2  0  0  0
 13 15  1  0  0  0
 15 16  1  0  0  0
 16 17  2  0  0  0
 18 19  4  0  0  0
 19 20  4  0  0  0
 20 21  4  0  0  0
  1 22  1  0  0  0
  1 23  1  0  0  0
  1 24  1  0  0  0
  4 25  1  0  0  0
  6 26  1  0  0  0
  8 27  1  0  0  0
 10 28  1  0  0  0
 15 29  1  0  0  0
 18 30  1  0  0  0
 19 31  1  0  0  0
M  END
$$$$
