4rsk_ligand
  -I-interpret- 

 34 35  0  0  0  0  0  0  0  0999 V2000
  -17.4780   40.5510   26.9940 N   0  0  0  0  0
  -16.4660   39.6670   27.3050 C   0  0  0  0  0
  -16.4880   38.4790   26.6180 N   0  0  0  0  0
  -17.3880   38.1090   25.6330 C   0  0  0  0  0
  -18.4280   39.0830   25.3800 C   0  0  0  0  0
  -18.4400   40.2460   26.0590 C   0  0  0  0  0
  -15.6160   39.8940   28.1380 O   0  0  0  0  0
  -17.2600   37.0220   25.0570 O   0  0  0  0  0
  -15.8830   45.6620   25.8820 P   0  0  0  0  0
  -15.6570   44.9480   24.6010 O   0  0  0  0  0
  -14.8210   45.2800   26.8370 O   0  0  0  0  0
  -16.0660   47.1290   25.7420 O   0  0  0  0  0
  -21.4530   43.4440   26.6720 O   0  0  0  0  0
  -20.1820   43.7310   26.0890 C   0  0  0  0  0
  -19.0130   43.5950   27.0750 C   0  0  0  0  0
  -18.9560   42.2550   27.6550 O   0  0  0  0  0
  -17.6480   43.7800   26.4070 C   0  0  0  0  0
  -17.2880   45.1610   26.4590 O   0  0  0  0  0
  -16.6950   42.9200   27.2490 C   0  0  0  0  0
  -16.2110   43.5960   28.4060 O   0  0  0  0  0
  -17.6080   41.8070   27.7310 C   0  0  0  0  0
  -15.7670   37.7985   26.8578 H   0  0  0  0  0
  -19.2012   38.8754   24.6403 H   0  0  0  0  0
  -19.2344   40.9660   25.8622 H   0  0  0  0  0
  -16.3432   45.1910   23.9751 H   0  0  0  0  0
  -16.7672   47.3040   25.1101 H   0  0  0  0  0
  -22.1388   43.5463   26.0080 H   0  0  0  0  0
  -20.0194   43.0120   25.2860 H   0  0  0  0  0
  -20.2040   44.7657   25.7468 H   0  0  0  0  0
  -19.1980   44.3686   27.8202 H   0  0  0  0  0
  -17.6287   43.4861   25.3575 H   0  0  0  0  0
  -15.8196   42.6209   26.6725 H   0  0  0  0  0
  -15.6276   44.3096   28.1377 H   0  0  0  0  0
  -17.3069   41.5858   28.7550 H   0  0  0  0  0
  1 21  1  0  0  0
  1  6  1  0  0  0
  1  2  1  0  0  0
  2  7  2  0  0  0
  2  3  1  0  0  0
  3  4  1  0  0  0
  4  8  2  0  0  0
  4  5  1  0  0  0
  5  6  2  0  0  0
 21 19  1  0  0  0
 21 16  1  0  0  0
 16 15  1  0  0  0
 15 17  1  0  0  0
 15 14  1  0  0  0
 14 13  1  0  0  0
 17 19  1  0  0  0
 17 18  1  0  0  0
 18  9  1  0  0  0
  9 12  1  0  0  0
  9 11  2  0  0  0
  9 10  1  0  0  0
 19 20  1  0  0  0
  3 22  1  0  0  0
  5 23  1  0  0  0
  6 24  1  0  0  0
 10 25  1  0  0  0
 12 26  1  0  0  0
 13 27  1  0  0  0
 14 28  1  0  0  0
 14 29  1  0  0  0
 15 30  1  0  0  0
 17 31  1  0  0  0
 19 32  1  0  0  0
 20 33  1  0  0  0
 21 34  1  0  0  0
M  END
$$$$
