3tao_ligand
  -I-interpret- 

 16 15  0  0  0  0  0  0  0  0999 V2000
  -22.2280    7.3000   12.3210 C   0  0  0  0  0
  -23.7250    7.4090   12.4640 C   0  0  0  0  0
  -21.6150    6.3080   12.9490 N   0  0  0  0  0
  -20.3250    5.9940   12.6460 O   0  0  0  0  0
  -21.5370    8.2480   11.5620 O   0  0  0  0  0
  -24.0590    8.7400   12.8080 O   0  0  0  0  0
  -25.5210   10.4580   13.8580 O   0  0  0  0  0
  -26.1630    8.0020   14.0740 O   0  0  0  0  0
  -26.4470    9.2160   11.9200 O   0  0  0  0  0
  -25.6050    9.0890   13.1770 P   0  0  0  0  0
  -24.0702    6.7301   13.2438 H   0  0  0  0  0
  -24.2047    7.1412   11.5226 H   0  0  0  0  0
  -22.1119    5.7762   13.6636 H   0  0  0  0  0
  -20.0399    5.2568   13.1908 H   0  0  0  0  0
  -25.1617   11.0996   13.2409 H   0  0  0  0  0
  -26.0835    9.9068   11.3612 H   0  0  0  0  0
  1  2  1  0  0  0
  1  3  1  0  0  0
  1  5  2  0  0  0
  2  6  1  0  0  0
  3  4  1  0  0  0
  6 10  1  0  0  0
 10  7  1  0  0  0
 10  8  2  0  0  0
 10  9  1  0  0  0
  2 11  1  0  0  0
  2 12  1  0  0  0
  3 13  1  0  0  0
  4 14  1  0  0  0
  7 15  1  0  0  0
  9 16  1  0  0  0
M  END
$$$$
