4i0t_ligand
  -I-interpret- 

 46 49  0  0  0  0  0  0  0  0999 V2000
    3.0170   -1.8210   16.0550 N   0  0  0  0  0
    1.7270   -1.8220   15.7100 C   0  0  0  0  0
    1.2110   -0.7470   14.9500 C   0  0  0  0  0
    2.0450    0.2590   14.5790 N   0  0  0  0  0
    3.3240    0.2430   14.9310 C   0  0  0  0  0
    3.8210   -0.8440   15.6850 C   0  0  0  0  0
    4.4820    1.1440   14.7150 C   0  0  0  0  0
    5.5500    0.5900   15.3370 C   0  0  0  0  0
    5.1690   -0.5870   15.8910 N   0  0  0  0  0
   -0.2380   -0.7500   14.5900 C   0  0  0  0  0
    4.4460    2.4760   14.0500 C   0  0  0  0  0
    3.2430    2.8630   13.5690 N   0  0  0  0  0
    5.4630    3.1660   14.1050 O   0  0  0  0  0
    2.9220    4.1610   12.9430 C   0  0  0  0  0
    3.1120    5.2860   13.9450 C   0  0  0  0  0
    3.7650    4.5200   11.7260 C   0  0  0  0  0
   -1.1990   -1.6020   15.0920 N   0  0  0  0  0
   -2.3590   -1.3460   14.5930 C   0  0  0  0  0
   -2.2150   -0.3100   13.7140 N   0  0  0  0  0
   -0.8750    0.0580   13.7140 C   0  0  0  0  0
    1.4560    4.1240   12.5690 C   0  0  0  0  0
   -3.2570    0.3150   12.8580 C   0  0  0  0  0
   -2.7120    1.4970   12.0060 C   0  0  0  0  0
   -1.2400    1.3450   11.6510 C   0  0  0  0  0
   -0.3290    1.1840   12.8870 C   0  0  0  0  0
    1.0777   -2.6440   16.0115 H   0  0  0  0  0
    6.5506    1.0197   15.3843 H   0  0  0  0  0
    2.4803    2.1902   13.6465 H   0  0  0  0  0
    2.4518    5.1268   14.7976 H   0  0  0  0  0
    4.1481    5.2983   14.2834 H   0  0  0  0  0
    2.8720    6.2376   13.4707 H   0  0  0  0  0
    4.8154    4.5646   12.0136 H   0  0  0  0  0
    3.6299    3.7611   10.9554 H   0  0  0  0  0
    3.4507    5.4902   11.3413 H   0  0  0  0  0
   -3.2887   -1.8633   14.8297 H   0  0  0  0  0
    1.2811    3.3059   11.8702 H   0  0  0  0  0
    0.8571    3.9710   13.4668 H   0  0  0  0  0
    1.1776    5.0685   12.1016 H   0  0  0  0  0
   -4.0345    0.7078   13.5133 H   0  0  0  0  0
   -3.6256   -0.4476   12.1719 H   0  0  0  0  0
   -2.8192    2.4079   12.5949 H   0  0  0  0  0
   -3.2773    1.5231   11.0744 H   0  0  0  0  0
   -0.9311    2.2507   11.1291 H   0  0  0  0  0
   -1.1377    0.4441   11.0460 H   0  0  0  0  0
    0.6934    0.9661   12.5783 H   0  0  0  0  0
   -0.3115    2.1064   13.4674 H   0  0  0  0  0
  1  2  4  0  0  0
  1  6  4  0  0  0
  2  3  4  0  0  0
  3  4  4  0  0  0
  3 10  1  0  0  0
  4  5  4  0  0  0
  5  6  4  0  0  0
  5  7  4  0  0  0
  6  9  4  0  0  0
  7  8  4  0  0  0
  7 11  1  0  0  0
  8  9  4  0  0  0
 10 17  4  0  0  0
 10 20  4  0  0  0
 11 12  1  0  0  0
 11 13  2  0  0  0
 12 14  1  0  0  0
 14 15  1  0  0  0
 14 16  1  0  0  0
 14 21  1  0  0  0
 17 18  4  0  0  0
 18 19  4  0  0  0
 19 20  4  0  0  0
 19 22  1  0  0  0
 20 25  1  0  0  0
 22 23  1  0  0  0
 23 24  1  0  0  0
 24 25  1  0  0  0
  2 26  1  0  0  0
  8 27  1  0  0  0
 12 28  1  0  0  0
 15 29  1  0  0  0
 15 30  1  0  0  0
 15 31  1  0  0  0
 16 32  1  0  0  0
 16 33  1  0  0  0
 16 34  1  0  0  0
 18 35  1  0  0  0
 21 36  1  0  0  0
 21 37  1  0  0  0
 21 38  1  0  0  0
 22 39  1  0  0  0
 22 40  1  0  0  0
 23 41  1  0  0  0
 23 42  1  0  0  0
 24 43  1  0  0  0
 24 44  1  0  0  0
 25 45  1  0  0  0
 25 46  1  0  0  0
M  END
$$$$
