5kbh_ligand
  -I-interpret- 

 13 13  0  0  0  0  0  0  0  0999 V2000
   31.3500    3.2170  -14.6740 C   0  0  0  0  0
   30.1170    3.3100  -15.2810 C   0  0  0  0  0
   31.3990    2.7950  -13.3600 C   0  0  0  0  0
   28.9930    2.9730  -14.5340 C   0  0  0  0  0
   30.3220    2.4690  -12.6110 C   0  0  0  0  0
   29.0990    2.5670  -13.2070 C   0  0  0  0  0
   27.9930    2.2430  -12.4960 O   0  0  0  0  0
   32.9510    2.6690  -12.5960 Cl  0  0  0  0  0
   32.2616    3.4694  -15.2157 H   0  0  0  0  0
   30.0248    3.6381  -16.3164 H   0  0  0  0  0
   28.0082    3.0281  -14.9979 H   0  0  0  0  0
   30.4263    2.1422  -11.5764 H   0  0  0  0  0
   28.2490    1.9878  -11.6067 H   0  0  0  0  0
  1  2  4  0  0  0
  1  3  4  0  0  0
  2  4  4  0  0  0
  3  5  4  0  0  0
  3  8  1  0  0  0
  4  6  4  0  0  0
  5  6  4  0  0  0
  6  7  1  0  0  0
  1  9  1  0  0  0
  2 10  1  0  0  0
  4 11  1  0  0  0
  5 12  1  0  0  0
  7 13  1  0  0  0
M  END
$$$$
