4tww_ligand
  -I-interpret- 

 59 62  0  0  0  0  0  0  0  0999 V2000
    1.6270   18.8580  -11.4620 C   0  0  0  0  0
    1.8450   19.3870  -12.7420 C   0  0  0  0  0
    2.0390   20.7540  -12.9010 C   0  0  0  0  0
    2.0270   21.5950  -11.7770 C   0  0  0  0  0
    1.8160   21.0510  -10.4930 C   0  0  0  0  0
    1.6180   19.6780  -10.3350 C   0  0  0  0  0
    3.5490   17.1090  -10.0730 C   0  0  0  0  0
   -1.0140   15.4850   -5.4380 O   0  0  0  0  0
   -0.1980   15.3360   -6.3650 C   0  0  0  0  0
   -0.4100   14.3510   -7.5480 C   0  0  0  0  0
   -1.0440   13.0350   -7.1020 C   0  0  0  0  0
   -2.0920   12.4390   -8.0350 C   0  0  0  0  0
   -2.5760   11.1880   -7.9040 N   0  0  0  0  0
   -3.5330   10.9820   -8.8230 C   0  0  0  0  0
   -3.6390   12.1030   -9.5770 N   0  0  0  0  0
   -2.7640   13.0250   -9.1110 C   0  0  0  0  0
    0.8250   13.9830   -8.3250 N   0  3  0  0  0
    1.5170   15.1900   -8.8070 C   0  0  0  0  0
    1.8680   15.2340  -10.2820 C   0  0  0  0  0
    3.0230   14.2740  -10.6420 C   0  0  0  0  0
    4.3810   14.7090  -10.1410 C   0  0  0  0  0
    5.4540   13.8000  -10.7220 C   0  0  0  0  0
    6.8290   14.1590  -10.1880 C   0  0  0  0  0
    7.1470   15.6400  -10.4350 C   0  0  0  0  0
    6.0260   16.5770   -9.9770 C   0  0  0  0  0
    4.6530   16.1530  -10.5390 C   0  0  0  0  0
    2.2440   16.6440  -10.6000 N   0  0  0  0  0
    1.4300   17.3840  -11.3570 C   0  0  0  0  0
    0.5540   16.8990  -12.0500 O   0  0  0  0  0
    2.2990   23.4690  -12.0190 Br  0  0  0  0  0
    1.8623   18.7280  -13.6100 H   0  0  0  0  0
    2.1999   21.1716  -13.8949 H   0  0  0  0  0
    1.8075   21.7048   -9.6209 H   0  0  0  0  0
    1.4586   19.2532   -9.3439 H   0  0  0  0  0
    3.7554   18.1131  -10.4435 H   0  0  0  0  0
    3.5173   17.1266   -8.9836 H   0  0  0  0  0
    0.7163   15.9292   -6.3464 H   0  0  0  0  0
   -1.0684   14.9247   -8.2003 H   0  0  0  0  0
   -1.5584   13.2484   -6.1650 H   0  0  0  0  0
   -0.2328   12.3086   -7.0536 H   0  0  0  0  0
   -4.1216   10.0723   -8.9418 H   0  0  0  0  0
   -2.6127   14.0317   -9.5005 H   0  0  0  0  0
    0.5521   13.4169   -9.1284 H   0  0  0  0  0
    1.4556   13.4635   -7.7144 H   0  0  0  0  0
    2.4662   15.2244   -8.2723 H   0  0  0  0  0
    0.8278   16.0175   -8.6385 H   0  0  0  0  0
    1.0104   14.9064  -10.8696 H   0  0  0  0  0
    3.0810   14.2395  -11.7299 H   0  0  0  0  0
    2.8008   13.3172  -10.1695 H   0  0  0  0  0
    4.3973   14.6384   -9.0534 H   0  0  0  0  0
    5.4605   13.9191  -11.8055 H   0  0  0  0  0
    5.2290   12.7719  -10.4382 H   0  0  0  0  0
    7.5732   13.5514  -10.7030 H   0  0  0  0  0
    6.8462   13.9725   -9.1142 H   0  0  0  0  0
    7.2767   15.7772  -11.5085 H   0  0  0  0  0
    8.0412   15.8875   -9.8629 H   0  0  0  0  0
    6.2491   17.5795  -10.3421 H   0  0  0  0  0
    5.9748   16.5411   -8.8888 H   0  0  0  0  0
    4.6636   16.2117  -11.6274 H   0  0  0  0  0
  1  2  4  0  0  0
  1  6  4  0  0  0
 28  1  1  0  0  0
  2  3  4  0  0  0
  3  4  4  0  0  0
  5  4  4  0  0  0
  4 30  1  0  0  0
  6  5  4  0  0  0
  7 26  1  0  0  0
 27  7  1  0  0  0
  9  8  2  0  0  0
 10  9  1  0  0  0
 10 11  1  0  0  0
 17 10  1  0  0  0
 11 12  1  0  0  0
 12 13  4  0  0  0
 12 16  4  0  0  0
 13 14  4  0  0  0
 15 14  4  0  0  0
 16 15  4  0  0  0
 18 17  1  0  0  0
 19 18  1  0  0  0
 19 20  1  0  0  0
 27 19  1  0  0  0
 20 21  1  0  0  0
 21 22  1  0  0  0
 26 21  1  0  0  0
 22 23  1  0  0  0
 24 23  1  0  0  0
 25 24  1  0  0  0
 26 25  1  0  0  0
 27 28  1  0  0  0
 28 29  2  0  0  0
  2 31  1  0  0  0
  3 32  1  0  0  0
  5 33  1  0  0  0
  6 34  1  0  0  0
  7 35  1  0  0  0
  7 36  1  0  0  0
  9 37  1  0  0  0
 10 38  1  0  0  0
 11 39  1  0  0  0
 11 40  1  0  0  0
 14 41  1  0  0  0
 16 42  1  0  0  0
 17 43  1  0  0  0
 17 44  1  0  0  0
 18 45  1  0  0  0
 18 46  1  0  0  0
 19 47  1  0  0  0
 20 48  1  0  0  0
 20 49  1  0  0  0
 21 50  1  0  0  0
 22 51  1  0  0  0
 22 52  1  0  0  0
 23 53  1  0  0  0
 23 54  1  0  0  0
 24 55  1  0  0  0
 24 56  1  0  0  0
 25 57  1  0  0  0
 25 58  1  0  0  0
 26 59  1  0  0  0
M  END
$$$$
