4x11_ligand
  -I-interpret- 

 40 40  0  0  0  0  0  0  0  0999 V2000
   17.9520  -21.4950    9.8970 C   0  0  0  0  0
   17.9060  -23.0170    9.7810 C   0  0  0  0  0
   19.1050  -23.6000    9.0130 C   0  0  0  0  0
   20.4150  -23.3880    9.7840 C   0  0  0  0  0
   20.3090  -23.9570   11.1890 C   0  0  0  0  0
   19.1090  -23.3190   11.8810 C   0  0  0  0  0
   18.9030  -23.8110   13.3170 C   0  0  0  0  0
   17.5520  -23.3730   13.8990 C   0  0  0  0  0
   17.4350  -23.7250   15.3810 C   0  0  0  0  0
   22.1030  -24.4380   12.7810 C   0  0  0  0  0
   23.3330  -23.9170   13.4770 C   0  0  0  0  0
   21.5070  -23.6110   11.9260 N   0  0  0  0  0
   18.4820  -20.7870    9.0000 O   0  0  0  0  0
   17.4470  -20.9750   10.9220 O   0  0  0  0  0
   16.6650  -23.4440    9.1560 O   0  0  0  0  0
   21.5480  -23.9790    9.1400 O   0  0  0  0  0
   17.9330  -23.5540   11.1080 O   0  0  0  0  0
   19.0390  -25.2290   13.3470 O   0  0  0  0  0
   17.3460  -21.9490   13.7340 O   0  0  0  0  0
   16.2900  -23.0370   15.9270 O   0  0  0  0  0
   21.6940  -25.5620   12.9880 O   0  0  0  0  0
   19.1817  -23.0929    8.0512 H   0  0  0  0  0
   18.9474  -24.6707    8.8832 H   0  0  0  0  0
   20.5683  -22.3093    9.8164 H   0  0  0  0  0
   20.1935  -25.0401   11.1492 H   0  0  0  0  0
   19.3121  -22.2503   11.9497 H   0  0  0  0  0
   19.6662  -23.3548   13.9475 H   0  0  0  0  0
   16.7850  -23.9151   13.3459 H   0  0  0  0  0
   18.3387  -23.4191   15.9082 H   0  0  0  0  0
   17.3127  -24.8017   15.4988 H   0  0  0  0  0
   23.1734  -23.9337   14.5551 H   0  0  0  0  0
   24.1859  -24.5471   13.2249 H   0  0  0  0  0
   23.5267  -22.8945   13.1529 H   0  0  0  0  0
   21.9142  -22.6869   11.7823 H   0  0  0  0  0
   18.8113  -21.3543    8.2990 H   0  0  0  0  0
   16.6219  -23.0961    8.2623 H   0  0  0  0  0
   21.6277  -23.6284    8.2499 H   0  0  0  0  0
   19.8904  -25.4756   12.9783 H   0  0  0  0  0
   16.4955  -21.7046   14.1062 H   0  0  0  0  0
   16.2048  -23.2498   16.8592 H   0  0  0  0  0
  2  1  1  0  0  0
  1 13  1  0  0  0
  1 14  2  0  0  0
  3  2  1  0  0  0
  2 15  1  0  0  0
 17  2  1  0  0  0
  4  3  1  0  0  0
  5  4  1  0  0  0
  4 16  1  0  0  0
  5  6  1  0  0  0
 12  5  1  0  0  0
  6  7  1  0  0  0
  6 17  1  0  0  0
  7  8  1  0  0  0
  7 18  1  0  0  0
  8  9  1  0  0  0
  8 19  1  0  0  0
  9 20  1  0  0  0
 10 11  1  0  0  0
 10 12  1  0  0  0
 10 21  2  0  0  0
  3 22  1  0  0  0
  3 23  1  0  0  0
  4 24  1  0  0  0
  5 25  1  0  0  0
  6 26  1  0  0  0
  7 27  1  0  0  0
  8 28  1  0  0  0
  9 29  1  0  0  0
  9 30  1  0  0  0
 11 31  1  0  0  0
 11 32  1  0  0  0
 11 33  1  0  0  0
 12 34  1  0  0  0
 13 35  1  0  0  0
 15 36  1  0  0  0
 16 37  1  0  0  0
 18 38  1  0  0  0
 19 39  1  0  0  0
 20 40  1  0  0  0
M  END
$$$$
