6duf_ligand
  -I-interpret- 

 71 75  0  0  0  0  0  0  0  0999 V2000
   53.5340  -27.8420   37.8720 C   0  0  0  0  0
   52.0160  -27.5400   37.9960 C   0  0  0  0  0
   51.0470  -28.4260   38.4980 C   0  0  0  0  0
   49.6600  -28.1080   38.5890 C   0  0  0  0  0
   48.6210  -28.9980   39.1530 C   0  0  0  0  0
   48.7890  -30.1110   39.8740 C   0  0  0  0  0
   47.6630  -30.7520   40.3530 C   0  0  0  0  0
   49.2880  -26.8240   38.1820 C   0  0  0  0  0
   50.1870  -25.9000   37.6800 C   0  0  0  0  0
   49.6970  -24.5200   37.2360 C   0  0  0  0  0
   51.5470  -26.2660   37.5770 C   0  0  0  0  0
   52.8320  -25.3390   35.8730 C   0  0  0  0  0
   52.9460  -26.3730   33.8410 C   0  0  0  0  0
   51.7200  -28.4590   33.5080 C   0  0  0  0  0
   52.3850  -29.5000   34.3760 C   0  0  0  0  0
   51.4860  -30.7160   34.5980 C   0  0  0  0  0
   49.9990  -32.2530   33.7100 C   0  0  0  0  0
   50.7150  -33.5030   34.1750 C   0  0  0  0  0
   52.0270  -33.8450   33.7330 C   0  0  0  0  0
   52.6500  -35.0000   34.1910 C   0  0  0  0  0
   52.0830  -35.9030   35.1020 C   0  0  0  0  0
   50.8210  -35.5230   35.4870 C   0  0  0  0  0
   50.1640  -34.3820   35.0270 C   0  0  0  0  0
   50.0600  -30.1320   32.6200 C   0  0  0  0  0
   51.0260  -29.0200   32.2490 C   0  0  0  0  0
   54.0380  -24.3790   34.1340 C   0  0  0  0  0
   54.8520  -23.2370   33.7900 C   0  0  0  0  0
   55.0020  -22.3800   34.8400 C   0  0  0  0  0
   53.6050  -24.3280   35.4440 C   0  0  0  0  0
   46.7070  -31.2920   40.7880 N   0  0  0  0  0
   52.4710  -26.3980   35.1270 N   0  0  0  0  0
   52.6280  -27.4420   32.9560 N   0  0  0  0  0
   50.8750  -31.1950   33.2470 N   0  3  0  0  0
   53.4570  -38.1210   34.3230 N   0  0  0  0  0
   53.7200  -25.4130   33.2980 N   0  0  0  0  0
   52.3860  -25.3170   37.1150 O   0  0  0  0  0
   54.0190  -37.0590   36.5060 O   0  0  0  0  0
   51.9090  -38.1760   36.3040 O   0  0  0  0  0
   52.8880  -37.3720   35.6830 S   0  0  0  0  0
   54.1680  -22.9150   36.2310 S   0  0  0  0  0
   53.9416  -28.0599   38.8592 H   0  0  0  0  0
   53.6798  -28.7027   37.2192 H   0  0  0  0  0
   54.0425  -26.9747   37.4509 H   0  0  0  0  0
   51.3736  -29.4094   38.8360 H   0  0  0  0  0
   47.5885  -28.7097   38.9556 H   0  0  0  0  0
   49.7859  -30.5016   40.0781 H   0  0  0  0  0
   48.2397  -26.5368   38.2639 H   0  0  0  0  0
   48.9634  -24.6357   36.4382 H   0  0  0  0  0
   49.2377  -24.0093   38.0824 H   0  0  0  0  0
   50.5421  -23.9355   36.8723 H   0  0  0  0  0
   51.0135  -28.0389   34.2239 H   0  0  0  0  0
   52.5979  -29.0508   35.3460 H   0  0  0  0  0
   53.2934  -29.8336   33.8743 H   0  0  0  0  0
   50.6774  -30.4404   35.2750 H   0  0  0  0  0
   52.0809  -31.5237   35.0244 H   0  0  0  0  0
   49.4517  -31.8614   34.5675 H   0  0  0  0  0
   49.3720  -32.5401   32.8659 H   0  0  0  0  0
   52.5462  -33.1944   33.0293 H   0  0  0  0  0
   53.6496  -35.2194   33.8157 H   0  0  0  0  0
   50.2963  -36.1570   36.2017 H   0  0  0  0  0
   49.1493  -34.1940   35.3779 H   0  0  0  0  0
   49.5355  -30.5062   31.7408 H   0  0  0  0  0
   49.2907  -29.7723   33.3033 H   0  0  0  0  0
   51.7848  -29.4215   31.5773 H   0  0  0  0  0
   50.4702  -28.2168   31.7652 H   0  0  0  0  0
   55.2946  -23.0786   32.8066 H   0  0  0  0  0
   55.5861  -21.4607   34.7966 H   0  0  0  0  0
   53.0023  -27.4984   32.0088 H   0  0  0  0  0
   51.5709  -31.4651   32.5519 H   0  0  0  0  0
   54.4585  -38.2755   34.2070 H   0  0  0  0  0
   52.8064  -38.4285   33.6001 H   0  0  0  0  0
  2  1  1  0  0  0
  2  3  4  0  0  0
 11  2  4  0  0  0
  3  4  4  0  0  0
  4  5  1  0  0  0
  8  4  4  0  0  0
  5  6  2  0  0  0
  6  7  1  0  0  0
  7 30  3  0  0  0
  9  8  4  0  0  0
  9 10  1  0  0  0
 11  9  4  0  0  0
 36 11  1  0  0  0
 29 12  4  0  0  0
 12 31  4  0  0  0
 12 36  1  0  0  0
 31 13  4  0  0  0
 13 32  1  0  0  0
 13 35  4  0  0  0
 14 15  1  0  0  0
 14 25  1  0  0  0
 32 14  1  0  0  0
 15 16  1  0  0  0
 16 33  1  0  0  0
 17 18  1  0  0  0
 33 17  1  0  0  0
 18 19  4  0  0  0
 18 23  4  0  0  0
 19 20  4  0  0  0
 20 21  4  0  0  0
 22 21  4  0  0  0
 21 39  1  0  0  0
 23 22  4  0  0  0
 25 24  1  0  0  0
 24 33  1  0  0  0
 26 27  4  0  0  0
 26 29  4  0  0  0
 26 35  4  0  0  0
 27 28  4  0  0  0
 28 40  4  0  0  0
 29 40  4  0  0  0
 39 34  1  0  0  0
 39 37  2  0  0  0
 39 38  2  0  0  0
  1 41  1  0  0  0
  1 42  1  0  0  0
  1 43  1  0  0  0
  3 44  1  0  0  0
  5 45  1  0  0  0
  6 46  1  0  0  0
  8 47  1  0  0  0
 10 48  1  0  0  0
 10 49  1  0  0  0
 10 50  1  0  0  0
 14 51  1  0  0  0
 15 52  1  0  0  0
 15 53  1  0  0  0
 16 54  1  0  0  0
 16 55  1  0  0  0
 17 56  1  0  0  0
 17 57  1  0  0  0
 19 58  1  0  0  0
 20 59  1  0  0  0
 22 60  1  0  0  0
 23 61  1  0  0  0
 24 62  1  0  0  0
 24 63  1  0  0  0
 25 64  1  0  0  0
 25 65  1  0  0  0
 27 66  1  0  0  0
 28 67  1  0  0  0
 32 68  1  0  0  0
 33 69  1  0  0  0
 34 70  1  0  0  0
 34 71  1  0  0  0
M  END
$$$$
