3ws9_ligand
  -I-interpret- 

 46 50  0  0  0  0  0  0  0  0999 V2000
   17.9520    7.9520   55.8870 C   0  0  0  0  0
   19.0490    8.5940   56.4540 C   0  0  0  0  0
   17.8800    6.5720   55.8140 C   0  0  0  0  0
   24.2190    5.8580   55.5190 C   0  0  0  0  0
   22.8760    6.1220   55.6870 C   0  0  0  0  0
   20.0970    7.8390   56.9560 C   0  0  0  0  0
   18.9340    5.8230   56.3200 C   0  0  0  0  0
   24.4600    4.6370   57.5640 C   0  0  0  0  0
   17.0690    1.9920   61.1550 C   0  0  0  0  0
   24.9970    5.1470   56.4080 C   0  0  0  0  0
   23.1230    4.8880   57.7500 C   0  0  0  0  0
   22.3640    5.6030   56.8470 C   0  0  0  0  0
   20.0370    6.4530   56.8870 C   0  0  0  0  0
   17.5790    2.4330   62.3580 C   0  0  0  0  0
   18.9920    2.8850   60.7480 C   0  0  0  0  0
   21.1470    4.9560   58.5550 C   0  0  0  0  0
   17.1390    2.4280   63.6860 C   0  0  0  0  0
   17.9060    2.9730   64.6400 C   0  0  0  0  0
   19.1960    3.5540   64.1810 C   0  0  0  0  0
   26.4440    4.9360   56.1160 C   0  0  0  0  0
   20.2170    3.4070   60.1380 C   0  0  0  0  0
   20.0030    4.7400   59.4610 C   0  0  0  0  0
   17.9710    2.2830   60.1590 N   0  0  0  0  0
   22.3580    4.4990   58.8010 N   0  0  0  0  0
   19.6510    3.5860   62.9680 N   0  0  0  0  0
   21.0990    5.6500   57.3710 N   0  0  0  0  0
   18.8000    3.0020   62.0940 N   0  0  0  0  0
   17.1309    8.5498   55.4914 H   0  0  0  0  0
   19.0835    9.6824   56.5028 H   0  0  0  0  0
   17.0137    6.0830   55.3684 H   0  0  0  0  0
   24.7003    6.2389   54.6183 H   0  0  0  0  0
   22.2815    6.6869   54.9690 H   0  0  0  0  0
   20.9624    8.3293   57.4019 H   0  0  0  0  0
   18.8969    4.7347   56.2726 H   0  0  0  0  0
   25.0533    4.0726   58.2834 H   0  0  0  0  0
   16.1090    1.4947   61.0166 H   0  0  0  0  0
   16.1777    1.9833   63.9432 H   0  0  0  0  0
   17.6035    2.9895   65.6870 H   0  0  0  0  0
   19.8274    4.0016   64.9485 H   0  0  0  0  0
   26.5484    4.3944   55.1759 H   0  0  0  0  0
   26.9421    5.9023   56.0373 H   0  0  0  0  0
   26.8954    4.3576   56.9221 H   0  0  0  0  0
   20.5462    2.6945   59.3816 H   0  0  0  0  0
   20.9539    3.5459   60.9290 H   0  0  0  0  0
   19.0659    4.7423   58.9042 H   0  0  0  0  0
   19.9404    5.5401   60.1986 H   0  0  0  0  0
  2  1  4  0  0  0
  3  1  4  0  0  0
  6  2  4  0  0  0
  7  3  4  0  0  0
  5  4  4  0  0  0
  4 10  4  0  0  0
 12  5  4  0  0  0
 13  6  4  0  0  0
 13  7  4  0  0  0
  8 10  4  0  0  0
 11  8  4  0  0  0
 14  9  4  0  0  0
 23  9  4  0  0  0
 10 20  1  0  0  0
 12 11  4  0  0  0
 24 11  4  0  0  0
 26 12  4  0  0  0
 26 13  1  0  0  0
 14 17  4  0  0  0
 27 14  4  0  0  0
 21 15  1  0  0  0
 15 23  4  0  0  0
 15 27  4  0  0  0
 22 16  1  0  0  0
 16 24  4  0  0  0
 16 26  4  0  0  0
 17 18  4  0  0  0
 18 19  4  0  0  0
 19 25  4  0  0  0
 21 22  1  0  0  0
 25 27  4  0  0  0
  1 28  1  0  0  0
  2 29  1  0  0  0
  3 30  1  0  0  0
  4 31  1  0  0  0
  5 32  1  0  0  0
  6 33  1  0  0  0
  7 34  1  0  0  0
  8 35  1  0  0  0
  9 36  1  0  0  0
 17 37  1  0  0  0
 18 38  1  0  0  0
 19 39  1  0  0  0
 20 40  1  0  0  0
 20 41  1  0  0  0
 20 42  1  0  0  0
 21 43  1  0  0  0
 21 44  1  0  0  0
 22 45  1  0  0  0
 22 46  1  0  0  0
M  END
$$$$
