1ljt_ligand
  -I-interpret- 

 30 31  0  0  0  0  0  0  0  0999 V2000
  -44.2650   43.1200   11.8820 C   0  0  0  0  0
  -42.8590   42.6230    9.9600 C   0  0  0  0  0
  -42.3970   43.7390    9.6980 O   0  0  0  0  0
  -44.0190   42.3620   10.6770 O   0  0  0  0  0
  -42.1790   41.3400    9.5080 C   0  0  0  0  0
  -40.6100   41.7180    6.4310 N   0  0  0  0  0
  -41.0800   42.3130    7.4950 O   0  0  0  0  0
  -40.8800   41.5740    8.7110 C   0  0  0  0  0
  -40.1680   40.3040    8.2300 C   0  0  0  0  0
  -40.0890   40.6050    6.7550 C   0  0  0  0  0
  -37.5930   37.0540    3.0540 O   0  0  0  0  0
  -39.6370   39.8230    4.3580 C   0  0  0  0  0
  -39.4390   39.6630    5.7450 C   0  0  0  0  0
  -38.6160   38.6210    6.2030 C   0  0  0  0  0
  -38.0080   37.7600    5.3100 C   0  0  0  0  0
  -38.2040   37.9170    3.9350 C   0  0  0  0  0
  -39.0270   38.9580    3.4620 C   0  0  0  0  0
  -43.4533   42.9492   12.5892 H   0  0  0  0  0
  -44.3186   44.1809   11.6378 H   0  0  0  0  0
  -45.2080   42.7998   12.3250 H   0  0  0  0  0
  -42.8742   40.8167    8.8515 H   0  0  0  0  0
  -41.9147   40.7783   10.4040 H   0  0  0  0  0
  -40.2850   42.1097    9.4506 H   0  0  0  0  0
  -40.6803   39.3742    8.4774 H   0  0  0  0  0
  -39.2067   40.1133    8.7072 H   0  0  0  0  0
  -37.8280   37.2965    2.1553 H   0  0  0  0  0
  -40.2714   40.6289    3.9891 H   0  0  0  0  0
  -38.4555   38.4905    7.2732 H   0  0  0  0  0
  -37.3728   36.9549    5.6792 H   0  0  0  0  0
  -39.1844   39.0837    2.3908 H   0  0  0  0  0
  4  1  1  0  0  0
  2  3  2  0  0  0
  2  4  1  0  0  0
  5  2  1  0  0  0
  8  5  1  0  0  0
  7  6  1  0  0  0
  8  7  1  0  0  0
  8  9  1  0  0  0
  9 10  1  0  0  0
 10  6  2  0  0  0
 10 13  1  0  0  0
 13 14  4  0  0  0
 14 15  4  0  0  0
 15 16  4  0  0  0
 16 17  4  0  0  0
 17 12  4  0  0  0
 16 11  1  0  0  0
 13 12  4  0  0  0
  1 18  1  0  0  0
  1 19  1  0  0  0
  1 20  1  0  0  0
  5 21  1  0  0  0
  5 22  1  0  0  0
  8 23  1  0  0  0
  9 24  1  0  0  0
  9 25  1  0  0  0
 11 26  1  0  0  0
 12 27  1  0  0  0
 14 28  1  0  0  0
 15 29  1  0  0  0
 17 30  1  0  0  0
M  END
$$$$
