6ift_ligand
  -I-interpret- 

 51 53  0  0  0  0  0  0  0  0999 V2000
   42.4230   11.3160   11.9290 N   0  3  0  0  0
   41.8040   12.4430   11.2740 C   0  0  0  0  0
   40.7530   11.9120   10.4080 C   0  0  0  0  0
   40.8130   10.7520    9.9850 O   0  0  0  0  0
   39.9080   12.7280   10.1330 O   0  0  0  0  0
   42.8390   13.2690   10.4860 C   0  0  0  0  0
   43.6430   12.5250    9.4150 C   0  0  0  0  0
   44.8650   13.4050    8.5780 S   0  0  0  0  0
   45.1390   12.2690    7.3590 C   0  0  0  0  0
   46.4000   13.4150    9.2640 C   0  0  0  0  0
   46.6150   14.0830   10.6240 C   0  0  0  0  0
   47.9440   13.8760   11.1670 O   0  0  0  0  0
   46.4170   15.5760   10.6800 C   0  0  0  0  0
   45.6050   15.9120   11.7950 O   0  0  0  0  0
   47.8240   16.0920   10.8970 C   0  0  0  0  0
   47.8920   17.3690   11.4980 O   0  0  0  0  0
   48.4790   15.0570   11.7740 C   0  0  0  0  0
   49.9730   14.9260   11.6480 N   0  0  0  0  0
   50.7430   15.1700   10.5600 C   0  0  0  0  0
   52.0340   14.8520   10.7910 N   0  0  0  0  0
   52.0610   14.4000   12.0870 C   0  0  0  0  0
   53.0630   13.8710   13.0040 C   0  0  0  0  0
   54.3210   13.7850   12.5770 N   0  0  0  0  0
   52.7390   13.4750   14.2380 N   0  0  0  0  0
   51.4440   13.5500   14.6880 C   0  0  0  0  0
   50.4590   14.0080   13.9330 N   0  0  0  0  0
   50.7240   14.4300   12.6400 C   0  0  0  0  0
   41.7143   10.7904   12.4408 H   0  0  0  0  0
   42.8558   10.7132   11.2292 H   0  0  0  0  0
   43.1349   11.6506   12.5784 H   0  0  0  0  0
   41.3745   13.1275   12.0055 H   0  0  0  0  0
   41.5823   10.3158   10.3585 H   0  0  0  0  0
   43.5664   13.6168   11.2195 H   0  0  0  0  0
   42.2717   14.0348    9.9571 H   0  0  0  0  0
   42.9183   12.2355    8.6540 H   0  0  0  0  0
   44.1667   11.7284    9.9435 H   0  0  0  0  0
   45.4646   11.3297    7.8060 H   0  0  0  0  0
   44.2167   12.1069    6.8012 H   0  0  0  0  0
   45.9119   12.6397    6.6858 H   0  0  0  0  0
   47.0081   13.9969    8.5714 H   0  0  0  0  0
   46.6339   12.3638    9.4327 H   0  0  0  0  0
   45.8356   13.5854   11.2011 H   0  0  0  0  0
   45.9317   15.9864    9.7945 H   0  0  0  0  0
   45.4827   16.8637   11.8251 H   0  0  0  0  0
   48.3201   16.2299    9.9363 H   0  0  0  0  0
   48.8117   17.6243   11.6012 H   0  0  0  0  0
   48.3010   15.2744   12.8272 H   0  0  0  0  0
   50.3677   15.5717    9.6188 H   0  0  0  0  0
   54.5605   14.0850   11.6320 H   0  0  0  0  0
   55.0454   13.4191   13.1948 H   0  0  0  0  0
   51.2197   13.2207   15.7026 H   0  0  0  0  0
  1  2  1  0  0  0
  2  3  1  0  0  0
  2  6  1  0  0  0
  3  4  1  0  0  0
  3  5  2  0  0  0
  6  7  1  0  0  0
  7  8  1  0  0  0
  8  9  1  0  0  0
  8 10  1  0  0  0
 10 11  1  0  0  0
 11 12  1  0  0  0
 11 13  1  0  0  0
 12 17  1  0  0  0
 13 14  1  0  0  0
 13 15  1  0  0  0
 15 16  1  0  0  0
 15 17  1  0  0  0
 17 18  1  0  0  0
 18 19  4  0  0  0
 18 27  4  0  0  0
 19 20  4  0  0  0
 20 21  4  0  0  0
 21 22  4  0  0  0
 21 27  4  0  0  0
 22 23  1  0  0  0
 22 24  4  0  0  0
 24 25  4  0  0  0
 25 26  4  0  0  0
 26 27  4  0  0  0
  1 28  1  0  0  0
  1 29  1  0  0  0
  1 30  1  0  0  0
  2 31  1  0  0  0
  4 32  1  0  0  0
  6 33  1  0  0  0
  6 34  1  0  0  0
  7 35  1  0  0  0
  7 36  1  0  0  0
  9 37  1  0  0  0
  9 38  1  0  0  0
  9 39  1  0  0  0
 10 40  1  0  0  0
 10 41  1  0  0  0
 11 42  1  0  0  0
 13 43  1  0  0  0
 14 44  1  0  0  0
 15 45  1  0  0  0
 16 46  1  0  0  0
 17 47  1  0  0  0
 19 48  1  0  0  0
 23 49  1  0  0  0
 23 50  1  0  0  0
 25 51  1  0  0  0
M  END
$$$$
