3b7u_ligand
  -I-interpret- 

 39 39  0  0  0  0  0  0  0  0999 V2000
   34.2250    4.1510    3.2940 O   0  0  0  0  0
   34.9880    4.2810    2.3510 C   0  0  0  0  0
   36.1930    3.7320    2.3050 N   0  0  0  0  0
   36.5650    3.1010    3.2900 O   0  0  0  0  0
   34.6280    5.1670    1.1870 C   0  0  0  0  0
   34.7120    6.6060    1.7070 C   0  0  0  0  0
   34.3180    7.5110    0.5820 C   0  0  0  0  0
   34.9820    7.5130   -0.4490 O   0  0  0  0  0
   33.2310    8.2680    0.7570 N   0  0  0  0  0
   32.7620    9.0820   -0.3280 C   0  0  0  0  0
   31.4610    9.7930    0.0080 C   0  0  0  0  0
   33.8560   10.0410   -0.7530 C   0  0  0  0  0
   34.0600   10.2010   -1.9530 O   0  0  0  0  0
   34.5630   10.5940    0.0960 O   0  0  0  0  0
   36.1550    6.9510    2.1610 C   0  0  0  0  0
   36.2490    8.3270    2.8280 C   0  0  0  0  0
   36.1310    8.4110    4.2070 C   0  0  0  0  0
   36.2230    9.6680    4.8300 C   0  0  0  0  0
   36.4050   10.8440    4.1220 C   0  0  0  0  0
   36.5470   10.7640    2.7260 C   0  0  0  0  0
   36.4720    9.5150    2.0890 C   0  0  0  0  0
   36.7886    3.8299    1.4828 H   0  0  0  0  0
   37.4470    2.7560    3.1332 H   0  0  0  0  0
   33.6293    4.9406    0.8136 H   0  0  0  0  0
   35.3065    5.0109    0.3483 H   0  0  0  0  0
   34.0530    6.7266    2.5668 H   0  0  0  0  0
   32.7403    8.2674    1.6512 H   0  0  0  0  0
   32.5280    8.4349   -1.1733 H   0  0  0  0  0
   30.6925    9.0539    0.2343 H   0  0  0  0  0
   31.6136   10.4372    0.8739 H   0  0  0  0  0
   31.1473   10.3959   -0.8442 H   0  0  0  0  0
   34.2555   10.3531    0.9730 H   0  0  0  0  0
   36.7915    6.9627    1.2762 H   0  0  0  0  0
   36.4654    6.2026    2.8902 H   0  0  0  0  0
   35.9686    7.5121    4.8017 H   0  0  0  0  0
   36.1479    9.7190    5.9162 H   0  0  0  0  0
   36.4373   11.8059    4.6336 H   0  0  0  0  0
   36.7147   11.6678    2.1403 H   0  0  0  0  0
   36.5874    9.4584    1.0066 H   0  0  0  0  0
  1  2  2  0  0  0
  2  3  1  0  0  0
  2  5  1  0  0  0
  3  4  1  0  0  0
  5  6  1  0  0  0
  6  7  1  0  0  0
  6 15  1  0  0  0
  7  8  2  0  0  0
  7  9  1  0  0  0
  9 10  1  0  0  0
 10 11  1  0  0  0
 10 12  1  0  0  0
 12 13  2  0  0  0
 12 14  1  0  0  0
 15 16  1  0  0  0
 16 17  4  0  0  0
 16 21  4  0  0  0
 17 18  4  0  0  0
 18 19  4  0  0  0
 19 20  4  0  0  0
 20 21  4  0  0  0
  3 22  1  0  0  0
  4 23  1  0  0  0
  5 24  1  0  0  0
  5 25  1  0  0  0
  6 26  1  0  0  0
  9 27  1  0  0  0
 10 28  1  0  0  0
 11 29  1  0  0  0
 11 30  1  0  0  0
 11 31  1  0  0  0
 14 32  1  0  0  0
 15 33  1  0  0  0
 15 34  1  0  0  0
 17 35  1  0  0  0
 18 36  1  0  0  0
 19 37  1  0  0  0
 20 38  1  0  0  0
 21 39  1  0  0  0
M  END
$$$$
