5ty9_ligand
  -I-interpret- 

 28 29  0  0  0  0  0  0  0  0999 V2000
   -3.0090    3.8860   14.7270 C   0  0  0  0  0
   -3.1010    5.1380   14.1500 C   0  0  0  0  0
   -5.4560    5.0770   14.4710 C   0  0  0  0  0
   -4.1170    3.2100   15.1760 C   0  0  0  0  0
   -4.3400    5.7420   14.0290 C   0  0  0  0  0
   -5.3620    3.8230   15.0250 C   0  0  0  0  0
   -4.6490    0.7730   14.9650 C   0  0  0  0  0
   -5.4920    0.7250   16.9590 C   0  0  0  0  0
   -3.9190    1.8230   15.7440 C   0  0  0  0  0
   -3.3840    7.5730   12.8350 C   0  0  0  0  0
   -7.0430    3.6090   16.6830 C   0  0  0  0  0
   -5.5290    0.1540   15.7720 N   0  0  0  0  0
   -4.4710    0.5680   13.7630 O   0  0  0  0  0
   -6.1270    0.5110   17.9570 O   0  0  0  0  0
   -4.4930    1.6430   17.0440 O   0  0  0  0  0
   -4.5670    7.0130   13.4750 O   0  0  0  0  0
   -6.4940    3.1100   15.4260 O   0  0  0  0  0
   -2.0284    3.4212   14.8288 H   0  0  0  0  0
   -2.2050    5.6457   13.7931 H   0  0  0  0  0
   -6.4333    5.5514   14.3812 H   0  0  0  0  0
   -2.8333    1.7265   15.7316 H   0  0  0  0  0
   -2.5855    7.6690   13.5707 H   0  0  0  0  0
   -3.0609    6.9126   12.0303 H   0  0  0  0  0
   -3.6237    8.5549   12.4269 H   0  0  0  0  0
   -6.2909    3.5205   17.4670 H   0  0  0  0  0
   -7.3252    4.6552   16.5649 H   0  0  0  0  0
   -7.9214    3.0226   16.9525 H   0  0  0  0  0
   -6.1270   -0.6291   15.5084 H   0  0  0  0  0
  1  2  4  0  0  0
  1  4  4  0  0  0
  2  5  4  0  0  0
  5  3  4  0  0  0
  3  6  4  0  0  0
  4  6  4  0  0  0
  4  9  1  0  0  0
  5 16  1  0  0  0
  6 17  1  0  0  0
  9  7  1  0  0  0
  7 12  1  0  0  0
  7 13  2  0  0  0
 12  8  1  0  0  0
  8 14  2  0  0  0
  8 15  1  0  0  0
  9 15  1  0  0  0
 16 10  1  0  0  0
 17 11  1  0  0  0
  1 18  1  0  0  0
  2 19  1  0  0  0
  3 20  1  0  0  0
  9 21  1  0  0  0
 10 22  1  0  0  0
 10 23  1  0  0  0
 10 24  1  0  0  0
 11 25  1  0  0  0
 11 26  1  0  0  0
 11 27  1  0  0  0
 12 28  1  0  0  0
M  END
$$$$
