5f2f_ligand
  -I-interpret- 

 61 63  0  0  0  0  0  0  0  0999 V2000
  -10.6140    7.1250   12.0220 C   0  0  0  0  0
   -9.2920    7.1240   11.5650 C   0  0  0  0  0
   -6.1900    7.2360   11.3650 C   0  0  0  0  0
   -6.6130    9.5160   10.6970 C   0  0  0  0  0
  -11.1570    8.2750   12.6180 C   0  0  0  0  0
   -4.8480    7.3540   10.9380 C   0  0  0  0  0
   -5.2860    9.6370   10.2790 C   0  0  0  0  0
   -9.0500    9.4060   12.3030 C   0  0  0  0  0
   -7.0480    8.3180   11.2330 C   0  0  0  0  0
   -8.5220    8.2670   11.7010 C   0  0  0  0  0
   -4.8120   10.9170    9.7070 C   0  0  0  0  0
   -4.4230    8.5680   10.3940 C   0  0  0  0  0
  -10.9050   10.7200   13.4160 C   0  0  0  0  0
   -1.1940    8.9800    7.9890 C   0  0  0  0  0
   -1.7530    7.9640    7.0460 C   0  0  0  0  0
   -0.9420    8.3310    9.3500 C   0  0  0  0  0
   -2.9900    7.3190    7.6480 C   0  0  0  0  0
   -2.2390    7.7280    9.8470 C   0  0  0  0  0
  -10.6130   13.2130   13.7490 C   0  0  0  0  0
   -3.4910    6.2000    6.7690 C   0  0  0  0  0
  -11.9030   10.7060   14.1420 O   0  0  0  0  0
   -2.7070    6.7600    8.9300 O   0  0  0  0  0
    0.0350    9.4810    7.4970 O   0  0  0  0  0
   -2.0610    8.5980    5.7900 O   0  0  0  0  0
    0.0060    7.3130    9.2650 O   0  0  0  0  0
   -2.5010    5.1750    6.7260 O   0  0  0  0  0
   -3.1000    8.8190    9.9450 O   0  0  0  0  0
  -12.7030    6.0460   11.9870 O   0  0  0  0  0
  -11.5060    5.8740   11.8680 C   0  0  0  0  0
  -11.0410    4.5260   11.5880 N   0  0  0  0  0
   -9.6630    4.1200   11.4110 C   0  0  0  0  0
  -10.3750    9.4250   12.7630 C   0  0  0  0  0
  -10.1910   11.9510   13.1720 N   0  0  0  0  0
   -8.8709    6.2300   11.1051 H   0  0  0  0  0
   -6.5485    6.3009   11.7953 H   0  0  0  0  0
   -7.2990   10.3577   10.6016 H   0  0  0  0  0
  -12.1893    8.2710   12.9679 H   0  0  0  0  0
   -4.1588    6.5147   11.0313 H   0  0  0  0  0
   -8.4268   10.2928   12.4181 H   0  0  0  0  0
   -5.3954   11.1540    8.8173 H   0  0  0  0  0
   -4.9335   11.7102   10.4447 H   0  0  0  0  0
   -3.7593   10.8261    9.4393 H   0  0  0  0  0
   -1.9106    9.7957    8.0849 H   0  0  0  0  0
   -1.0159    7.1802    6.8712 H   0  0  0  0  0
   -0.5702    9.0984   10.0290 H   0  0  0  0  0
   -3.7422    8.1028    7.7369 H   0  0  0  0  0
   -2.1418    7.2068   10.7994 H   0  0  0  0  0
  -11.6227   13.4460   13.4110 H   0  0  0  0  0
  -10.6011   13.1360   14.8362 H   0  0  0  0  0
   -9.9312   14.0021   13.4319 H   0  0  0  0  0
   -3.6797    6.5752    5.7632 H   0  0  0  0  0
   -4.4211    5.8000    7.1726 H   0  0  0  0  0
    0.3829   10.1317    8.1112 H   0  0  0  0  0
   -2.4202    7.9463    5.1835 H   0  0  0  0  0
    0.1397    6.9284   10.1344 H   0  0  0  0  0
   -2.8096    4.4568    6.1687 H   0  0  0  0  0
  -11.7515    3.7985   11.5089 H   0  0  0  0  0
   -9.2310    4.6622   10.5698 H   0  0  0  0  0
   -9.1002    4.3444   12.3171 H   0  0  0  0  0
   -9.6237    3.0488   11.2132 H   0  0  0  0  0
   -9.3640   11.9326   12.5752 H   0  0  0  0  0
  2  1  4  0  0  0
  1  5  4  0  0  0
  1 29  1  0  0  0
 10  2  4  0  0  0
  6  3  4  0  0  0
  3  9  4  0  0  0
  7  4  4  0  0  0
  4  9  4  0  0  0
 32  5  4  0  0  0
 12  6  4  0  0  0
  7 11  1  0  0  0
 12  7  4  0  0  0
 10  8  4  0  0  0
  8 32  4  0  0  0
  9 10  1  0  0  0
 27 12  1  0  0  0
 13 21  2  0  0  0
 32 13  1  0  0  0
 13 33  1  0  0  0
 14 15  1  0  0  0
 16 14  1  0  0  0
 14 23  1  0  0  0
 17 15  1  0  0  0
 15 24  1  0  0  0
 18 16  1  0  0  0
 16 25  1  0  0  0
 17 20  1  0  0  0
 22 17  1  0  0  0
 18 22  1  0  0  0
 18 27  1  0  0  0
 33 19  1  0  0  0
 20 26  1  0  0  0
 29 28  2  0  0  0
 29 30  1  0  0  0
 30 31  1  0  0  0
  2 34  1  0  0  0
  3 35  1  0  0  0
  4 36  1  0  0  0
  5 37  1  0  0  0
  6 38  1  0  0  0
  8 39  1  0  0  0
 11 40  1  0  0  0
 11 41  1  0  0  0
 11 42  1  0  0  0
 14 43  1  0  0  0
 15 44  1  0  0  0
 16 45  1  0  0  0
 17 46  1  0  0  0
 18 47  1  0  0  0
 19 48  1  0  0  0
 19 49  1  0  0  0
 19 50  1  0  0  0
 20 51  1  0  0  0
 20 52  1  0  0  0
 23 53  1  0  0  0
 24 54  1  0  0  0
 25 55  1  0  0  0
 26 56  1  0  0  0
 30 57  1  0  0  0
 31 58  1  0  0  0
 31 59  1  0  0  0
 31 60  1  0  0  0
 33 61  1  0  0  0
M  END
$$$$
