5vc5_ligand
  -I-interpret- 

 63 66  0  0  0  0  0  0  0  0999 V2000
  -10.2680   11.3400    9.5910 C   0  0  0  0  0
  -10.0920   11.7360    8.0880 C   0  0  0  0  0
   -8.7230   11.5650    7.4360 N   0  3  0  0  0
   -7.7640   12.7190    7.3120 C   0  0  0  0  0
   -6.4660   12.6990    8.1660 C   0  0  0  0  0
   -8.2080   10.2110    7.0020 C   0  0  0  0  0
   -7.1430    9.6000    7.9660 C   0  0  0  0  0
   -7.4140   10.0560    9.3200 O   0  0  0  0  0
   -7.1440    9.1590   10.2940 C   0  0  0  0  0
   -7.9460    9.0770   11.4530 C   0  0  0  0  0
   -7.6110    8.1620   12.4750 C   0  0  0  0  0
   -6.4840    7.3100   12.3390 C   0  0  0  0  0
   -6.2190    6.4620   13.3920 N   0  0  0  0  0
   -5.5730    5.2860   13.4260 C   0  0  0  0  0
   -4.8390    4.8890   12.3670 N   0  0  0  0  0
   -4.1740    3.7280   12.3000 C   0  0  0  0  0
   -4.2220    2.8840   13.4120 C   0  0  0  0  0
   -4.9450    3.3080   14.5290 C   0  0  0  0  0
   -5.5970    4.4890   14.5080 N   0  0  0  0  0
   -3.5210    1.6620   13.3910 C   0  0  0  0  0
   -2.7960    1.2860   12.2490 C   0  0  0  0  0
   -2.7790    2.1830   11.1530 C   0  0  0  0  0
   -2.0890    1.8100   10.1810 O   0  0  0  0  0
   -3.4680    3.3810   11.1750 N   0  0  0  0  0
   -3.4890    4.3050   10.0520 C   0  0  0  0  0
   -2.0920    0.0400   12.1970 C   0  0  0  0  0
   -2.7980   -1.1740   11.9700 C   0  0  0  0  0
   -4.4790   -1.1650   11.8120 Cl  0  0  0  0  0
   -2.1320   -2.4260   11.9090 C   0  0  0  0  0
   -0.7250   -2.4740   12.0290 C   0  0  0  0  0
   -0.0100   -1.2850   12.2290 C   0  0  0  0  0
   -0.6850   -0.0410   12.3130 C   0  0  0  0  0
    0.2350    1.3570   12.5630 Cl  0  0  0  0  0
   -5.6980    7.4190   11.1810 C   0  0  0  0  0
   -6.0110    8.3350   10.1710 C   0  0  0  0  0
  -10.0334   10.2830    9.7168 H   0  0  0  0  0
   -9.5944   11.9385   10.2044 H   0  0  0  0  0
  -11.2984   11.5236    9.8955 H   0  0  0  0  0
  -10.2882   12.8077    8.0542 H   0  0  0  0  0
  -10.7510   11.0624    7.5402 H   0  0  0  0  0
   -9.5388   11.7357    6.8480 H   0  0  0  0  0
   -8.3199   13.5901    7.6587 H   0  0  0  0  0
   -7.4243   12.6974    6.2765 H   0  0  0  0  0
   -6.7287   12.6668    9.2234 H   0  0  0  0  0
   -5.8774   11.8181    7.9096 H   0  0  0  0  0
   -5.8845   13.5981    7.9620 H   0  0  0  0  0
   -7.7292   10.3423    6.0316 H   0  0  0  0  0
   -9.0592    9.5304    6.9864 H   0  0  0  0  0
   -6.1460    9.9197    7.6628 H   0  0  0  0  0
   -7.1932    8.5118    7.9274 H   0  0  0  0  0
   -8.8212    9.7181   11.5586 H   0  0  0  0  0
   -8.2228    8.1096   13.3756 H   0  0  0  0  0
   -6.5719    6.7804   14.2945 H   0  0  0  0  0
   -4.9827    2.6826   15.4210 H   0  0  0  0  0
   -3.5416    1.0077   14.2625 H   0  0  0  0  0
   -4.5165    4.4420    9.7150 H   0  0  0  0  0
   -3.0769    5.2644   10.3648 H   0  0  0  0  0
   -2.8893    3.8987    9.2376 H   0  0  0  0  0
   -2.7023   -3.3445   11.7705 H   0  0  0  0  0
   -0.2001   -3.4273   11.9666 H   0  0  0  0  0
    1.0756   -1.3171   12.3208 H   0  0  0  0  0
   -4.8252    6.7762   11.0663 H   0  0  0  0  0
   -5.3763    8.4101    9.2881 H   0  0  0  0  0
  1  2  1  0  0  0
  2  3  1  0  0  0
  3  4  1  0  0  0
  3  6  1  0  0  0
  4  5  1  0  0  0
  6  7  1  0  0  0
  7  8  1  0  0  0
  8  9  1  0  0  0
  9 10  4  0  0  0
  9 35  4  0  0  0
 10 11  4  0  0  0
 11 12  4  0  0  0
 12 13  1  0  0  0
 12 34  4  0  0  0
 13 14  1  0  0  0
 14 15  4  0  0  0
 14 19  4  0  0  0
 15 16  4  0  0  0
 16 17  4  0  0  0
 16 24  1  0  0  0
 17 18  4  0  0  0
 17 20  1  0  0  0
 18 19  4  0  0  0
 20 21  2  0  0  0
 21 22  1  0  0  0
 21 26  1  0  0  0
 22 23  2  0  0  0
 22 24  1  0  0  0
 24 25  1  0  0  0
 26 27  4  0  0  0
 26 32  4  0  0  0
 27 28  1  0  0  0
 27 29  4  0  0  0
 29 30  4  0  0  0
 30 31  4  0  0  0
 31 32  4  0  0  0
 32 33  1  0  0  0
 34 35  4  0  0  0
  1 36  1  0  0  0
  1 37  1  0  0  0
  1 38  1  0  0  0
  2 39  1  0  0  0
  2 40  1  0  0  0
  3 41  1  0  0  0
  4 42  1  0  0  0
  4 43  1  0  0  0
  5 44  1  0  0  0
  5 45  1  0  0  0
  5 46  1  0  0  0
  6 47  1  0  0  0
  6 48  1  0  0  0
  7 49  1  0  0  0
  7 50  1  0  0  0
 10 51  1  0  0  0
 11 52  1  0  0  0
 13 53  1  0  0  0
 18 54  1  0  0  0
 20 55  1  0  0  0
 25 56  1  0  0  0
 25 57  1  0  0  0
 25 58  1  0  0  0
 29 59  1  0  0  0
 30 60  1  0  0  0
 31 61  1  0  0  0
 34 62  1  0  0  0
 35 63  1  0  0  0
M  END
$$$$
