6hv2_ligand
  -I-interpret- 

 90 90  0  0  0  0  0  0  0  0999 V2000
   33.9090  -12.7190   11.7010 N   0  3  0  0  0
   32.8990  -13.5100   10.9920 C   0  0  0  0  0
   32.0650  -14.2710   11.9970 C   0  0  0  0  0
   32.6120  -15.0090   12.8180 O   0  0  0  0  0
   33.5370  -14.4760    9.9760 C   0  0  0  0  0
   34.2270  -13.6830    8.8730 C   0  0  0  0  0
   32.4860  -15.4400    9.4350 C   0  0  0  0  0
   34.7940  -14.5360    7.7300 C   0  0  0  0  0
   30.7470  -14.0710   11.9390 N   0  0  0  0  0
   29.7880  -14.7840   12.7760 C   0  0  0  0  0
   28.7630  -15.4540   11.8710 C   0  0  0  0  0
   28.2890  -14.8460   10.9040 O   0  0  0  0  0
   29.1080  -13.8390   13.7780 C   0  0  0  0  0
   30.0340  -13.3480   14.8810 C   0  0  0  0  0
   29.5620  -13.9800   16.5220 S   0  0  0  0  0
   29.9240  -15.7220   16.3240 C   0  0  0  0  0
   28.4510  -16.7130   12.1760 N   0  0  0  0  0
   27.5830  -17.5650   11.3720 C   0  0  0  0  0
   26.5970  -18.2560   12.3070 C   0  0  0  0  0
   26.9710  -18.6770   13.4070 O   0  0  0  0  0
   28.4030  -18.6120   10.5830 C   0  0  0  0  0
   29.4320  -17.9370    9.6710 C   0  0  0  0  0
   27.4970  -19.5230    9.7760 C   0  0  0  0  0
   30.4370  -18.9070    9.0890 C   0  0  0  0  0
   25.3460  -18.3890   11.8670 N   0  0  0  0  0
   24.2980  -19.0790   12.6110 C   0  0  0  0  0
   23.7860  -20.2790   11.8200 C   0  0  0  0  0
   24.0440  -20.4190   10.6230 O   0  0  0  0  0
   23.1410  -18.1270   12.9360 C   0  0  0  0  0
   22.1370  -18.7690   13.7040 O   0  0  0  0  0
   23.0330  -21.1360   12.5080 N   0  0  0  0  0
   22.5020  -22.3800   11.9390 C   0  0  0  0  0
   23.6220  -23.2830   11.4300 C   0  0  0  0  0
   24.4680  -23.7350   12.2020 O   0  0  0  0  0
   21.5100  -22.0940   10.8080 C   0  0  0  0  0
   20.1350  -21.7220   11.2820 C   0  0  0  0  0
   19.6500  -22.1940   12.4930 C   0  0  0  0  0
   19.3190  -20.9110   10.5090 C   0  0  0  0  0
   18.3750  -21.8550   12.9270 C   0  0  0  0  0
   18.0480  -20.5630   10.9360 C   0  0  0  0  0
   17.5740  -21.0370   12.1470 C   0  0  0  0  0
   23.7020  -23.5780   10.2370 O   0  0  0  0  0
   33.4474  -12.0942   12.3620 H   0  0  0  0  0
   34.5372  -13.3450   12.2049 H   0  0  0  0  0
   34.4428  -12.1693   11.0277 H   0  0  0  0  0
   32.2627  -12.8282   10.4278 H   0  0  0  0  0
   34.2995  -15.0805   10.4672 H   0  0  0  0  0
   35.0700  -13.1669    9.3326 H   0  0  0  0  0
   33.4750  -13.0260    8.4361 H   0  0  0  0  0
   31.7220  -14.8783    8.8975 H   0  0  0  0  0
   32.9605  -16.1502    8.7578 H   0  0  0  0  0
   32.0270  -15.9780   10.2645 H   0  0  0  0  0
   35.5327  -15.2311    8.1290 H   0  0  0  0  0
   33.9849  -15.0943    7.2592 H   0  0  0  0  0
   35.2657  -13.8862    6.9929 H   0  0  0  0  0
   30.3913  -13.3836   11.2747 H   0  0  0  0  0
   30.3099  -15.5397   13.3630 H   0  0  0  0  0
   28.3004  -14.3951   14.2540 H   0  0  0  0  0
   28.7697  -12.9640   13.2229 H   0  0  0  0  0
   29.9744  -12.2600   14.9101 H   0  0  0  0  0
   31.0395  -13.7059   14.6596 H   0  0  0  0  0
   29.3230  -16.1264   15.5095 H   0  0  0  0  0
   30.9819  -15.8481   16.0939 H   0  0  0  0  0
   29.6867  -16.2485   17.2485 H   0  0  0  0  0
   28.8461  -17.1074   13.0297 H   0  0  0  0  0
   27.0492  -16.9563   10.6422 H   0  0  0  0  0
   28.9398  -19.2215   11.3100 H   0  0  0  0  0
   29.9813  -17.2119   10.2715 H   0  0  0  0  0
   28.8910  -17.4830    8.8407 H   0  0  0  0  0
   26.8182  -20.0470   10.4489 H   0  0  0  0  0
   26.9209  -18.9264    9.0687 H   0  0  0  0  0
   28.1034  -20.2478    9.2327 H   0  0  0  0  0
   30.9814  -19.3934    9.8984 H   0  0  0  0  0
   29.9141  -19.6588    8.4978 H   0  0  0  0  0
   31.1369  -18.3650    8.4530 H   0  0  0  0  0
   25.1084  -17.9863   10.9605 H   0  0  0  0  0
   24.7253  -19.4323   13.5494 H   0  0  0  0  0
   22.6965  -17.7926   11.9986 H   0  0  0  0  0
   23.5349  -17.2910   13.5140 H   0  0  0  0  0
   21.4301  -18.1464   13.8890 H   0  0  0  0  0
   22.8144  -20.9162   13.4798 H   0  0  0  0  0
   21.9770  -22.8989   12.7410 H   0  0  0  0  0
   21.4140  -23.0086   10.2229 H   0  0  0  0  0
   21.8982  -21.2459   10.2439 H   0  0  0  0  0
   20.2763  -22.8378   13.1105 H   0  0  0  0  0
   19.6830  -20.5414    9.5504 H   0  0  0  0  0
   18.0050  -22.2322   13.8804 H   0  0  0  0  0
   17.4225  -19.9173   10.3197 H   0  0  0  0  0
   16.5737  -20.7675   12.4858 H   0  0  0  0  0
   22.9840  -23.1597    9.7562 H   0  0  0  0  0
  1  2  1  0  0  0
  2  3  1  0  0  0
  2  5  1  0  0  0
  3  4  2  0  0  0
  3  9  1  0  0  0
  5  6  1  0  0  0
  5  7  1  0  0  0
  6  8  1  0  0  0
  9 10  1  0  0  0
 10 11  1  0  0  0
 10 13  1  0  0  0
 11 12  2  0  0  0
 11 17  1  0  0  0
 13 14  1  0  0  0
 14 15  1  0  0  0
 15 16  1  0  0  0
 17 18  1  0  0  0
 18 19  1  0  0  0
 18 21  1  0  0  0
 19 20  2  0  0  0
 19 25  1  0  0  0
 21 22  1  0  0  0
 21 23  1  0  0  0
 22 24  1  0  0  0
 25 26  1  0  0  0
 26 27  1  0  0  0
 26 29  1  0  0  0
 27 28  2  0  0  0
 27 31  1  0  0  0
 29 30  1  0  0  0
 31 32  1  0  0  0
 32 33  1  0  0  0
 32 35  1  0  0  0
 33 34  2  0  0  0
 33 42  1  0  0  0
 35 36  1  0  0  0
 36 37  4  0  0  0
 36 38  4  0  0  0
 37 39  4  0  0  0
 38 40  4  0  0  0
 39 41  4  0  0  0
 40 41  4  0  0  0
  1 43  1  0  0  0
  1 44  1  0  0  0
  1 45  1  0  0  0
  2 46  1  0  0  0
  5 47  1  0  0  0
  6 48  1  0  0  0
  6 49  1  0  0  0
  7 50  1  0  0  0
  7 51  1  0  0  0
  7 52  1  0  0  0
  8 53  1  0  0  0
  8 54  1  0  0  0
  8 55  1  0  0  0
  9 56  1  0  0  0
 10 57  1  0  0  0
 13 58  1  0  0  0
 13 59  1  0  0  0
 14 60  1  0  0  0
 14 61  1  0  0  0
 16 62  1  0  0  0
 16 63  1  0  0  0
 16 64  1  0  0  0
 17 65  1  0  0  0
 18 66  1  0  0  0
 21 67  1  0  0  0
 22 68  1  0  0  0
 22 69  1  0  0  0
 23 70  1  0  0  0
 23 71  1  0  0  0
 23 72  1  0  0  0
 24 73  1  0  0  0
 24 74  1  0  0  0
 24 75  1  0  0  0
 25 76  1  0  0  0
 26 77  1  0  0  0
 29 78  1  0  0  0
 29 79  1  0  0  0
 30 80  1  0  0  0
 31 81  1  0  0  0
 32 82  1  0  0  0
 35 83  1  0  0  0
 35 84  1  0  0  0
 37 85  1  0  0  0
 38 86  1  0  0  0
 39 87  1  0  0  0
 40 88  1  0  0  0
 41 89  1  0  0  0
 42 90  1  0  0  0
M  END
$$$$
