4ir5_ligand
  -I-interpret- 

 46 49  0  0  0  0  0  0  0  0999 V2000
   25.0620   10.9700    0.6560 C   0  0  0  0  0
   25.5500    9.5590    0.9120 C   0  0  0  0  0
   24.7690    8.6300    1.1200 O   0  0  0  0  0
   26.9620    9.3130    0.8190 C   0  0  0  0  0
   27.9440   10.2090    0.5340 C   0  0  0  0  0
   29.1870    9.5250    0.5170 C   0  0  0  0  0
   30.4830   10.1510    0.2740 C   0  0  0  0  0
   30.9040   11.1540    1.1470 C   0  0  0  0  0
   32.1400   11.7640    0.9520 C   0  0  0  0  0
   32.9480   11.3880   -0.1000 C   0  0  0  0  0
   32.5360   10.4080   -0.9820 C   0  0  0  0  0
   31.3080    9.7570   -0.8080 C   0  0  0  0  0
   30.8990    8.6820   -1.7910 C   0  0  0  0  0
   30.7810    9.1810   -3.1060 O   0  0  0  0  0
   28.9130    8.2210    0.8730 C   0  0  0  0  0
   29.7290    7.0790    1.0470 C   0  0  0  0  0
   29.1490    5.9240    1.4140 C   0  0  0  0  0
   29.8690    4.7560    1.6010 O   0  0  0  0  0
   31.2400    4.7930    1.8110 C   0  0  0  0  0
   32.0900    4.4700    0.7720 C   0  0  0  0  0
   33.4640    4.4860    0.9990 C   0  0  0  0  0
   33.9650    4.7890    2.2470 C   0  0  0  0  0
   33.1070    5.0700    3.2900 C   0  0  0  0  0
   31.7290    5.0960    3.0770 C   0  0  0  0  0
   27.7960    5.7800    1.5690 C   0  0  0  0  0
   26.9890    6.8560    1.3840 C   0  0  0  0  0
   27.5270    8.0650    1.0420 N   0  0  0  0  0
   24.4278   10.9785   -0.2305 H   0  0  0  0  0
   24.4903   11.3171    1.5167 H   0  0  0  0  0
   25.9180   11.6261    0.4982 H   0  0  0  0  0
   27.8006   11.2737    0.3496 H   0  0  0  0  0
   30.2681   11.4588    1.9782 H   0  0  0  0  0
   32.4716   12.5449    1.6363 H   0  0  0  0  0
   33.9176   11.8669   -0.2365 H   0  0  0  0  0
   33.1741   10.1380   -1.8234 H   0  0  0  0  0
   29.9267    8.2949   -1.4860 H   0  0  0  0  0
   31.6677    7.9092   -1.7886 H   0  0  0  0  0
   30.5209    8.4690   -3.6951 H   0  0  0  0  0
   30.8057    7.1347    0.8867 H   0  0  0  0  0
   31.6928    4.2072   -0.2084 H   0  0  0  0  0
   34.1491    4.2570    0.1828 H   0  0  0  0  0
   35.0426    4.8066    2.4102 H   0  0  0  0  0
   33.5072    5.2723    4.2835 H   0  0  0  0  0
   31.0471    5.3494    3.8888 H   0  0  0  0  0
   27.3718    4.8126    1.8378 H   0  0  0  0  0
   25.9108    6.7556    1.5084 H   0  0  0  0  0
  1  2  1  0  0  0
  2  3  2  0  0  0
  2  4  1  0  0  0
  4  5  4  0  0  0
  4 27  4  0  0  0
  5  6  4  0  0  0
  6  7  1  0  0  0
  6 15  4  0  0  0
  7  8  4  0  0  0
  7 12  4  0  0  0
  8  9  4  0  0  0
  9 10  4  0  0  0
 10 11  4  0  0  0
 11 12  4  0  0  0
 12 13  1  0  0  0
 13 14  1  0  0  0
 15 16  4  0  0  0
 15 27  4  0  0  0
 16 17  4  0  0  0
 17 18  1  0  0  0
 17 25  4  0  0  0
 18 19  1  0  0  0
 19 20  4  0  0  0
 19 24  4  0  0  0
 20 21  4  0  0  0
 21 22  4  0  0  0
 22 23  4  0  0  0
 23 24  4  0  0  0
 25 26  4  0  0  0
 26 27  4  0  0  0
  1 28  1  0  0  0
  1 29  1  0  0  0
  1 30  1  0  0  0
  5 31  1  0  0  0
  8 32  1  0  0  0
  9 33  1  0  0  0
 10 34  1  0  0  0
 11 35  1  0  0  0
 13 36  1  0  0  0
 13 37  1  0  0  0
 14 38  1  0  0  0
 16 39  1  0  0  0
 20 40  1  0  0  0
 21 41  1  0  0  0
 22 42  1  0  0  0
 23 43  1  0  0  0
 24 44  1  0  0  0
 25 45  1  0  0  0
 26 46  1  0  0  0
M  END
$$$$
