1dhj_ligand
  -I-interpret- 

 55 57  0  0  0  0  0  0  0  0999 V2000
   16.2100   65.2120   46.2830 N   0  0  0  0  0
   15.6380   65.3350   47.4680 C   0  0  0  0  0
   14.4580   64.9440   47.7320 N   0  0  0  0  0
   16.3910   66.0070   48.4650 N   0  0  0  0  0
   17.6730   66.4950   48.3110 C   0  0  0  0  0
   18.3250   67.0990   49.2750 N   0  0  0  0  0
   18.2160   66.2600   46.9780 C   0  0  0  0  0
   19.3830   66.7910   46.6640 N   0  0  0  0  0
   19.9280   66.6230   45.4530 C   0  0  0  0  0
   19.1560   65.9130   44.5520 C   0  0  0  0  0
   17.9510   65.4830   44.8130 N   0  0  0  0  0
   17.4990   65.6500   46.0360 C   0  0  0  0  0
   21.2660   67.2580   45.2860 C   0  0  0  0  0
   21.6000   67.3790   43.8170 N   0  0  0  0  0
   22.5390   66.4600   43.1980 C   0  0  0  0  0
   19.3670   69.8130   41.3100 C   0  0  0  0  0
   20.4520   68.9720   40.8240 C   0  0  0  0  0
   21.1820   68.1660   41.6460 C   0  0  0  0  0
   20.8250   68.2180   43.0060 C   0  0  0  0  0
   19.8170   69.0330   43.4910 C   0  0  0  0  0
   19.0290   69.8290   42.6640 C   0  0  0  0  0
   18.5840   70.6350   40.3750 C   0  0  0  0  0
   19.0520   70.9900   39.2460 O   0  0  0  0  0
   17.2680   70.8060   40.6290 N   0  0  0  0  0
   16.5520   71.8680   39.8380 C   0  0  0  0  0
   15.9490   72.8430   40.8090 C   0  0  0  0  0
   15.7680   72.5090   41.9660 O   0  0  0  0  0
   15.5680   73.9700   40.4220 O   0  0  0  0  0
   15.2630   71.2330   39.1920 C   0  0  0  0  0
   15.6460   70.1970   37.9730 C   0  0  0  0  0
   16.1940   70.9990   36.7480 C   0  0  0  0  0
   16.9320   70.2630   36.0500 O   0  0  0  0  0
   15.9960   72.2280   36.5850 O   0  0  0  0  0
   13.8920   64.5044   47.0062 H   0  0  0  0  0
   14.0769   65.0698   48.6697 H   0  0  0  0  0
   17.8857   67.2250   50.1869 H   0  0  0  0  0
   19.2715   67.4428   49.1131 H   0  0  0  0  0
   19.5767   65.7004   43.5692 H   0  0  0  0  0
   22.0196   66.6414   45.7758 H   0  0  0  0  0
   21.2500   68.2518   45.7335 H   0  0  0  0  0
   23.5068   66.5438   43.6923 H   0  0  0  0  0
   22.1662   65.4405   43.2966 H   0  0  0  0  0
   22.6462   66.7085   42.1421 H   0  0  0  0  0
   20.6899   68.9876   39.7604 H   0  0  0  0  0
   21.9843   67.5274   41.2764 H   0  0  0  0  0
   19.6324   69.0525   44.5651 H   0  0  0  0  0
   18.2021   70.4257   43.0489 H   0  0  0  0  0
   16.7817   70.2411   41.3252 H   0  0  0  0  0
   17.2512   72.2999   39.1220 H   0  0  0  0  0
   15.7833   74.0776   39.4927 H   0  0  0  0  0
   14.6510   72.0365   38.7822 H   0  0  0  0  0
   14.7294   70.6766   39.9626 H   0  0  0  0  0
   14.7535   69.6475   37.6736 H   0  0  0  0  0
   16.4102   69.5009   38.3187 H   0  0  0  0  0
   15.3886   72.5451   37.2574 H   0  0  0  0  0
  1 12  4  0  0  0
  1  2  4  0  0  0
  2  4  4  0  0  0
  2  3  1  0  0  0
  4  5  4  0  0  0
  5  7  4  0  0  0
  5  6  1  0  0  0
  7 12  4  0  0  0
  7  8  4  0  0  0
  8  9  4  0  0  0
  9 13  1  0  0  0
  9 10  4  0  0  0
 10 11  4  0  0  0
 11 12  4  0  0  0
 13 14  1  0  0  0
 14 19  1  0  0  0
 14 15  1  0  0  0
 19 20  4  0  0  0
 19 18  4  0  0  0
 18 17  4  0  0  0
 17 16  4  0  0  0
 16 22  1  0  0  0
 16 21  4  0  0  0
 21 20  4  0  0  0
 22 24  1  0  0  0
 22 23  2  0  0  0
 24 25  1  0  0  0
 25 29  1  0  0  0
 25 26  1  0  0  0
 26 28  1  0  0  0
 26 27  2  0  0  0
 29 30  1  0  0  0
 30 31  1  0  0  0
 31 33  1  0  0  0
 31 32  2  0  0  0
  3 34  1  0  0  0
  3 35  1  0  0  0
  6 36  1  0  0  0
  6 37  1  0  0  0
 10 38  1  0  0  0
 13 39  1  0  0  0
 13 40  1  0  0  0
 15 41  1  0  0  0
 15 42  1  0  0  0
 15 43  1  0  0  0
 17 44  1  0  0  0
 18 45  1  0  0  0
 20 46  1  0  0  0
 21 47  1  0  0  0
 24 48  1  0  0  0
 25 49  1  0  0  0
 28 50  1  0  0  0
 29 51  1  0  0  0
 29 52  1  0  0  0
 30 53  1  0  0  0
 30 54  1  0  0  0
 33 55  1  0  0  0
M  END
$$$$
