5ug9_ligand
  -I-interpret- 

 60 63  0  0  0  0  0  0  0  0999 V2000
  -15.0440   16.7680  -25.7180 C   0  0  0  0  0
  -13.2890   15.8880  -27.2500 C   0  0  0  0  0
  -13.3590   13.5360  -27.7500 C   0  0  0  0  0
  -11.6770   15.0110  -28.5970 C   0  0  0  0  0
  -10.5720   14.9370  -29.4010 N   0  0  0  0  0
  -10.4560   13.6120  -29.7740 C   0  0  0  0  0
   -9.7210   16.0850  -29.7610 C   0  0  0  0  0
   -8.2790   15.6920  -30.1110 C   0  0  0  0  0
  -15.8450   12.6960  -25.9520 C   0  0  0  0  0
  -17.9760   12.2420  -24.7060 C   0  0  0  0  0
  -15.2550   18.1770  -25.1370 C   0  0  0  0  0
  -14.5940   19.0800  -26.1560 C   0  0  0  0  0
  -13.3650   18.2850  -26.5900 C   0  0  0  0  0
  -13.8670   16.9260  -26.5650 N   0  0  0  0  0
  -13.8630   14.6600  -27.1340 N   0  0  0  0  0
  -12.1850   13.7140  -28.5270 C   0  0  0  0  0
  -12.1750   16.1180  -27.9940 N   0  0  0  0  0
  -11.4110   12.8560  -29.2660 N   0  0  0  0  0
  -10.3250   16.8580  -30.9410 C   0  0  0  0  0
  -13.9980   12.2920  -27.6130 N   0  0  0  0  0
  -15.1540   12.0070  -26.9390 C   0  0  0  0  0
  -16.9450   11.9390  -25.6690 N   0  0  0  0  0
  -17.0260   10.8090  -26.3960 N   0  0  0  0  0
  -15.9280   10.8610  -27.1680 C   0  0  0  0  0
  -15.6010    9.9010  -28.0860 O   0  0  0  0  0
  -16.5000    8.7950  -28.2060 C   0  0  0  0  0
  -15.4450   19.2290  -27.2150 F   0  0  0  0  0
  -14.5520   18.3230  -23.8540 N   0  0  0  0  0
  -15.0070   17.8060  -22.6520 C   0  0  0  0  0
  -14.0370   18.1460  -21.5240 C   0  0  0  0  0
  -14.3590   17.4680  -20.2000 C   0  0  0  0  0
  -16.0440   17.1650  -22.5060 O   0  0  0  0  0
  -15.9122   16.4077  -26.2697 H   0  0  0  0  0
  -14.9058   16.0121  -24.9449 H   0  0  0  0  0
   -9.6624   13.2324  -30.4176 H   0  0  0  0  0
   -9.6835   16.7132  -28.8710 H   0  0  0  0  0
   -8.2810   15.0638  -31.0018 H   0  0  0  0  0
   -7.6944   16.5921  -30.3009 H   0  0  0  0  0
   -7.8413   15.1419  -29.2780 H   0  0  0  0  0
  -15.5665   13.6463  -25.4965 H   0  0  0  0  0
  -17.5324   12.3213  -23.7135 H   0  0  0  0  0
  -18.4512   13.1869  -24.9696 H   0  0  0  0  0
  -18.7205   11.4459  -24.7100 H   0  0  0  0  0
  -16.3076   18.3969  -24.9587 H   0  0  0  0  0
  -14.3440   20.0709  -25.7768 H   0  0  0  0  0
  -12.4993   18.4393  -25.9459 H   0  0  0  0  0
  -12.9756   18.5855  -27.5627 H   0  0  0  0  0
   -9.7330   17.7539  -31.1279 H   0  0  0  0  0
  -10.3197   16.2257  -31.8288 H   0  0  0  0  0
  -11.3499   17.1416  -30.7015 H   0  0  0  0  0
  -13.5434   11.5034  -28.0733 H   0  0  0  0  0
  -16.5690    8.2789  -27.2484 H   0  0  0  0  0
  -17.4856    9.1594  -28.4956 H   0  0  0  0  0
  -16.1281    8.1068  -28.9651 H   0  0  0  0  0
  -13.6719   18.8386  -23.8486 H   0  0  0  0  0
  -14.0999   19.2215  -21.3586 H   0  0  0  0  0
  -13.0507   17.7989  -21.8320 H   0  0  0  0  0
  -15.3530   17.7707  -19.8706 H   0  0  0  0  0
  -14.3320   16.3863  -20.3312 H   0  0  0  0  0
  -13.6218   17.7632  -19.4534 H   0  0  0  0  0
  1 11  1  0  0  0
 14  1  1  0  0  0
  2 14  1  0  0  0
 15  2  4  0  0  0
  2 17  4  0  0  0
  3 15  4  0  0  0
  3 16  4  0  0  0
 20  3  1  0  0  0
  4  5  4  0  0  0
 16  4  4  0  0  0
  4 17  4  0  0  0
  6  5  4  0  0  0
  5  7  1  0  0  0
 18  6  4  0  0  0
  7  8  1  0  0  0
  7 19  1  0  0  0
 21  9  4  0  0  0
  9 22  4  0  0  0
 22 10  1  0  0  0
 12 11  1  0  0  0
 11 28  1  0  0  0
 13 12  1  0  0  0
 12 27  1  0  0  0
 14 13  1  0  0  0
 16 18  4  0  0  0
 20 21  1  0  0  0
 21 24  4  0  0  0
 22 23  4  0  0  0
 23 24  4  0  0  0
 24 25  1  0  0  0
 25 26  1  0  0  0
 28 29  1  0  0  0
 29 30  1  0  0  0
 29 32  2  0  0  0
 30 31  1  0  0  0
  1 33  1  0  0  0
  1 34  1  0  0  0
  6 35  1  0  0  0
  7 36  1  0  0  0
  8 37  1  0  0  0
  8 38  1  0  0  0
  8 39  1  0  0  0
  9 40  1  0  0  0
 10 41  1  0  0  0
 10 42  1  0  0  0
 10 43  1  0  0  0
 11 44  1  0  0  0
 12 45  1  0  0  0
 13 46  1  0  0  0
 13 47  1  0  0  0
 19 48  1  0  0  0
 19 49  1  0  0  0
 19 50  1  0  0  0
 20 51  1  0  0  0
 26 52  1  0  0  0
 26 53  1  0  0  0
 26 54  1  0  0  0
 28 55  1  0  0  0
 30 56  1  0  0  0
 30 57  1  0  0  0
 31 58  1  0  0  0
 31 59  1  0  0  0
 31 60  1  0  0  0
M  END
$$$$
