5itp_ligand
  -I-interpret- 

 36 35  0  0  0  0  0  0  0  0999 V2000
  -14.0890   80.6440   -1.0480 O   0  0  0  0  0
  -14.9730   81.1900   -0.3570 C   0  0  0  0  0
  -16.1030   80.3180    0.1940 C   0  0  0  0  0
  -17.3000   80.4030   -0.6870 C   0  0  0  0  0
  -15.7070   78.9190    0.3770 N   0  3  0  0  0
  -14.5160   78.6470    1.1760 C   0  0  0  0  0
  -14.3840   77.1710    1.4660 C   0  0  0  0  0
  -15.2870   76.3690    1.1180 O   0  0  0  0  0
  -13.3670   76.7530    2.0870 O   0  0  0  0  0
  -14.4440   79.3840    2.5350 C   0  0  0  0  0
  -15.5650   79.0000    3.4850 C   0  0  0  0  0
  -15.5400   79.6600    4.8660 C   0  0  0  0  0
  -16.9060   79.5900    5.4490 N   0  0  0  0  0
  -17.3390   80.3130    6.6040 C   0  0  0  0  0
  -18.5740   80.1920    7.0290 N   0  0  0  0  0
  -16.4600   81.0110    7.2380 N   0  0  0  0  0
  -14.9240   82.4210   -0.1140 O   0  0  0  0  0
  -16.3475   80.7092    1.1816 H   0  0  0  0  0
  -17.0660   79.9680   -1.6586 H   0  0  0  0  0
  -18.1247   79.8550   -0.2312 H   0  0  0  0  0
  -17.5826   81.4480   -0.8139 H   0  0  0  0  0
  -15.4922   78.5726   -0.5580 H   0  0  0  0  0
  -16.4784   78.4817    0.8811 H   0  0  0  0  0
  -13.7038   79.0221    0.5533 H   0  0  0  0  0
  -12.7822   77.4909    2.2745 H   0  0  0  0  0
  -14.5313   80.4521    2.3362 H   0  0  0  0  0
  -13.5014   79.1105    3.0092 H   0  0  0  0  0
  -15.4620   77.9289    3.6587 H   0  0  0  0  0
  -16.4903   79.3256    3.0098 H   0  0  0  0  0
  -15.2279   80.7004    4.7749 H   0  0  0  0  0
  -14.8329   79.1409    5.5130 H   0  0  0  0  0
  -17.5843   78.9812    4.9911 H   0  0  0  0  0
  -18.8659   80.6588    7.8877 H   0  0  0  0  0
  -19.2425   79.6311    6.5008 H   0  0  0  0  0
  -15.4941   81.0337    6.9109 H   0  0  0  0  0
  -15.6774   82.6696    0.4266 H   0  0  0  0  0
  1  2  2  0  0  0
  2  3  1  0  0  0
  2 17  1  0  0  0
  3  4  1  0  0  0
  3  5  1  0  0  0
  5  6  1  0  0  0
  6  7  1  0  0  0
  6 10  1  0  0  0
  7  8  2  0  0  0
  7  9  1  0  0  0
 10 11  1  0  0  0
 11 12  1  0  0  0
 12 13  1  0  0  0
 13 14  1  0  0  0
 14 15  1  0  0  0
 14 16  2  0  0  0
  3 18  1  0  0  0
  4 19  1  0  0  0
  4 20  1  0  0  0
  4 21  1  0  0  0
  5 22  1  0  0  0
  5 23  1  0  0  0
  6 24  1  0  0  0
  9 25  1  0  0  0
 10 26  1  0  0  0
 10 27  1  0  0  0
 11 28  1  0  0  0
 11 29  1  0  0  0
 12 30  1  0  0  0
 12 31  1  0  0  0
 13 32  1  0  0  0
 15 33  1  0  0  0
 15 34  1  0  0  0
 16 35  1  0  0  0
 17 36  1  0  0  0
M  END
$$$$
