6c3u_ligand
  -I-interpret- 

 23 25  0  0  0  0  0  0  0  0999 V2000
   33.3800    0.4460   52.7280 O   0  0  0  0  0
   33.3780   -0.8310   52.1420 N   0  0  0  0  0
   32.3860   -1.4660   52.1100 O   0  0  0  0  0
   34.6030   -1.3690   51.5740 C   0  0  0  0  0
   35.6200   -2.0290   52.2450 C   0  0  0  0  0
   36.5480   -2.3500   51.3590 N   0  0  0  0  0
   36.1570   -1.9090   50.1280 N   0  0  0  0  0
   34.9810   -1.3170   50.2420 C   0  0  0  0  0
   34.2430   -0.7270   49.2270 C   0  0  0  0  0
   34.6580    0.4820   48.6620 C   0  0  0  0  0
   33.9370    1.0340   47.6940 N   0  0  0  0  0
   32.7970    0.4390   47.2630 C   0  0  0  0  0
   31.8720    0.8500   46.2560 C   0  0  0  0  0
   31.9900    2.4520   45.1690 Br  0  0  0  0  0
   30.8780   -0.1160   46.2100 C   0  0  0  0  0
   29.9420   -0.1130   45.4840 O   0  0  0  0  0
   31.1680   -1.0390   47.1150 N   0  0  0  0  0
   32.3660   -0.6850   47.7660 N   0  0  0  0  0
   33.0650   -1.3020   48.7550 C   0  0  0  0  0
   35.6499   -2.2451   53.3129 H   0  0  0  0  0
   35.5678    0.9684   49.0140 H   0  0  0  0  0
   30.6128   -1.8723   47.3093 H   0  0  0  0  0
   32.7061   -2.2410   49.1763 H   0  0  0  0  0
  1  2  2  0  0  0
  2  3  2  0  0  0
  2  4  1  0  0  0
  4  5  4  0  0  0
  4  8  4  0  0  0
  5  6  4  0  0  0
  6  7  4  0  0  0
  7  8  4  0  0  0
  8  9  1  0  0  0
  9 10  1  0  0  0
  9 19  2  0  0  0
 10 11  2  0  0  0
 11 12  1  0  0  0
 12 13  2  0  0  0
 12 18  1  0  0  0
 13 14  1  0  0  0
 13 15  1  0  0  0
 15 16  2  0  0  0
 15 17  1  0  0  0
 17 18  1  0  0  0
 18 19  1  0  0  0
  5 20  1  0  0  0
 10 21  1  0  0  0
 17 22  1  0  0  0
 19 23  1  0  0  0
M  END
$$$$
