1efi_ligand
  -I-interpret- 

 36 37  0  0  0  0  0  0  0  0999 V2000
  -20.1020   19.8870   14.9850 C   0  0  0  0  0
  -19.3160   21.0390   15.6030 C   0  0  0  0  0
  -17.8880   21.1030   15.1370 C   0  0  0  0  0
  -17.2380   19.7730   15.3920 C   0  0  0  0  0
  -18.0800   18.6550   14.7060 C   0  0  0  0  0
  -17.4690   17.2460   14.9760 C   0  0  0  0  0
  -21.1930   19.3240   12.8270 C   0  0  0  0  0
  -20.8270   18.2720   11.9820 C   0  0  0  0  0
  -21.7940   17.5520   11.2680 C   0  0  0  0  0
  -23.1490   17.8910   11.4030 C   0  0  0  0  0
  -23.5220   18.9330   12.2260 C   0  0  0  0  0
  -22.5430   19.6430   12.9380 C   0  0  0  0  0
  -24.1230   17.1540   10.7630 N   0  0  0  0  0
  -20.2140   20.0540   13.5620 O   0  0  0  0  0
  -19.9630   22.1910   15.0880 O   0  0  0  0  0
  -17.1120   22.1190   15.7530 O   0  0  0  0  0
  -17.1430   19.6060   16.7950 O   0  0  0  0  0
  -19.4400   18.6730   15.2300 O   0  0  0  0  0
  -18.3910   16.2450   14.5310 O   0  0  0  0  0
  -21.0953   19.8794   15.4338 H   0  0  0  0  0
  -19.2941   20.9386   16.6881 H   0  0  0  0  0
  -17.9225   21.3493   14.0757 H   0  0  0  0  0
  -16.2345   19.7174   14.9701 H   0  0  0  0  0
  -18.0789   18.8469   13.6330 H   0  0  0  0  0
  -17.2817   17.1249   16.0429 H   0  0  0  0  0
  -16.5273   17.1442   14.4366 H   0  0  0  0  0
  -19.7746   18.0082   11.8772 H   0  0  0  0  0
  -21.4958   16.7341   10.6121 H   0  0  0  0  0
  -24.5733   19.2040   12.3231 H   0  0  0  0  0
  -22.8462   20.4611   13.5913 H   0  0  0  0  0
  -23.8611   16.3550   10.1856 H   0  0  0  0  0
  -25.1054   17.4079   10.8669 H   0  0  0  0  0
  -20.8827   22.1901   15.3633 H   0  0  0  0  0
  -17.5211   22.9729   15.5945 H   0  0  0  0  0
  -16.6165   20.3179   17.1659 H   0  0  0  0  0
  -18.0203   15.3747   14.6946 H   0  0  0  0  0
  1  2  1  0  0  0
 14  1  1  0  0  0
  1 18  1  0  0  0
  2  3  1  0  0  0
  2 15  1  0  0  0
  3  4  1  0  0  0
  3 16  1  0  0  0
  5  4  1  0  0  0
  4 17  1  0  0  0
  5  6  1  0  0  0
 18  5  1  0  0  0
  6 19  1  0  0  0
  7  8  4  0  0  0
  7 12  4  0  0  0
 14  7  1  0  0  0
  8  9  4  0  0  0
  9 10  4  0  0  0
 10 11  4  0  0  0
 10 13  1  0  0  0
 11 12  4  0  0  0
  1 20  1  0  0  0
  2 21  1  0  0  0
  3 22  1  0  0  0
  4 23  1  0  0  0
  5 24  1  0  0  0
  6 25  1  0  0  0
  6 26  1  0  0  0
  8 27  1  0  0  0
  9 28  1  0  0  0
 11 29  1  0  0  0
 12 30  1  0  0  0
 13 31  1  0  0  0
 13 32  1  0  0  0
 15 33  1  0  0  0
 16 34  1  0  0  0
 17 35  1  0  0  0
 19 36  1  0  0  0
M  END
$$$$
