3kqa_ligand
  -I-interpret- 

 21 21  0  0  0  0  0  0  0  0999 V2000
  -16.5940  -51.1870 -132.5800 C   0  0  0  0  0
  -16.2260  -49.7350 -132.2370 C   0  0  0  0  0
  -15.0640  -49.2420 -133.0850 C   0  0  0  0  0
  -13.9550  -50.2130 -133.4000 C   0  0  0  0  0
  -14.0860  -51.6240 -132.8380 C   0  0  0  0  0
  -15.3220  -52.0940 -132.4350 C   0  0  0  0  0
  -12.8650  -49.8140 -134.1550 C   0  0  0  0  0
  -12.9480  -52.3990 -132.7360 O   0  0  0  0  0
  -17.3660  -48.9230 -132.3900 O   0  0  0  0  0
  -15.0320  -47.9570 -133.5290 O   0  0  0  0  0
  -15.4180  -53.3610 -131.9150 O   0  0  0  0  0
  -16.9624  -51.2372 -133.6046 H   0  0  0  0  0
  -17.3703  -51.5366 -131.8994 H   0  0  0  0  0
  -15.8938  -49.6837 -131.2001 H   0  0  0  0  0
  -14.9019  -48.4582 -133.8250 H   0  0  0  0  0
  -12.0610  -50.5190 -134.3664 H   0  0  0  0  0
  -12.8110  -48.7949 -134.5379 H   0  0  0  0  0
  -12.1941  -51.9032 -133.0637 H   0  0  0  0  0
  -18.0763  -49.2640 -131.8415 H   0  0  0  0  0
  -15.8193  -47.4965 -133.2296 H   0  0  0  0  0
  -16.3318  -53.5421 -131.6831 H   0  0  0  0  0
  1  2  1  0  0  0
  1  6  1  0  0  0
  2  3  1  0  0  0
  2  9  1  0  0  0
  3  4  1  0  0  0
  3 10  1  0  0  0
  4  5  1  0  0  0
  4  7  2  0  0  0
  5  6  2  0  0  0
  5  8  1  0  0  0
  6 11  1  0  0  0
  1 12  1  0  0  0
  1 13  1  0  0  0
  2 14  1  0  0  0
  3 15  1  0  0  0
  7 16  1  0  0  0
  7 17  1  0  0  0
  8 18  1  0  0  0
  9 19  1  0  0  0
 10 20  1  0  0  0
 11 21  1  0  0  0
M  END
$$$$
