4lxz_ligand
  -I-interpret- 

 39 39  0  0  0  0  0  0  0  0999 V2000
   19.6360  -19.8860   -2.0940 O   0  0  0  0  0
   20.4930  -17.6630   -0.9360 O   0  0  0  0  0
   20.8830  -19.7820   -1.4560 N   0  0  0  0  0
   21.2570  -18.6200   -0.8860 C   0  0  0  0  0
   22.5970  -18.5460   -0.1950 C   0  0  0  0  0
   23.5580  -17.4830   -0.7890 C   0  0  0  0  0
   24.9330  -17.7010   -0.1330 C   0  0  0  0  0
   25.9720  -16.7150   -0.7010 C   0  0  0  0  0
   27.3250  -17.0050   -0.0240 C   0  0  0  0  0
   28.3040  -15.8280   -0.1830 C   0  0  0  0  0
   28.0100  -14.7020    0.7790 C   0  0  0  0  0
   27.4610  -13.7120    0.3330 O   0  0  0  0  0
   28.3770  -14.8320    2.0940 N   0  0  0  0  0
   28.2700  -13.8990    3.1580 C   0  0  0  0  0
   28.0050  -12.5340    2.9690 C   0  0  0  0  0
   28.0010  -11.6580    4.0550 C   0  0  0  0  0
   28.2660  -12.1300    5.3400 C   0  0  0  0  0
   28.5530  -13.4780    5.5370 C   0  0  0  0  0
   28.5810  -14.3460    4.4510 C   0  0  0  0  0
   19.5294  -20.7740   -2.4429 H   0  0  0  0  0
   21.5070  -20.5883   -1.4242 H   0  0  0  0  0
   23.0763  -19.5175   -0.3159 H   0  0  0  0  0
   22.4101  -18.2680    0.8422 H   0  0  0  0  0
   23.1906  -16.4766   -0.5883 H   0  0  0  0  0
   23.6268  -17.5881   -1.8717 H   0  0  0  0  0
   25.2640  -18.7187   -0.3400 H   0  0  0  0  0
   24.8408  -17.5352    0.9404 H   0  0  0  0  0
   25.6643  -15.6884   -0.5023 H   0  0  0  0  0
   26.0573  -16.8389   -1.7806 H   0  0  0  0  0
   27.7643  -17.8837   -0.4962 H   0  0  0  0  0
   27.1497  -17.1650    1.0399 H   0  0  0  0  0
   28.2042  -15.4405   -1.1969 H   0  0  0  0  0
   29.3094  -16.1949    0.0238 H   0  0  0  0  0
   28.7873  -15.7317    2.3441 H   0  0  0  0  0
   27.8010  -12.1556    1.9673 H   0  0  0  0  0
   27.7898  -10.6002    3.8982 H   0  0  0  0  0
   28.2485  -11.4454    6.1880 H   0  0  0  0  0
   28.7554  -13.8522    6.5405 H   0  0  0  0  0
   28.8490  -15.3910    4.6068 H   0  0  0  0  0
  3  1  1  0  0  0
  4  2  2  0  0  0
  3  4  1  0  0  0
  4  5  1  0  0  0
  5  6  1  0  0  0
  6  7  1  0  0  0
  7  8  1  0  0  0
  8  9  1  0  0  0
  9 10  1  0  0  0
 10 11  1  0  0  0
 11 12  2  0  0  0
 11 13  1  0  0  0
 13 14  1  0  0  0
 14 15  4  0  0  0
 14 19  4  0  0  0
 15 16  4  0  0  0
 16 17  4  0  0  0
 17 18  4  0  0  0
 18 19  4  0  0  0
  1 20  1  0  0  0
  3 21  1  0  0  0
  5 22  1  0  0  0
  5 23  1  0  0  0
  6 24  1  0  0  0
  6 25  1  0  0  0
  7 26  1  0  0  0
  7 27  1  0  0  0
  8 28  1  0  0  0
  8 29  1  0  0  0
  9 30  1  0  0  0
  9 31  1  0  0  0
 10 32  1  0  0  0
 10 33  1  0  0  0
 13 34  1  0  0  0
 15 35  1  0  0  0
 16 36  1  0  0  0
 17 37  1  0  0  0
 18 38  1  0  0  0
 19 39  1  0  0  0
M  END
$$$$
