4ybj_ligand
  -I-interpret- 

 74 78  0  0  0  0  0  0  0  0999 V2000
   18.4110    6.4190   95.8950 O   0  0  0  0  0
   19.0180    7.3450   95.3890 C   0  0  0  0  0
   20.0550    7.1070   94.3370 C   0  0  0  0  0
   21.3910    7.4800   94.5560 C   0  0  0  0  0
   22.3550    7.2720   93.5620 C   0  0  0  0  0
   22.0020    6.6390   92.3700 C   0  0  0  0  0
   20.6640    6.2390   92.1700 C   0  0  0  0  0
   20.3400    5.4600   90.9110 C   0  0  0  0  0
   21.2410    5.6040   89.9290 F   0  0  0  0  0
   19.1650    5.8160   90.3730 F   0  0  0  0  0
   20.2640    4.1400   91.0830 F   0  0  0  0  0
   19.6740    6.4890   93.1370 C   0  0  0  0  0
   18.8330    8.7010   95.7200 N   0  0  0  0  0
   17.9280    9.2700   96.6690 C   0  0  0  0  0
   18.2220   10.4740   97.3330 C   0  0  0  0  0
   17.2900   11.0200   98.2210 C   0  0  0  0  0
   16.0740   10.4120   98.4860 C   0  0  0  0  0
   16.6800    8.6320   96.9230 C   0  0  0  0  0
   15.7790    9.2170   97.8310 C   0  0  0  0  0
   14.5610    8.5590   98.0530 N   0  0  0  0  0
   14.4570    7.3290   98.7080 C   0  0  0  0  0
   15.4130    6.7270   99.1810 O   0  0  0  0  0
   13.0920    6.8250   98.8120 C   0  0  0  0  0
   12.0780    7.0330   97.8980 C   0  0  0  0  0
   10.8710    6.4220   98.2350 N   0  0  0  0  0
   11.0440    5.7580   99.4040 C   0  0  0  0  0
   12.6170    5.8720  100.1040 S   0  0  0  0  0
    9.9550    5.0430   99.9510 N   0  0  0  0  0
    9.9780    4.2860  101.1350 C   0  0  0  0  0
    8.7790    3.6440  101.5550 C   0  0  0  0  0
    8.8940    2.7800  102.6740 C   0  0  0  0  0
   10.0900    2.5830  103.3620 N   0  0  0  0  0
   11.1740    3.2730  102.8990 C   0  0  0  0  0
   12.4450    3.1020  103.6850 C   0  0  0  0  0
   11.1870    4.1090  101.8160 N   0  0  0  0  0
    7.8100    1.9990  103.1640 N   0  0  0  0  0
    6.5690    1.7490  102.4160 C   0  0  0  0  0
    5.4770    2.4740  103.1880 C   0  0  0  0  0
    5.3670    1.8670  104.5520 N   0  3  0  0  0
    6.6630    2.0120  105.2840 C   0  0  0  0  0
    7.7650    1.3440  104.4760 C   0  0  0  0  0
    4.1770    2.3460  105.3450 C   0  0  0  0  0
    4.1400    3.8450  105.5640 C   0  0  0  0  0
    4.9910    4.2220  106.6320 O   0  0  0  0  0
   21.6790    7.9336   95.5044 H   0  0  0  0  0
   23.3810    7.6046   93.7195 H   0  0  0  0  0
   22.7523    6.4553   91.6010 H   0  0  0  0  0
   18.6358    6.2093   92.9582 H   0  0  0  0  0
   19.4220    9.3643   95.2166 H   0  0  0  0  0
   19.1716   10.9792   97.1564 H   0  0  0  0  0
   17.5290   11.9577   98.7227 H   0  0  0  0  0
   15.3672   10.8555   99.1873 H   0  0  0  0  0
   16.4257    7.6997   96.4187 H   0  0  0  0  0
   13.7051    9.0017   97.7186 H   0  0  0  0  0
   12.2099    7.6238   96.9915 H   0  0  0  0  0
    9.0726    5.0795   99.4406 H   0  0  0  0  0
    7.8286    3.8067  101.0467 H   0  0  0  0  0
   12.2850    3.4377  104.7096 H   0  0  0  0  0
   12.7311    2.0502  103.6864 H   0  0  0  0  0
   13.2367    3.6946  103.2266 H   0  0  0  0  0
    6.3597    0.6824  102.3341 H   0  0  0  0  0
    6.6408    2.1108  101.3903 H   0  0  0  0  0
    4.5268    2.3774  102.6628 H   0  0  0  0  0
    5.7249    3.5320  103.2732 H   0  0  0  0  0
    5.1837    0.8716  104.4256 H   0  0  0  0  0
    6.5871    1.5395  106.2633 H   0  0  0  0  0
    6.8938    3.0689  105.4172 H   0  0  0  0  0
    8.7239    1.4437  104.9845 H   0  0  0  0  0
    7.5624    0.2790  104.3632 H   0  0  0  0  0
    4.2359    1.8785  106.3279 H   0  0  0  0  0
    3.2846    2.0815  104.7777 H   0  0  0  0  0
    3.1192    4.1379  105.8095 H   0  0  0  0  0
    4.4794    4.3403  104.6543 H   0  0  0  0  0
    4.9506    5.1737  106.7512 H   0  0  0  0  0
  1  2  2  0  0  0
  2  3  1  0  0  0
  2 13  1  0  0  0
  3  4  4  0  0  0
  3 12  4  0  0  0
  4  5  4  0  0  0
  5  6  4  0  0  0
  6  7  4  0  0  0
  7  8  1  0  0  0
  7 12  4  0  0  0
  8  9  1  0  0  0
  8 10  1  0  0  0
  8 11  1  0  0  0
 13 14  1  0  0  0
 14 15  4  0  0  0
 14 18  4  0  0  0
 15 16  4  0  0  0
 16 17  4  0  0  0
 17 19  4  0  0  0
 18 19  4  0  0  0
 19 20  1  0  0  0
 20 21  1  0  0  0
 21 22  2  0  0  0
 21 23  1  0  0  0
 23 24  4  0  0  0
 23 27  4  0  0  0
 24 25  4  0  0  0
 25 26  4  0  0  0
 26 27  4  0  0  0
 26 28  1  0  0  0
 28 29  1  0  0  0
 29 30  4  0  0  0
 29 35  4  0  0  0
 30 31  4  0  0  0
 31 32  4  0  0  0
 31 36  1  0  0  0
 32 33  4  0  0  0
 33 34  1  0  0  0
 33 35  4  0  0  0
 36 37  1  0  0  0
 36 41  1  0  0  0
 37 38  1  0  0  0
 38 39  1  0  0  0
 39 40  1  0  0  0
 39 42  1  0  0  0
 40 41  1  0  0  0
 42 43  1  0  0  0
 43 44  1  0  0  0
  4 45  1  0  0  0
  5 46  1  0  0  0
  6 47  1  0  0  0
 12 48  1  0  0  0
 13 49  1  0  0  0
 15 50  1  0  0  0
 16 51  1  0  0  0
 17 52  1  0  0  0
 18 53  1  0  0  0
 20 54  1  0  0  0
 24 55  1  0  0  0
 28 56  1  0  0  0
 30 57  1  0  0  0
 34 58  1  0  0  0
 34 59  1  0  0  0
 34 60  1  0  0  0
 37 61  1  0  0  0
 37 62  1  0  0  0
 38 63  1  0  0  0
 38 64  1  0  0  0
 39 65  1  0  0  0
 40 66  1  0  0  0
 40 67  1  0  0  0
 41 68  1  0  0  0
 41 69  1  0  0  0
 42 70  1  0  0  0
 42 71  1  0  0  0
 43 72  1  0  0  0
 43 73  1  0  0  0
 44 74  1  0  0  0
M  END
$$$$
