2xow_ligand
  -I-interpret- 

 25 25  0  0  0  0  0  0  0  0999 V2000
   13.2860   -9.9340   47.6230 O   0  0  0  0  0
   13.8240   -9.0260   48.2350 C   0  0  0  0  0
   14.6960   -9.2220   49.3100 C   0  0  0  0  0
   15.2120  -10.4930   49.5810 C   0  0  0  0  0
   16.0940  -10.6940   50.6440 C   0  0  0  0  0
   16.5650  -11.9000   50.9150 N   0  0  0  0  0
   16.5050   -9.6260   51.4190 C   0  0  0  0  0
   16.0080   -8.3600   51.1390 C   0  0  0  0  0
   15.1370   -8.1330   50.0760 C   0  0  0  0  0
   14.7060   -6.7880   49.9110 C   0  0  0  0  0
   13.3750   -6.5150   49.1700 C   0  0  0  0  0
   12.3960   -7.2470   49.3000 O   0  0  0  0  0
   13.3510   -5.3830   48.3950 O   0  0  0  0  0
   12.0880   -5.2600   47.7340 C   0  0  0  0  0
   13.6125   -8.0024   47.9256 H   0  0  0  0  0
   14.9221  -11.3367   48.9548 H   0  0  0  0  0
   16.2843  -12.6973   50.3441 H   0  0  0  0  0
   17.2089  -12.0327   51.6949 H   0  0  0  0  0
   17.2088   -9.7753   52.2378 H   0  0  0  0  0
   16.3074   -7.5215   51.7678 H   0  0  0  0  0
   15.4731   -6.3200   49.2940 H   0  0  0  0  0
   14.5460   -6.4172   50.9234 H   0  0  0  0  0
   11.9257   -6.1305   47.0984 H   0  0  0  0  0
   11.2942   -5.1990   48.4785 H   0  0  0  0  0
   12.0853   -4.3571   47.1234 H   0  0  0  0  0
  1  2  2  0  0  0
  2  3  1  0  0  0
  3  4  4  0  0  0
  3  9  4  0  0  0
  4  5  4  0  0  0
  5  6  1  0  0  0
  5  7  4  0  0  0
  7  8  4  0  0  0
  8  9  4  0  0  0
  9 10  1  0  0  0
 10 11  1  0  0  0
 11 12  2  0  0  0
 11 13  1  0  0  0
 13 14  1  0  0  0
  2 15  1  0  0  0
  4 16  1  0  0  0
  6 17  1  0  0  0
  6 18  1  0  0  0
  7 19  1  0  0  0
  8 20  1  0  0  0
 10 21  1  0  0  0
 10 22  1  0  0  0
 14 23  1  0  0  0
 14 24  1  0  0  0
 14 25  1  0  0  0
M  END
$$$$
