4mx1_ligand
  -I-interpret- 

 42 44  0  0  0  0  0  0  0  0999 V2000
  -23.9710    8.8080   -6.3600 C   0  0  0  0  0
  -24.2870    8.0680   -5.2840 N   0  0  0  0  0
  -22.1220    8.2520   -9.2320 O   0  0  0  0  0
  -22.8220    8.8190   -8.3660 C   0  0  0  0  0
  -23.1990    8.1510   -7.2600 N   0  0  0  0  0
  -25.5170   14.6200   -8.1710 O   0  0  0  0  0
  -23.2180   10.1600   -8.5610 C   0  0  0  0  0
  -24.2950   10.0880   -6.4430 N   0  0  0  0  0
  -25.1990   15.1030  -14.9190 O   0  0  0  0  0
  -24.0210   10.7840   -7.5220 C   0  0  0  0  0
  -24.4810   12.0270   -7.6700 N   0  0  0  0  0
  -24.2190   12.6980   -8.8080 C   0  0  0  0  0
  -22.9010   10.9390   -9.6780 N   0  0  0  0  0
  -23.3510   12.1930   -9.8060 C   0  0  0  0  0
  -24.6770   14.6440  -10.2080 N   0  0  0  0  0
  -24.7670   14.0890   -8.9990 C   0  0  0  0  0
  -25.2110   15.6490  -12.7770 N   0  0  0  0  0
  -25.1500   16.0490  -10.4410 C   0  0  0  0  0
  -26.1190   13.6760  -13.3560 N   0  0  0  0  0
  -26.0570   16.0010  -11.6500 C   0  0  0  0  0
  -25.5140   14.7920  -13.7700 C   0  0  0  0  0
  -26.5030   12.4790  -13.9200 C   0  0  0  0  0
  -26.3360   11.3710  -13.1410 C   0  0  0  0  0
  -26.7100   10.0730  -13.5600 C   0  0  0  0  0
  -27.2960    9.9230  -14.8060 C   0  0  0  0  0
  -27.4810   11.0540  -15.5980 C   0  0  0  0  0
  -27.0920   12.3420  -15.2030 C   0  0  0  0  0
  -23.9487    7.1088   -5.2075 H   0  0  0  0  0
  -24.7640   10.5402   -5.6582 H   0  0  0  0  0
  -23.0571   12.8090  -10.6559 H   0  0  0  0  0
  -24.2830   14.1086  -10.9817 H   0  0  0  0  0
  -24.2952   16.0961  -12.8204 H   0  0  0  0  0
  -24.3088   16.7212  -10.6103 H   0  0  0  0  0
  -25.6809   16.4319   -9.5695 H   0  0  0  0  0
  -26.3591   13.7214  -12.3657 H   0  0  0  0  0
  -26.8548   15.2708  -11.5142 H   0  0  0  0  0
  -26.5478   16.9607  -11.8116 H   0  0  0  0  0
  -25.8947   11.4918  -12.1517 H   0  0  0  0  0
  -26.5408    9.2096  -12.9165 H   0  0  0  0  0
  -27.6062    8.9398  -15.1598 H   0  0  0  0  0
  -27.9517   10.9316  -16.5735 H   0  0  0  0  0
  -27.2364   13.2031  -15.8555 H   0  0  0  0  0
  1  2  2  0  0  0
  1  5  4  0  0  0
  8  1  1  0  0  0
  4  3  2  0  0  0
  4  5  1  0  0  0
  7  4  1  0  0  0
 16  6  2  0  0  0
 10  7  4  0  0  0
 13  7  4  0  0  0
 10  8  1  0  0  0
 21  9  2  0  0  0
 11 10  4  0  0  0
 12 11  4  0  0  0
 12 14  4  0  0  0
 16 12  1  0  0  0
 14 13  4  0  0  0
 15 16  1  0  0  0
 18 15  1  0  0  0
 20 17  1  0  0  0
 17 21  1  0  0  0
 18 20  1  0  0  0
 21 19  1  0  0  0
 19 22  1  0  0  0
 22 23  4  0  0  0
 22 27  4  0  0  0
 23 24  4  0  0  0
 24 25  4  0  0  0
 25 26  4  0  0  0
 26 27  4  0  0  0
  2 28  1  0  0  0
  8 29  1  0  0  0
 14 30  1  0  0  0
 15 31  1  0  0  0
 17 32  1  0  0  0
 18 33  1  0  0  0
 18 34  1  0  0  0
 19 35  1  0  0  0
 20 36  1  0  0  0
 20 37  1  0  0  0
 23 38  1  0  0  0
 24 39  1  0  0  0
 25 40  1  0  0  0
 26 41  1  0  0  0
 27 42  1  0  0  0
M  END
$$$$
