3pgu_ligand
  -I-interpret- 

 31 30  0  0  0  0  0  0  0  0999 V2000
  -26.7480    9.6610  -22.3670 C   0  0  0  0  0
  -27.8800    9.1050  -22.4220 O   0  0  0  0  0
  -26.4390   10.5290  -23.2140 O   0  0  0  0  0
  -25.7670    9.3270  -21.2960 C   0  0  0  0  0
  -26.1420    8.3300  -20.2550 C   0  0  0  0  0
  -25.3120    8.1890  -19.1790 C   0  0  0  0  0
  -25.7230    7.3380  -18.0300 C   0  0  0  0  0
  -25.9630    5.8980  -18.3030 C   0  0  0  0  0
  -25.5660    4.9430  -17.2300 C   0  0  0  0  0
  -26.0270    5.2500  -15.8490 C   0  0  0  0  0
  -27.4940    5.4110  -15.6270 C   0  0  0  0  0
  -27.9390    6.4150  -14.8130 C   0  0  0  0  0
  -29.3980    6.5840  -14.5520 C   0  0  0  0  0
  -27.9581    8.4693  -21.7069 H   0  0  0  0  0
  -25.6200   10.2592  -20.7506 H   0  0  0  0  0
  -24.9221    8.8801  -21.8199 H   0  0  0  0  0
  -27.0488    7.7325  -20.3485 H   0  0  0  0  0
  -24.3492    8.6997  -19.1624 H   0  0  0  0  0
  -26.6790    7.7384  -17.6924 H   0  0  0  0  0
  -24.8920    7.3710  -17.3254 H   0  0  0  0  0
  -25.3514    5.6490  -19.1702 H   0  0  0  0  0
  -27.0411    5.7886  -18.4209 H   0  0  0  0  0
  -24.4770    4.9717  -17.1937 H   0  0  0  0  0
  -26.0269    3.9910  -17.4931 H   0  0  0  0  0
  -25.5870    6.2163  -15.6027 H   0  0  0  0  0
  -25.7333    4.3910  -15.2458 H   0  0  0  0  0
  -28.2020    4.7362  -16.1081 H   0  0  0  0  0
  -27.2236    7.0960  -14.3520 H   0  0  0  0  0
  -29.9159    6.7638  -15.4941 H   0  0  0  0  0
  -29.7899    5.6792  -14.0874 H   0  0  0  0  0
  -29.5505    7.4321  -13.8844 H   0  0  0  0  0
  1  2  1  0  0  0
  1  3  2  0  0  0
  1  4  1  0  0  0
  4  5  1  0  0  0
  5  6  2  0  0  0
  6  7  1  0  0  0
  7  8  1  0  0  0
  8  9  1  0  0  0
  9 10  1  0  0  0
 10 11  1  0  0  0
 11 12  2  0  0  0
 12 13  1  0  0  0
  2 14  1  0  0  0
  4 15  1  0  0  0
  4 16  1  0  0  0
  5 17  1  0  0  0
  6 18  1  0  0  0
  7 19  1  0  0  0
  7 20  1  0  0  0
  8 21  1  0  0  0
  8 22  1  0  0  0
  9 23  1  0  0  0
  9 24  1  0  0  0
 10 25  1  0  0  0
 10 26  1  0  0  0
 11 27  1  0  0  0
 12 28  1  0  0  0
 13 29  1  0  0  0
 13 30  1  0  0  0
 13 31  1  0  0  0
M  END
$$$$
