2vx1_ligand
  -I-interpret- 

 41 44  0  0  0  0  0  0  0  0999 V2000
   13.7070    7.4440   11.5360 N   0  0  0  0  0
   13.0600    6.2240   11.8450 C   0  0  0  0  0
   13.9380    5.2740   12.1930 N   0  0  0  0  0
   13.4410    4.0610   12.4820 C   0  0  0  0  0
   12.0940    3.7870   12.4290 C   0  0  0  0  0
   11.2630    4.8390   12.0520 C   0  0  0  0  0
    9.8770    4.6630   11.9630 N   0  0  0  0  0
    9.2290    3.4730   12.3140 C   0  0  0  0  0
    9.1620    3.0610   13.6330 C   0  0  0  0  0
    9.7330    3.7180   14.7070 O   0  0  0  0  0
    9.6080    2.6800   15.6890 C   0  0  0  0  0
    8.5880    1.7080   15.3520 O   0  0  0  0  0
    8.5080    1.9160   13.9970 C   0  0  0  0  0
    7.8920    1.1020   13.0770 C   0  0  0  0  0
    7.9740    1.5000   11.7490 C   0  0  0  0  0
    8.6170    2.6650   11.3670 C   0  0  0  0  0
    8.6910    3.1790    9.7030 Cl  0  0  0  0  0
   11.7380    6.0490   11.7640 N   0  0  0  0  0
    9.4380   10.6280    8.9260 N   0  0  0  0  0
    9.7620    9.9730   10.0940 C   0  0  0  0  0
    8.9560    9.4620   10.8630 O   0  0  0  0  0
   11.1970    9.9050   10.4050 C   0  0  0  0  0
   11.9680   11.0430   10.3020 C   0  0  0  0  0
   13.3100   10.9820   10.6080 C   0  0  0  0  0
   13.8530    9.7840   11.0130 C   0  0  0  0  0
   13.0770    8.6370   11.1110 C   0  0  0  0  0
   11.7350    8.6920   10.8160 C   0  0  0  0  0
   14.7226    7.4651   11.6284 H   0  0  0  0  0
   14.1287    3.2654   12.7687 H   0  0  0  0  0
   11.6985    2.8000   12.6691 H   0  0  0  0  0
    9.3108    5.4413   11.6253 H   0  0  0  0  0
    9.3260    3.1460   16.6332 H   0  0  0  0  0
   10.5625    2.1565   15.7446 H   0  0  0  0  0
    7.3676    0.1935   13.3734 H   0  0  0  0  0
    7.5170    0.8745   10.9822 H   0  0  0  0  0
    8.4616   10.7156    8.6444 H   0  0  0  0  0
   10.1746   11.0253    8.3429 H   0  0  0  0  0
   11.5197   11.9833    9.9811 H   0  0  0  0  0
   13.9343   11.8721   10.5302 H   0  0  0  0  0
   14.9131    9.7348   11.2617 H   0  0  0  0  0
   11.1081    7.8046   10.9026 H   0  0  0  0  0
  1  2  1  0  0  0
 26  1  1  0  0  0
  2  3  4  0  0  0
  2 18  4  0  0  0
  3  4  4  0  0  0
  4  5  4  0  0  0
  6  5  4  0  0  0
  6  7  1  0  0  0
 18  6  4  0  0  0
  7  8  1  0  0  0
  8  9  4  0  0  0
  8 16  4  0  0  0
  9 10  1  0  0  0
  9 13  4  0  0  0
 10 11  1  0  0  0
 12 11  1  0  0  0
 13 12  1  0  0  0
 13 14  4  0  0  0
 15 14  4  0  0  0
 16 15  4  0  0  0
 16 17  1  0  0  0
 20 19  1  0  0  0
 20 21  2  0  0  0
 22 20  1  0  0  0
 23 22  4  0  0  0
 22 27  4  0  0  0
 24 23  4  0  0  0
 25 24  4  0  0  0
 25 26  4  0  0  0
 26 27  4  0  0  0
  1 28  1  0  0  0
  4 29  1  0  0  0
  5 30  1  0  0  0
  7 31  1  0  0  0
 11 32  1  0  0  0
 11 33  1  0  0  0
 14 34  1  0  0  0
 15 35  1  0  0  0
 19 36  1  0  0  0
 19 37  1  0  0  0
 23 38  1  0  0  0
 24 39  1  0  0  0
 25 40  1  0  0  0
 27 41  1  0  0  0
M  END
$$$$
