6pia_ligand
  -I-interpret- 

 37 36  0  0  0  0  0  0  0  0999 V2000
  -17.8840   42.7170  -11.8660 C   0  0  0  0  0
  -16.3360   42.7070  -11.7320 C   0  0  0  0  0
  -15.5760   42.1260  -12.9440 C   0  0  0  0  0
  -15.6610   39.6010  -12.7740 C   0  0  0  0  0
  -15.0830   38.5340  -13.7540 C   0  0  0  0  0
  -15.8320   38.3610  -15.0930 C   0  0  0  0  0
  -15.1130   37.4380  -16.0890 C   0  0  0  0  0
  -14.0730   38.1050  -16.9970 C   0  0  0  0  0
  -13.0840   37.2400  -17.7660 C   0  0  0  0  0
  -18.3950   43.9000  -12.5570 N   0  3  0  0  0
  -16.2000   40.8360  -13.4530 N   0  3  0  0  0
  -13.1410   35.8920  -17.7660 N   0  0  0  0  0
  -12.1760   37.8240  -18.4360 O   0  0  0  0  0
  -12.2120   35.2790  -18.4870 O   0  0  0  0  0
  -18.3026   42.7159  -10.8596 H   0  0  0  0  0
  -18.1704   41.8432  -12.4513 H   0  0  0  0  0
  -16.0994   42.0705  -10.8794 H   0  0  0  0  0
  -16.0232   43.7466  -11.6350 H   0  0  0  0  0
  -14.5556   41.9067  -12.6296 H   0  0  0  0  0
  -15.6126   42.8598  -13.7492 H   0  0  0  0  0
  -14.8437   39.9201  -12.1272 H   0  0  0  0  0
  -16.4928   39.1354  -12.2455 H   0  0  0  0  0
  -15.1560   37.5763  -13.2386 H   0  0  0  0  0
  -14.0773   38.8682  -14.0089 H   0  0  0  0  0
  -15.9044   39.3455  -15.5552 H   0  0  0  0  0
  -16.7984   37.9091  -14.8695 H   0  0  0  0  0
  -15.8844   37.0410  -16.7488 H   0  0  0  0  0
  -14.5708   36.7061  -15.4902 H   0  0  0  0  0
  -13.4556   38.6973  -16.3217 H   0  0  0  0  0
  -14.6592   38.6062  -17.7672 H   0  0  0  0  0
  -19.4121   43.8471  -12.6124 H   0  0  0  0  0
  -18.1245   44.7371  -12.0408 H   0  0  0  0  0
  -18.0035   43.9381  -13.4981 H   0  0  0  0  0
  -15.9824   40.7603  -14.4466 H   0  0  0  0  0
  -17.2005   40.8813  -13.2598 H   0  0  0  0  0
  -13.8520   35.3781  -17.2456 H   0  0  0  0  0
  -12.3351   34.3290  -18.4244 H   0  0  0  0  0
  2  1  1  0  0  0
  1 10  1  0  0  0
  3  2  1  0  0  0
 11  3  1  0  0  0
  4  5  1  0  0  0
  4 11  1  0  0  0
  5  6  1  0  0  0
  6  7  1  0  0  0
  7  8  1  0  0  0
  8  9  1  0  0  0
  9 12  1  0  0  0
  9 13  2  0  0  0
 12 14  1  0  0  0
  1 15  1  0  0  0
  1 16  1  0  0  0
  2 17  1  0  0  0
  2 18  1  0  0  0
  3 19  1  0  0  0
  3 20  1  0  0  0
  4 21  1  0  0  0
  4 22  1  0  0  0
  5 23  1  0  0  0
  5 24  1  0  0  0
  6 25  1  0  0  0
  6 26  1  0  0  0
  7 27  1  0  0  0
  7 28  1  0  0  0
  8 29  1  0  0  0
  8 30  1  0  0  0
 10 31  1  0  0  0
 10 32  1  0  0  0
 10 33  1  0  0  0
 11 34  1  0  0  0
 11 35  1  0  0  0
 12 36  1  0  0  0
 14 37  1  0  0  0
M  END
$$$$
