2ha3_ligand
  -I-interpret- 

 21 20  0  0  0  0  0  0  0  0999 V2000
   25.5150   20.8110   14.2040 C   0  0  0  0  0
   26.8380   20.2910   14.7850 C   0  0  0  0  0
   26.9790   17.9480   14.2250 C   0  0  0  0  0
   27.7700   18.7310   16.3320 C   0  0  0  0  0
   25.4510   18.6490   15.9330 C   0  0  0  0  0
   24.9530   19.8920   13.2630 O   0  0  0  0  0
   26.7450   18.9150   15.3030 N   0  3  0  0  0
   25.7119   21.7517   13.6897 H   0  0  0  0  0
   24.8073   20.9397   15.0230 H   0  0  0  0  0
   27.1098   20.9393   15.6180 H   0  0  0  0  0
   27.5741   20.2917   13.9811 H   0  0  0  0  0
   26.9781   16.9390   14.6372 H   0  0  0  0  0
   26.1886   18.0382   13.4799 H   0  0  0  0  0
   27.9436   18.1509   13.7597 H   0  0  0  0  0
   27.5900   19.4274   17.1510 H   0  0  0  0  0
   27.7272   17.7084   16.7069 H   0  0  0  0  0
   28.7533   18.9207   15.9016 H   0  0  0  0  0
   25.4364   17.6274   16.3128 H   0  0  0  0  0
   25.2992   19.3464   16.7568 H   0  0  0  0  0
   24.6571   18.7758   15.1970 H   0  0  0  0  0
   24.1297   20.2487   12.9216 H   0  0  0  0  0
  1  2  1  0  0  0
  1  6  1  0  0  0
  2  7  1  0  0  0
  7  3  1  0  0  0
  7  4  1  0  0  0
  7  5  1  0  0  0
  1  8  1  0  0  0
  1  9  1  0  0  0
  2 10  1  0  0  0
  2 11  1  0  0  0
  3 12  1  0  0  0
  3 13  1  0  0  0
  3 14  1  0  0  0
  4 15  1  0  0  0
  4 16  1  0  0  0
  4 17  1  0  0  0
  5 18  1  0  0  0
  5 19  1  0  0  0
  5 20  1  0  0  0
  6 21  1  0  0  0
M  END
$$$$
