5jzs_ligand
  -I-interpret- 

 16 16  0  0  0  0  0  0  0  0999 V2000
  -19.9810  -17.3580  -35.1100 O   0  0  0  0  0
  -20.2340  -16.3240  -34.4610 C   0  0  0  0  0
  -20.0710  -15.1680  -34.9470 O   0  0  0  0  0
  -20.7460  -16.4900  -33.0660 C   0  0  0  0  0
  -21.4740  -17.6030  -32.6740 C   0  0  0  0  0
  -21.9150  -17.6860  -31.3580 C   0  0  0  0  0
  -22.8440  -19.0810  -30.8360 Cl  0  0  0  0  0
  -21.6210  -16.6560  -30.4560 C   0  0  0  0  0
  -22.0710  -16.7470  -29.1150 O   0  0  0  0  0
  -20.8760  -15.5530  -30.8840 C   0  0  0  0  0
  -20.4430  -14.1980  -29.8590 Cl  0  0  0  0  0
  -20.4470  -15.4800  -32.1900 C   0  0  0  0  0
  -20.3202  -14.5096  -34.2943 H   0  0  0  0  0
  -21.6966  -18.3988  -33.3849 H   0  0  0  0  0
  -21.7894  -15.9675  -28.6306 H   0  0  0  0  0
  -19.8697  -14.6190  -32.5270 H   0  0  0  0  0
  1  2  2  0  0  0
  2  3  1  0  0  0
  2  4  1  0  0  0
  4  5  4  0  0  0
  4 12  4  0  0  0
  5  6  4  0  0  0
  6  7  1  0  0  0
  6  8  4  0  0  0
  8  9  1  0  0  0
  8 10  4  0  0  0
 10 11  1  0  0  0
 10 12  4  0  0  0
  3 13  1  0  0  0
  5 14  1  0  0  0
  9 15  1  0  0  0
 12 16  1  0  0  0
M  END
$$$$
