6pys_ligand
  -I-interpret- 

 56 61  0  0  0  0  0  0  0  0999 V2000
  -18.6190   14.4130   29.8660 C   0  0  0  0  0
  -18.1490   15.5150   30.6250 C   0  0  0  0  0
  -16.8320   15.8220   30.5790 C   0  0  0  0  0
  -16.4640   13.9790   29.0940 C   0  0  0  0  0
  -15.3650   13.4030   28.4260 C   0  0  0  0  0
  -14.2480   14.1660   28.7990 C   0  0  0  0  0
  -14.2250   11.9360   26.7200 C   0  0  0  0  0
  -14.1940   10.8120   25.9150 C   0  0  0  0  0
  -16.4100   11.2790   27.5150 C   0  0  0  0  0
  -17.3410    9.0180   26.4500 C   0  0  0  0  0
  -16.5910    8.1360   25.4710 C   0  0  0  0  0
  -18.7080    8.8770   28.6200 C   0  0  0  0  0
  -20.9590    9.5150   29.2150 C   0  0  0  0  0
  -20.4810   10.1520   30.3510 C   0  0  0  0  0
  -18.5340    9.6150   25.6890 C   0  0  0  0  0
  -22.6940   13.4250   29.8460 C   0  0  0  0  0
  -20.8310   14.0870   31.0550 C   0  0  0  0  0
  -24.1590   13.0680   29.8290 C   0  0  0  0  0
  -15.9880   15.0490   29.8190 N   0  0  0  0  0
  -17.7710   13.6940   29.1380 N   0  0  0  0  0
  -14.6160   15.1300   29.6040 N   0  0  0  0  0
  -15.3420   12.2020   27.5360 C   0  0  0  0  0
  -15.2650    9.9190   25.8920 C   0  0  0  0  0
  -16.3660   10.1520   26.7140 C   0  0  0  0  0
  -16.9800    7.0910   24.9950 O   0  0  0  0  0
  -15.4280    8.7350   25.1830 N   0  0  0  0  0
  -17.7350    8.1840   27.6890 C   0  0  0  0  0
  -20.0750    8.8730   28.3570 C   0  0  0  0  0
  -19.1210   10.1520   30.6250 C   0  0  0  0  0
  -18.2410    9.5100   29.7640 C   0  0  0  0  0
  -20.0620   14.0620   29.8740 C   0  0  0  0  0
  -20.7160   13.6980   28.6800 C   0  0  0  0  0
  -22.0100   13.3900   28.7110 N   0  0  0  0  0
  -22.1210   13.7640   30.9950 N   0  0  0  0  0
  -18.8356   16.1034   31.2337 H   0  0  0  0  0
  -16.4449   16.6734   31.1388 H   0  0  0  0  0
  -13.2259   13.9830   28.4676 H   0  0  0  0  0
  -13.3779   12.6220   26.7231 H   0  0  0  0  0
  -13.3212   10.6215   25.2904 H   0  0  0  0  0
  -17.2844   11.4575   28.1408 H   0  0  0  0  0
  -22.0268    9.5183   28.9960 H   0  0  0  0  0
  -21.1736   10.6522   31.0279 H   0  0  0  0  0
  -18.1690   10.1986   24.8439 H   0  0  0  0  0
  -19.1724    8.8091   25.3270 H   0  0  0  0  0
  -19.1043   10.2595   26.3580 H   0  0  0  0  0
  -20.3754   14.3671   32.0048 H   0  0  0  0  0
  -24.6907   13.7522   29.1678 H   0  0  0  0  0
  -24.2785   12.0462   29.4688 H   0  0  0  0  0
  -24.5630   13.1485   30.8382 H   0  0  0  0  0
  -14.7439    8.3662   24.5224 H   0  0  0  0  0
  -16.8226    8.0001   28.2563 H   0  0  0  0  0
  -18.2252    7.2806   27.3260 H   0  0  0  0  0
  -20.4544    8.3626   27.4717 H   0  0  0  0  0
  -18.7437   10.6554   31.5151 H   0  0  0  0  0
  -17.1743    9.5029   29.9882 H   0  0  0  0  0
  -20.1665   13.6690   27.7391 H   0  0  0  0  0
  1  2  4  0  0  0
  1 20  4  0  0  0
 31  1  1  0  0  0
  2  3  4  0  0  0
  3 19  4  0  0  0
  4  5  4  0  0  0
  4 19  4  0  0  0
 20  4  4  0  0  0
  5  6  4  0  0  0
  5 22  1  0  0  0
  6 21  4  0  0  0
  7  8  4  0  0  0
 22  7  4  0  0  0
  8 23  4  0  0  0
 22  9  4  0  0  0
  9 24  4  0  0  0
 10 11  1  0  0  0
 10 15  1  0  0  0
 24 10  1  0  0  0
 10 27  1  0  0  0
 11 25  2  0  0  0
 11 26  1  0  0  0
 27 12  1  0  0  0
 12 28  4  0  0  0
 12 30  4  0  0  0
 13 14  4  0  0  0
 28 13  4  0  0  0
 14 29  4  0  0  0
 16 18  1  0  0  0
 16 33  4  0  0  0
 34 16  4  0  0  0
 17 31  4  0  0  0
 17 34  4  0  0  0
 19 21  4  0  0  0
 23 24  4  0  0  0
 23 26  1  0  0  0
 29 30  4  0  0  0
 31 32  4  0  0  0
 32 33  4  0  0  0
  2 35  1  0  0  0
  3 36  1  0  0  0
  6 37  1  0  0  0
  7 38  1  0  0  0
  8 39  1  0  0  0
  9 40  1  0  0  0
 13 41  1  0  0  0
 14 42  1  0  0  0
 15 43  1  0  0  0
 15 44  1  0  0  0
 15 45  1  0  0  0
 17 46  1  0  0  0
 18 47  1  0  0  0
 18 48  1  0  0  0
 18 49  1  0  0  0
 26 50  1  0  0  0
 27 51  1  0  0  0
 27 52  1  0  0  0
 28 53  1  0  0  0
 29 54  1  0  0  0
 30 55  1  0  0  0
 32 56  1  0  0  0
M  END
$$$$
