6nyh_ligand
  -I-interpret- 

 56 60  0  0  0  0  0  0  0  0999 V2000
  -15.8970   17.2000  -41.4030 C   0  0  0  0  0
  -17.1070   15.6800  -42.6730 C   0  0  0  0  0
  -17.1160   15.9470  -37.9630 C   0  0  0  0  0
  -18.1200   15.6240  -41.7080 C   0  0  0  0  0
  -18.0010   16.4030  -40.5600 C   0  0  0  0  0
  -19.0590   16.3910  -39.4780 C   0  0  0  0  0
  -18.5710   15.5870  -38.2580 C   0  0  0  0  0
  -16.8410   17.4310  -38.0530 C   0  0  0  0  0
  -16.7200   18.0010  -39.2610 N   0  0  0  0  0
  -16.8660   17.2060  -40.4130 C   0  0  0  0  0
  -16.4460   19.4470  -39.3580 C   0  0  0  0  0
  -16.0490   16.4440  -42.4780 N   0  0  0  0  0
  -16.7120   18.1320  -37.0470 O   0  0  0  0  0
  -16.7820   15.5590  -36.6010 N   0  0  0  0  0
  -16.4650   14.2870  -36.3100 C   0  0  0  0  0
  -16.4660   13.4150  -37.1640 O   0  0  0  0  0
  -16.1080   13.9750  -34.9230 C   0  0  0  0  0
  -16.0430   14.8640  -33.9150 N   0  0  0  0  0
  -15.6830   14.1870  -32.8570 C   0  0  0  0  0
  -15.5340   12.8970  -33.2300 N   0  0  0  0  0
  -15.7990   12.7810  -34.4750 N   0  0  0  0  0
  -15.1280   12.0550  -32.1070 C   0  0  0  0  0
  -15.4530   12.8890  -30.8400 C   0  0  0  0  0
  -15.3750   14.3470  -31.3790 C   0  0  0  0  0
  -15.8820   10.7470  -32.2140 C   0  0  0  0  0
  -17.1630   10.6210  -31.6930 C   0  0  0  0  0
  -17.8520    9.4200  -31.7950 C   0  0  0  0  0
  -17.2560    8.3440  -32.4360 C   0  0  0  0  0
  -15.9850    8.4760  -32.9810 C   0  0  0  0  0
  -15.2900    9.6760  -32.8630 C   0  0  0  0  0
  -17.1930   14.9320  -43.8170 O   0  0  0  0  0
  -16.0540   14.9460  -44.6810 C   0  0  0  0  0
  -15.0068   17.8199  -41.2960 H   0  0  0  0  0
  -16.5231   15.4219  -38.7119 H   0  0  0  0  0
  -18.9880   14.9808  -41.8531 H   0  0  0  0  0
  -19.9631   15.9259  -39.8709 H   0  0  0  0  0
  -19.2622   17.4163  -39.1690 H   0  0  0  0  0
  -19.1884   15.8276  -37.3926 H   0  0  0  0  0
  -18.6465   14.5206  -38.4707 H   0  0  0  0  0
  -17.2528   20.0013  -38.8786 H   0  0  0  0  0
  -15.5031   19.6711  -38.8592 H   0  0  0  0  0
  -16.3803   19.7334  -40.4076 H   0  0  0  0  0
  -16.7887   16.2600  -35.8601 H   0  0  0  0  0
  -14.0716   11.7874  -32.0829 H   0  0  0  0  0
  -14.7694   12.6989  -30.0125 H   0  0  0  0  0
  -16.4196   12.6440  -30.3997 H   0  0  0  0  0
  -16.0693   15.0194  -30.8751 H   0  0  0  0  0
  -14.4050   14.8105  -31.1993 H   0  0  0  0  0
  -17.6317   11.4725  -31.1996 H   0  0  0  0  0
  -18.8531    9.3235  -31.3748 H   0  0  0  0  0
  -17.7853    7.3942  -32.5122 H   0  0  0  0  0
  -15.5295    7.6351  -33.5039 H   0  0  0  0  0
  -14.2869    9.7724  -33.2784 H   0  0  0  0  0
  -15.8605   15.9675  -45.0085 H   0  0  0  0  0
  -15.1863   14.5653  -44.1423 H   0  0  0  0  0
  -16.2499   14.3159  -45.5486 H   0  0  0  0  0
 10  1  4  0  0  0
  1 12  4  0  0  0
  4  2  4  0  0  0
  2 12  4  0  0  0
  2 31  1  0  0  0
  7  3  1  0  0  0
  3  8  1  0  0  0
  3 14  1  0  0  0
  5  4  4  0  0  0
  6  5  1  0  0  0
  5 10  4  0  0  0
  6  7  1  0  0  0
  8  9  1  0  0  0
  8 13  2  0  0  0
  9 10  1  0  0  0
  9 11  1  0  0  0
 14 15  1  0  0  0
 15 16  2  0  0  0
 15 17  1  0  0  0
 17 18  4  0  0  0
 17 21  4  0  0  0
 18 19  4  0  0  0
 19 20  4  0  0  0
 19 24  1  0  0  0
 20 21  4  0  0  0
 20 22  1  0  0  0
 22 23  1  0  0  0
 22 25  1  0  0  0
 23 24  1  0  0  0
 25 26  4  0  0  0
 25 30  4  0  0  0
 26 27  4  0  0  0
 27 28  4  0  0  0
 28 29  4  0  0  0
 29 30  4  0  0  0
 31 32  1  0  0  0
  1 33  1  0  0  0
  3 34  1  0  0  0
  4 35  1  0  0  0
  6 36  1  0  0  0
  6 37  1  0  0  0
  7 38  1  0  0  0
  7 39  1  0  0  0
 11 40  1  0  0  0
 11 41  1  0  0  0
 11 42  1  0  0  0
 14 43  1  0  0  0
 22 44  1  0  0  0
 23 45  1  0  0  0
 23 46  1  0  0  0
 24 47  1  0  0  0
 24 48  1  0  0  0
 26 49  1  0  0  0
 27 50  1  0  0  0
 28 51  1  0  0  0
 29 52  1  0  0  0
 30 53  1  0  0  0
 32 54  1  0  0  0
 32 55  1  0  0  0
 32 56  1  0  0  0
M  END
$$$$
