3moh_ligand
  -I-interpret- 

 14 13  0  0  0  0  0  0  0  0999 V2000
   21.3040    3.0830    3.8540 P   0  0  0  0  0
   22.3850    4.1550    3.3010 O   0  0  0  0  0
   20.2350    3.8950    4.5700 O   0  0  0  0  0
   22.0490    2.1700    4.7990 O   0  0  0  0  0
   20.5980    2.3940    2.6940 O   0  0  0  0  0
   21.9540    5.2020    2.4650 C   0  0  0  0  0
   22.9050    5.3420    1.3030 C   0  0  0  0  0
   22.8420    6.3930    0.6380 O   0  0  0  0  0
   23.7240    4.4300    0.9790 O   0  0  0  0  0
   19.7864    4.4602    3.9368 H   0  0  0  0  0
   20.1560    3.0526    2.1532 H   0  0  0  0  0
   21.9326    6.1333    3.0310 H   0  0  0  0  0
   20.9543    4.9804    2.0914 H   0  0  0  0  0
   23.6423    3.6956    1.5919 H   0  0  0  0  0
  1  2  1  0  0  0
  1  3  1  0  0  0
  1  4  2  0  0  0
  1  5  1  0  0  0
  2  6  1  0  0  0
  6  7  1  0  0  0
  7  8  2  0  0  0
  7  9  1  0  0  0
  3 10  1  0  0  0
  5 11  1  0  0  0
  6 12  1  0  0  0
  6 13  1  0  0  0
  9 14  1  0  0  0
M  END
$$$$
