5jox_ligand
  -I-interpret- 

 21 21  0  0  0  0  0  0  0  0999 V2000
  306.0500  219.8570  329.5000 O   0  0  0  0  0
  305.1480  220.1800  330.5350 C   0  0  0  0  0
  304.3600  218.9280  330.9110 C   0  0  0  0  0
  304.4610  218.8340  332.3560 N   0  3  0  0  0
  305.8660  220.5960  331.8230 C   0  0  0  0  0
  306.0680  221.9960  331.9270 O   0  0  0  0  0
  304.9140  220.1200  332.9170 C   0  0  0  0  0
  305.5420  219.9870  334.2890 C   0  0  0  0  0
  306.4780  218.9190  334.3550 O   0  0  0  0  0
  305.5579  219.6033  328.7158 H   0  0  0  0  0
  304.5272  220.9958  330.1646 H   0  0  0  0  0
  304.7592  218.0397  330.4215 H   0  0  0  0  0
  303.3222  218.9929  330.5839 H   0  0  0  0  0
  305.1347  218.1074  332.5979 H   0  0  0  0  0
  303.5448  218.6049  332.7414 H   0  0  0  0  0
  306.8680  220.1702  331.8763 H   0  0  0  0  0
  306.6677  222.2839  331.2348 H   0  0  0  0  0
  304.1136  220.8296  333.1266 H   0  0  0  0  0
  304.7465  219.7832  335.0058 H   0  0  0  0  0
  306.0717  220.9139  334.5089 H   0  0  0  0  0
  306.8483  218.8738  335.2395 H   0  0  0  0  0
  1  2  1  0  0  0
  2  3  1  0  0  0
  2  5  1  0  0  0
  3  4  1  0  0  0
  4  7  1  0  0  0
  5  6  1  0  0  0
  5  7  1  0  0  0
  7  8  1  0  0  0
  8  9  1  0  0  0
  1 10  1  0  0  0
  2 11  1  0  0  0
  3 12  1  0  0  0
  3 13  1  0  0  0
  4 14  1  0  0  0
  4 15  1  0  0  0
  5 16  1  0  0  0
  6 17  1  0  0  0
  7 18  1  0  0  0
  8 19  1  0  0  0
  8 20  1  0  0  0
  9 21  1  0  0  0
M  END
$$$$
