1nhx_ligand
  -I-interpret- 

 59 62  0  0  0  0  0  0  0  0999 V2000
   35.8010   51.4460   34.0580 O   0  0  0  0  0
   36.0990   51.3690   35.2450 C   0  0  0  0  0
   35.5200   52.3910   36.1800 C   0  0  0  0  0
   36.9390   50.3870   35.7390 N   0  0  0  0  0
   37.6020   49.3190   35.0080 C   0  0  0  0  0
   38.5010   48.4660   35.6750 C   0  0  0  0  0
   39.1520   47.4290   34.9770 C   0  0  0  0  0
   37.3760   49.1210   33.6300 C   0  0  0  0  0
   38.0280   48.0880   32.9320 C   0  0  0  0  0
   38.9090   47.2310   33.6060 C   0  0  0  0  0
   39.6080   46.1290   32.8350 C   0  0  0  0  0
   38.8310   44.8400   32.8870 C   0  0  0  0  0
   39.1550   43.9000   33.8030 N   0  0  0  0  0
   38.2640   42.9240   33.5450 C   0  0  0  0  0
   38.2170   41.7490   34.2440 N   0  0  0  0  0
   39.1590   41.4440   35.3460 C   0  0  0  0  0
   40.2020   40.3990   34.8780 C   0  0  0  0  0
   41.1370   39.9680   36.0180 C   0  0  0  0  0
   41.9520   38.7370   35.6300 C   0  0  0  0  0
   37.4460   43.2730   32.5150 C   0  0  0  0  0
   37.7890   44.5060   32.0810 N   0  0  0  0  0
   36.4470   42.4000   32.0870 C   0  0  0  0  0
   35.6740   42.6810   31.1660 O   0  0  0  0  0
   36.3800   41.1860   32.7780 N   0  0  0  0  0
   37.2450   40.8590   33.8370 C   0  0  0  0  0
   37.1310   39.7930   34.4150 O   0  0  0  0  0
   35.6750   40.0310   32.1730 C   0  0  0  0  0
   34.2810   40.0170   32.7520 C   0  0  0  0  0
   34.0250   40.3500   34.1000 C   0  0  0  0  0
   32.7130   40.3340   34.6040 C   0  0  0  0  0
   31.6510   39.9680   33.7640 C   0  0  0  0  0
   31.8990   39.6340   32.4210 C   0  0  0  0  0
   33.2120   39.6650   31.9230 C   0  0  0  0  0
   33.4370   39.3320   30.6350 F   0  0  0  0  0
   35.8372   53.3866   35.8696 H   0  0  0  0  0
   34.4320   52.3304   36.1539 H   0  0  0  0  0
   35.8719   52.1955   37.1929 H   0  0  0  0  0
   37.1156   50.4158   36.7432 H   0  0  0  0  0
   38.6950   48.6083   36.7381 H   0  0  0  0  0
   39.8484   46.7762   35.5032 H   0  0  0  0  0
   36.6868   49.7772   33.0985 H   0  0  0  0  0
   37.8478   47.9539   31.8654 H   0  0  0  0  0
   40.5865   45.9605   33.2846 H   0  0  0  0  0
   39.6945   46.4380   31.7933 H   0  0  0  0  0
   38.6024   41.0408   36.1920 H   0  0  0  0  0
   39.6746   42.3582   35.6401 H   0  0  0  0  0
   40.8081   40.8507   34.0927 H   0  0  0  0  0
   39.6665   39.5177   34.5250 H   0  0  0  0  0
   40.5311   39.7227   36.8903 H   0  0  0  0  0
   41.8244   40.7865   36.2317 H   0  0  0  0  0
   41.2764   37.9121   35.4036 H   0  0  0  0  0
   42.5563   38.9649   34.7519 H   0  0  0  0  0
   42.6032   38.4581   36.4584 H   0  0  0  0  0
   36.1959   39.0998   32.3956 H   0  0  0  0  0
   35.6422   40.1230   31.0874 H   0  0  0  0  0
   34.8522   40.6219   34.7557 H   0  0  0  0  0
   32.5218   40.6047   35.6424 H   0  0  0  0  0
   30.6329   39.9425   34.1526 H   0  0  0  0  0
   31.0737   39.3515   31.7674 H   0  0  0  0  0
  1  2  2  0  0  0
  2  3  1  0  0  0
  2  4  1  0  0  0
  4  5  1  0  0  0
  5  6  4  0  0  0
  5  8  4  0  0  0
  6  7  4  0  0  0
  7 10  4  0  0  0
  8  9  4  0  0  0
  9 10  4  0  0  0
 10 11  1  0  0  0
 11 12  1  0  0  0
 12 13  4  0  0  0
 12 21  4  0  0  0
 13 14  4  0  0  0
 14 15  1  0  0  0
 14 20  4  0  0  0
 15 16  1  0  0  0
 15 25  1  0  0  0
 16 17  1  0  0  0
 17 18  1  0  0  0
 18 19  1  0  0  0
 20 21  4  0  0  0
 20 22  1  0  0  0
 22 23  2  0  0  0
 22 24  1  0  0  0
 24 25  1  0  0  0
 24 27  1  0  0  0
 25 26  2  0  0  0
 27 28  1  0  0  0
 28 29  4  0  0  0
 28 33  4  0  0  0
 29 30  4  0  0  0
 30 31  4  0  0  0
 31 32  4  0  0  0
 32 33  4  0  0  0
 33 34  1  0  0  0
  3 35  1  0  0  0
  3 36  1  0  0  0
  3 37  1  0  0  0
  4 38  1  0  0  0
  6 39  1  0  0  0
  7 40  1  0  0  0
  8 41  1  0  0  0
  9 42  1  0  0  0
 11 43  1  0  0  0
 11 44  1  0  0  0
 16 45  1  0  0  0
 16 46  1  0  0  0
 17 47  1  0  0  0
 17 48  1  0  0  0
 18 49  1  0  0  0
 18 50  1  0  0  0
 19 51  1  0  0  0
 19 52  1  0  0  0
 19 53  1  0  0  0
 27 54  1  0  0  0
 27 55  1  0  0  0
 29 56  1  0  0  0
 30 57  1  0  0  0
 31 58  1  0  0  0
 32 59  1  0  0  0
M  END
$$$$
