2i6a_ligand
  -I-interpret- 

 32 34  0  0  0  0  0  0  0  0999 V2000
    9.2040  -23.2940   19.1150 N   0  0  0  0  0
    8.7190  -23.4210   20.3710 C   0  0  0  0  0
    8.5670  -22.3240   21.2160 C   0  0  0  0  0
    8.9590  -21.0670   20.6700 C   0  0  0  0  0
    9.4360  -20.9480   19.4080 N   0  0  0  0  0
    9.5560  -22.0680   18.6690 C   0  0  0  0  0
    8.1130  -22.0690   22.5680 C   0  0  0  0  0
    8.2590  -20.6790   22.7740 C   0  0  0  0  0
    8.7520  -20.0790   21.6460 N   0  0  0  0  0
    7.4000  -23.3900   23.9530 I   0  0  0  0  0
    8.4410  -24.6810   20.7050 N   0  0  0  0  0
    8.0150  -16.4550   21.7470 C   0  0  0  0  0
    7.6100  -17.9290   21.5380 C   0  0  0  0  0
    8.9670  -18.6270   21.4660 C   0  0  0  0  0
    9.6500  -17.9920   22.5080 O   0  0  0  0  0
    9.4020  -16.6020   22.4110 C   0  0  0  0  0
    8.1030  -15.8420   20.4740 O   0  0  0  0  0
    6.7620  -18.0930   20.3650 O   0  0  0  0  0
    9.4530  -15.9540   23.7960 C   0  0  0  0  0
    9.9577  -21.9807   17.6595 H   0  0  0  0  0
    8.0140  -20.1580   23.6995 H   0  0  0  0  0
    8.6001  -25.4333   20.0348 H   0  0  0  0  0
    8.0691  -24.8930   21.6308 H   0  0  0  0  0
    7.3305  -15.8490   22.3406 H   0  0  0  0  0
    6.9859  -18.3526   22.3249 H   0  0  0  0  0
    9.5242  -18.5546   20.5320 H   0  0  0  0  0
   10.1587  -16.0932   21.8138 H   0  0  0  0  0
    8.3544  -14.9216   20.5800 H   0  0  0  0  0
    6.5302  -19.0193   20.2661 H   0  0  0  0  0
    9.2314  -14.8905   23.7065 H   0  0  0  0  0
    8.7153  -16.4269   24.4444 H   0  0  0  0  0
   10.4485  -16.0846   24.2204 H   0  0  0  0  0
  2  1  4  0  0  0
  6  1  4  0  0  0
  3  2  4  0  0  0
  2 11  1  0  0  0
  4  3  4  0  0  0
  7  3  4  0  0  0
  4  5  4  0  0  0
  9  4  4  0  0  0
  5  6  4  0  0  0
  8  7  4  0  0  0
  7 10  1  0  0  0
  9  8  4  0  0  0
 14  9  1  0  0  0
 13 12  1  0  0  0
 12 16  1  0  0  0
 12 17  1  0  0  0
 13 14  1  0  0  0
 13 18  1  0  0  0
 14 15  1  0  0  0
 15 16  1  0  0  0
 16 19  1  0  0  0
  6 20  1  0  0  0
  8 21  1  0  0  0
 11 22  1  0  0  0
 11 23  1  0  0  0
 12 24  1  0  0  0
 13 25  1  0  0  0
 14 26  1  0  0  0
 16 27  1  0  0  0
 17 28  1  0  0  0
 18 29  1  0  0  0
 19 30  1  0  0  0
 19 31  1  0  0  0
 19 32  1  0  0  0
M  END
$$$$
