1swp_ligand
  -I-interpret- 

 32 33  0  0  0  0  0  0  0  0999 V2000
    7.5200  -16.4160   24.7670 C   0  0  0  0  0
    7.1730  -15.2290   25.0060 O   0  0  0  0  0
    6.7380  -17.2320   24.2110 O   0  0  0  0  0
    8.9020  -16.7900   25.1610 C   0  0  0  0  0
    9.7040  -15.5770   25.6530 C   0  0  0  0  0
   10.6630  -15.0820   24.5850 C   0  0  0  0  0
   11.2170  -13.6510   24.8280 C   0  0  0  0  0
   12.1150  -13.1040   23.7460 C   0  0  0  0  0
   13.3140  -14.2770   23.0230 S   0  0  0  0  0
   13.9890  -12.9400   21.9900 C   0  0  0  0  0
   14.0260  -11.7100   22.8730 C   0  0  0  0  0
   15.2420  -11.5890   23.6570 N   0  0  0  0  0
   14.9960  -11.6340   24.9710 C   0  0  0  0  0
   15.8520  -11.5300   25.8720 O   0  0  0  0  0
   13.6660  -11.7790   25.1870 N   0  0  0  0  0
   12.9140  -11.8360   23.9460 C   0  0  0  0  0
    7.1779  -18.0797   24.1140 H   0  0  0  0  0
    9.4070  -17.2026   24.2876 H   0  0  0  0  0
    8.8420  -17.5132   25.9743 H   0  0  0  0  0
   10.2817  -15.8740   26.5283 H   0  0  0  0  0
    9.0073  -14.7741   25.8938 H   0  0  0  0  0
   10.1083  -15.0539   23.6471 H   0  0  0  0  0
   11.5175  -15.7588   24.5857 H   0  0  0  0  0
   11.8218  -13.7040   25.7333 H   0  0  0  0  0
   10.3521  -12.9892   24.8749 H   0  0  0  0  0
   11.2718  -12.8664   23.0974 H   0  0  0  0  0
   13.3728  -12.7738   21.1064 H   0  0  0  0  0
   14.9830  -13.1904   21.6193 H   0  0  0  0  0
   13.9258  -10.8630   22.1943 H   0  0  0  0  0
   16.1729  -11.4824   23.2539 H   0  0  0  0  0
   13.2427  -11.8409   26.1129 H   0  0  0  0  0
   12.1498  -11.0594   23.9133 H   0  0  0  0  0
  1  4  1  0  0  0
  1  3  1  0  0  0
  1  2  2  0  0  0
  4  5  1  0  0  0
  5  6  1  0  0  0
  6  7  1  0  0  0
  7  8  1  0  0  0
  8 16  1  0  0  0
  8  9  1  0  0  0
  9 10  1  0  0  0
 10 11  1  0  0  0
 11 16  1  0  0  0
 11 12  1  0  0  0
 12 13  1  0  0  0
 13 15  1  0  0  0
 13 14  2  0  0  0
 15 16  1  0  0  0
  3 17  1  0  0  0
  4 18  1  0  0  0
  4 19  1  0  0  0
  5 20  1  0  0  0
  5 21  1  0  0  0
  6 22  1  0  0  0
  6 23  1  0  0  0
  7 24  1  0  0  0
  7 25  1  0  0  0
  8 26  1  0  0  0
 10 27  1  0  0  0
 10 28  1  0  0  0
 11 29  1  0  0  0
 12 30  1  0  0  0
 15 31  1  0  0  0
 16 32  1  0  0  0
M  END
$$$$
