5g57_ligand
  -I-interpret- 

 82 87  0  0  0  0  0  0  0  0999 V2000
   28.6120   12.6970   -0.6610 C   0  0  0  0  0
   28.2610   13.2860   -1.8940 C   0  0  0  0  0
   28.1510   15.2740   -3.2870 C   0  0  0  0  0
   28.2950   16.7740   -3.1560 C   0  0  0  0  0
   28.0660   17.5190   -4.4570 C   0  0  0  0  0
   26.6950   18.1200   -4.6140 C   0  0  0  0  0
   24.4440   17.3840   -5.0660 C   0  0  0  0  0
   18.5590   17.7770   -7.3940 N   0  0  0  0  0
   18.8270   19.0420   -7.4370 N   0  0  0  0  0
   20.0860   19.2670   -6.9800 N   0  0  0  0  0
   26.5930   10.9020   -4.8620 N   0  0  0  0  0
   23.9900   18.6860   -5.2460 C   0  0  0  0  0
   21.8980   17.8450   -6.0740 C   0  0  0  0  0
   23.8850   11.4660   -5.9050 C   0  0  0  0  0
   25.3070    6.9020   -3.4070 C   0  0  0  0  0
   25.5950    8.2010   -6.9530 O   0  0  0  0  0
   26.2020    8.8180   -6.0760 C   0  0  0  0  0
   25.9760   10.1700   -5.8520 N   0  0  0  0  0
   25.0660   10.9520   -6.7150 C   0  0  0  0  0
   25.8730   12.0170   -7.4540 C   0  0  0  0  0
   25.3180   12.4600   -8.8070 C   0  0  0  0  0
   23.8530   12.9000   -8.8770 C   0  0  0  0  0
   23.2010   13.2700   -7.5460 C   0  0  0  0  0
   22.7550   12.0780   -6.7270 C   0  0  0  0  0
   27.1760    8.1550   -5.1420 C   0  0  0  0  0
   27.0090    8.7650   -3.7330 C   0  0  0  0  0
   25.6510    8.3310   -3.1600 C   0  0  0  0  0
   25.8930    6.1680   -4.3350 C   0  0  0  0  0
   27.0900    6.6250   -5.1040 C   0  0  0  0  0
   27.0740   10.2830   -3.8430 C   0  0  0  0  0
   27.6250   11.0990   -2.7270 C   0  0  0  0  0
   27.9540   10.5340   -1.5020 C   0  0  0  0  0
   28.4600   11.3270   -0.4840 C   0  0  0  0  0
   29.0810   13.5570    0.2950 O   0  0  0  0  0
   29.8970   13.0000    1.3380 C   0  0  0  0  0
   27.7490   12.4810   -2.9010 C   0  0  0  0  0
   28.4320   14.6500   -2.0170 O   0  0  0  0  0
   25.6970   17.0810   -4.5960 O   0  0  0  0  0
   23.6320   16.3140   -5.4090 C   0  0  0  0  0
   22.3690   16.5460   -5.9150 C   0  0  0  0  0
   22.7170   18.9110   -5.7280 C   0  0  0  0  0
   20.5720   18.0870   -6.6290 C   0  0  0  0  0
   19.6460   17.1620   -6.8990 N   0  0  0  0  0
   28.8529   14.9060   -4.0353 H   0  0  0  0  0
   27.1330   15.0325   -3.5926 H   0  0  0  0  0
   29.3169   16.9786   -2.8366 H   0  0  0  0  0
   27.5415   17.1149   -2.4460 H   0  0  0  0  0
   28.1845   16.7921   -5.2606 H   0  0  0  0  0
   28.7757   18.3461   -4.4748 H   0  0  0  0  0
   26.6428   18.6512   -5.5644 H   0  0  0  0  0
   26.5094   18.8101   -3.7909 H   0  0  0  0  0
   24.6393   19.5281   -5.0065 H   0  0  0  0  0
   24.2673   12.2564   -5.2591 H   0  0  0  0  0
   23.4641   10.6065   -5.3833 H   0  0  0  0  0
   24.5344    6.4406   -2.7919 H   0  0  0  0  0
   24.6151   10.3318   -7.4897 H   0  0  0  0  0
   26.8500   11.5768   -7.6535 H   0  0  0  0  0
   25.8680   12.9014   -6.8169 H   0  0  0  0  0
   25.3858   11.5810   -9.4480 H   0  0  0  0  0
   25.8971   13.3418   -9.0813 H   0  0  0  0  0
   23.2954   12.0474   -9.2646 H   0  0  0  0  0
   23.8330   13.8018   -9.4889 H   0  0  0  0  0
   22.3113   13.8571   -7.7738 H   0  0  0  0  0
   23.9467   13.8054   -6.9583 H   0  0  0  0  0
   21.9862   12.4194   -6.0338 H   0  0  0  0  0
   22.3951   11.3155   -7.4177 H   0  0  0  0  0
   28.1747    8.3545   -5.5305 H   0  0  0  0  0
   27.8028    8.4195   -3.0707 H   0  0  0  0  0
   25.7019    8.4657   -2.0795 H   0  0  0  0  0
   24.8883    8.9335   -3.6533 H   0  0  0  0  0
   25.4839    5.1810   -4.5506 H   0  0  0  0  0
   27.9847    6.2390   -4.6155 H   0  0  0  0  0
   27.0073    6.2564   -6.1264 H   0  0  0  0  0
   27.8141    9.4651   -1.3407 H   0  0  0  0  0
   28.7416   10.8713    0.4653 H   0  0  0  0  0
   29.3268   12.2454    1.8798 H   0  0  0  0  0
   30.7831   12.5418    0.8987 H   0  0  0  0  0
   30.1980   13.7917    2.0240 H   0  0  0  0  0
   27.4384   12.9329   -3.8430 H   0  0  0  0  0
   23.9899   15.2926   -5.2795 H   0  0  0  0  0
   21.7351   15.7038   -6.1924 H   0  0  0  0  0
   22.3521   19.9322   -5.8378 H   0  0  0  0  0
  2  1  4  0  0  0
  1 33  4  0  0  0
  1 34  1  0  0  0
 36  2  4  0  0  0
  2 37  1  0  0  0
  3  4  1  0  0  0
 37  3  1  0  0  0
  4  5  1  0  0  0
  5  6  1  0  0  0
  6 38  1  0  0  0
  7 12  4  0  0  0
 38  7  1  0  0  0
  7 39  4  0  0  0
  9  8  4  0  0  0
  8 43  4  0  0  0
 10  9  4  0  0  0
 42 10  4  0  0  0
 11 18  1  0  0  0
 30 11  2  0  0  0
 12 41  4  0  0  0
 13 40  4  0  0  0
 41 13  4  0  0  0
 13 42  1  0  0  0
 19 14  1  0  0  0
 14 24  1  0  0  0
 27 15  1  0  0  0
 15 28  2  0  0  0
 17 16  2  0  0  0
 18 17  1  0  0  0
 25 17  1  0  0  0
 18 19  1  0  0  0
 19 20  1  0  0  0
 20 21  1  0  0  0
 21 22  1  0  0  0
 22 23  1  0  0  0
 24 23  1  0  0  0
 26 25  1  0  0  0
 25 29  1  0  0  0
 26 27  1  0  0  0
 30 26  1  0  0  0
 29 28  1  0  0  0
 31 30  1  0  0  0
 31 32  4  0  0  0
 31 36  4  0  0  0
 32 33  4  0  0  0
 34 35  1  0  0  0
 39 40  4  0  0  0
 42 43  4  0  0  0
  3 44  1  0  0  0
  3 45  1  0  0  0
  4 46  1  0  0  0
  4 47  1  0  0  0
  5 48  1  0  0  0
  5 49  1  0  0  0
  6 50  1  0  0  0
  6 51  1  0  0  0
 12 52  1  0  0  0
 14 53  1  0  0  0
 14 54  1  0  0  0
 15 55  1  0  0  0
 19 56  1  0  0  0
 20 57  1  0  0  0
 20 58  1  0  0  0
 21 59  1  0  0  0
 21 60  1  0  0  0
 22 61  1  0  0  0
 22 62  1  0  0  0
 23 63  1  0  0  0
 23 64  1  0  0  0
 24 65  1  0  0  0
 24 66  1  0  0  0
 25 67  1  0  0  0
 26 68  1  0  0  0
 27 69  1  0  0  0
 27 70  1  0  0  0
 28 71  1  0  0  0
 29 72  1  0  0  0
 29 73  1  0  0  0
 32 74  1  0  0  0
 33 75  1  0  0  0
 35 76  1  0  0  0
 35 77  1  0  0  0
 35 78  1  0  0  0
 36 79  1  0  0  0
 39 80  1  0  0  0
 40 81  1  0  0  0
 41 82  1  0  0  0
M  END
$$$$
