5egu_ligand
  -I-interpret- 

 66 69  0  0  0  0  0  0  0  0999 V2000
   10.7080   33.4540   69.2080 C   0  0  0  0  0
   10.7540   34.4050   68.0420 C   0  0  0  0  0
   11.2440   33.5890   66.8250 C   0  0  0  0  0
    9.9740   33.0570   66.1990 C   0  0  0  0  0
   10.1610   32.3000   64.9110 N   0  0  0  0  0
   10.5840   32.9480   63.7890 C   0  0  0  0  0
   10.9650   34.1100   63.8040 O   0  0  0  0  0
   10.6440   32.2440   62.5930 N   0  0  0  0  0
   10.2760   30.8690   62.5260 C   0  0  0  0  0
   10.3880   30.2700   61.4270 O   0  0  0  0  0
    9.8260   30.2800   63.6490 C   0  0  0  0  0
    9.3630   29.0090   63.9310 N   0  0  0  0  0
    9.2580   27.8290   63.0720 C   0  0  0  0  0
   10.6590   27.3560   62.8140 C   0  0  0  0  0
    9.7690   31.0130   64.8000 C   0  0  0  0  0
    9.2750   30.2020   65.7340 N   0  0  0  0  0
    9.0380   28.9990   65.2120 C   0  0  0  0  0
    8.4570   27.9130   66.0310 C   0  0  0  0  0
    6.6160   27.7890   65.5770 S   0  0  0  0  0
    5.8690   26.9200   66.9620 C   0  0  0  0  0
    4.5840   26.5550   67.0550 N   0  0  0  0  0
    6.5290   26.6080   68.0790 N   0  0  0  0  0
    5.6260   26.0290   68.8910 N   0  0  0  0  0
    5.8810   25.5500   70.1210 C   0  0  0  0  0
    7.1840   25.6570   70.6760 C   0  0  0  0  0
    4.4460   25.9800   68.2530 C   0  0  0  0  0
    3.4230   25.4570   68.9260 N   0  0  0  0  0
    3.5790   24.9850   70.1810 C   0  0  0  0  0
    2.4540   24.3650   70.7810 C   0  0  0  0  0
    4.8490   24.9700   70.8000 C   0  0  0  0  0
    5.0550   24.5030   72.1060 C   0  0  0  0  0
    4.6160   25.4980   73.1560 C   0  0  0  0  0
    4.7560   24.9560   74.6070 C   0  0  0  0  0
    4.4750   26.2360   75.4170 C   0  0  0  0  0
   10.0198   32.6390   68.9836 H   0  0  0  0  0
   11.7049   33.0508   69.3859 H   0  0  0  0  0
   10.3660   33.9859   70.0958 H   0  0  0  0  0
   11.4250   35.2393   68.2467 H   0  0  0  0  0
    9.7707   34.8350   67.8517 H   0  0  0  0  0
   11.9263   32.7895   67.1137 H   0  0  0  0  0
   11.8226   34.1962   66.1288 H   0  0  0  0  0
    9.3543   33.9227   65.9655 H   0  0  0  0  0
    9.5432   32.3559   66.9138 H   0  0  0  0  0
   10.9573   32.7201   61.7471 H   0  0  0  0  0
    8.7526   28.0730   62.1376 H   0  0  0  0  0
    8.6679   27.0495   63.5539 H   0  0  0  0  0
   11.2229   28.1470   62.3195 H   0  0  0  0  0
   11.1366   27.1052   63.7611 H   0  0  0  0  0
   10.6313   26.4736   62.1747 H   0  0  0  0  0
    8.5766   28.1275   67.0930 H   0  0  0  0  0
    8.9653   26.9693   65.8330 H   0  0  0  0  0
    7.8936   25.1298   70.0383 H   0  0  0  0  0
    7.4642   26.7083   70.7420 H   0  0  0  0  0
    7.1907   25.2147   71.6722 H   0  0  0  0  0
    1.6333   25.0801   70.8366 H   0  0  0  0  0
    2.1503   23.5073   70.1808 H   0  0  0  0  0
    2.7166   24.0326   71.7853 H   0  0  0  0  0
    6.1232   24.3289   72.2351 H   0  0  0  0  0
    4.4634   23.5966   72.2350 H   0  0  0  0  0
    3.5621   25.7169   72.9846 H   0  0  0  0  0
    5.2553   26.3764   73.0676 H   0  0  0  0  0
    5.7225   24.4989   74.8193 H   0  0  0  0  0
    4.0865   24.1276   74.8385 H   0  0  0  0  0
    5.2125   26.9963   75.1600 H   0  0  0  0  0
    3.4760   26.6023   75.1803 H   0  0  0  0  0
    4.5383   26.0118   76.4818 H   0  0  0  0  0
  1  2  1  0  0  0
  2  3  1  0  0  0
  3  4  1  0  0  0
  4  5  1  0  0  0
  5  6  1  0  0  0
  5 15  1  0  0  0
  6  7  2  0  0  0
  6  8  1  0  0  0
  8  9  1  0  0  0
  9 10  2  0  0  0
  9 11  1  0  0  0
 11 12  4  0  0  0
 11 15  4  0  0  0
 12 13  1  0  0  0
 12 17  4  0  0  0
 13 14  1  0  0  0
 15 16  4  0  0  0
 16 17  4  0  0  0
 17 18  1  0  0  0
 18 19  1  0  0  0
 19 20  1  0  0  0
 20 21  4  0  0  0
 20 22  4  0  0  0
 21 26  4  0  0  0
 22 23  4  0  0  0
 23 24  4  0  0  0
 23 26  4  0  0  0
 24 25  1  0  0  0
 24 30  4  0  0  0
 26 27  4  0  0  0
 27 28  4  0  0  0
 28 29  1  0  0  0
 28 30  4  0  0  0
 30 31  1  0  0  0
 31 32  1  0  0  0
 32 33  1  0  0  0
 33 34  1  0  0  0
  1 35  1  0  0  0
  1 36  1  0  0  0
  1 37  1  0  0  0
  2 38  1  0  0  0
  2 39  1  0  0  0
  3 40  1  0  0  0
  3 41  1  0  0  0
  4 42  1  0  0  0
  4 43  1  0  0  0
  8 44  1  0  0  0
 13 45  1  0  0  0
 13 46  1  0  0  0
 14 47  1  0  0  0
 14 48  1  0  0  0
 14 49  1  0  0  0
 18 50  1  0  0  0
 18 51  1  0  0  0
 25 52  1  0  0  0
 25 53  1  0  0  0
 25 54  1  0  0  0
 29 55  1  0  0  0
 29 56  1  0  0  0
 29 57  1  0  0  0
 31 58  1  0  0  0
 31 59  1  0  0  0
 32 60  1  0  0  0
 32 61  1  0  0  0
 33 62  1  0  0  0
 33 63  1  0  0  0
 34 64  1  0  0  0
 34 65  1  0  0  0
 34 66  1  0  0  0
M  END
$$$$
