6dub_ligand
  -I-interpret- 

 78 78  0  0  0  0  0  0  0  0999 V2000
   20.7710    7.4100  200.4680 O   0  0  0  0  0
   19.5840    7.2080  200.7620 C   0  0  0  0  0
   18.4620    7.8490  199.9700 C   0  0  0  0  0
   17.8070    6.8100  199.0470 C   0  0  0  0  0
   18.7380    6.2880  198.1300 O   0  0  0  0  0
   19.0010    8.9500  199.2330 N   0  3  0  0  0
   19.2330    6.3270  201.6840 N   0  0  0  0  0
   20.2640    5.4620  202.2560 C   0  0  0  0  0
   20.9430    4.6340  201.1950 C   0  0  0  0  0
   20.3380    4.3740  200.1450 O   0  0  0  0  0
   19.4800    4.5770  203.2510 C   0  0  0  0  0
   18.2270    5.3070  203.4860 C   0  0  0  0  0
   17.8940    6.0260  202.2150 C   0  0  0  0  0
   22.1140    4.1250  201.5420 N   0  0  0  0  0
   22.8960    3.2750  200.6310 C   0  0  0  0  0
   23.5510    2.1350  201.4120 C   0  0  0  0  0
   23.8050    2.2480  202.5840 O   0  0  0  0  0
   23.9610    4.1010  199.8970 C   0  0  0  0  0
   23.4200    5.1520  198.9050 C   0  0  0  0  0
   22.6900    4.5440  197.7210 C   0  0  0  0  0
   22.1260    5.6100  196.7940 C   0  0  0  0  0
   23.1810    6.3670  196.0890 N   0  3  0  0  0
   23.8120    1.0410  200.7230 N   0  0  0  0  0
   24.6840    0.0050  201.2720 C   0  0  0  0  0
   26.0880    0.2850  200.8800 C   0  0  0  0  0
   26.3380    0.9330  199.8250 O   0  0  0  0  0
   24.1830   -1.3590  200.9320 C   0  0  0  0  0
   23.0110   -1.6890  201.8360 C   0  0  0  0  0
   22.2290   -2.8410  201.2390 C   0  0  0  0  0
   22.9580   -4.1020  201.1800 N   0  0  0  0  0
   22.4900   -5.1900  200.5820 C   0  0  0  0  0
   21.3350   -5.1570  199.9200 N   0  0  0  0  0
   23.2180   -6.2950  200.5840 N   0  0  0  0  0
   26.9740   -0.2100  201.7250 N   0  0  0  0  0
   28.3810    0.1180  201.7370 C   0  0  0  0  0
   17.6845    8.2198  200.6379 H   0  0  0  0  0
   17.0042    7.2944  198.4912 H   0  0  0  0  0
   17.4240    5.9929  199.6583 H   0  0  0  0  0
   18.3038    5.6430  197.5670 H   0  0  0  0  0
   19.4253    9.6151  199.8795 H   0  0  0  0  0
   19.7081    8.6083  198.5821 H   0  0  0  0  0
   18.2526    9.4089  198.7137 H   0  0  0  0  0
   21.0686    6.0222  202.7324 H   0  0  0  0  0
   20.0349    4.4109  204.1744 H   0  0  0  0  0
   19.3018    3.5772  202.8551 H   0  0  0  0  0
   18.3401    6.0120  204.3096 H   0  0  0  0  0
   17.4266    4.6204  203.7617 H   0  0  0  0  0
   17.2772    5.4407  201.5330 H   0  0  0  0  0
   17.2766    6.9116  202.3653 H   0  0  0  0  0
   22.4859    4.3283  202.4698 H   0  0  0  0  0
   22.2214    2.8518  199.8867 H   0  0  0  0  0
   24.5510    3.3962  199.3111 H   0  0  0  0  0
   24.5096    4.6501  200.6622 H   0  0  0  0  0
   24.2739    5.7060  198.5152 H   0  0  0  0  0
   22.7081    5.7769  199.4442 H   0  0  0  0  0
   21.8604    3.9475  198.1006 H   0  0  0  0  0
   23.3996    3.9400  197.1555 H   0  0  0  0  0
   21.5566    6.3143  197.4005 H   0  0  0  0  0
   21.5130    5.1111  196.0434 H   0  0  0  0  0
   22.7497    7.0655  195.4836 H   0  0  0  0  0
   23.7795    6.8307  196.7725 H   0  0  0  0  0
   23.7395    5.7256  195.5260 H   0  0  0  0  0
   23.4010    0.9169  199.7977 H   0  0  0  0  0
   24.6672    0.0255  202.3617 H   0  0  0  0  0
   24.9779   -2.0908  201.0760 H   0  0  0  0  0
   23.8646   -1.3863  199.8899 H   0  0  0  0  0
   22.3637   -0.8169  201.9282 H   0  0  0  0  0
   23.3785   -1.9695  202.8231 H   0  0  0  0  0
   21.9878   -2.5642  200.2127 H   0  0  0  0  0
   21.3625   -3.0037  201.8799 H   0  0  0  0  0
   23.8761   -4.1505  201.6217 H   0  0  0  0  0
   21.0126   -5.9827  199.4154 H   0  0  0  0  0
   20.7727   -4.3060  199.9175 H   0  0  0  0  0
   24.1292   -6.3046  201.0423 H   0  0  0  0  0
   26.6394   -0.8747  202.4225 H   0  0  0  0  0
   28.8244   -0.1541  200.7792 H   0  0  0  0  0
   28.5018    1.1884  201.9038 H   0  0  0  0  0
   28.8746   -0.4337  202.5371 H   0  0  0  0  0
  1  2  2  0  0  0
  2  3  1  0  0  0
  2  7  1  0  0  0
  3  4  1  0  0  0
  3  6  1  0  0  0
  4  5  1  0  0  0
  7  8  1  0  0  0
  7 13  1  0  0  0
  8  9  1  0  0  0
  8 11  1  0  0  0
  9 10  2  0  0  0
  9 14  1  0  0  0
 11 12  1  0  0  0
 12 13  1  0  0  0
 14 15  1  0  0  0
 15 16  1  0  0  0
 15 18  1  0  0  0
 16 17  2  0  0  0
 16 23  1  0  0  0
 18 19  1  0  0  0
 19 20  1  0  0  0
 20 21  1  0  0  0
 21 22  1  0  0  0
 23 24  1  0  0  0
 24 25  1  0  0  0
 24 27  1  0  0  0
 25 26  2  0  0  0
 25 34  1  0  0  0
 27 28  1  0  0  0
 28 29  1  0  0  0
 29 30  1  0  0  0
 30 31  1  0  0  0
 31 32  1  0  0  0
 31 33  2  0  0  0
 34 35  1  0  0  0
  3 36  1  0  0  0
  4 37  1  0  0  0
  4 38  1  0  0  0
  5 39  1  0  0  0
  6 40  1  0  0  0
  6 41  1  0  0  0
  6 42  1  0  0  0
  8 43  1  0  0  0
 11 44  1  0  0  0
 11 45  1  0  0  0
 12 46  1  0  0  0
 12 47  1  0  0  0
 13 48  1  0  0  0
 13 49  1  0  0  0
 14 50  1  0  0  0
 15 51  1  0  0  0
 18 52  1  0  0  0
 18 53  1  0  0  0
 19 54  1  0  0  0
 19 55  1  0  0  0
 20 56  1  0  0  0
 20 57  1  0  0  0
 21 58  1  0  0  0
 21 59  1  0  0  0
 22 60  1  0  0  0
 22 61  1  0  0  0
 22 62  1  0  0  0
 23 63  1  0  0  0
 24 64  1  0  0  0
 27 65  1  0  0  0
 27 66  1  0  0  0
 28 67  1  0  0  0
 28 68  1  0  0  0
 29 69  1  0  0  0
 29 70  1  0  0  0
 30 71  1  0  0  0
 32 72  1  0  0  0
 32 73  1  0  0  0
 33 74  1  0  0  0
 34 75  1  0  0  0
 35 76  1  0  0  0
 35 77  1  0  0  0
 35 78  1  0  0  0
M  END
$$$$
