5ivv_ligand
  -I-interpret- 

 32 34  0  0  0  0  0  0  0  0999 V2000
  -25.9530   23.9210    4.3070 C   0  0  0  0  0
  -27.4430   25.1650    5.4880 C   0  0  0  0  0
  -25.8220   22.9940    5.3490 C   0  0  0  0  0
  -22.6480   18.4650    8.4150 O   0  0  0  0  0
  -23.4120   19.1140    7.6790 C   0  0  0  0  0
  -24.1190   20.0940    8.0640 O   0  0  0  0  0
  -23.5280   18.7660    6.1940 C   0  0  0  0  0
  -23.0780   17.5160    5.7610 C   0  0  0  0  0
  -23.1720   17.1800    4.4040 C   0  0  0  0  0
  -23.6800   18.0320    3.4720 N   0  0  0  0  0
  -24.1050   19.2490    3.9200 C   0  0  0  0  0
  -24.0510   19.6580    5.2720 C   0  0  0  0  0
  -24.5140   20.9290    5.6700 N   0  0  0  0  0
  -24.9020   21.9780    4.9230 C   0  0  0  0  0
  -24.4930   22.3400    3.6560 C   0  0  0  0  0
  -25.1400   23.5220    3.2660 N   0  0  0  0  0
  -24.9860   24.2200    1.9820 C   0  0  0  0  0
  -26.7520   25.0280    4.3390 N   0  0  0  0  0
  -27.3750   24.2990    6.5630 C   0  0  0  0  0
  -26.5550   23.1870    6.5070 C   0  0  0  0  0
  -28.1067   26.0251    5.5763 H   0  0  0  0  0
  -24.6249   20.4332    7.3220 H   0  0  0  0  0
  -22.6568   16.8072    6.4739 H   0  0  0  0  0
  -22.8248   16.1982    4.0822 H   0  0  0  0  0
  -24.5113   19.9491    3.1900 H   0  0  0  0  0
  -24.5620   21.0752    6.6783 H   0  0  0  0  0
  -23.7744   21.7897    3.0487 H   0  0  0  0  0
  -25.9523   24.2727    1.4804 H   0  0  0  0  0
  -24.6124   25.2283    2.1606 H   0  0  0  0  0
  -24.2795   23.6749    1.3560 H   0  0  0  0  0
  -27.9687   24.4929    7.4563 H   0  0  0  0  0
  -26.4885   22.4897    7.3422 H   0  0  0  0  0
  3  1  4  0  0  0
  1 16  4  0  0  0
  1 18  4  0  0  0
 18  2  4  0  0  0
  2 19  4  0  0  0
 14  3  4  0  0  0
  3 20  4  0  0  0
  5  4  2  0  0  0
  5  6  1  0  0  0
  7  5  1  0  0  0
  7  8  4  0  0  0
 12  7  4  0  0  0
  8  9  4  0  0  0
 10  9  4  0  0  0
 11 10  4  0  0  0
 12 11  4  0  0  0
 13 12  1  0  0  0
 13 14  1  0  0  0
 14 15  4  0  0  0
 15 16  4  0  0  0
 16 17  1  0  0  0
 19 20  4  0  0  0
  2 21  1  0  0  0
  6 22  1  0  0  0
  8 23  1  0  0  0
  9 24  1  0  0  0
 11 25  1  0  0  0
 13 26  1  0  0  0
 15 27  1  0  0  0
 17 28  1  0  0  0
 17 29  1  0  0  0
 17 30  1  0  0  0
 19 31  1  0  0  0
 20 32  1  0  0  0
M  END
$$$$
