### 
### Created by X-TOOL on Mon Sep 10 21:13:17 2018
### 

@<TRIPOS>MOLECULE
4lv2_ligand
   21    22     1     0     0
SMALL
GAST_HUCK


@<TRIPOS>ATOM
      1 B03        25.7940    4.4320   16.2340 B         1 N95         3.0000
      2 O04        25.9830    5.4470   17.2740 O.3       1 N95        -0.8710
      3 O05        24.8050    3.4450   16.7150 O.3       1 N95        -0.8710
      4 C06        25.2580    5.0620   14.9090 C.2       1 N95        -0.0795
      5 C07        25.4910    6.3670   14.4250 C.2       1 N95        -0.0541
      6 N08        24.8400    6.4750   13.2560 N.2       1 N95        -0.2714
      7 N09        24.1800    5.3140   12.9530 N.pl3     1 N95        -0.2273
      8 C10        23.4010    5.0790   11.8660 C.ar      1 N95         0.1050
      9 C11        23.3690    5.9330   10.7620 C.ar      1 N95        -0.0318
     10 C12        22.5360    5.6100    9.6940 C.ar      1 N95         0.0492
     11 CL1        22.4680    6.6400    8.2870 Cl        1 N95        -0.0775
     12 N14        21.7900    4.5020    9.7170 N.ar      1 N95        -0.3503
     13 C15        21.8280    3.6980   10.7950 C.ar      1 N95         0.0033
     14 N16        22.6330    3.9740   11.8340 N.ar      1 N95        -0.3269
     15 C17        24.4090    4.4610   13.9720 C.2       1 N95         0.0132
     16 H1         26.2993    5.0309   18.0673 H         1 N95        -0.1290
     17 H4         24.6730    2.7803   16.0492 H         1 N95        -0.1290
     18 H6         26.0863    7.1402   14.9084 H         1 N95         0.0434
     19 H7         23.9796    6.8283   10.7368 H         1 N95         0.0525
     20 H8         21.2000    2.8150   10.8254 H         1 N95         0.0917
     21 H9         23.9960    3.4567   14.0537 H         1 N95         0.0605
@<TRIPOS>BOND
     1    1    2 1  
     2    1    3 1  
     3    1    4 1  
     4    4    5 1  
     5    4   15 2  
     6    5    6 2  
     7    6    7 1  
     8    7    8 1  
     9    7   15 1  
    10    8    9 ar 
    11    8   14 ar 
    12    9   10 ar 
    13   10   11 1  
    14   10   12 ar 
    15   12   13 ar 
    16   13   14 ar 
    17    2   16 1  
    18    3   17 1  
    19    5   18 1  
    20    9   19 1  
    21   13   20 1  
    22   15   21 1  
@<TRIPOS>SUBSTRUCTURE
     1 N95         1

