5kew_ligand
  -I-interpret- 

 79 82  0  0  0  0  0  0  0  0999 V2000
   -2.1340   16.2720  -13.2340 S   0  0  0  0  0
   -1.4700   12.0240   -2.3930 O   0  0  0  0  0
    1.7520    8.2640    1.1680 O   0  0  0  0  0
   -1.4270   16.8360   -9.1680 O   0  0  0  0  0
   -2.9010   17.2100  -14.1350 O   0  0  0  0  0
   -2.0610   15.0290  -14.0900 O   0  0  0  0  0
   -0.7540   16.8090  -12.9340 O   0  0  0  0  0
   -2.6180   14.8720   -9.4830 N   0  0  0  0  0
   -0.4280   14.0300   -2.7810 C   0  0  0  0  0
    1.1030   13.5770   -2.6750 C   0  0  0  0  0
    1.6540   13.4180   -1.2340 C   0  0  0  0  0
    0.6470   12.5630   -0.2280 C   0  0  0  0  0
    1.2300   12.4600    1.2140 C   0  0  0  0  0
   -0.6280   14.0960   -4.3810 C   0  0  0  0  0
   -1.3360   13.2410   -1.8950 C   0  0  0  0  0
   -0.7520   13.1140   -0.2740 C   0  0  0  0  0
    2.6820   11.8920    1.2020 C   0  0  0  0  0
    1.8820   14.4980   -3.7410 C   0  0  0  0  0
    3.0300   12.8290   -1.2660 C   0  0  0  0  0
    0.9020   14.6900   -4.9380 C   0  0  0  0  0
    3.6570   12.7000    0.1990 C   0  0  0  0  0
    0.3200   11.5870    2.1180 C   0  0  0  0  0
   -0.4910   15.4610   -2.2420 C   0  0  0  0  0
   -1.6390   14.9030   -4.8190 C   0  0  0  0  0
    2.7230   10.4220    0.8040 C   0  0  0  0  0
    1.2890   13.8560    1.8560 C   0  0  0  0  0
    0.3440   10.1120    1.7170 C   0  0  0  0  0
    1.7830    9.5520    1.6840 C   0  0  0  0  0
   -1.7390   14.7690   -6.4390 C   0  0  0  0  0
   -3.0210   14.4490   -4.2290 C   0  0  0  0  0
   -2.3780   16.0250   -7.1300 C   0  0  0  0  0
   -2.0840   15.9890   -8.6680 C   0  0  0  0  0
   -2.3360   14.8110  -10.9280 C   0  0  0  0  0
   -3.0350   15.9520  -11.6840 C   0  0  0  0  0
   -2.0526   11.5108   -1.8284 H   0  0  0  0  0
    1.1731    7.7189    1.7059 H   0  0  0  0  0
   -1.5852   14.3430  -13.6161 H   0  0  0  0  0
   -3.1815   14.1445   -9.0429 H   0  0  0  0  0
    1.2657   12.5356   -2.9527 H   0  0  0  0  0
    1.7069   14.4190   -0.8059 H   0  0  0  0  0
    0.5835   11.5373   -0.5912 H   0  0  0  0  0
   -0.9199   13.1180   -4.7637 H   0  0  0  0  0
   -2.2898   13.7675   -1.8594 H   0  0  0  0  0
   -0.7431   14.1108    0.1668 H   0  0  0  0  0
   -1.4062   12.4363    0.2745 H   0  0  0  0  0
    3.0345   12.0097    2.2267 H   0  0  0  0  0
    2.8121   14.0296   -4.0629 H   0  0  0  0  0
    2.1646   15.4557   -3.3040 H   0  0  0  0  0
    3.6697   13.4863   -1.8550 H   0  0  0  0  0
    2.9647   11.8309   -1.6991 H   0  0  0  0  0
    0.8393   15.7355   -5.2400 H   0  0  0  0  0
    1.2416   14.1524   -5.8233 H   0  0  0  0  0
    4.5969   12.1535    0.1217 H   0  0  0  0  0
    3.8024   13.7038    0.5983 H   0  0  0  0  0
   -0.7034   11.9479    2.0156 H   0  0  0  0  0
    0.6870   11.6645    3.1414 H   0  0  0  0  0
   -0.1496   15.4734   -1.2069 H   0  0  0  0  0
    0.1503   16.1036   -2.8452 H   0  0  0  0  0
   -1.5184   15.8216   -2.2914 H   0  0  0  0  0
   -1.4252   15.9240   -4.5027 H   0  0  0  0  0
    3.7432   10.0619    0.9372 H   0  0  0  0  0
    2.3915   10.3406   -0.2312 H   0  0  0  0  0
    1.9270   14.5041    1.2552 H   0  0  0  0  0
    0.2841   14.2756    1.9031 H   0  0  0  0  0
    1.6976   13.7743    2.8632 H   0  0  0  0  0
   -0.0829   10.0208    0.7182 H   0  0  0  0  0
   -0.2276    9.5468    2.4531 H   0  0  0  0  0
    2.1710    9.5582    2.7026 H   0  0  0  0  0
   -2.3767   13.9129   -6.6591 H   0  0  0  0  0
   -0.7245   14.6632   -6.8232 H   0  0  0  0  0
   -3.2301   13.4262   -4.5424 H   0  0  0  0  0
   -2.9832   14.4963   -3.1407 H   0  0  0  0  0
   -3.8060   15.1104   -4.5956 H   0  0  0  0  0
   -1.9485   16.9305   -6.7014 H   0  0  0  0  0
   -3.4559   16.0168   -6.9682 H   0  0  0  0  0
   -2.7075   13.8615  -11.3135 H   0  0  0  0  0
   -1.2602   14.9061  -11.0752 H   0  0  0  0  0
   -4.0638   15.6698  -11.9075 H   0  0  0  0  0
   -3.0412   16.8519  -11.0690 H   0  0  0  0  0
  1  5  2  0  0  0
  1  6  1  0  0  0
  1  7  2  0  0  0
 34  1  1  0  0  0
 15  2  1  0  0  0
 28  3  1  0  0  0
 32  4  2  0  0  0
  8 32  1  0  0  0
 33  8  1  0  0  0
  9 10  1  0  0  0
 14  9  1  0  0  0
  9 15  1  0  0  0
  9 23  1  0  0  0
 10 11  1  0  0  0
 18 10  1  0  0  0
 11 12  1  0  0  0
 11 19  1  0  0  0
 12 13  1  0  0  0
 16 12  1  0  0  0
 13 17  1  0  0  0
 13 22  1  0  0  0
 13 26  1  0  0  0
 14 20  1  0  0  0
 24 14  1  0  0  0
 15 16  1  0  0  0
 21 17  1  0  0  0
 17 25  1  0  0  0
 20 18  1  0  0  0
 19 21  1  0  0  0
 22 27  1  0  0  0
 29 24  1  0  0  0
 24 30  1  0  0  0
 25 28  1  0  0  0
 27 28  1  0  0  0
 31 29  1  0  0  0
 32 31  1  0  0  0
 33 34  1  0  0  0
  2 35  1  0  0  0
  3 36  1  0  0  0
  6 37  1  0  0  0
  8 38  1  0  0  0
 10 39  1  0  0  0
 11 40  1  0  0  0
 12 41  1  0  0  0
 14 42  1  0  0  0
 15 43  1  0  0  0
 16 44  1  0  0  0
 16 45  1  0  0  0
 17 46  1  0  0  0
 18 47  1  0  0  0
 18 48  1  0  0  0
 19 49  1  0  0  0
 19 50  1  0  0  0
 20 51  1  0  0  0
 20 52  1  0  0  0
 21 53  1  0  0  0
 21 54  1  0  0  0
 22 55  1  0  0  0
 22 56  1  0  0  0
 23 57  1  0  0  0
 23 58  1  0  0  0
 23 59  1  0  0  0
 24 60  1  0  0  0
 25 61  1  0  0  0
 25 62  1  0  0  0
 26 63  1  0  0  0
 26 64  1  0  0  0
 26 65  1  0  0  0
 27 66  1  0  0  0
 27 67  1  0  0  0
 28 68  1  0  0  0
 29 69  1  0  0  0
 29 70  1  0  0  0
 30 71  1  0  0  0
 30 72  1  0  0  0
 30 73  1  0  0  0
 31 74  1  0  0  0
 31 75  1  0  0  0
 33 76  1  0  0  0
 33 77  1  0  0  0
 34 78  1  0  0  0
 34 79  1  0  0  0
M  END
$$$$
