3e4a_ligand
  -I-interpret- 

 73 74  0  0  0  0  0  0  0  0999 V2000
  -81.0710   71.0300    4.6220 C   0  0  0  0  0
  -82.4480   72.3830    2.9330 C   0  0  0  0  0
  -80.4880   73.6470    6.6630 C   0  0  0  0  0
  -79.8130   73.6030    7.9260 C   0  0  0  0  0
  -78.3740   73.6520    7.8800 C   0  0  0  0  0
  -76.3020   73.6570    9.2580 C   0  0  0  0  0
  -76.2450   73.7380    6.6110 C   0  0  0  0  0
  -78.3910   73.7670    5.2080 C   0  0  0  0  0
  -85.5020   61.9620    3.2000 O   0  0  0  0  0
  -84.8390   62.9240    3.5300 C   0  0  0  0  0
  -84.8120   64.0670    2.5640 N   0  0  0  0  0
  -84.3350   63.0460    5.0360 C   0  0  0  0  0
  -83.4730   64.2520    5.2850 N   0  0  0  0  0
  -83.9720   65.5110    5.9790 C   0  0  0  0  0
  -84.8020   65.6660    6.8990 O   0  0  0  0  0
  -83.6630   66.7630    5.1330 C   0  0  0  0  0
  -82.5280   67.4680    5.7410 N   0  0  0  0  0
  -82.9640   68.7720    6.2190 C   0  0  0  0  0
  -84.1130   69.0180    6.0330 O   0  0  0  0  0
  -81.9670   69.8220    6.7410 C   0  0  0  0  0
  -82.4390   70.4340    8.1010 C   0  0  0  0  0
  -81.9420   69.5530    9.2820 C   0  0  0  0  0
  -81.6760   70.4060   10.5690 C   0  0  0  0  0
  -80.3300   70.0580   11.1120 N   0  0  0  0  0
  -80.2480   69.9920   12.5970 C   0  0  0  0  0
  -80.8230   68.7790   13.2730 N   0  0  0  0  0
  -79.5760   70.9000   13.2330 N   0  0  0  0  0
  -82.0160   70.9050    5.7430 N   0  0  0  0  0
  -80.2710   70.1740    4.3700 O   0  0  0  0  0
  -81.0920   72.2900    3.7020 C   0  0  0  0  0
  -82.3340   71.9210    1.4630 C   0  0  0  0  0
  -82.3760   72.9930    0.5080 N   0  0  0  0  0
  -81.6720   72.8910   -0.6890 O   0  0  0  0  0
  -81.7330   70.9380    1.1830 O   0  0  0  0  0
  -81.0740   73.6690    4.3770 C   0  0  0  0  0
  -79.8690   73.7240    5.3510 C   0  0  0  0  0
  -77.6810   73.7220    6.5350 C   0  0  0  0  0
  -75.6250   73.6870    7.9520 C   0  0  0  0  0
  -77.7340   73.6430    9.2230 C   0  0  0  0  0
  -82.7608   73.4272    2.9319 H   0  0  0  0  0
  -83.1621   71.7297    3.4343 H   0  0  0  0  0
  -81.5773   73.6199    6.6892 H   0  0  0  0  0
  -80.3573   73.5363    8.8680 H   0  0  0  0  0
  -75.7471   73.6461   10.1961 H   0  0  0  0  0
  -75.6340   73.7861    5.7097 H   0  0  0  0  0
  -77.8773   73.8247    4.2484 H   0  0  0  0  0
  -85.3321   64.0073    1.6886 H   0  0  0  0  0
  -84.2735   64.9056    2.7811 H   0  0  0  0  0
  -83.7332   62.1633    5.2522 H   0  0  0  0  0
  -85.2170   63.1377    5.6699 H   0  0  0  0  0
  -82.5025   64.2251    4.9723 H   0  0  0  0  0
  -84.5347   67.4168    5.1041 H   0  0  0  0  0
  -83.4157   66.4706    4.1125 H   0  0  0  0  0
  -81.5795   67.1006    5.8169 H   0  0  0  0  0
  -80.9828   69.3773    6.8882 H   0  0  0  0  0
  -83.5281   70.4741    8.1173 H   0  0  0  0  0
  -82.0271   71.4379    8.2045 H   0  0  0  0  0
  -81.0071   69.0772    8.9859 H   0  0  0  0  0
  -82.7136   68.8178    9.5106 H   0  0  0  0  0
  -82.4405   70.1928   11.3162 H   0  0  0  0  0
  -81.7095   71.4668   10.3207 H   0  0  0  0  0
  -79.5261   69.8787   10.5104 H   0  0  0  0  0
  -80.6913   68.6432   14.2753 H   0  0  0  0  0
  -81.3449   68.0916   12.7295 H   0  0  0  0  0
  -79.1121   71.6469   12.7160 H   0  0  0  0  0
  -82.7480   71.6094    5.8346 H   0  0  0  0  0
  -80.1827   72.1281    3.1231 H   0  0  0  0  0
  -82.9227   73.8308    0.7071 H   0  0  0  0  0
  -81.8072   73.6876   -1.2073 H   0  0  0  0  0
  -82.0029   73.8273    4.9249 H   0  0  0  0  0
  -80.9795   74.4510    3.6235 H   0  0  0  0  0
  -74.5354   73.6695    7.9762 H   0  0  0  0  0
  -78.3269   73.6265   10.1375 H   0  0  0  0  0
  1 28  1  0  0  0
  1 29  2  0  0  0
 30  1  1  0  0  0
 30  2  1  0  0  0
  2 31  1  0  0  0
  3  4  4  0  0  0
 36  3  4  0  0  0
  4  5  4  0  0  0
 37  5  4  0  0  0
  5 39  4  0  0  0
 38  6  4  0  0  0
 39  6  4  0  0  0
 37  7  4  0  0  0
  7 38  4  0  0  0
 36  8  4  0  0  0
  8 37  4  0  0  0
 10  9  2  0  0  0
 10 11  1  0  0  0
 12 10  1  0  0  0
 13 12  1  0  0  0
 14 13  1  0  0  0
 14 15  2  0  0  0
 16 14  1  0  0  0
 17 16  1  0  0  0
 18 17  1  0  0  0
 18 19  2  0  0  0
 20 18  1  0  0  0
 20 21  1  0  0  0
 28 20  1  0  0  0
 21 22  1  0  0  0
 22 23  1  0  0  0
 23 24  1  0  0  0
 24 25  1  0  0  0
 25 26  1  0  0  0
 25 27  2  0  0  0
 35 30  1  0  0  0
 31 32  1  0  0  0
 31 34  2  0  0  0
 32 33  1  0  0  0
 35 36  1  0  0  0
  2 40  1  0  0  0
  2 41  1  0  0  0
  3 42  1  0  0  0
  4 43  1  0  0  0
  6 44  1  0  0  0
  7 45  1  0  0  0
  8 46  1  0  0  0
 11 47  1  0  0  0
 11 48  1  0  0  0
 12 49  1  0  0  0
 12 50  1  0  0  0
 13 51  1  0  0  0
 16 52  1  0  0  0
 16 53  1  0  0  0
 17 54  1  0  0  0
 20 55  1  0  0  0
 21 56  1  0  0  0
 21 57  1  0  0  0
 22 58  1  0  0  0
 22 59  1  0  0  0
 23 60  1  0  0  0
 23 61  1  0  0  0
 24 62  1  0  0  0
 26 63  1  0  0  0
 26 64  1  0  0  0
 27 65  1  0  0  0
 28 66  1  0  0  0
 30 67  1  0  0  0
 32 68  1  0  0  0
 33 69  1  0  0  0
 35 70  1  0  0  0
 35 71  1  0  0  0
 38 72  1  0  0  0
 39 73  1  0  0  0
M  END
$$$$
