2onb_ligand
  -I-interpret- 

 21 20  0  0  0  0  0  0  0  0999 V2000
   51.4810  -14.0090   24.8910 O   0  0  0  0  0
   52.7180  -12.7770   26.7340 O   0  0  0  0  0
   50.8790  -17.6940   26.8310 C   0  0  0  0  0
   51.3140  -16.5480   27.7530 C   0  0  0  0  0
   50.4480  -19.4620   27.1570 P   0  0  0  0  0
   52.0970  -15.4400   27.0350 C   0  0  0  0  0
   51.5920  -13.7620   26.4150 P   0  0  0  0  0
   51.5400  -19.8480   28.1780 O   0  0  0  0  0
   50.6270  -20.2640   25.8670 O   0  0  0  0  0
   50.2560  -13.3580   27.0200 O   0  0  0  0  0
   49.0530  -19.5720   27.7130 O   0  0  0  0  0
   52.3404  -14.2611   24.5454 H   0  0  0  0  0
   53.5329  -13.0820   26.3284 H   0  0  0  0  0
   51.8063  -17.8369   26.2762 H   0  0  0  0  0
   49.8967  -17.3231   26.5384 H   0  0  0  0  0
   51.9719  -16.9723   28.5115 H   0  0  0  0  0
   50.4093  -16.0961   28.1596 H   0  0  0  0  0
   52.2799  -15.9368   26.0822 H   0  0  0  0  0
   52.7662  -15.1404   27.8415 H   0  0  0  0  0
   52.4042  -19.7591   27.7695 H   0  0  0  0  0
   51.5281  -20.1637   25.5516 H   0  0  0  0  0
  7  1  1  0  0  0
  7  2  1  0  0  0
  4  3  1  0  0  0
  3  5  1  0  0  0
  6  4  1  0  0  0
  5  8  1  0  0  0
  5  9  1  0  0  0
  5 11  2  0  0  0
  6  7  1  0  0  0
  7 10  2  0  0  0
  1 12  1  0  0  0
  2 13  1  0  0  0
  3 14  1  0  0  0
  3 15  1  0  0  0
  4 16  1  0  0  0
  4 17  1  0  0  0
  6 18  1  0  0  0
  6 19  1  0  0  0
  8 20  1  0  0  0
  9 21  1  0  0  0
M  END
$$$$
