### 
### Created by X-TOOL on Mon Sep 10 21:12:56 2018
### 

@<TRIPOS>MOLECULE
2onb_ligand
   17    16     1     0     0
SMALL
GAST_HUCK


@<TRIPOS>ATOM
      1 O1         51.4810  -14.0090   24.8910 O.co2     1 7PA        -0.5623
      2 O2         52.7180  -12.7770   26.7340 O.co2     1 7PA        -0.5623
      3 C1         50.8790  -17.6940   26.8310 C.3       1 7PA         0.0209
      4 C2         51.3140  -16.5480   27.7530 C.3       1 7PA        -0.0230
      5 P1         50.4480  -19.4620   27.1570 P.3       1 7PA         0.0579
      6 C3         52.0970  -15.4400   27.0350 C.3       1 7PA         0.0209
      7 P2         51.5920  -13.7620   26.4150 P.3       1 7PA         0.0579
      8 O3         51.5400  -19.8480   28.1780 O.co2     1 7PA        -0.5623
      9 O4         50.6270  -20.2640   25.8670 O.co2     1 7PA        -0.5623
     10 O5         50.2560  -13.3580   27.0200 O.co2     1 7PA        -0.5623
     11 O6         49.0530  -19.5720   27.7130 O.co2     1 7PA        -0.5623
     12 H1         51.6990  -17.7607   26.1009 H         1 7PA         0.0451
     13 H2         49.9795  -17.2980   26.3370 H         1 7PA         0.0451
     14 H3         51.9511  -16.9643   28.5472 H         1 7PA         0.0292
     15 H4         50.4137  -16.1022   28.2010 H         1 7PA         0.0292
     16 H5         52.4879  -15.9404   26.1368 H         1 7PA         0.0451
     17 H6         52.9266  -15.2220   27.7237 H         1 7PA         0.0451
@<TRIPOS>BOND
     1    7    1 ar 
     2    7    2 ar 
     3    4    3 1  
     4    3    5 1  
     5    6    4 1  
     6    5    8 ar 
     7    5    9 ar 
     8    5   11 ar 
     9    6    7 1  
    10    7   10 ar 
    11    3   12 1  
    12    3   13 1  
    13    4   14 1  
    14    4   15 1  
    15    6   16 1  
    16    6   17 1  
@<TRIPOS>SUBSTRUCTURE
     1 7PA         1

