5ut0_ligand
  -I-interpret- 

 50 54  0  0  0  0  0  0  0  0999 V2000
   -5.7280   12.9270   19.9080 O   0  0  0  0  0
   -6.7650   12.6020   20.3930 C   0  0  0  0  0
   -6.9090   11.3140   21.0790 N   0  0  0  0  0
   -8.2210   10.9720   21.6520 C   0  0  0  0  0
   -8.5510   11.5600   23.0270 C   0  0  0  0  0
   -8.2240   10.0710   22.8940 C   0  0  0  0  0
   -7.9400   13.4720   20.3330 N   0  0  0  0  0
   -7.9500   14.7860   19.6780 C   0  0  0  0  0
   -6.9200   15.4530   19.0530 C   0  0  0  0  0
   -7.4080   16.6010   18.6150 N   0  0  0  0  0
   -8.7430   16.7210   18.9330 N   0  0  0  0  0
   -9.0790   15.5970   19.5900 C   0  0  0  0  0
  -10.4500   15.2230   20.1590 C   0  0  0  0  0
  -10.6940   14.1940   20.9830 N   0  0  0  0  0
  -12.0260   14.1840   21.2740 C   0  0  0  0  0
  -12.8310   13.3290   22.0930 C   0  0  0  0  0
  -14.2040   13.5670   22.2060 C   0  0  0  0  0
  -14.7910   14.6360   21.5200 C   0  0  0  0  0
  -16.3210   14.8790   21.6560 C   0  0  0  0  0
  -16.9650   13.9210   21.0980 N   0  3  0  0  0
  -18.3100   14.0280   21.4260 C   0  0  0  0  0
  -19.1890   13.0200   20.6720 C   0  0  0  0  0
  -18.9850   13.0820   19.3030 O   0  0  0  0  0
  -17.6500   12.9120   18.9730 C   0  0  0  0  0
  -16.7470   13.9070   19.7210 C   0  0  0  0  0
  -14.0080   15.4810   20.7220 C   0  0  0  0  0
  -12.6010   15.2330   20.6060 C   0  0  0  0  0
  -11.6020   15.8640   19.9190 N   0  0  0  0  0
   -6.1205   10.6717   21.1571 H   0  0  0  0  0
   -8.7171   10.9506   20.6817 H   0  0  0  0  0
   -9.3141   12.1905   23.4833 H   0  0  0  0  0
   -8.2557   12.4086   23.6441 H   0  0  0  0  0
   -7.5809    9.3294   23.3679 H   0  0  0  0  0
   -8.6363    9.1120   23.2076 H   0  0  0  0  0
   -8.8017   13.1469   20.7714 H   0  0  0  0  0
   -5.8947   15.1006   18.9405 H   0  0  0  0  0
  -12.3749   12.4952   22.6267 H   0  0  0  0  0
  -14.8187   12.9183   22.8300 H   0  0  0  0  0
  -16.5809   15.8191   21.1693 H   0  0  0  0  0
  -16.5860   14.9237   22.7124 H   0  0  0  0  0
  -16.6238   13.0249   21.4460 H   0  0  0  0  0
  -18.6414   15.0297   21.1524 H   0  0  0  0  0
  -18.4104   13.8259   22.4924 H   0  0  0  0  0
  -20.2334   13.2581   20.8738 H   0  0  0  0  0
  -18.9292   12.0175   21.0119 H   0  0  0  0  0
  -17.5367   13.0836   17.9026 H   0  0  0  0  0
  -17.3532   11.9014   19.2537 H   0  0  0  0  0
  -15.7134   13.6041   19.5539 H   0  0  0  0  0
  -16.9702   14.9042   19.3417 H   0  0  0  0  0
  -14.4645   16.3187   20.1947 H   0  0  0  0  0
  1  2  2  0  0  0
  2  3  1  0  0  0
  2  7  1  0  0  0
  3  4  1  0  0  0
  4  5  1  0  0  0
  4  6  1  0  0  0
  5  6  1  0  0  0
  7  8  1  0  0  0
  8  9  4  0  0  0
  8 12  4  0  0  0
  9 10  4  0  0  0
 10 11  4  0  0  0
 11 12  4  0  0  0
 12 13  1  0  0  0
 13 14  4  0  0  0
 13 28  4  0  0  0
 14 15  4  0  0  0
 15 16  4  0  0  0
 15 27  4  0  0  0
 16 17  4  0  0  0
 17 18  4  0  0  0
 18 19  1  0  0  0
 18 26  4  0  0  0
 19 20  1  0  0  0
 20 21  1  0  0  0
 20 25  1  0  0  0
 21 22  1  0  0  0
 22 23  1  0  0  0
 23 24  1  0  0  0
 24 25  1  0  0  0
 26 27  4  0  0  0
 27 28  4  0  0  0
  3 29  1  0  0  0
  4 30  1  0  0  0
  5 31  1  0  0  0
  5 32  1  0  0  0
  6 33  1  0  0  0
  6 34  1  0  0  0
  7 35  1  0  0  0
  9 36  1  0  0  0
 16 37  1  0  0  0
 17 38  1  0  0  0
 19 39  1  0  0  0
 19 40  1  0  0  0
 20 41  1  0  0  0
 21 42  1  0  0  0
 21 43  1  0  0  0
 22 44  1  0  0  0
 22 45  1  0  0  0
 24 46  1  0  0  0
 24 47  1  0  0  0
 25 48  1  0  0  0
 25 49  1  0  0  0
 26 50  1  0  0  0
M  END
$$$$
