5kkt_ligand
  -I-interpret- 

 66 70  0  0  0  0  0  0  0  0999 V2000
   53.3070  115.6270   36.1270 C   0  0  0  0  0
   51.3820  114.1740   36.1340 C   0  0  0  0  0
   50.6270  113.0700   36.8890 C   0  0  0  0  0
   52.6990  112.3910   37.9840 C   0  0  0  0  0
   53.4830  113.4430   37.1890 C   0  0  0  0  0
   50.8550  110.8110   37.7650 C   0  0  0  0  0
   51.0840  109.5680   36.9100 C   0  0  0  0  0
   49.9720  109.3640   35.8860 C   0  0  0  0  0
   49.4750  106.9700   35.3980 C   0  0  0  0  0
   48.4380  106.0410   35.4950 C   0  0  0  0  0
   52.5930  114.5760   36.8700 N   0  3  0  0  0
   51.5570  111.9550   37.1680 N   0  3  0  0  0
   49.3710  108.0920   36.1560 O   0  0  0  0  0
   48.5320  104.8070   34.8510 C   0  0  0  0  0
   49.6610  104.4810   34.0960 C   0  0  0  0  0
   50.6920  105.4030   34.0010 C   0  0  0  0  0
   50.6100  106.6390   34.6570 C   0  0  0  0  0
   51.9220  105.0590   33.1990 C   0  0  0  0  0
   51.6870  105.4530   31.7660 C   0  0  0  0  0
   51.6560  106.6350   31.4570 O   0  0  0  0  0
   51.4810  104.4380   30.8980 N   0  0  0  0  0
   51.2440  104.5500   29.5360 C   0  0  0  0  0
   51.0960  103.5400   28.7390 N   0  0  0  0  0
   50.8760  103.8110   27.4620 C   0  0  0  0  0
   50.8440  105.1250   27.1740 C   0  0  0  0  0
   51.1340  106.0030   28.6710 S   0  0  0  0  0
   50.6760  102.7560   26.4380 C   0  0  0  0  0
   50.1350  102.9130   25.2080 C   0  0  0  0  0
   50.1160  101.7050   24.5680 N   0  0  0  0  0
   50.6370  100.7290   25.3590 C   0  0  0  0  0
   51.0110  101.3330   26.5750 C   0  0  0  0  0
   51.5750  100.5490   27.5890 C   0  0  0  0  0
   51.7250   99.1890   27.3490 C   0  0  0  0  0
   51.3260   98.6460   26.1220 C   0  0  0  0  0
   50.8100   99.4140   25.1710 N   0  0  0  0  0
   54.1363  115.9969   36.7299 H   0  0  0  0  0
   53.6903  115.2140   35.1939 H   0  0  0  0  0
   52.6213  116.4457   35.9089 H   0  0  0  0  0
   50.7285  115.0404   36.0321 H   0  0  0  0  0
   51.6752  113.7936   35.1555 H   0  0  0  0  0
   49.7956  112.7120   36.2818 H   0  0  0  0  0
   50.2369  113.4665   37.8264 H   0  0  0  0  0
   52.3470  112.8171   38.9235 H   0  0  0  0  0
   53.3409  111.5407   38.2146 H   0  0  0  0  0
   53.8551  112.9999   36.2653 H   0  0  0  0  0
   54.3254  113.7967   37.7835 H   0  0  0  0  0
   51.2380  110.6351   38.7702 H   0  0  0  0  0
   49.7875  111.0259   37.8135 H   0  0  0  0  0
   51.1028  108.7002   37.5693 H   0  0  0  0  0
   52.0234  109.6937   36.3717 H   0  0  0  0  0
   50.3749  109.3895   34.8735 H   0  0  0  0  0
   49.2318  110.1606   35.9613 H   0  0  0  0  0
   47.5487  106.2812   36.0778 H   0  0  0  0  0
   52.2893  114.9488   37.7696 H   0  0  0  0  0
   51.9379  111.6409   36.2755 H   0  0  0  0  0
   47.7158  104.0898   34.9379 H   0  0  0  0  0
   49.7303  103.5180   33.5901 H   0  0  0  0  0
   51.4373  107.3453   34.5879 H   0  0  0  0  0
   52.1186  103.9887   33.2620 H   0  0  0  0  0
   52.7847  105.5952   33.5945 H   0  0  0  0  0
   51.5019  103.4939   31.2835 H   0  0  0  0  0
   50.6701  105.5653   26.1922 H   0  0  0  0  0
   49.7719  103.8533   24.7931 H   0  0  0  0  0
   51.8861  100.9913   28.5354 H   0  0  0  0  0
   52.1536   98.5444   28.1164 H   0  0  0  0  0
   51.4409   97.5766   25.9452 H   0  0  0  0  0
 11  1  1  0  0  0
  3  2  1  0  0  0
  2 11  1  0  0  0
 12  3  1  0  0  0
  4  5  1  0  0  0
 12  4  1  0  0  0
  5 11  1  0  0  0
  7  6  1  0  0  0
  6 12  1  0  0  0
  8  7  1  0  0  0
 13  8  1  0  0  0
  9 10  4  0  0  0
  9 13  1  0  0  0
  9 17  4  0  0  0
 10 14  4  0  0  0
 14 15  4  0  0  0
 15 16  4  0  0  0
 16 17  4  0  0  0
 16 18  1  0  0  0
 18 19  1  0  0  0
 19 20  2  0  0  0
 19 21  1  0  0  0
 21 22  1  0  0  0
 22 23  4  0  0  0
 22 26  4  0  0  0
 23 24  4  0  0  0
 24 25  4  0  0  0
 24 27  1  0  0  0
 25 26  4  0  0  0
 27 28  4  0  0  0
 27 31  4  0  0  0
 28 29  4  0  0  0
 29 30  4  0  0  0
 30 31  4  0  0  0
 30 35  4  0  0  0
 31 32  4  0  0  0
 32 33  4  0  0  0
 33 34  4  0  0  0
 34 35  4  0  0  0
  1 36  1  0  0  0
  1 37  1  0  0  0
  1 38  1  0  0  0
  2 39  1  0  0  0
  2 40  1  0  0  0
  3 41  1  0  0  0
  3 42  1  0  0  0
  4 43  1  0  0  0
  4 44  1  0  0  0
  5 45  1  0  0  0
  5 46  1  0  0  0
  6 47  1  0  0  0
  6 48  1  0  0  0
  7 49  1  0  0  0
  7 50  1  0  0  0
  8 51  1  0  0  0
  8 52  1  0  0  0
 10 53  1  0  0  0
 11 54  1  0  0  0
 12 55  1  0  0  0
 14 56  1  0  0  0
 15 57  1  0  0  0
 17 58  1  0  0  0
 18 59  1  0  0  0
 18 60  1  0  0  0
 21 61  1  0  0  0
 25 62  1  0  0  0
 28 63  1  0  0  0
 32 64  1  0  0  0
 33 65  1  0  0  0
 34 66  1  0  0  0
M  END
$$$$
