5wgp_ligand
  -I-interpret- 

 15 15  0  0  0  0  0  0  0  0999 V2000
   -1.3280    6.7000   84.4870 C   0  0  0  0  0
   -1.3350    5.3380   85.1550 C   0  0  0  0  0
   -2.4410    4.9930   86.0240 O   0  0  0  0  0
   -2.3650    3.6090   86.7840 S   0  0  0  0  0
   -3.7510    3.2730   87.0720 O   0  0  0  0  0
   -1.4610    3.8270   87.8990 O   0  0  0  0  0
   -1.7140    2.4750   85.8840 N   0  0  0  0  0
   -0.7240    2.8390   84.9550 C   0  0  0  0  0
   -0.1900    2.0230   84.2670 O   0  0  0  0  0
   -0.3600    4.3830   84.8060 C   0  0  0  0  0
   -0.3808    7.1989   84.6920 H   0  0  0  0  0
   -1.4494    6.5761   83.4109 H   0  0  0  0  0
   -2.1487    7.3001   84.8798 H   0  0  0  0  0
   -2.0079    1.5028   85.9779 H   0  0  0  0  0
    0.6199    4.6929   84.4428 H   0  0  0  0  0
  1  2  1  0  0  0
  2  3  1  0  0  0
  2 10  2  0  0  0
  3  4  1  0  0  0
  4  5  2  0  0  0
  4  6  2  0  0  0
  4  7  1  0  0  0
  7  8  1  0  0  0
  8  9  2  0  0  0
  8 10  1  0  0  0
  1 11  1  0  0  0
  1 12  1  0  0  0
  1 13  1  0  0  0
  7 14  1  0  0  0
 10 15  1  0  0  0
M  END
$$$$
