5w0f_ligand
  -I-interpret- 

 63 68  0  0  0  0  0  0  0  0999 V2000
    3.1370    1.7870   -4.3890 C   0  0  0  0  0
    1.7020    1.7790   -2.6910 C   0  0  0  0  0
    6.6480    1.8460   -2.4580 C   0  0  0  0  0
    4.3880    1.6950   -5.2020 C   0  0  0  0  0
    6.7640    2.2350   -1.0100 C   0  0  0  0  0
    1.5560    2.3950   -6.2480 C   0  0  0  0  0
    0.4450    1.4570   -6.7670 C   0  0  0  0  0
   -0.6700    2.4390   -7.2220 C   0  0  0  0  0
    0.8820    3.7780   -6.2600 C   0  0  0  0  0
    1.3770    0.5260   -0.5610 C   0  0  0  0  0
    0.0800    0.1800    0.1570 C   0  0  0  0  0
   -0.3110    1.3720    1.0380 C   0  0  0  0  0
   -0.3630    2.6620    0.2630 C   0  0  0  0  0
    0.3470    2.7790   -0.9210 C   0  0  0  0  0
    0.2850    4.0010   -1.6060 C   0  0  0  0  0
   -0.4570    5.0670   -1.1250 C   0  0  0  0  0
   -1.1640    4.9540    0.0670 C   0  0  0  0  0
   -1.0990    3.7310    0.7550 C   0  0  0  0  0
   -1.9670    6.0920    0.6130 C   0  0  0  0  0
   -2.8130    6.0180    1.7400 C   0  0  0  0  0
   -2.0420    7.3920    0.1540 C   0  0  0  0  0
   -3.2840    9.4810    0.8550 C   0  0  0  0  0
    4.2450    1.2190   -2.1570 C   0  0  0  0  0
    5.4450    0.9900   -4.3670 C   0  0  0  0  0
    3.0540    1.5860   -3.0390 C   0  0  0  0  0
    1.0270    2.0660   -3.7910 N   0  0  0  0  0
    1.9150    2.0790   -4.8670 N   0  0  0  0  0
    1.1190    1.7000   -1.4180 N   0  0  0  0  0
   -3.3680    7.1890    1.9430 N   0  0  0  0  0
   -2.9000    8.0660    0.9690 N   0  0  0  0  0
    5.4740    1.3920   -2.9590 N   0  0  0  0  0
   -0.5330    3.5570   -6.3260 O   0  0  0  0  0
    7.6030    1.9690   -3.2310 O   0  0  0  0  0
    4.7309    2.6925   -5.4770 H   0  0  0  0  0
    4.1995    1.1359   -6.1185 H   0  0  0  0  0
    7.5488    1.6438   -0.5380 H   0  0  0  0  0
    7.0122    3.2939   -0.9384 H   0  0  0  0  0
    5.8148    2.0482   -0.5078 H   0  0  0  0  0
    2.4640    2.3202   -6.8463 H   0  0  0  0  0
    0.1008    0.7546   -6.0078 H   0  0  0  0  0
    0.7869    0.8083   -7.5734 H   0  0  0  0  0
   -1.6620    1.9897   -7.1748 H   0  0  0  0  0
   -0.5639    2.7304   -8.2669 H   0  0  0  0  0
    1.2202    4.3634   -7.1150 H   0  0  0  0  0
    1.1421    4.3405   -5.3633 H   0  0  0  0  0
    1.7117   -0.3173   -1.1651 H   0  0  0  0  0
    2.1615    0.7502    0.1618 H   0  0  0  0  0
    0.2167   -0.7108    0.7701 H   0  0  0  0  0
   -0.7074   -0.0245   -0.5685 H   0  0  0  0  0
    0.4419    1.4767    1.8192 H   0  0  0  0  0
   -1.3043    1.1811    1.4442 H   0  0  0  0  0
    0.8345    4.1148   -2.5404 H   0  0  0  0  0
   -0.4870    6.0016   -1.6851 H   0  0  0  0  0
   -1.6383    3.6191    1.6956 H   0  0  0  0  0
   -2.9791    5.1277    2.3465 H   0  0  0  0  0
   -1.5112    7.8038   -0.7043 H   0  0  0  0  0
   -2.3951   10.1056    0.9430 H   0  0  0  0  0
   -3.7550    9.6515   -0.1131 H   0  0  0  0  0
   -3.9856    9.7310    1.6509 H   0  0  0  0  0
    4.1587    0.1873   -1.8160 H   0  0  0  0  0
    4.2750    1.8611   -1.2767 H   0  0  0  0  0
    6.4140    1.2500   -4.7931 H   0  0  0  0  0
    5.2122   -0.0746   -4.3902 H   0  0  0  0  0
  1  4  1  0  0  0
 25  1  4  0  0  0
  1 27  4  0  0  0
 25  2  4  0  0  0
  2 26  4  0  0  0
  2 28  1  0  0  0
  3  5  1  0  0  0
 31  3  1  0  0  0
  3 33  2  0  0  0
  4 24  1  0  0  0
  6  7  1  0  0  0
  6  9  1  0  0  0
 27  6  1  0  0  0
  7  8  1  0  0  0
 32  8  1  0  0  0
  9 32  1  0  0  0
 10 11  1  0  0  0
 28 10  1  0  0  0
 11 12  1  0  0  0
 13 12  1  0  0  0
 14 13  4  0  0  0
 13 18  4  0  0  0
 14 15  4  0  0  0
 28 14  1  0  0  0
 15 16  4  0  0  0
 16 17  4  0  0  0
 18 17  4  0  0  0
 17 19  1  0  0  0
 19 20  4  0  0  0
 19 21  4  0  0  0
 20 29  4  0  0  0
 21 30  4  0  0  0
 30 22  1  0  0  0
 23 25  1  0  0  0
 23 31  1  0  0  0
 24 31  1  0  0  0
 26 27  4  0  0  0
 29 30  4  0  0  0
  4 34  1  0  0  0
  4 35  1  0  0  0
  5 36  1  0  0  0
  5 37  1  0  0  0
  5 38  1  0  0  0
  6 39  1  0  0  0
  7 40  1  0  0  0
  7 41  1  0  0  0
  8 42  1  0  0  0
  8 43  1  0  0  0
  9 44  1  0  0  0
  9 45  1  0  0  0
 10 46  1  0  0  0
 10 47  1  0  0  0
 11 48  1  0  0  0
 11 49  1  0  0  0
 12 50  1  0  0  0
 12 51  1  0  0  0
 15 52  1  0  0  0
 16 53  1  0  0  0
 18 54  1  0  0  0
 20 55  1  0  0  0
 21 56  1  0  0  0
 22 57  1  0  0  0
 22 58  1  0  0  0
 22 59  1  0  0  0
 23 60  1  0  0  0
 23 61  1  0  0  0
 24 62  1  0  0  0
 24 63  1  0  0  0
M  END
$$$$
