4ci3_ligand
  -I-interpret- 

 31 33  0  0  0  0  0  0  0  0999 V2000
   -1.6970    0.5750  -11.3150 C   0  0  0  0  0
   -1.9280   -0.6380  -10.6440 C   0  0  0  0  0
   -3.1490   -0.8970  -10.0150 C   0  0  0  0  0
   -4.1020    0.1170  -10.0680 C   0  0  0  0  0
   -3.8530    1.3310  -10.7110 C   0  0  0  0  0
   -2.6620    1.5980  -11.3660 C   0  0  0  0  0
   -5.4960    0.2110   -9.5010 C   0  0  0  0  0
   -6.0010    1.4630   -9.8280 N   0  0  0  0  0
   -5.0840    2.1690  -10.5570 C   0  0  0  0  0
   -2.4850    2.7870  -12.0120 N   0  0  0  0  0
   -5.1710    3.2890  -11.0510 O   0  0  0  0  0
   -7.3360    1.9650   -9.5140 C   0  0  0  0  0
   -5.9930   -0.7440   -8.8810 O   0  0  0  0  0
   -7.2450    3.0590   -8.4200 C   0  0  0  0  0
   -8.0160    2.5080  -10.7580 C   0  0  0  0  0
   -8.9130    3.5230  -10.6320 N   0  0  0  0  0
   -9.2770    4.1170   -9.4650 C   0  0  0  0  0
   -8.6580    3.6390   -8.1670 C   0  0  0  0  0
   -7.7660    1.9950  -11.8450 O   0  0  0  0  0
  -10.1200    5.0000   -9.4280 O   0  0  0  0  0
   -0.7392    0.7284  -11.8121 H   0  0  0  0  0
   -1.1403   -1.3908  -10.6135 H   0  0  0  0  0
   -3.3449   -1.8427   -9.5097 H   0  0  0  0  0
   -1.6090    2.9776  -12.4985 H   0  0  0  0  0
   -3.2287    3.4851  -12.0083 H   0  0  0  0  0
   -7.9386    1.1387   -9.1369 H   0  0  0  0  0
   -6.5756    3.8535   -8.7499 H   0  0  0  0  0
   -6.8556    2.6256   -7.4988 H   0  0  0  0  0
   -9.3499    3.8679  -11.4868 H   0  0  0  0  0
   -8.5765    4.4830   -7.4821 H   0  0  0  0  0
   -9.2891    2.8595   -7.7401 H   0  0  0  0  0
  1  2  4  0  0  0
  1  6  4  0  0  0
  2  3  4  0  0  0
  3  4  4  0  0  0
  4  5  4  0  0  0
  4  7  1  0  0  0
  5  6  4  0  0  0
  5  9  1  0  0  0
  6 10  1  0  0  0
  7  8  1  0  0  0
  7 13  2  0  0  0
  8  9  1  0  0  0
  8 12  1  0  0  0
  9 11  2  0  0  0
 12 14  1  0  0  0
 12 15  1  0  0  0
 14 18  1  0  0  0
 15 16  1  0  0  0
 15 19  2  0  0  0
 16 17  1  0  0  0
 17 18  1  0  0  0
 17 20  2  0  0  0
  1 21  1  0  0  0
  2 22  1  0  0  0
  3 23  1  0  0  0
 10 24  1  0  0  0
 10 25  1  0  0  0
 12 26  1  0  0  0
 14 27  1  0  0  0
 14 28  1  0  0  0
 16 29  1  0  0  0
 18 30  1  0  0  0
 18 31  1  0  0  0
M  END
$$$$
