5eie_ligand
  -I-interpret- 

 39 41  0  0  0  0  0  0  0  0999 V2000
   31.0140   19.2570   11.2360 N   0  0  0  0  0
   31.3810   20.0630   12.2100 N   0  0  0  0  0
   30.6500   21.0020   12.5750 N   0  0  0  0  0
   31.1470   21.8580   13.6430 C   0  0  0  0  0
   30.2140   23.0520   13.7280 C   0  0  0  0  0
   29.2560   22.8650   14.8030 N   0  0  0  0  0
   28.0470   22.3070   14.5450 C   0  0  0  0  0
   27.7080   20.9510   15.0590 C   0  0  0  0  0
   28.6850   20.1600   15.9220 C   0  0  0  0  0
   27.9410   19.0780   16.7200 C   0  0  0  0  0
   27.1530   18.1960   15.7470 C   0  0  0  0  0
   25.9640   18.9830   15.1800 C   0  0  0  0  0
   26.3710   20.3820   14.7160 C   0  0  0  0  0
   25.4800   21.1160   13.9920 N   0  0  0  0  0
   25.7180   22.3470   13.4900 C   0  0  0  0  0
   27.0030   23.0390   13.7560 C   0  0  0  0  0
   24.7130   23.0220   12.7920 C   0  0  0  0  0
   24.9110   24.3300   12.3530 C   0  0  0  0  0
   26.1090   25.0000   12.6370 C   0  0  0  0  0
   27.1650   24.3660   13.3010 C   0  0  0  0  0
   30.1186   19.3972   10.7681 H   0  0  0  0  0
   29.7402   21.1652   12.1437 H   0  0  0  0  0
   32.1671   22.1807   13.4345 H   0  0  0  0  0
   31.1691   21.3186   14.5899 H   0  0  0  0  0
   29.6767   23.1525   12.7850 H   0  0  0  0  0
   30.8004   23.9494   13.9251 H   0  0  0  0  0
   29.4923   23.1533   15.7524 H   0  0  0  0  0
   29.1747   20.8407   16.6184 H   0  0  0  0  0
   29.4214   19.6814   15.2765 H   0  0  0  0  0
   27.2574   19.5472   17.4276 H   0  0  0  0  0
   28.6576   18.4690   17.2710 H   0  0  0  0  0
   26.7846   17.3164   16.2749 H   0  0  0  0  0
   27.8052   17.8889   14.9294 H   0  0  0  0  0
   25.2188   19.0890   15.9683 H   0  0  0  0  0
   25.5745   18.4387   14.3197 H   0  0  0  0  0
   23.7662   22.5214   12.5891 H   0  0  0  0  0
   24.1294   24.8350   11.7853 H   0  0  0  0  0
   26.2208   26.0408   12.3330 H   0  0  0  0  0
   28.1052   24.8923   13.4657 H   0  0  0  0  0
  1  2  2  0  0  0
  2  3  1  0  0  0
  3  4  1  0  0  0
  4  5  1  0  0  0
  5  6  1  0  0  0
  6  7  1  0  0  0
  7  8  4  0  0  0
  7 16  4  0  0  0
  8  9  1  0  0  0
  8 13  4  0  0  0
  9 10  1  0  0  0
 10 11  1  0  0  0
 11 12  1  0  0  0
 12 13  1  0  0  0
 13 14  4  0  0  0
 14 15  4  0  0  0
 15 16  4  0  0  0
 15 17  4  0  0  0
 16 20  4  0  0  0
 17 18  4  0  0  0
 18 19  4  0  0  0
 19 20  4  0  0  0
  1 21  1  0  0  0
  3 22  1  0  0  0
  4 23  1  0  0  0
  4 24  1  0  0  0
  5 25  1  0  0  0
  5 26  1  0  0  0
  6 27  1  0  0  0
  9 28  1  0  0  0
  9 29  1  0  0  0
 10 30  1  0  0  0
 10 31  1  0  0  0
 11 32  1  0  0  0
 11 33  1  0  0  0
 12 34  1  0  0  0
 12 35  1  0  0  0
 17 36  1  0  0  0
 18 37  1  0  0  0
 19 38  1  0  0  0
 20 39  1  0  0  0
M  END
$$$$
