### 
### Created by X-TOOL on Mon Sep 10 21:13:27 2018
### 

@<TRIPOS>MOLECULE
5eie_ligand
   39    41     1     0     0
SMALL
GAST_HUCK


@<TRIPOS>ATOM
      1 N20        31.0140   19.2570   11.2360 N.2       1 TZ2        -0.2458
      2 N19        31.3810   20.0630   12.2100 N.2       1 TZ2        -0.0825
      3 N18        30.6500   21.0020   12.5750 N.pl3     1 TZ2        -0.2180
      4 C28        31.1470   21.8580   13.6430 C.3       1 TZ2         0.0701
      5 C29        30.2140   23.0520   13.7280 C.3       1 TZ2         0.0498
      6 N7         29.2560   22.8650   14.8030 N.pl3     1 TZ2        -0.3121
      7 C30        28.0470   22.3070   14.5450 C.ar      1 TZ2         0.0690
      8 C39        27.7080   20.9510   15.0590 C.ar      1 TZ2         0.0054
      9 C40        28.6850   20.1600   15.9220 C.3       1 TZ2        -0.0210
     10 C41        27.9410   19.0780   16.7200 C.3       1 TZ2        -0.0439
     11 C42        27.1530   18.1960   15.7470 C.3       1 TZ2        -0.0400
     12 C38        25.9640   18.9830   15.1800 C.3       1 TZ2        -0.0081
     13 C37        26.3710   20.3820   14.7160 C.ar      1 TZ2         0.0105
     14 N8         25.4800   21.1160   13.9920 N.ar      1 TZ2        -0.3281
     15 C33        25.7180   22.3470   13.4900 C.ar      1 TZ2         0.0179
     16 C31        27.0030   23.0390   13.7560 C.ar      1 TZ2         0.0197
     17 C34        24.7130   23.0220   12.7920 C.ar      1 TZ2        -0.0521
     18 C35        24.9110   24.3300   12.3530 C.ar      1 TZ2        -0.0640
     19 C36        26.1090   25.0000   12.6370 C.ar      1 TZ2        -0.0632
     20 C32        27.1650   24.3660   13.3010 C.ar      1 TZ2        -0.0528
     21 H1         31.6179   18.5013   10.9526 H         1 TZ2         0.1451
     22 H2         29.7313   21.1668   12.1395 H         1 TZ2         0.2134
     23 H3         32.1691   22.1934   13.4131 H         1 TZ2         0.0572
     24 H4         31.1466   21.3102   14.5969 H         1 TZ2         0.0572
     25 H5         29.6745   23.1600   12.7755 H         1 TZ2         0.0542
     26 H6         30.8034   23.9606   13.9207 H         1 TZ2         0.0542
     27 H7         29.4946   23.1562   15.7617 H         1 TZ2         0.1816
     28 H8         29.1873   20.8447   16.6211 H         1 TZ2         0.0386
     29 H9         29.4348   19.6816   15.2748 H         1 TZ2         0.0386
     30 H10        27.2487   19.5537   17.4302 H         1 TZ2         0.0284
     31 H11        28.6664   18.4620   17.2717 H         1 TZ2         0.0284
     32 H12        26.7826   17.3067   16.2780 H         1 TZ2         0.0292
     33 H13        27.8107   17.8834   14.9226 H         1 TZ2         0.0292
     34 H14        25.1958   19.0778   15.9616 H         1 TZ2         0.0453
     35 H15        25.5494   18.4315   14.3233 H         1 TZ2         0.0453
     36 H16        23.7715   22.5241   12.5903 H         1 TZ2         0.0590
     37 H17        24.1337   24.8322   11.7885 H         1 TZ2         0.0621
     38 H18        26.2202   26.0351   12.3347 H         1 TZ2         0.0585
     39 H19        28.1001   24.8894   13.4648 H         1 TZ2         0.0636
@<TRIPOS>BOND
     1    1    2 2  
     2    2    3 1  
     3    3    4 1  
     4    4    5 1  
     5    5    6 1  
     6    6    7 1  
     7    7    8 ar 
     8    7   16 ar 
     9    8    9 1  
    10    8   13 ar 
    11    9   10 1  
    12   10   11 1  
    13   11   12 1  
    14   12   13 1  
    15   13   14 ar 
    16   14   15 ar 
    17   15   16 ar 
    18   15   17 ar 
    19   16   20 ar 
    20   17   18 ar 
    21   18   19 ar 
    22   19   20 ar 
    23    1   21 1  
    24    3   22 1  
    25    4   23 1  
    26    4   24 1  
    27    5   25 1  
    28    5   26 1  
    29    6   27 1  
    30    9   28 1  
    31    9   29 1  
    32   10   30 1  
    33   10   31 1  
    34   11   32 1  
    35   11   33 1  
    36   12   34 1  
    37   12   35 1  
    38   17   36 1  
    39   18   37 1  
    40   19   38 1  
    41   20   39 1  
@<TRIPOS>SUBSTRUCTURE
     1 TZ2         1

