2vw1_ligand
  -I-interpret- 

 37 37  0  0  0  0  0  0  0  0999 V2000
   -2.6680   76.6760   25.8690 C   0  0  0  0  0
   -3.3480   76.2080   24.6490 C   0  0  0  0  0
   -3.1630   74.9980   24.0900 C   0  0  0  0  0
   -3.9370   74.5240   22.8550 C   0  0  0  0  0
   -4.5840   75.6720   22.0670 C   0  0  0  0  0
   -5.2300   76.5990   23.1100 C   0  0  0  0  0
   -5.9240   77.7760   22.4460 C   0  0  0  0  0
   -6.6560   78.7280   23.3820 C   0  0  0  0  0
   -5.7540   79.6220   24.2410 C   0  0  0  0  0
   -5.8020   75.4990   19.8620 C   0  0  0  0  0
   -6.9000   74.7770   19.1420 C   0  0  0  0  0
   -5.6270   75.1730   21.1630 N   0  0  0  0  0
   -1.5250   76.3200   26.2450 O   0  0  0  0  0
   -3.2970   77.4700   26.5940 O   0  0  0  0  0
   -3.2240   73.5030   22.1000 O   0  0  0  0  0
   -4.2860   77.1370   24.0450 O   0  0  0  0  0
   -4.9740   78.4940   21.6520 O   0  0  0  0  0
   -7.4400   79.5680   22.5180 O   0  0  0  0  0
   -5.4890   79.0790   25.5420 O   0  0  0  0  0
   -5.1240   76.3000   19.2340 O   0  0  0  0  0
   -2.4302   74.3251   24.5353 H   0  0  0  0  0
   -4.8152   73.9788   23.2010 H   0  0  0  0  0
   -3.8363   76.1830   21.4604 H   0  0  0  0  0
   -5.9442   75.9705   23.6419 H   0  0  0  0  0
   -6.7134   77.3415   21.8327 H   0  0  0  0  0
   -7.2275   78.1364   24.0972 H   0  0  0  0  0
   -6.2689   80.5726   24.3798 H   0  0  0  0  0
   -4.7992   79.7195   23.7243 H   0  0  0  0  0
   -7.6136   75.5017   18.7500 H   0  0  0  0  0
   -6.4760   74.2012   18.3194 H   0  0  0  0  0
   -7.4063   74.1048   19.8347 H   0  0  0  0  0
   -6.2919   74.5084   21.5587 H   0  0  0  0  0
   -1.1525   75.7125   25.6017 H   0  0  0  0  0
   -2.8695   72.8479   22.7056 H   0  0  0  0  0
   -4.5203   77.8826   21.0672 H   0  0  0  0  0
   -7.9326   80.1990   23.0479 H   0  0  0  0  0
   -4.9221   79.6812   26.0294 H   0  0  0  0  0
  2  1  1  0  0  0
  1 13  1  0  0  0
  1 14  2  0  0  0
  3  2  2  0  0  0
 16  2  1  0  0  0
  4  3  1  0  0  0
  5  4  1  0  0  0
  4 15  1  0  0  0
  5  6  1  0  0  0
 12  5  1  0  0  0
  6  7  1  0  0  0
  6 16  1  0  0  0
  7  8  1  0  0  0
  7 17  1  0  0  0
  8  9  1  0  0  0
  8 18  1  0  0  0
  9 19  1  0  0  0
 10 11  1  0  0  0
 10 12  1  0  0  0
 10 20  2  0  0  0
  3 21  1  0  0  0
  4 22  1  0  0  0
  5 23  1  0  0  0
  6 24  1  0  0  0
  7 25  1  0  0  0
  8 26  1  0  0  0
  9 27  1  0  0  0
  9 28  1  0  0  0
 11 29  1  0  0  0
 11 30  1  0  0  0
 11 31  1  0  0  0
 12 32  1  0  0  0
 13 33  1  0  0  0
 15 34  1  0  0  0
 17 35  1  0  0  0
 18 36  1  0  0  0
 19 37  1  0  0  0
M  END
$$$$
