6hrw_ligand
  -I-interpret- 

 37 39  0  0  0  0  0  0  0  0999 V2000
   19.2940   18.5450   14.4980 O   0  0  0  0  0
   18.3350   15.7010   13.1740 C   0  0  0  0  0
   21.9160   15.1570   12.3180 C   0  0  0  0  0
   22.7780   14.1370   12.9610 C   0  0  0  0  0
   28.5260   14.4950   11.1750 Cl  0  0  0  0  0
   26.7900   14.4380   11.6030 C   0  0  0  0  0
   26.4790   14.2900   12.9270 C   0  0  0  0  0
   25.1690   14.2070   13.3390 C   0  0  0  0  0
   25.7830   14.5150   10.6690 C   0  0  0  0  0
   24.4590   14.4430   11.0870 C   0  0  0  0  0
   24.1540   14.2880   12.4320 C   0  0  0  0  0
   20.5570   15.0030   12.8620 N   0  3  0  0  0
   20.3530   15.1980   14.3120 C   0  0  0  0  0
   20.7260   16.6050   14.8130 C   0  0  0  0  0
   19.9970   17.6520   14.0000 C   0  0  0  0  0
   20.1150   17.4430   12.5220 C   0  0  0  0  0
   18.8460   15.0510   14.4490 C   0  0  0  0  0
   19.6100   16.0050   12.3360 C   0  0  0  0  0
   17.7646   16.6060   13.3832 H   0  0  0  0  0
   17.6455   15.0493   12.6374 H   0  0  0  0  0
   21.9091   15.0202   11.2366 H   0  0  0  0  0
   22.2954   16.1579   12.5236 H   0  0  0  0  0
   22.4013   13.1379   12.7417 H   0  0  0  0  0
   22.7765   14.2749   14.0422 H   0  0  0  0  0
   27.2794   14.2372   13.6650 H   0  0  0  0  0
   24.9411   14.0757   14.3968 H   0  0  0  0  0
   26.0208   14.6313    9.6116 H   0  0  0  0  0
   23.6553   14.5087   10.3536 H   0  0  0  0  0
   20.4048   14.0315   12.5909 H   0  0  0  0  0
   20.9704   14.5054   14.8841 H   0  0  0  0  0
   21.8008   16.7512   14.7059 H   0  0  0  0  0
   20.4405   16.7007   15.8606 H   0  0  0  0  0
   21.1314   17.5849   12.1548 H   0  0  0  0  0
   19.5430   18.1698   11.9453 H   0  0  0  0  0
   18.5261   14.0147   14.5579 H   0  0  0  0  0
   18.4520   15.5157   15.3528 H   0  0  0  0  0
   19.4500   15.9392   11.2598 H   0  0  0  0  0
 15  1  2  0  0  0
 17  2  1  0  0  0
  2 18  1  0  0  0
  3  4  1  0  0  0
 12  3  1  0  0  0
  4 11  1  0  0  0
  6  5  1  0  0  0
  7  6  4  0  0  0
  9  6  4  0  0  0
  8  7  4  0  0  0
 11  8  4  0  0  0
 10  9  4  0  0  0
 11 10  4  0  0  0
 13 12  1  0  0  0
 12 18  1  0  0  0
 14 13  1  0  0  0
 13 17  1  0  0  0
 14 15  1  0  0  0
 15 16  1  0  0  0
 16 18  1  0  0  0
  2 19  1  0  0  0
  2 20  1  0  0  0
  3 21  1  0  0  0
  3 22  1  0  0  0
  4 23  1  0  0  0
  4 24  1  0  0  0
  7 25  1  0  0  0
  8 26  1  0  0  0
  9 27  1  0  0  0
 10 28  1  0  0  0
 12 29  1  0  0  0
 13 30  1  0  0  0
 14 31  1  0  0  0
 14 32  1  0  0  0
 16 33  1  0  0  0
 16 34  1  0  0  0
 17 35  1  0  0  0
 17 36  1  0  0  0
 18 37  1  0  0  0
M  END
$$$$
