6e3m_ligand
  -I-interpret- 

 29 30  0  0  0  0  0  0  0  0999 V2000
  -24.3860   21.6590   18.2320 O   0  0  0  0  0
  -23.7250   21.6800   17.1710 C   0  0  0  0  0
  -24.2630   22.0300   16.0830 O   0  0  0  0  0
  -22.3820   21.3120   17.1830 C   0  0  0  0  0
  -21.9860   20.2970   16.3170 C   0  0  0  0  0
  -21.4510   21.9460   18.0230 C   0  0  0  0  0
  -20.1110   21.5560   17.9850 C   0  0  0  0  0
  -19.7210   20.5360   17.1110 C   0  0  0  0  0
  -20.6650   19.8700   16.3070 C   0  0  0  0  0
  -20.2170   18.9130   15.4000 C   0  0  0  0  0
  -20.8000   18.9160   14.1270 C   0  0  0  0  0
  -19.1770   18.0860   15.6770 N   0  0  0  0  0
  -18.6660   17.2200   14.7760 C   0  0  0  0  0
  -17.6000   16.3970   15.2200 C   0  0  0  0  0
  -17.4090   16.2320   16.4350 O   0  0  0  0  0
  -16.8340   15.7870   14.4500 O   0  0  0  0  0
  -19.2570   17.2190   13.4890 C   0  0  0  0  0
  -18.8150   16.3940   12.5270 O   0  0  0  0  0
  -20.3270   18.0490   13.1640 C   0  0  0  0  0
  -20.8840   18.0110   11.9120 O   0  0  0  0  0
  -23.6132   21.9871   15.3777 H   0  0  0  0  0
  -22.7126   19.8375   15.6469 H   0  0  0  0  0
  -21.7729   22.7373   18.7000 H   0  0  0  0  0
  -19.3772   22.0408   18.6290 H   0  0  0  0  0
  -18.6702   20.2526   17.0516 H   0  0  0  0  0
  -21.6199   19.5971   13.8991 H   0  0  0  0  0
  -17.0706   15.9859   13.5411 H   0  0  0  0  0
  -19.3295   16.5311   11.7282 H   0  0  0  0  0
  -20.4297   17.3530   11.3807 H   0  0  0  0  0
  1  2  2  0  0  0
  2  3  1  0  0  0
  2  4  1  0  0  0
  4  5  4  0  0  0
  4  6  4  0  0  0
  5  9  4  0  0  0
  6  7  4  0  0  0
  7  8  4  0  0  0
  8  9  4  0  0  0
  9 10  1  0  0  0
 10 11  4  0  0  0
 10 12  4  0  0  0
 11 19  4  0  0  0
 12 13  4  0  0  0
 13 14  1  0  0  0
 13 17  4  0  0  0
 14 15  2  0  0  0
 14 16  1  0  0  0
 17 18  1  0  0  0
 17 19  4  0  0  0
 19 20  1  0  0  0
  3 21  1  0  0  0
  5 22  1  0  0  0
  6 23  1  0  0  0
  7 24  1  0  0  0
  8 25  1  0  0  0
 11 26  1  0  0  0
 16 27  1  0  0  0
 18 28  1  0  0  0
 20 29  1  0  0  0
M  END
$$$$
