6cqf_ligand
  -I-interpret- 

 58 62  0  0  0  0  0  0  0  0999 V2000
  -31.1370  -11.4660  -19.2300 C   0  0  0  0  0
  -32.0740  -12.4940  -19.1270 C   0  0  0  0  0
  -32.3070  -13.2970  -20.2350 C   0  0  0  0  0
  -30.4710  -11.2880  -20.4640 C   0  0  0  0  0
  -29.6960   -9.7370  -19.0660 N   0  0  0  0  0
  -34.5120  -16.1730  -19.4160 C   0  0  0  0  0
  -35.0940  -15.1130  -14.7640 C   0  0  0  0  0
  -34.9060  -14.1470  -13.5640 C   0  0  0  0  0
  -34.2350  -13.1370  -15.6830 C   0  0  0  0  0
  -37.2600  -18.1130  -19.2170 C   0  0  0  0  0
  -31.0000   -8.8040  -16.6720 C   0  0  0  0  0
  -31.0400  -10.3000  -16.9930 C   0  0  0  0  0
  -30.0300  -11.0220  -16.1000 C   0  0  0  0  0
  -30.6490  -10.5020  -18.3900 N   0  0  0  0  0
  -31.6590  -13.0900  -21.3760 N   0  0  0  0  0
  -30.7680  -12.1380  -21.5290 C   0  0  0  0  0
  -29.5620  -10.1630  -20.2860 C   0  0  0  0  0
  -33.2260  -14.3460  -20.2540 N   0  0  0  0  0
  -33.9720  -14.8950  -19.2160 C   0  0  0  0  0
  -35.2570  -16.7670  -18.4170 C   0  0  0  0  0
  -35.4520  -16.0930  -17.2930 N   0  0  0  0  0
  -34.9350  -14.8860  -17.1240 C   0  0  0  0  0
  -34.2140  -14.2860  -18.0620 N   0  0  0  0  0
  -35.1780  -14.2290  -15.9370 N   0  0  0  0  0
  -34.5600  -12.7830  -14.2210 C   0  0  0  0  0
  -33.4580  -12.2050  -13.5860 F   0  0  0  0  0
  -35.6760  -11.9470  -14.1810 F   0  0  0  0  0
  -35.8320  -18.1550  -18.6060 C   0  0  0  0  0
  -37.9930  -19.2460  -18.4570 C   0  0  0  0  0
  -37.4410  -19.1560  -17.0910 N   0  3  0  0  0
  -36.0090  -18.8500  -17.2360 C   0  0  0  0  0
  -32.6127  -12.6635  -18.1947 H   0  0  0  0  0
  -34.3442  -16.6962  -20.3574 H   0  0  0  0  0
  -35.9837  -15.7331  -14.6545 H   0  0  0  0  0
  -34.2741  -15.8264  -14.8472 H   0  0  0  0  0
  -34.1246  -14.4849  -12.8834 H   0  0  0  0  0
  -35.7982  -14.0880  -12.9407 H   0  0  0  0  0
  -34.3450  -12.2976  -16.3695 H   0  0  0  0  0
  -33.1932  -13.4147  -15.8430 H   0  0  0  0  0
  -37.2631  -18.2564  -20.2975 H   0  0  0  0  0
  -37.7428  -17.1428  -19.1000 H   0  0  0  0  0
  -31.2572   -8.6516  -15.6238 H   0  0  0  0  0
  -29.9976   -8.4198  -16.8610 H   0  0  0  0  0
  -31.7168   -8.2789  -17.3034 H   0  0  0  0  0
  -32.0448  -10.6872  -16.8242 H   0  0  0  0  0
  -29.0315  -10.6288  -16.2913 H   0  0  0  0  0
  -30.2911  -10.8606  -15.0541 H   0  0  0  0  0
  -30.0500  -12.0893  -16.3203 H   0  0  0  0  0
  -30.2616  -12.0123  -22.4860 H   0  0  0  0  0
  -28.8907   -9.7529  -21.0405 H   0  0  0  0  0
  -33.3734  -14.7757  -21.1672 H   0  0  0  0  0
  -35.1376  -18.6800  -19.2619 H   0  0  0  0  0
  -37.8328  -20.2247  -18.9092 H   0  0  0  0  0
  -39.0767  -19.1311  -18.4786 H   0  0  0  0  0
  -37.5773  -20.0308  -16.5845 H   0  0  0  0  0
  -37.9159  -18.4311  -16.5530 H   0  0  0  0  0
  -35.6692  -18.2021  -16.4280 H   0  0  0  0  0
  -35.4128  -19.7611  -17.1857 H   0  0  0  0  0
  2  1  4  0  0  0
  1  4  4  0  0  0
  1 14  4  0  0  0
  3  2  4  0  0  0
  3 15  4  0  0  0
 18  3  1  0  0  0
 16  4  4  0  0  0
  4 17  4  0  0  0
 14  5  4  0  0  0
 17  5  4  0  0  0
 19  6  4  0  0  0
 20  6  4  0  0  0
  7  8  1  0  0  0
 24  7  1  0  0  0
 25  8  1  0  0  0
 24  9  1  0  0  0
  9 25  1  0  0  0
 28 10  1  0  0  0
 10 29  1  0  0  0
 12 11  1  0  0  0
 12 13  1  0  0  0
 14 12  1  0  0  0
 15 16  4  0  0  0
 19 18  1  0  0  0
 23 19  4  0  0  0
 21 20  4  0  0  0
 20 28  1  0  0  0
 22 21  4  0  0  0
 22 23  4  0  0  0
 22 24  1  0  0  0
 25 26  1  0  0  0
 25 27  1  0  0  0
 28 31  1  0  0  0
 29 30  1  0  0  0
 30 31  1  0  0  0
  2 32  1  0  0  0
  6 33  1  0  0  0
  7 34  1  0  0  0
  7 35  1  0  0  0
  8 36  1  0  0  0
  8 37  1  0  0  0
  9 38  1  0  0  0
  9 39  1  0  0  0
 10 40  1  0  0  0
 10 41  1  0  0  0
 11 42  1  0  0  0
 11 43  1  0  0  0
 11 44  1  0  0  0
 12 45  1  0  0  0
 13 46  1  0  0  0
 13 47  1  0  0  0
 13 48  1  0  0  0
 16 49  1  0  0  0
 17 50  1  0  0  0
 18 51  1  0  0  0
 28 52  1  0  0  0
 29 53  1  0  0  0
 29 54  1  0  0  0
 30 55  1  0  0  0
 30 56  1  0  0  0
 31 57  1  0  0  0
 31 58  1  0  0  0
M  END
$$$$
