5dva_ligand
  -I-interpret- 

 24 25  0  0  0  0  0  0  0  0999 V2000
   99.4120  251.4850    6.0610 C   0  0  0  0  0
   98.1700  251.2210    5.4930 C   0  0  0  0  0
   98.0200  250.0030    4.8390 C   0  0  0  0  0
   99.0900  249.1320    4.7740 C   0  0  0  0  0
   97.0650  252.2100    5.5510 C   0  0  0  0  0
   97.3300  253.5750    5.4450 C   0  0  0  0  0
   96.3040  254.5130    5.4330 C   0  0  0  0  0
   94.9890  254.0800    5.5470 C   0  0  0  0  0
   97.8870  256.2360    5.1800 O   0  0  0  0  0
   96.6180  255.9600    5.2820 C   0  0  0  0  0
   95.7370  256.8100    5.2430 O   0  0  0  0  0
   94.7090  252.7320    5.6660 C   0  0  0  0  0
   95.7370  251.8040    5.6680 C   0  0  0  0  0
  100.4230  250.5500    5.9460 C   0  0  0  0  0
  100.2840  249.3830    5.3150 N   0  0  0  0  0
   99.5862  252.4209    6.5920 H   0  0  0  0  0
   97.0667  249.7380    4.3818 H   0  0  0  0  0
   98.9514  248.1857    4.2511 H   0  0  0  0  0
   98.3633  253.9136    5.3700 H   0  0  0  0  0
   94.1756  254.8056    5.5426 H   0  0  0  0  0
   98.3955  255.4237    5.2364 H   0  0  0  0  0
   93.6756  252.3980    5.7586 H   0  0  0  0  0
   95.5046  250.7432    5.7622 H   0  0  0  0  0
  101.3888  250.7791    6.3964 H   0  0  0  0  0
  1  2  4  0  0  0
  1 14  4  0  0  0
  2  3  4  0  0  0
  2  5  1  0  0  0
  3  4  4  0  0  0
  4 15  4  0  0  0
  5  6  4  0  0  0
  5 13  4  0  0  0
  6  7  4  0  0  0
  7  8  4  0  0  0
  7 10  1  0  0  0
  8 12  4  0  0  0
 10  9  1  0  0  0
 10 11  2  0  0  0
 12 13  4  0  0  0
 14 15  4  0  0  0
  1 16  1  0  0  0
  3 17  1  0  0  0
  4 18  1  0  0  0
  6 19  1  0  0  0
  8 20  1  0  0  0
  9 21  1  0  0  0
 12 22  1  0  0  0
 13 23  1  0  0  0
 14 24  1  0  0  0
M  END
$$$$
