### 
### Created by X-TOOL on Mon Sep 10 21:13:16 2018
### 

@<TRIPOS>MOLECULE
4kn7_ligand
  153   160     1     0     0
SMALL
GAST_HUCK


@<TRIPOS>ATOM
      1 C1       -113.9050   26.5700    8.7200 C.2       1 1RM         0.1596
      2 C2       -112.6540   26.3210    7.9610 C.2       1 1RM         0.1514
      3 C3       -111.4350   26.6930    8.4900 C.2       1 1RM         0.1681
      4 C4       -111.3630   27.3590    9.8500 C.2       1 1RM         0.0768
      5 C5       -112.7680   28.2210   11.8990 C.ar      1 1RM         0.0696
      6 C6       -113.9930   28.4080   12.5190 C.ar      1 1RM         0.1169
      7 C7       -115.2480   28.0190   11.9640 C.ar      1 1RM         0.0296
      8 C8       -115.1410   27.4150   10.6980 C.ar      1 1RM         0.1110
      9 C9       -113.8650   27.2240   10.0570 C.ar      1 1RM         0.0613
     10 C10      -112.6240   27.6200   10.6310 C.ar      1 1RM         0.0194
     11 C11      -111.9020   28.7630   12.8680 C.2       1 1RM         0.2033
     12 C12      -112.5350   29.5890   13.7850 C.3       1 1RM         0.2520
     13 C13      -111.8670   29.4610   15.1450 C.3       1 1RM        -0.0007
     14 C14      -116.6030   28.2450   12.6910 C.3       1 1RM        -0.0306
     15 C15      -113.2720   26.4190    5.5310 C.2       1 1RM         0.2057
     16 C16      -113.3870   25.7680    4.1860 C.3       1 1RM         0.0518
     17 C17      -113.7430   26.5750    3.1200 C.3       1 1RM        -0.0330
     18 C18      -112.6410   27.2990    2.4040 C.3       1 1RM        -0.0504
     19 C19      -111.6300   27.8730    3.1980 C.3       1 1RM        -0.0480
     20 C20      -111.1520   29.2940    2.9730 C.3       1 1RM        -0.0175
     21 C21      -111.4600   30.0670    4.2380 C.3       1 1RM         0.0627
     22 C22      -110.4620   31.1430    4.6680 C.3       1 1RM         0.0088
     23 C23      -111.0470   31.9240    5.8450 C.3       1 1RM         0.0654
     24 C24      -110.2730   31.8990    7.1450 C.3       1 1RM         0.0136
     25 C25      -110.8550   32.9490    8.1040 C.3       1 1RM         0.0974
     26 C26      -111.4810   32.3670    9.3710 C.3       1 1RM         0.0136
     27 C27      -111.2650   33.2620   10.5820 C.3       1 1RM         0.0657
     28 C28      -111.9580   32.7330   11.8200 C.3       1 1RM        -0.0029
     29 C29      -112.0030   31.3640   12.1090 C.3       1 1RM         0.0515
     30 C30      -112.6360   24.5110    3.9130 C.3       1 1RM        -0.0449
     31 C31      -109.7260   29.1870    2.5610 C.3       1 1RM        -0.0601
     32 C32      -110.1640   32.0910    3.5760 C.3       1 1RM        -0.0577
     33 C33      -108.8110   32.1280    6.8640 C.3       1 1RM        -0.0573
     34 C34      -112.9570   32.1620    9.1480 C.3       1 1RM        -0.0573
     35 C35      -109.7430   35.0580    7.6930 C.2       1 1RM         0.2309
     36 C36      -108.3780   35.7040    7.6190 C.3       1 1RM         0.0372
     37 C37      -111.7060   35.5320   11.2670 C.3       1 1RM         0.0368
     38 N1       -112.7540   25.6730    6.6640 N.am      1 1RM        -0.2354
     39 O01      -110.2580   26.4450    7.7550 O.3       1 1RM        -0.2617
     40 C01      -109.0540   26.8390    8.3320 C.ar      1 1RM         0.1303
     41 C02      -109.0020   27.4550    9.5890 C.ar      1 1RM         0.0990
     42 N3       -110.2080   27.7000   10.3270 N.2       1 1RM        -0.2977
     43 O1       -114.9800   26.2350    8.2370 O.2       1 1RM        -0.3899
     44 O2       -116.2690   26.9960   10.0550 O.3       1 1RM        -0.3293
     45 O3       -113.8860   29.0820   13.8780 O.3       1 1RM        -0.2807
     46 O4       -110.7070   28.5390   12.9320 O.2       1 1RM        -0.3326
     47 O5       -112.5440   30.9330   13.3620 O.3       1 1RM        -0.3457
     48 O6       -111.7420   34.5240   10.3160 O.3       1 1RM        -0.3793
     49 O7       -109.8900   33.8800    8.4080 O.3       1 1RM        -0.2730
     50 O8       -110.7060   35.6300    7.1990 O.2       1 1RM        -0.3707
     51 O9       -112.3200   31.4710    6.0810 O.3       1 1RM        -0.3911
     52 O10      -112.6940   30.6520    4.0970 O.3       1 1RM        -0.3912
     53 O11      -113.6090   27.5880    5.6780 O.2       1 1RM        -0.3845
     54 C03      -107.8950   26.5820    7.5780 C.ar      1 1RM        -0.0359
     55 C04      -106.6700   26.9440    8.0850 C.ar      1 1RM        -0.0780
     56 C05      -106.5770   27.5620    9.3380 C.ar      1 1RM        -0.0408
     57 C06      -107.7380   27.8180   10.0920 C.ar      1 1RM         0.1078
     58 O        -107.6460   28.4490   11.3590 O.3       1 1RM        -0.3172
     59 C07      -106.6900   29.4610   11.5800 C.3       1 1RM         0.0711
     60 C08      -107.1350   30.4030   12.7270 C.3       1 1RM        -0.0201
     61 C09      -106.6230   29.8810   14.0900 C.3       1 1RM        -0.0101
     62 C38      -107.3990   28.6260   14.4920 C.3       1 1RM        -0.0314
     63 N01      -104.6430   26.8190   17.0610 N.4       1 1RM         0.2447
     64 C39      -103.2150   27.0940   16.8140 C.3       1 1RM        -0.0025
     65 C40      -103.0050   27.5360   15.3610 C.3       1 1RM         0.0982
     66 C41      -105.2810   25.8510   16.1960 C.3       1 1RM         0.0096
     67 C42      -106.4640   26.3750   15.3900 C.3       1 1RM         0.0094
     68 N02      -106.6350   27.8210   15.4590 N.4       1 1RM         0.2427
     69 C43      -106.7530   28.1950   16.8850 C.3       1 1RM         0.0094
     70 C44      -105.5040   27.8010   17.6740 C.3       1 1RM         0.0096
     71 N03      -101.4670   24.6760   13.6780 N.2       1 1RM        -0.3302
     72 C45      -102.2790   25.1360   12.7080 C.2       1 1RM        -0.0236
     73 C46      -102.9500   26.2420   13.2020 C.2       1 1RM         0.0365
     74 N        -102.5390   26.4520   14.4850 N.pl3     1 1RM        -0.2470
     75 C        -101.6160   25.4920   14.7830 C.2       1 1RM         0.0976
     76 H1       -112.3744   30.1187   15.8661 H         1 1RM         0.0270
     77 H2       -110.8097   29.7533   15.0632 H         1 1RM         0.0270
     78 H3       -111.9337   28.4185   15.4896 H         1 1RM         0.0270
     79 H4       -116.4221   28.7321   13.6605 H         1 1RM         0.0357
     80 H5       -117.0977   27.2762   12.8541 H         1 1RM         0.0357
     81 H6       -117.2482   28.8867   12.0730 H         1 1RM         0.0357
     82 H7       -114.3709   25.3018    4.3431 H         1 1RM         0.0540
     83 H8       -114.4436   27.3332    3.4997 H         1 1RM         0.0292
     84 H9       -114.2546   25.9399    2.3818 H         1 1RM         0.0292
     85 H10      -113.1017   28.1080    1.8181 H         1 1RM         0.0267
     86 H11      -112.1603   26.5811    1.7232 H         1 1RM         0.0267
     87 H12      -110.7459   27.2279    3.0875 H         1 1RM         0.0269
     88 H13      -111.9892   27.8281    4.2367 H         1 1RM         0.0269
     89 H14      -111.7118   29.7584    2.1478 H         1 1RM         0.0323
     90 H15      -111.5095   29.3332    5.0560 H         1 1RM         0.0599
     91 H16      -109.5271   30.6546    4.9802 H         1 1RM         0.0348
     92 H17      -111.1043   32.9765    5.5305 H         1 1RM         0.0600
     93 H18      -110.3849   30.9074    7.6078 H         1 1RM         0.0352
     94 H19      -111.6602   33.4678    7.5632 H         1 1RM         0.0656
     95 H20      -111.0127   31.3925    9.5735 H         1 1RM         0.0352
     96 H21      -110.1850   33.3199   10.7825 H         1 1RM         0.0600
     97 H22      -113.0031   33.0706   11.7578 H         1 1RM         0.0312
     98 H23      -111.4676   33.2146   12.6788 H         1 1RM         0.0312
     99 H24      -110.9694   30.9908   12.0597 H         1 1RM         0.0559
    100 H25      -112.6028   30.8882   11.3192 H         1 1RM         0.0559
    101 H26      -112.4335   23.9916    4.8613 H         1 1RM         0.0257
    102 H27      -111.6844   24.7527    3.4169 H         1 1RM         0.0257
    103 H28      -113.2354   23.8603    3.2593 H         1 1RM         0.0257
    104 H29      -109.6557   28.6023    1.6319 H         1 1RM         0.0233
    105 H30      -109.1518   28.6857    3.3541 H         1 1RM         0.0233
    106 H31      -109.3165   30.1939    2.3924 H         1 1RM         0.0233
    107 H32      -109.7417   31.5437    2.7204 H         1 1RM         0.0234
    108 H33      -109.4378   32.8387    3.9275 H         1 1RM         0.0234
    109 H34      -111.0905   32.5968    3.2665 H         1 1RM         0.0234
    110 H35      -108.4442   31.3527    6.1753 H         1 1RM         0.0234
    111 H36      -108.2446   32.0796    7.8057 H         1 1RM         0.0234
    112 H37      -108.6765   33.1189    6.4057 H         1 1RM         0.0234
    113 H38      -113.1090   31.5146    8.2718 H         1 1RM         0.0234
    114 H39      -113.4400   33.1347    8.9733 H         1 1RM         0.0234
    115 H40      -113.3995   31.6870   10.0360 H         1 1RM         0.0234
    116 H41      -108.4394   36.6230    7.0176 H         1 1RM         0.0483
    117 H42      -107.6672   35.0067    7.1515 H         1 1RM         0.0483
    118 H43      -108.0343   35.9524    8.6340 H         1 1RM         0.0483
    119 H44      -112.1360   36.4515   10.8431 H         1 1RM         0.0524
    120 H45      -110.6636   35.7182   11.5648 H         1 1RM         0.0524
    121 H46      -112.2899   35.2263   12.1477 H         1 1RM         0.0524
    122 H47      -112.4684   24.7211    6.5527 H         1 1RM         0.2258
    123 H48      -116.2151   26.0602    9.9006 H         1 1RM         0.2504
    124 H49      -112.8146   31.4829    5.2700 H         1 1RM         0.2098
    125 H50      -112.9605   31.0303    4.9267 H         1 1RM         0.2098
    126 H51      -107.9671   26.1038    6.6079 H         1 1RM         0.0455
    127 H52      -105.7707   26.7500    7.5117 H         1 1RM         0.0564
    128 H53      -105.6064   27.8447    9.7293 H         1 1RM         0.0459
    129 H54      -106.5685   30.0488   10.6582 H         1 1RM         0.0616
    130 H55      -105.7296   28.9965   11.8480 H         1 1RM         0.0616
    131 H56      -108.2337   30.4525   12.7485 H         1 1RM         0.0293
    132 H57      -106.7261   31.4084   12.5483 H         1 1RM         0.0293
    133 H58      -106.7654   30.6584   14.8551 H         1 1RM         0.0318
    134 H59      -105.5533   29.6379   14.0089 H         1 1RM         0.0318
    135 H60      -107.5940   28.0206   13.5945 H         1 1RM         0.0814
    136 H61      -108.3546   28.9244   14.9478 H         1 1RM         0.0814
    137 H62      -104.5215   26.2311   17.8707 H         1 1RM         0.2039
    138 H63      -102.6309   26.1815   17.0043 H         1 1RM         0.0843
    139 H64      -102.8767   27.8935   17.4895 H         1 1RM         0.0843
    140 H65      -102.2573   28.3427   15.3461 H         1 1RM         0.0679
    141 H66      -103.9608   27.9146   14.9696 H         1 1RM         0.0679
    142 H67      -105.6381   25.0198   16.8218 H         1 1RM         0.0868
    143 H68      -104.5260   25.4788   15.4879 H         1 1RM         0.0868
    144 H69      -107.3799   25.8999   15.7714 H         1 1RM         0.0868
    145 H70      -106.3164   26.0941   14.3368 H         1 1RM         0.0868
    146 H71      -105.7047   28.1334   15.2287 H         1 1RM         0.2038
    147 H72      -107.6251   27.6829   17.3177 H         1 1RM         0.0868
    148 H73      -106.8932   29.2835   16.9584 H         1 1RM         0.0868
    149 H74      -104.9098   28.7122   17.8374 H         1 1RM         0.0868
    150 H75      -105.8333   27.3992   18.6436 H         1 1RM         0.0868
    151 H76      -102.3889   24.7129   11.7106 H         1 1RM         0.0444
    152 H77      -103.6800   26.8408   12.6594 H         1 1RM         0.0860
    153 H78      -101.0875   25.3871   15.7294 H         1 1RM         0.1215
@<TRIPOS>BOND
     1    2    1 1  
     2    9    1 1  
     3    1   43 2  
     4    3    2 2  
     5    2   38 1  
     6    4    3 1  
     7   39    3 1  
     8    4   10 1  
     9   42    4 2  
    10    5    6 ar 
    11   10    5 ar 
    12    5   11 1  
    13    6    7 ar 
    14    6   45 1  
    15    8    7 ar 
    16    7   14 1  
    17    9    8 ar 
    18    8   44 1  
    19   10    9 ar 
    20   11   12 1  
    21   11   46 2  
    22   12   13 1  
    23   12   45 1  
    24   12   47 1  
    25   15   16 1  
    26   38   15 am 
    27   15   53 2  
    28   16   17 1  
    29   16   30 1  
    30   17   18 1  
    31   18   19 1  
    32   19   20 1  
    33   20   21 1  
    34   20   31 1  
    35   21   22 1  
    36   21   52 1  
    37   22   23 1  
    38   22   32 1  
    39   24   23 1  
    40   23   51 1  
    41   25   24 1  
    42   24   33 1  
    43   26   25 1  
    44   25   49 1  
    45   27   26 1  
    46   26   34 1  
    47   28   27 1  
    48   27   48 1  
    49   29   28 1  
    50   47   29 1  
    51   35   36 1  
    52   49   35 1  
    53   35   50 2  
    54   48   37 1  
    55   40   39 1  
    56   41   40 ar 
    57   40   54 ar 
    58   41   42 1  
    59   57   41 ar 
    60   55   54 ar 
    61   56   55 ar 
    62   57   56 ar 
    63   58   57 1  
    64   59   58 1  
    65   60   59 1  
    66   61   60 1  
    67   62   61 1  
    68   68   62 1  
    69   64   63 1  
    70   63   66 1  
    71   63   70 1  
    72   65   64 1  
    73   74   65 1  
    74   66   67 1  
    75   67   68 1  
    76   69   68 1  
    77   70   69 1  
    78   72   71 1  
    79   71   75 2  
    80   73   72 2  
    81   73   74 1  
    82   74   75 1  
    83   13   76 1  
    84   13   77 1  
    85   13   78 1  
    86   14   79 1  
    87   14   80 1  
    88   14   81 1  
    89   16   82 1  
    90   17   83 1  
    91   17   84 1  
    92   18   85 1  
    93   18   86 1  
    94   19   87 1  
    95   19   88 1  
    96   20   89 1  
    97   21   90 1  
    98   22   91 1  
    99   23   92 1  
   100   24   93 1  
   101   25   94 1  
   102   26   95 1  
   103   27   96 1  
   104   28   97 1  
   105   28   98 1  
   106   29   99 1  
   107   29  100 1  
   108   30  101 1  
   109   30  102 1  
   110   30  103 1  
   111   31  104 1  
   112   31  105 1  
   113   31  106 1  
   114   32  107 1  
   115   32  108 1  
   116   32  109 1  
   117   33  110 1  
   118   33  111 1  
   119   33  112 1  
   120   34  113 1  
   121   34  114 1  
   122   34  115 1  
   123   36  116 1  
   124   36  117 1  
   125   36  118 1  
   126   37  119 1  
   127   37  120 1  
   128   37  121 1  
   129   38  122 1  
   130   44  123 1  
   131   51  124 1  
   132   52  125 1  
   133   54  126 1  
   134   55  127 1  
   135   56  128 1  
   136   59  129 1  
   137   59  130 1  
   138   60  131 1  
   139   60  132 1  
   140   61  133 1  
   141   61  134 1  
   142   62  135 1  
   143   62  136 1  
   144   63  137 1  
   145   64  138 1  
   146   64  139 1  
   147   65  140 1  
   148   65  141 1  
   149   66  142 1  
   150   66  143 1  
   151   67  144 1  
   152   67  145 1  
   153   68  146 1  
   154   69  147 1  
   155   69  148 1  
   156   70  149 1  
   157   70  150 1  
   158   72  151 1  
   159   73  152 1  
   160   75  153 1  
@<TRIPOS>SUBSTRUCTURE
     1 1RM         1

