4kn7_ligand
  -I-interpret- 

153160  0  0  0  0  0  0  0  0999 V2000
 -113.9050   26.5700    8.7200 C   0  0  0  0  0
 -112.6540   26.3210    7.9610 C   0  0  0  0  0
 -111.4350   26.6930    8.4900 C   0  0  0  0  0
 -111.3630   27.3590    9.8500 C   0  0  0  0  0
 -112.7680   28.2210   11.8990 C   0  0  0  0  0
 -113.9930   28.4080   12.5190 C   0  0  0  0  0
 -115.2480   28.0190   11.9640 C   0  0  0  0  0
 -115.1410   27.4150   10.6980 C   0  0  0  0  0
 -113.8650   27.2240   10.0570 C   0  0  0  0  0
 -112.6240   27.6200   10.6310 C   0  0  0  0  0
 -111.9020   28.7630   12.8680 C   0  0  0  0  0
 -112.5350   29.5890   13.7850 C   0  0  0  0  0
 -111.8670   29.4610   15.1450 C   0  0  0  0  0
 -116.6030   28.2450   12.6910 C   0  0  0  0  0
 -113.2720   26.4190    5.5310 C   0  0  0  0  0
 -113.3870   25.7680    4.1860 C   0  0  0  0  0
 -113.7430   26.5750    3.1200 C   0  0  0  0  0
 -112.6410   27.2990    2.4040 C   0  0  0  0  0
 -111.6300   27.8730    3.1980 C   0  0  0  0  0
 -111.1520   29.2940    2.9730 C   0  0  0  0  0
 -111.4600   30.0670    4.2380 C   0  0  0  0  0
 -110.4620   31.1430    4.6680 C   0  0  0  0  0
 -111.0470   31.9240    5.8450 C   0  0  0  0  0
 -110.2730   31.8990    7.1450 C   0  0  0  0  0
 -110.8550   32.9490    8.1040 C   0  0  0  0  0
 -111.4810   32.3670    9.3710 C   0  0  0  0  0
 -111.2650   33.2620   10.5820 C   0  0  0  0  0
 -111.9580   32.7330   11.8200 C   0  0  0  0  0
 -112.0030   31.3640   12.1090 C   0  0  0  0  0
 -112.6360   24.5110    3.9130 C   0  0  0  0  0
 -109.7260   29.1870    2.5610 C   0  0  0  0  0
 -110.1640   32.0910    3.5760 C   0  0  0  0  0
 -108.8110   32.1280    6.8640 C   0  0  0  0  0
 -112.9570   32.1620    9.1480 C   0  0  0  0  0
 -109.7430   35.0580    7.6930 C   0  0  0  0  0
 -108.3780   35.7040    7.6190 C   0  0  0  0  0
 -111.7060   35.5320   11.2670 C   0  0  0  0  0
 -112.7540   25.6730    6.6640 N   0  0  0  0  0
 -110.2580   26.4450    7.7550 O   0  0  0  0  0
 -109.0540   26.8390    8.3320 C   0  0  0  0  0
 -109.0020   27.4550    9.5890 C   0  0  0  0  0
 -110.2080   27.7000   10.3270 N   0  0  0  0  0
 -114.9800   26.2350    8.2370 O   0  0  0  0  0
 -116.2690   26.9960   10.0550 O   0  0  0  0  0
 -113.8860   29.0820   13.8780 O   0  0  0  0  0
 -110.7070   28.5390   12.9320 O   0  0  0  0  0
 -112.5440   30.9330   13.3620 O   0  0  0  0  0
 -111.7420   34.5240   10.3160 O   0  0  0  0  0
 -109.8900   33.8800    8.4080 O   0  0  0  0  0
 -110.7060   35.6300    7.1990 O   0  0  0  0  0
 -112.3200   31.4710    6.0810 O   0  0  0  0  0
 -112.6940   30.6520    4.0970 O   0  0  0  0  0
 -113.6090   27.5880    5.6780 O   0  0  0  0  0
 -107.8950   26.5820    7.5780 C   0  0  0  0  0
 -106.6700   26.9440    8.0850 C   0  0  0  0  0
 -106.5770   27.5620    9.3380 C   0  0  0  0  0
 -107.7380   27.8180   10.0920 C   0  0  0  0  0
 -107.6460   28.4490   11.3590 O   0  0  0  0  0
 -106.6900   29.4610   11.5800 C   0  0  0  0  0
 -107.1350   30.4030   12.7270 C   0  0  0  0  0
 -106.6230   29.8810   14.0900 C   0  0  0  0  0
 -107.3990   28.6260   14.4920 C   0  0  0  0  0
 -104.6430   26.8190   17.0610 N   0  3  0  0  0
 -103.2150   27.0940   16.8140 C   0  0  0  0  0
 -103.0050   27.5360   15.3610 C   0  0  0  0  0
 -105.2810   25.8510   16.1960 C   0  0  0  0  0
 -106.4640   26.3750   15.3900 C   0  0  0  0  0
 -106.6350   27.8210   15.4590 N   0  3  0  0  0
 -106.7530   28.1950   16.8850 C   0  0  0  0  0
 -105.5040   27.8010   17.6740 C   0  0  0  0  0
 -101.4670   24.6760   13.6780 N   0  0  0  0  0
 -102.2790   25.1360   12.7080 C   0  0  0  0  0
 -102.9500   26.2420   13.2020 C   0  0  0  0  0
 -102.5390   26.4520   14.4850 N   0  0  0  0  0
 -101.6160   25.4920   14.7830 C   0  0  0  0  0
 -111.9337   28.4276   15.4853 H   0  0  0  0  0
 -110.8195   29.7508   15.0626 H   0  0  0  0  0
 -112.3707   30.1131   15.8586 H   0  0  0  0  0
 -116.5952   27.7160   13.6440 H   0  0  0  0  0
 -116.7460   29.3111   12.8670 H   0  0  0  0  0
 -117.4147   27.8658   12.0701 H   0  0  0  0  0
 -114.3363   25.2584    4.3511 H   0  0  0  0  0
 -114.3815   27.3523    3.5398 H   0  0  0  0  0
 -114.1855   25.9075    2.3806 H   0  0  0  0  0
 -113.1194   28.1300    1.8857 H   0  0  0  0  0
 -112.1448   26.5495    1.7874 H   0  0  0  0  0
 -110.7517   27.2664    2.9774 H   0  0  0  0  0
 -112.0692   27.9024    4.1952 H   0  0  0  0  0
 -111.6457   29.8541    2.1789 H   0  0  0  0  0
 -111.4084   29.3202    5.0303 H   0  0  0  0  0
 -109.5346   30.6430    4.9473 H   0  0  0  0  0
 -111.0058   32.9659    5.5275 H   0  0  0  0  0
 -110.3648   30.9255    7.6267 H   0  0  0  0  0
 -111.6824   33.4262    7.5788 H   0  0  0  0  0
 -110.9919   31.4151    9.5777 H   0  0  0  0  0
 -110.1928   33.2846   10.7767 H   0  0  0  0  0
 -113.0036   32.9993   11.6650 H   0  0  0  0  0
 -111.3763   33.1519   12.6411 H   0  0  0  0  0
 -110.9598   31.0489   12.1319 H   0  0  0  0  0
 -112.6692   30.9414   11.3569 H   0  0  0  0  0
 -111.5682   24.6939    4.0331 H   0  0  0  0  0
 -112.9548   23.7393    4.6137 H   0  0  0  0  0
 -112.8373   24.1832    2.8931 H   0  0  0  0  0
 -109.1561   28.7000    3.3523 H   0  0  0  0  0
 -109.6566   28.5982    1.6463 H   0  0  0  0  0
 -109.3245   30.1847    2.3837 H   0  0  0  0  0
 -109.7375   31.5487    2.7321 H   0  0  0  0  0
 -111.0842   32.5851    3.2643 H   0  0  0  0  0
 -109.4511   32.8365    3.9282 H   0  0  0  0  0
 -108.4414   31.3420    6.2054 H   0  0  0  0  0
 -108.6824   33.0974    6.3826 H   0  0  0  0  0
 -108.2550   32.1097    7.8013 H   0  0  0  0  0
 -113.4244   33.1189    8.9156 H   0  0  0  0  0
 -113.1053   31.4724    8.3170 H   0  0  0  0  0
 -113.4053   31.7469   10.0507 H   0  0  0  0  0
 -108.1010   35.8465    6.5745 H   0  0  0  0  0
 -108.4067   36.6698    8.1236 H   0  0  0  0  0
 -107.6457   35.0599    8.1058 H   0  0  0  0  0
 -112.2849   35.2278   12.1391 H   0  0  0  0  0
 -110.6726   35.7154   11.5612 H   0  0  0  0  0
 -112.1323   36.4425   10.8458 H   0  0  0  0  0
 -112.4627   24.7021    6.5505 H   0  0  0  0  0
 -116.0291   26.6088    9.2099 H   0  0  0  0  0
 -112.6988   31.9543    6.8189 H   0  0  0  0  0
 -112.9049   31.1470    4.8920 H   0  0  0  0  0
 -107.9675   26.1011    6.6025 H   0  0  0  0  0
 -105.7657   26.7489    7.5085 H   0  0  0  0  0
 -105.6011   27.8462    9.7315 H   0  0  0  0  0
 -106.5833   30.0471   10.6672 H   0  0  0  0  0
 -105.7444   28.9948   11.8568 H   0  0  0  0  0
 -108.2241   30.4413   12.7501 H   0  0  0  0  0
 -106.7198   31.3952   12.5503 H   0  0  0  0  0
 -106.7682   30.6513   14.8474 H   0  0  0  0  0
 -105.5639   29.6373   14.0066 H   0  0  0  0  0
 -107.5781   28.0249   13.6005 H   0  0  0  0  0
 -108.3387   28.9287   14.9539 H   0  0  0  0  0
 -104.4651   26.3144   17.9294 H   0  0  0  0  0
 -102.6397   26.1866   16.9978 H   0  0  0  0  0
 -102.8843   27.8904   17.4807 H   0  0  0  0  0
 -102.2397   28.3121   15.3602 H   0  0  0  0  0
 -103.9667   27.8781   14.9786 H   0  0  0  0  0
 -105.6687   25.0636   16.8423 H   0  0  0  0  0
 -104.5281   25.5343   15.4742 H   0  0  0  0  0
 -107.3643   25.9229   15.8062 H   0  0  0  0  0
 -106.2818   26.1206   14.3459 H   0  0  0  0  0
 -105.7882   28.1591   15.0018 H   0  0  0  0  0
 -107.6089   27.6702   17.3095 H   0  0  0  0  0
 -106.8745   29.2763   16.9490 H   0  0  0  0  0
 -104.9080   28.7084   17.7712 H   0  0  0  0  0
 -105.8601   27.3546   18.6025 H   0  0  0  0  0
 -102.3890   24.7126   11.7097 H   0  0  0  0  0
 -103.6807   26.8413   12.6589 H   0  0  0  0  0
 -101.0871   25.3870   15.7303 H   0  0  0  0  0
  2  1  1  0  0  0
  9  1  1  0  0  0
  1 43  2  0  0  0
  3  2  2  0  0  0
  2 38  1  0  0  0
  4  3  1  0  0  0
 39  3  1  0  0  0
  4 10  1  0  0  0
 42  4  2  0  0  0
  5  6  4  0  0  0
 10  5  4  0  0  0
  5 11  1  0  0  0
  6  7  4  0  0  0
  6 45  1  0  0  0
  8  7  4  0  0  0
  7 14  1  0  0  0
  9  8  4  0  0  0
  8 44  1  0  0  0
 10  9  4  0  0  0
 11 12  1  0  0  0
 11 46  2  0  0  0
 12 13  1  0  0  0
 12 45  1  0  0  0
 12 47  1  0  0  0
 15 16  1  0  0  0
 38 15  1  0  0  0
 15 53  2  0  0  0
 16 17  1  0  0  0
 16 30  1  0  0  0
 17 18  1  0  0  0
 18 19  1  0  0  0
 19 20  1  0  0  0
 20 21  1  0  0  0
 20 31  1  0  0  0
 21 22  1  0  0  0
 21 52  1  0  0  0
 22 23  1  0  0  0
 22 32  1  0  0  0
 24 23  1  0  0  0
 23 51  1  0  0  0
 25 24  1  0  0  0
 24 33  1  0  0  0
 26 25  1  0  0  0
 25 49  1  0  0  0
 27 26  1  0  0  0
 26 34  1  0  0  0
 28 27  1  0  0  0
 27 48  1  0  0  0
 29 28  1  0  0  0
 47 29  1  0  0  0
 35 36  1  0  0  0
 49 35  1  0  0  0
 35 50  2  0  0  0
 48 37  1  0  0  0
 40 39  1  0  0  0
 41 40  4  0  0  0
 40 54  4  0  0  0
 41 42  1  0  0  0
 57 41  4  0  0  0
 55 54  4  0  0  0
 56 55  4  0  0  0
 57 56  4  0  0  0
 58 57  1  0  0  0
 59 58  1  0  0  0
 60 59  1  0  0  0
 61 60  1  0  0  0
 62 61  1  0  0  0
 68 62  1  0  0  0
 64 63  1  0  0  0
 63 66  1  0  0  0
 63 70  1  0  0  0
 65 64  1  0  0  0
 74 65  1  0  0  0
 66 67  1  0  0  0
 67 68  1  0  0  0
 69 68  1  0  0  0
 70 69  1  0  0  0
 72 71  4  0  0  0
 71 75  4  0  0  0
 73 72  4  0  0  0
 73 74  4  0  0  0
 74 75  4  0  0  0
 13 76  1  0  0  0
 13 77  1  0  0  0
 13 78  1  0  0  0
 14 79  1  0  0  0
 14 80  1  0  0  0
 14 81  1  0  0  0
 16 82  1  0  0  0
 17 83  1  0  0  0
 17 84  1  0  0  0
 18 85  1  0  0  0
 18 86  1  0  0  0
 19 87  1  0  0  0
 19 88  1  0  0  0
 20 89  1  0  0  0
 21 90  1  0  0  0
 22 91  1  0  0  0
 23 92  1  0  0  0
 24 93  1  0  0  0
 25 94  1  0  0  0
 26 95  1  0  0  0
 27 96  1  0  0  0
 28 97  1  0  0  0
 28 98  1  0  0  0
 29 99  1  0  0  0
 29100  1  0  0  0
 30101  1  0  0  0
 30102  1  0  0  0
 30103  1  0  0  0
 31104  1  0  0  0
 31105  1  0  0  0
 31106  1  0  0  0
 32107  1  0  0  0
 32108  1  0  0  0
 32109  1  0  0  0
 33110  1  0  0  0
 33111  1  0  0  0
 33112  1  0  0  0
 34113  1  0  0  0
 34114  1  0  0  0
 34115  1  0  0  0
 36116  1  0  0  0
 36117  1  0  0  0
 36118  1  0  0  0
 37119  1  0  0  0
 37120  1  0  0  0
 37121  1  0  0  0
 38122  1  0  0  0
 44123  1  0  0  0
 51124  1  0  0  0
 52125  1  0  0  0
 54126  1  0  0  0
 55127  1  0  0  0
 56128  1  0  0  0
 59129  1  0  0  0
 59130  1  0  0  0
 60131  1  0  0  0
 60132  1  0  0  0
 61133  1  0  0  0
 61134  1  0  0  0
 62135  1  0  0  0
 62136  1  0  0  0
 63137  1  0  0  0
 64138  1  0  0  0
 64139  1  0  0  0
 65140  1  0  0  0
 65141  1  0  0  0
 66142  1  0  0  0
 66143  1  0  0  0
 67144  1  0  0  0
 67145  1  0  0  0
 68146  1  0  0  0
 69147  1  0  0  0
 69148  1  0  0  0
 70149  1  0  0  0
 70150  1  0  0  0
 72151  1  0  0  0
 73152  1  0  0  0
 75153  1  0  0  0
M  END
$$$$
