4eok_ligand
  -I-interpret- 

 49 52  0  0  0  0  0  0  0  0999 V2000
   10.8400   27.0480   25.1360 C   0  0  0  0  0
   13.6010   23.9940   23.4260 C   0  0  0  0  0
    8.0460   25.1750   22.7850 C   0  0  0  0  0
    7.1780   24.3100   21.8930 C   0  0  0  0  0
    7.5570   24.6290   20.4420 C   0  0  0  0  0
    6.5450   24.0850   19.4360 C   0  0  0  0  0
    5.1120   24.5010   19.7850 C   0  0  0  0  0
    4.7360   24.0760   21.2040 C   0  0  0  0  0
    5.7240   24.6510   22.2180 C   0  0  0  0  0
    7.7070   30.4030   26.7560 C   0  0  0  0  0
    6.9660   30.4570   25.5730 C   0  0  0  0  0
    7.4130   29.7120   24.4800 C   0  0  0  0  0
    8.5690   28.9330   24.5620 C   0  0  0  0  0
    4.4410   30.5050   25.0510 N   0  0  0  0  0
    9.9360   26.3230   24.4200 N   0  0  0  0  0
   10.2680   25.2390   23.6740 C   0  0  0  0  0
    9.3160   24.5630   22.9710 O   0  0  0  0  0
   11.5850   24.8280   23.6370 C   0  0  0  0  0
   12.3000   23.8480   23.0530 N   0  0  0  0  0
   13.7580   25.0660   24.2540 N   0  0  0  0  0
   12.5390   25.6130   24.4190 C   0  0  0  0  0
   12.1560   26.6950   25.1380 N   0  0  0  0  0
   10.4460   28.1300   25.8700 N   0  0  0  0  0
    9.3040   28.8710   25.7430 C   0  0  0  0  0
    8.8600   29.6180   26.8350 C   0  0  0  0  0
    5.6310   31.3590   25.4520 S   0  0  0  0  0
    5.8550   32.4030   24.4250 O   0  0  0  0  0
    5.3250   32.0220   26.7490 O   0  0  0  0  0
   14.4113   23.3395   23.1048 H   0  0  0  0  0
    7.5596   25.2921   23.7534 H   0  0  0  0  0
    8.1831   26.1491   22.3155 H   0  0  0  0  0
    7.3184   23.2403   22.0481 H   0  0  0  0  0
    8.5191   24.1598   20.2363 H   0  0  0  0  0
    7.5867   25.7133   20.3342 H   0  0  0  0  0
    6.5984   22.9964   19.4522 H   0  0  0  0  0
    6.7886   24.4894   18.4535 H   0  0  0  0  0
    4.4311   24.0143   19.0867 H   0  0  0  0  0
    5.0418   25.5868   19.7195 H   0  0  0  0  0
    4.7609   22.9880   21.2648 H   0  0  0  0  0
    3.7381   24.4507   21.4319 H   0  0  0  0  0
    5.6251   25.7363   22.1999 H   0  0  0  0  0
    5.4908   24.2190   23.1912 H   0  0  0  0  0
    7.3832   30.9776   27.6238 H   0  0  0  0  0
    6.8501   29.7389   23.5470 H   0  0  0  0  0
    8.8999   28.3668   23.6913 H   0  0  0  0  0
    3.9395   30.7034   24.1852 H   0  0  0  0  0
    4.1432   29.7330   25.6475 H   0  0  0  0  0
   11.0861   28.4232   26.6081 H   0  0  0  0  0
    9.4236   29.5884   27.7675 H   0  0  0  0  0
  1 15  4  0  0  0
  1 22  4  0  0  0
 23  1  1  0  0  0
  2 19  4  0  0  0
 20  2  4  0  0  0
  3  4  1  0  0  0
 17  3  1  0  0  0
  4  5  1  0  0  0
  4  9  1  0  0  0
  5  6  1  0  0  0
  6  7  1  0  0  0
  8  7  1  0  0  0
  9  8  1  0  0  0
 11 10  4  0  0  0
 10 25  4  0  0  0
 12 11  4  0  0  0
 11 26  1  0  0  0
 13 12  4  0  0  0
 24 13  4  0  0  0
 26 14  1  0  0  0
 15 16  4  0  0  0
 16 17  1  0  0  0
 16 18  4  0  0  0
 18 19  4  0  0  0
 21 18  4  0  0  0
 21 20  4  0  0  0
 22 21  4  0  0  0
 23 24  1  0  0  0
 24 25  4  0  0  0
 26 27  2  0  0  0
 26 28  2  0  0  0
  2 29  1  0  0  0
  3 30  1  0  0  0
  3 31  1  0  0  0
  4 32  1  0  0  0
  5 33  1  0  0  0
  5 34  1  0  0  0
  6 35  1  0  0  0
  6 36  1  0  0  0
  7 37  1  0  0  0
  7 38  1  0  0  0
  8 39  1  0  0  0
  8 40  1  0  0  0
  9 41  1  0  0  0
  9 42  1  0  0  0
 10 43  1  0  0  0
 12 44  1  0  0  0
 13 45  1  0  0  0
 14 46  1  0  0  0
 14 47  1  0  0  0
 23 48  1  0  0  0
 25 49  1  0  0  0
M  END
$$$$
