4je8_ligand
  -I-interpret- 

 42 41  0  0  0  0  0  0  0  0999 V2000
    9.0080   -8.1660  -14.9720 N   0  3  0  0  0
    8.6800   -8.2320  -16.3920 C   0  0  0  0  0
    8.9440   -6.8100  -16.8490 C   0  0  0  0  0
    8.8030   -5.8880  -16.0550 O   0  0  0  0  0
    7.1970   -8.5950  -16.5340 C   0  0  0  0  0
    6.9210   -9.2650  -17.8330 C   0  0  0  0  0
    5.2560   -9.7790  -18.0990 S   0  0  0  0  0
    4.4390   -8.2250  -18.3880 C   0  0  0  0  0
    9.3360   -6.6190  -18.1110 N   0  0  0  0  0
    9.5480   -5.2750  -18.7110 C   0  0  0  0  0
    8.2670   -4.4730  -18.5900 C   0  0  0  0  0
    7.2140   -5.0520  -18.7770 O   0  0  0  0  0
    9.9010   -5.4810  -20.1590 C   0  0  0  0  0
    8.3430   -3.1840  -18.2800 N   0  0  0  0  0
    7.1590   -2.3680  -18.0520 C   0  0  0  0  0
    6.6850   -1.6280  -19.2910 C   0  0  0  0  0
    7.3420   -1.6840  -20.3500 O   0  0  0  0  0
    7.4670   -1.3090  -17.0410 C   0  0  0  0  0
    8.1700   -0.2660  -17.6620 O   0  0  0  0  0
    5.6216   -0.9534  -19.2489 O   0  0  0  0  0
    9.9931   -7.9250  -14.8627 H   0  0  0  0  0
    8.4309   -7.4544  -14.5237 H   0  0  0  0  0
    8.8286   -9.0726  -14.5403 H   0  0  0  0  0
    9.2419   -8.9696  -16.9649 H   0  0  0  0  0
    6.6112   -7.6770  -16.4880 H   0  0  0  0  0
    6.9309   -9.2801  -15.7291 H   0  0  0  0  0
    7.5267  -10.1712  -17.8448 H   0  0  0  0  0
    7.1427   -8.5320  -18.6087 H   0  0  0  0  0
    4.5567   -7.5858  -17.5129 H   0  0  0  0  0
    4.8826   -7.7389  -19.2569 H   0  0  0  0  0
    3.3790   -8.4017  -18.5706 H   0  0  0  0  0
    9.4988   -7.4392  -18.6950 H   0  0  0  0  0
   10.3457   -4.7327  -18.2033 H   0  0  0  0  0
   10.8097   -6.0789  -20.2286 H   0  0  0  0  0
    9.0840   -5.9996  -20.6606 H   0  0  0  0  0
   10.0642   -4.5132  -20.6331 H   0  0  0  0  0
    9.2627   -2.7506  -18.1988 H   0  0  0  0  0
    6.3846   -3.0629  -17.7272 H   0  0  0  0  0
    8.0744   -1.7333  -16.2415 H   0  0  0  0  0
    6.5377   -0.9237  -16.6214 H   0  0  0  0  0
    8.3685    0.4145  -17.0146 H   0  0  0  0  0
    5.2405   -1.0134  -18.3698 H   0  0  0  0  0
  1  2  1  0  0  0
  2  3  1  0  0  0
  2  5  1  0  0  0
  3  4  2  0  0  0
  3  9  1  0  0  0
  5  6  1  0  0  0
  6  7  1  0  0  0
  7  8  1  0  0  0
  9 10  1  0  0  0
 10 11  1  0  0  0
 10 13  1  0  0  0
 11 12  2  0  0  0
 11 14  1  0  0  0
 14 15  1  0  0  0
 15 16  1  0  0  0
 15 18  1  0  0  0
 16 17  2  0  0  0
 18 19  1  0  0  0
 16 20  1  0  0  0
  1 21  1  0  0  0
  1 22  1  0  0  0
  1 23  1  0  0  0
  2 24  1  0  0  0
  5 25  1  0  0  0
  5 26  1  0  0  0
  6 27  1  0  0  0
  6 28  1  0  0  0
  8 29  1  0  0  0
  8 30  1  0  0  0
  8 31  1  0  0  0
  9 32  1  0  0  0
 10 33  1  0  0  0
 13 34  1  0  0  0
 13 35  1  0  0  0
 13 36  1  0  0  0
 14 37  1  0  0  0
 15 38  1  0  0  0
 18 39  1  0  0  0
 18 40  1  0  0  0
 19 41  1  0  0  0
 20 42  1  0  0  0
M  END
$$$$
