3ns9_ligand
  -I-interpret- 

 55 57  0  0  0  0  0  0  0  0999 V2000
    1.6430   -4.8010  -29.2550 N   0  0  0  0  0
    1.5250   -5.9400  -28.7130 N   0  0  0  0  0
    2.4420   -6.9660  -28.5960 C   0  0  0  0  0
    2.0800   -8.0990  -27.8330 C   0  0  0  0  0
    0.7660   -8.2020  -27.2370 C   0  0  0  0  0
   -0.1350   -7.1610  -27.3200 N   0  0  0  0  0
    0.2530   -6.0650  -28.0560 C   0  0  0  0  0
   -0.3640   -4.8510  -28.3800 C   0  0  0  0  0
    0.5030   -4.1160  -29.1010 C   0  0  0  0  0
    3.6520   -6.8040  -29.1880 N   0  0  0  0  0
    4.7830   -7.7640  -28.9660 C   0  0  0  0  0
    4.7230   -8.8550  -30.0140 C   0  0  0  0  0
    4.7350   -8.4860  -31.3650 C   0  0  0  0  0
    4.6810   -9.4500  -32.3650 C   0  0  0  0  0
    4.6150  -10.8130  -32.0080 C   0  0  0  0  0
    4.6220  -11.1410  -30.6740 C   0  0  0  0  0
    4.6650  -10.1900  -29.6460 C   0  0  0  0  0
    0.4920   -9.3120  -26.5190 N   0  0  0  0  0
   -0.9020   -9.5720  -26.0100 C   0  0  0  0  0
   -1.0830   -9.2120  -24.5500 C   0  0  0  0  0
   -0.7310   -7.7240  -24.1800 C   0  0  0  0  0
   -1.5920   -6.9460  -24.9620 O   0  0  0  0  0
   -1.1950  -11.0980  -26.1930 C   0  0  0  0  0
   -0.0090  -11.8870  -25.9210 O   0  0  0  0  0
   -2.4850   -9.5190  -24.2100 O   0  0  0  0  0
   -1.7460   -4.4110  -27.9630 C   0  0  0  0  0
   -1.7530   -4.0710  -26.4490 C   0  0  0  0  0
   -2.8670   -5.4870  -28.1990 C   0  0  0  0  0
    2.7998   -8.9053  -27.6918 H   0  0  0  0  0
    0.3077   -3.1196  -29.4973 H   0  0  0  0  0
    3.7972   -6.0039  -29.8037 H   0  0  0  0  0
    4.6984   -8.2056  -27.9730 H   0  0  0  0  0
    5.7327   -7.2346  -29.0431 H   0  0  0  0  0
    4.7873   -7.4313  -31.6353 H   0  0  0  0  0
    4.6896   -9.1556  -33.4145 H   0  0  0  0  0
    4.5597  -11.5878  -32.7726 H   0  0  0  0  0
    4.5926  -12.1959  -30.4011 H   0  0  0  0  0
    4.6533  -10.4884  -28.5977 H   0  0  0  0  0
    1.2357   -9.9809  -26.3193 H   0  0  0  0  0
   -1.5897   -8.9437  -26.5761 H   0  0  0  0  0
   -0.3721   -9.7973  -23.9668 H   0  0  0  0  0
    0.3157   -7.4939  -24.3788 H   0  0  0  0  0
   -0.8632   -7.5291  -23.1157 H   0  0  0  0  0
   -1.4306   -6.0163  -24.7854 H   0  0  0  0  0
   -1.5060  -11.2749  -27.2226 H   0  0  0  0  0
   -1.9795  -11.3912  -25.4953 H   0  0  0  0  0
   -0.2113  -12.8180  -26.0391 H   0  0  0  0  0
   -2.6438   -9.3044  -23.2879 H   0  0  0  0  0
   -1.9717   -3.5478  -28.5892 H   0  0  0  0  0
   -1.4672   -4.9545  -25.8782 H   0  0  0  0  0
   -1.0435   -3.2665  -26.2553 H   0  0  0  0  0
   -2.7532   -3.7540  -26.1537 H   0  0  0  0  0
   -2.9165   -5.7316  -29.2601 H   0  0  0  0  0
   -2.6323   -6.3855  -27.6283 H   0  0  0  0  0
   -3.8269   -5.0875  -27.8718 H   0  0  0  0  0
  1  2  4  0  0  0
  1  9  4  0  0  0
  2  3  4  0  0  0
  2  7  4  0  0  0
  3  4  4  0  0  0
  3 10  1  0  0  0
  4  5  4  0  0  0
  5  6  4  0  0  0
  5 18  1  0  0  0
  6  7  4  0  0  0
  7  8  4  0  0  0
  8  9  4  0  0  0
  8 26  1  0  0  0
 10 11  1  0  0  0
 11 12  1  0  0  0
 12 13  4  0  0  0
 12 17  4  0  0  0
 13 14  4  0  0  0
 14 15  4  0  0  0
 15 16  4  0  0  0
 16 17  4  0  0  0
 18 19  1  0  0  0
 19 20  1  0  0  0
 19 23  1  0  0  0
 20 21  1  0  0  0
 20 25  1  0  0  0
 21 22  1  0  0  0
 23 24  1  0  0  0
 26 27  1  0  0  0
 26 28  1  0  0  0
  4 29  1  0  0  0
  9 30  1  0  0  0
 10 31  1  0  0  0
 11 32  1  0  0  0
 11 33  1  0  0  0
 13 34  1  0  0  0
 14 35  1  0  0  0
 15 36  1  0  0  0
 16 37  1  0  0  0
 17 38  1  0  0  0
 18 39  1  0  0  0
 19 40  1  0  0  0
 20 41  1  0  0  0
 21 42  1  0  0  0
 21 43  1  0  0  0
 22 44  1  0  0  0
 23 45  1  0  0  0
 23 46  1  0  0  0
 24 47  1  0  0  0
 25 48  1  0  0  0
 26 49  1  0  0  0
 27 50  1  0  0  0
 27 51  1  0  0  0
 27 52  1  0  0  0
 28 53  1  0  0  0
 28 54  1  0  0  0
 28 55  1  0  0  0
M  END
$$$$
