3hzv_ligand
  -I-interpret- 

 66 67  0  0  0  0  0  0  0  0999 V2000
   -5.8980   -0.3640    6.1960 C   0  0  0  0  0
   -6.3440   -1.4660    6.5930 O   0  0  0  0  0
   -4.7320    0.0400    6.3340 O   0  0  0  0  0
   -6.8730    0.5460    5.4430 C   0  0  0  0  0
   -6.7460    0.2570    3.9520 C   0  0  0  0  0
   -7.7800    1.0310    3.1750 C   0  0  0  0  0
   -7.5950    0.7230    1.7850 O   0  0  0  0  0
   -9.1830    0.6510    3.6900 C   0  0  0  0  0
   -9.4300   -0.7620    3.5430 O   0  0  0  0  0
   -9.2350    1.0250    5.1690 C   0  0  0  0  0
   -8.2180    0.3000    5.8810 O   0  0  0  0  0
  -10.5720    0.7080    5.8370 C   0  0  0  0  0
  -11.6590    1.3740    5.1900 O   0  0  0  0  0
  -10.4750    1.1780    7.2950 C   0  0  0  0  0
  -11.6980    0.9140    7.9900 O   0  0  0  0  0
   -6.6560    1.9800    5.6360 O   0  0  0  0  0
   -6.9570    2.5550    6.9420 C   0  0  0  0  0
   -6.2780    1.8200    8.0970 C   0  0  0  0  0
   -6.9240    2.0490    9.4700 C   0  0  0  0  0
   -9.7360    0.2300    0.5980 C   0  0  0  0  0
  -10.7680    0.7970    0.1820 O   0  0  0  0  0
   -9.6210   -0.9790    0.8880 O   0  0  0  0  0
   -8.5040    1.1230    0.7290 C   0  0  0  0  0
   -7.7140    1.0530   -0.5890 C   0  0  0  0  0
   -6.5240    2.0290   -0.5220 C   0  0  0  0  0
   -5.8120    2.0120   -1.7550 O   0  0  0  0  0
   -7.1580    3.4070   -0.3120 C   0  0  0  0  0
   -7.9940    3.7550   -1.4260 O   0  0  0  0  0
   -7.9700    3.4260    0.9740 C   0  0  0  0  0
   -8.9950    2.4440    0.9390 O   0  0  0  0  0
   -8.6310    4.7890    1.1920 C   0  0  0  0  0
   -7.6840    5.8570    1.0900 O   0  0  0  0  0
   -9.3770    4.8270    2.5360 C   0  0  0  0  0
  -10.1430    6.0300    2.5510 O   0  0  0  0  0
   -7.2735   -1.5353    6.3630 H   0  0  0  0  0
   -6.9003   -0.8087    3.7832 H   0  0  0  0  0
   -5.7531    0.5563    3.6163 H   0  0  0  0  0
   -7.6751    2.1080    3.3062 H   0  0  0  0  0
   -9.9437    1.1785    3.1145 H   0  0  0  0  0
   -9.3971   -0.9964    2.6126 H   0  0  0  0  0
   -9.0843    2.1038    5.2101 H   0  0  0  0  0
  -10.7665   -0.3625    5.7714 H   0  0  0  0  0
  -12.4798    1.1518    5.6356 H   0  0  0  0  0
  -10.2847    2.2512    7.3089 H   0  0  0  0  0
   -9.6650    0.6396    7.7872 H   0  0  0  0  0
  -11.6196    1.2138    8.8986 H   0  0  0  0  0
   -8.0340    2.4829    7.0934 H   0  0  0  0  0
   -6.5893    3.5811    6.9429 H   0  0  0  0  0
   -5.2580    2.1993    8.1588 H   0  0  0  0  0
   -6.3549    0.7538    7.8838 H   0  0  0  0  0
   -6.8950    3.1116    9.7111 H   0  0  0  0  0
   -7.9593    1.7091    9.4442 H   0  0  0  0  0
   -6.3749    1.4884   10.2265 H   0  0  0  0  0
  -10.5839    1.7279    0.0368 H   0  0  0  0  0
   -8.3646    1.3275   -1.4193 H   0  0  0  0  0
   -7.3456    0.0383   -0.7400 H   0  0  0  0  0
   -5.8208    1.7684    0.2691 H   0  0  0  0  0
   -5.0727    2.6224   -1.7048 H   0  0  0  0  0
   -6.3573    4.1425   -0.2349 H   0  0  0  0  0
   -8.3815    4.6204   -1.2758 H   0  0  0  0  0
   -7.2762    3.2173    1.7884 H   0  0  0  0  0
   -9.3632    4.9329    0.3974 H   0  0  0  0  0
   -8.1314    6.6945    1.2316 H   0  0  0  0  0
   -8.6743    4.8057    3.3690 H   0  0  0  0  0
  -10.0231    3.9559    2.6443 H   0  0  0  0  0
  -10.6257    6.0904    3.3786 H   0  0  0  0  0
  1  2  1  0  0  0
  1  3  2  0  0  0
  4  1  1  0  0  0
  5  4  1  0  0  0
  4 11  1  0  0  0
  4 16  1  0  0  0
  6  5  1  0  0  0
  7  6  1  0  0  0
  6  8  1  0  0  0
 23  7  1  0  0  0
  8  9  1  0  0  0
  8 10  1  0  0  0
 10 11  1  0  0  0
 10 12  1  0  0  0
 12 13  1  0  0  0
 12 14  1  0  0  0
 14 15  1  0  0  0
 16 17  1  0  0  0
 17 18  1  0  0  0
 18 19  1  0  0  0
 20 21  1  0  0  0
 20 22  2  0  0  0
 20 23  1  0  0  0
 23 24  1  0  0  0
 23 30  1  0  0  0
 24 25  1  0  0  0
 25 26  1  0  0  0
 25 27  1  0  0  0
 27 28  1  0  0  0
 27 29  1  0  0  0
 29 30  1  0  0  0
 29 31  1  0  0  0
 31 32  1  0  0  0
 31 33  1  0  0  0
 33 34  1  0  0  0
  2 35  1  0  0  0
  5 36  1  0  0  0
  5 37  1  0  0  0
  6 38  1  0  0  0
  8 39  1  0  0  0
  9 40  1  0  0  0
 10 41  1  0  0  0
 12 42  1  0  0  0
 13 43  1  0  0  0
 14 44  1  0  0  0
 14 45  1  0  0  0
 15 46  1  0  0  0
 17 47  1  0  0  0
 17 48  1  0  0  0
 18 49  1  0  0  0
 18 50  1  0  0  0
 19 51  1  0  0  0
 19 52  1  0  0  0
 19 53  1  0  0  0
 21 54  1  0  0  0
 24 55  1  0  0  0
 24 56  1  0  0  0
 25 57  1  0  0  0
 26 58  1  0  0  0
 27 59  1  0  0  0
 28 60  1  0  0  0
 29 61  1  0  0  0
 31 62  1  0  0  0
 32 63  1  0  0  0
 33 64  1  0  0  0
 33 65  1  0  0  0
 34 66  1  0  0  0
M  END
$$$$
