4gsy_ligand
  -I-interpret- 

 61 64  0  0  0  0  0  0  0  0999 V2000
   10.4360   -1.8490   26.9760 C   0  0  0  0  0
    8.5930    1.3120   31.5470 C   0  0  0  0  0
   11.4580   -1.7330   26.0560 C   0  0  0  0  0
    7.5450    1.9700   30.9520 C   0  0  0  0  0
   10.2620   -0.8360   27.9070 C   0  0  0  0  0
    8.7880    2.1430   28.9040 C   0  0  0  0  0
   12.1160    0.3760   26.9800 C   0  0  0  0  0
    9.7440    1.0760   30.8280 C   0  0  0  0  0
    7.6270    2.3630   29.6260 C   0  0  0  0  0
   12.2990   -0.6310   26.0460 C   0  0  0  0  0
   11.0990    0.2680   27.8950 C   0  0  0  0  0
    9.8450    1.4950   29.5070 C   0  0  0  0  0
    6.0440   -1.1570   25.4220 C   0  0  0  0  0
    6.5210   -1.8920   24.4060 C   0  0  0  0  0
    6.4170   -1.2840   23.0520 C   0  0  0  0  0
    5.4290    0.7530   24.0690 C   0  0  0  0  0
   10.8300    0.4440   31.5790 C   0  0  0  0  0
    3.5580    0.6920   28.5700 C   0  0  0  0  0
    4.0370   -0.0500   27.3240 C   0  0  0  0  0
    4.7240    1.3610   29.2750 C   0  0  0  0  0
    6.0520    1.4770   27.2550 C   0  0  0  0  0
    4.9600    0.8100   26.4490 C   0  0  0  0  0
    7.1030   -3.2620   24.5520 C   0  0  0  0  0
    6.4640    3.0610   28.9950 C   0  0  0  0  0
   13.3780   -0.4880   25.0290 C   0  0  0  0  0
    5.8600   -0.0090   23.0080 N   0  0  0  0  0
    5.5030    0.1180   25.3030 N   0  0  0  0  0
    5.4320    2.2550   28.3390 N   0  3  0  0  0
    6.8100   -1.8800   22.0620 O   0  0  0  0  0
    5.0370    1.9130   23.9200 O   0  0  0  0  0
   11.2560    0.9120   32.6250 O   0  0  0  0  0
   11.2710   -0.6930   30.9910 O   0  0  0  0  0
   11.0090    1.3360   28.7760 O   0  0  0  0  0
   12.9850   -0.8360   23.7730 F   0  0  0  0  0
   13.8170    0.7830   24.8620 F   0  0  0  0  0
   14.4680   -1.2260   25.3200 F   0  0  0  0  0
    9.7791   -2.7188   26.9710 H   0  0  0  0  0
    8.5147    0.9785   32.5818 H   0  0  0  0  0
   11.6071   -2.5246   25.3217 H   0  0  0  0  0
    6.6436    2.1843   31.5261 H   0  0  0  0  0
    9.4664   -0.9084   28.6485 H   0  0  0  0  0
    8.8654    2.4786   27.8698 H   0  0  0  0  0
   12.7734    1.2454   26.9879 H   0  0  0  0  0
    6.0838   -1.5942   26.4197 H   0  0  0  0  0
    3.0967   -0.0230   29.2512 H   0  0  0  0  0
    2.8402    1.4562   28.2718 H   0  0  0  0  0
    3.1611   -0.3146   26.7316 H   0  0  0  0  0
    4.5994   -0.9255   27.6483 H   0  0  0  0  0
    5.4138    0.5966   29.6328 H   0  0  0  0  0
    4.3484    1.9453   30.1150 H   0  0  0  0  0
    6.6348    2.1372   26.6127 H   0  0  0  0  0
    6.7156    0.7212   27.6752 H   0  0  0  0  0
    4.3130    1.5890   26.0457 H   0  0  0  0  0
    7.9667   -3.2196   25.2156 H   0  0  0  0  0
    6.3525   -3.9313   24.9726 H   0  0  0  0  0
    7.4125   -3.6300   23.5738 H   0  0  0  0  0
    6.8958    3.6697   28.2006 H   0  0  0  0  0
    5.9529    3.5607   29.8179 H   0  0  0  0  0
    5.7600    0.4082   22.0826 H   0  0  0  0  0
    4.7288    2.8910   27.9629 H   0  0  0  0  0
   10.7779   -0.8453   30.1815 H   0  0  0  0  0
  1  3  4  0  0  0
  5  1  4  0  0  0
  4  2  4  0  0  0
  2  8  4  0  0  0
 10  3  4  0  0  0
  9  4  4  0  0  0
 11  5  4  0  0  0
  9  6  4  0  0  0
  6 12  4  0  0  0
  7 10  4  0  0  0
 11  7  4  0  0  0
 12  8  4  0  0  0
  8 17  1  0  0  0
 24  9  1  0  0  0
 10 25  1  0  0  0
 33 11  1  0  0  0
 12 33  1  0  0  0
 13 14  2  0  0  0
 27 13  1  0  0  0
 14 15  1  0  0  0
 14 23  1  0  0  0
 26 15  1  0  0  0
 15 29  2  0  0  0
 16 26  1  0  0  0
 27 16  1  0  0  0
 16 30  2  0  0  0
 17 31  2  0  0  0
 17 32  1  0  0  0
 18 19  1  0  0  0
 20 18  1  0  0  0
 22 19  1  0  0  0
 28 20  1  0  0  0
 21 22  1  0  0  0
 28 21  1  0  0  0
 22 27  1  0  0  0
 24 28  1  0  0  0
 25 34  1  0  0  0
 25 35  1  0  0  0
 25 36  1  0  0  0
  1 37  1  0  0  0
  2 38  1  0  0  0
  3 39  1  0  0  0
  4 40  1  0  0  0
  5 41  1  0  0  0
  6 42  1  0  0  0
  7 43  1  0  0  0
 13 44  1  0  0  0
 18 45  1  0  0  0
 18 46  1  0  0  0
 19 47  1  0  0  0
 19 48  1  0  0  0
 20 49  1  0  0  0
 20 50  1  0  0  0
 21 51  1  0  0  0
 21 52  1  0  0  0
 22 53  1  0  0  0
 23 54  1  0  0  0
 23 55  1  0  0  0
 23 56  1  0  0  0
 24 57  1  0  0  0
 24 58  1  0  0  0
 26 59  1  0  0  0
 28 60  1  0  0  0
 32 61  1  0  0  0
M  END
$$$$
