### 
### Created by X-TOOL on Mon Sep 10 21:13:10 2018
### 

@<TRIPOS>MOLECULE
4gsy_ligand
   59    62     1     0     0
SMALL
GAST_HUCK


@<TRIPOS>ATOM
      1 C26        10.4360   -1.8490   26.9760 C.ar      1 0Y5        -0.0382
      2 C19         8.5930    1.3120   31.5470 C.ar      1 0Y5        -0.0616
      3 C27        11.4580   -1.7330   26.0560 C.ar      1 0Y5        -0.0407
      4 C18         7.5450    1.9700   30.9520 C.ar      1 0Y5        -0.0688
      5 C25        10.2620   -0.8360   27.9070 C.ar      1 0Y5         0.0012
      6 C22         8.7880    2.1430   28.9040 C.ar      1 0Y5        -0.0254
      7 C29        12.1160    0.3760   26.9800 C.ar      1 0Y5         0.0011
      8 C20         9.7440    1.0760   30.8280 C.ar      1 0Y5         0.0364
      9 C17         7.6270    2.3630   29.6260 C.ar      1 0Y5        -0.0682
     10 C28        12.2990   -0.6310   26.0460 C.ar      1 0Y5         0.0397
     11 C24        11.0990    0.2680   27.8950 C.ar      1 0Y5         0.1453
     12 C21         9.8450    1.4950   29.5070 C.ar      1 0Y5         0.1252
     13 C3          6.0440   -1.1570   25.4220 C.2       1 0Y5         0.0500
     14 C2          6.5210   -1.8920   24.4060 C.2       1 0Y5         0.0224
     15 C8          6.4170   -1.2840   23.0520 C.2       1 0Y5         0.1930
     16 C5          5.4290    0.7530   24.0690 C.2       1 0Y5         0.3246
     17 C34        10.8300    0.4440   31.5790 C.2       1 0Y5         0.0546
     18 C12         3.5580    0.6920   28.5700 C.3       1 0Y5        -0.0689
     19 C11         4.0370   -0.0500   27.3240 C.3       1 0Y5        -0.0268
     20 C13         4.7240    1.3610   29.2750 C.3       1 0Y5        -0.1100
     21 C15         6.0520    1.4770   27.2550 C.3       1 0Y5        -0.0797
     22 C10         4.9600    0.8100   26.4490 C.3       1 0Y5         0.0542
     23 C1          7.1030   -3.2620   24.5520 C.3       1 0Y5        -0.0437
     24 C16         6.4640    3.0610   28.9950 C.3       1 0Y5        -0.0771
     25 C30        13.3780   -0.4880   25.0290 C.3       1 0Y5         0.3741
     26 N7          5.8600   -0.0090   23.0080 N.am      1 0Y5        -0.1860
     27 N4          5.5030    0.1180   25.3030 N.am      1 0Y5        -0.1998
     28 N14         5.4320    2.2550   28.3390 N.4       1 0Y5         0.4101
     29 O9          6.8100   -1.8800   22.0620 O.2       1 0Y5        -0.4079
     30 O6          5.0370    1.9130   23.9200 O.2       1 0Y5        -0.3843
     31 O35        11.2560    0.9120   32.6250 O.co2     1 0Y5        -0.5658
     32 O36        11.2710   -0.6930   30.9910 O.co2     1 0Y5        -0.5658
     33 O23        11.0090    1.3360   28.7760 O.3       1 0Y5        -0.2493
     34 F31        12.9850   -0.8360   23.7730 F         1 0Y5        -0.2206
     35 F32        13.8170    0.7830   24.8620 F         1 0Y5        -0.2206
     36 F33        14.4680   -1.2260   25.3200 F         1 0Y5        -0.2206
     37 H           9.7791   -2.7188   26.9710 H         1 0Y5         0.0675
     38 H           8.5147    0.9785   32.5818 H         1 0Y5         0.0608
     39 H          11.6071   -2.5246   25.3217 H         1 0Y5         0.0776
     40 H           6.6436    2.1843   31.5261 H         1 0Y5         0.0478
     41 H           9.4664   -0.9084   28.6485 H         1 0Y5         0.0804
     42 H           8.8654    2.4786   27.8698 H         1 0Y5         0.0495
     43 H          12.7734    1.2454   26.9879 H         1 0Y5         0.0770
     44 H           6.0838   -1.5942   26.4197 H         1 0Y5         0.1010
     45 H           3.0967   -0.0230   29.2512 H         1 0Y5         0.0247
     46 H           2.8402    1.4562   28.2718 H         1 0Y5         0.0247
     47 H           3.1611   -0.3146   26.7316 H         1 0Y5         0.0292
     48 H           4.5994   -0.9255   27.6483 H         1 0Y5         0.0292
     49 H           5.4138    0.5966   29.6328 H         1 0Y5         0.0020
     50 H           4.3484    1.9453   30.1150 H         1 0Y5         0.0020
     51 H           6.6348    2.1372   26.6127 H         1 0Y5         0.0049
     52 H           6.7156    0.7212   27.6752 H         1 0Y5         0.0049
     53 H           4.3130    1.5890   26.0457 H         1 0Y5         0.0621
     54 H           7.9667   -3.2196   25.2156 H         1 0Y5         0.0296
     55 H           6.3525   -3.9313   24.9726 H         1 0Y5         0.0296
     56 H           7.4125   -3.6300   23.5738 H         1 0Y5         0.0296
     57 H           6.8958    3.6697   28.2006 H         1 0Y5         0.0187
     58 H           5.9529    3.5607   29.8179 H         1 0Y5         0.0187
     59 H           5.7600    0.4082   22.0826 H         1 0Y5         0.2259
@<TRIPOS>BOND
     1    1    3 ar 
     2    5    1 ar 
     3    4    2 ar 
     4    2    8 ar 
     5   10    3 ar 
     6    9    4 ar 
     7   11    5 ar 
     8    9    6 ar 
     9    6   12 ar 
    10    7   10 ar 
    11   11    7 ar 
    12   12    8 ar 
    13    8   17 1  
    14   24    9 1  
    15   10   25 1  
    16   33   11 1  
    17   12   33 1  
    18   13   14 2  
    19   27   13 1  
    20   14   15 1  
    21   14   23 1  
    22   26   15 am 
    23   15   29 2  
    24   16   26 am 
    25   27   16 am 
    26   16   30 2  
    27   17   31 ar 
    28   17   32 ar 
    29   18   19 1  
    30   20   18 1  
    31   22   19 1  
    32   28   20 1  
    33   21   22 1  
    34   28   21 1  
    35   22   27 1  
    36   24   28 1  
    37   25   34 1  
    38   25   35 1  
    39   25   36 1  
    40    1   37 1  
    41    2   38 1  
    42    3   39 1  
    43    4   40 1  
    44    5   41 1  
    45    6   42 1  
    46    7   43 1  
    47   13   44 1  
    48   18   45 1  
    49   18   46 1  
    50   19   47 1  
    51   19   48 1  
    52   20   49 1  
    53   20   50 1  
    54   21   51 1  
    55   21   52 1  
    56   22   53 1  
    57   23   54 1  
    58   23   55 1  
    59   23   56 1  
    60   24   57 1  
    61   24   58 1  
    62   26   59 1  
@<TRIPOS>SUBSTRUCTURE
     1 0Y5         1

