6gop_ligand
  -I-interpret- 

 46 47  0  0  0  0  0  0  0  0999 V2000
   62.7660 -137.5940   41.8480 C   0  0  0  0  0
   64.1270 -138.1550   41.4150 C   0  0  0  0  0
   62.7200 -136.1280   42.2640 C   0  0  0  0  0
   63.6210 -135.1520   41.4150 C   0  0  0  0  0
   62.7730 -133.0980   42.6130 C   0  0  0  0  0
   65.0030 -131.6820   41.9800 C   0  0  0  0  0
   59.8790 -140.9450   41.5460 C   0  0  0  0  0
   59.1440 -141.2860   43.1560 Cl  0  0  0  0  0
   60.2550 -139.4900   41.5950 C   0  0  0  0  0
   61.1980 -139.0560   40.4540 C   0  0  0  0  0
   61.7600 -137.6370   40.6860 C   0  0  0  0  0
   62.3560 -138.3710   43.0000 O   0  0  0  0  0
   60.8020 -136.6910   41.0690 C   0  0  0  0  0
   59.6500 -136.6330   40.6340 O   0  0  0  0  0
   61.2880 -135.8260   41.9590 N   0  0  0  0  0
   62.9500 -136.0520   43.6620 C   0  0  0  0  0
   62.1120 -135.5540   44.4220 O   0  0  0  0  0
   63.0600 -134.9020   40.1120 O   0  0  0  0  0
   63.8980 -133.8050   42.1390 C   0  0  0  0  0
   64.7800 -132.9990   41.2560 C   0  0  0  0  0
   63.7350 -130.9460   42.1670 C   0  0  0  0  0
   62.7260 -131.7270   42.7050 C   0  0  0  0  0
   64.0064 -139.1894   41.0932 H   0  0  0  0  0
   64.5181 -137.5597   40.5899 H   0  0  0  0  0
   64.8199 -138.1130   42.2554 H   0  0  0  0  0
   64.5749 -135.6652   41.2933 H   0  0  0  0  0
   61.8965 -133.6676   42.9220 H   0  0  0  0  0
   65.6741 -131.0673   41.3801 H   0  0  0  0  0
   65.4270 -131.8947   42.9614 H   0  0  0  0  0
   59.1871 -141.1578   40.7311 H   0  0  0  0  0
   60.7428 -141.5807   41.3517 H   0  0  0  0  0
   60.7801 -139.3200   42.5349 H   0  0  0  0  0
   59.3362 -138.9119   41.4968 H   0  0  0  0  0
   60.6315 -139.0529   39.5228 H   0  0  0  0  0
   62.0340 -139.7543   40.4152 H   0  0  0  0  0
   62.1952 -137.3992   39.7154 H   0  0  0  0  0
   63.0245 -138.3019   43.6855 H   0  0  0  0  0
   60.7555 -135.0621   42.3753 H   0  0  0  0  0
   63.8821 -136.4396   44.0731 H   0  0  0  0  0
   62.8918 -135.7382   39.6714 H   0  0  0  0  0
   64.3951 -134.0352   43.0813 H   0  0  0  0  0
   65.7235 -133.5106   41.0659 H   0  0  0  0  0
   64.3236 -132.8409   40.2789 H   0  0  0  0  0
   63.4025 -130.6058   41.1863 H   0  0  0  0  0
   63.9266 -130.1286   42.8621 H   0  0  0  0  0
   61.8848 -131.2493   43.2072 H   0  0  0  0  0
  1  2  1  0  0  0
  3  1  1  0  0  0
  1 11  1  0  0  0
  1 12  1  0  0  0
  4  3  1  0  0  0
  3 15  1  0  0  0
  3 16  1  0  0  0
  4 18  1  0  0  0
 19  4  1  0  0  0
 19  5  1  0  0  0
  5 22  2  0  0  0
 20  6  1  0  0  0
  6 21  1  0  0  0
  7  8  1  0  0  0
  9  7  1  0  0  0
 10  9  1  0  0  0
 11 10  1  0  0  0
 13 11  1  0  0  0
 13 14  2  0  0  0
 15 13  1  0  0  0
 16 17  2  0  0  0
 19 20  1  0  0  0
 21 22  1  0  0  0
  2 23  1  0  0  0
  2 24  1  0  0  0
  2 25  1  0  0  0
  4 26  1  0  0  0
  5 27  1  0  0  0
  6 28  1  0  0  0
  6 29  1  0  0  0
  7 30  1  0  0  0
  7 31  1  0  0  0
  9 32  1  0  0  0
  9 33  1  0  0  0
 10 34  1  0  0  0
 10 35  1  0  0  0
 11 36  1  0  0  0
 12 37  1  0  0  0
 15 38  1  0  0  0
 16 39  1  0  0  0
 18 40  1  0  0  0
 19 41  1  0  0  0
 20 42  1  0  0  0
 20 43  1  0  0  0
 21 44  1  0  0  0
 21 45  1  0  0  0
 22 46  1  0  0  0
M  END
$$$$
