4ovh_ligand
  -I-interpret- 

 42 44  0  0  0  0  0  0  0  0999 V2000
  -34.8870   -9.9000   -8.9910 O   0  0  0  0  0
  -33.7410   -9.6430   -9.4140 C   0  0  0  0  0
  -32.7250   -9.4300   -8.7250 O   0  0  0  0  0
  -33.4890   -9.7640  -10.8590 C   0  0  0  0  0
  -33.0520   -8.4800  -11.4310 N   0  0  0  0  0
  -32.4370   -8.4920  -12.6180 C   0  0  0  0  0
  -32.4240   -9.4930  -13.3160 O   0  0  0  0  0
  -31.8310   -7.2330  -13.1560 C   0  0  0  0  0
  -31.2520   -6.4170  -12.0040 N   0  0  0  0  0
  -30.2160   -6.6380  -11.1730 C   0  0  0  0  0
  -29.3410   -7.7340  -11.1170 C   0  0  0  0  0
  -28.1280   -7.4300  -10.1840 C   0  0  0  0  0
  -27.3190   -8.6860   -9.7820 C   0  0  0  0  0
  -27.8690   -9.8100   -9.8920 O   0  0  0  0  0
  -26.1520   -8.4830   -9.3670 O   0  0  0  0  0
  -28.6120   -6.7570   -8.9300 C   0  0  0  0  0
  -29.1970   -5.4300   -9.3240 C   0  0  0  0  0
  -30.1540   -5.5740  -10.3390 C   0  0  0  0  0
  -31.1310   -4.7240  -10.6580 C   0  0  0  0  0
  -31.8030   -5.2520  -11.6910 C   0  0  0  0  0
  -32.8510   -4.6220  -12.2290 C   0  0  0  0  0
  -33.2550   -3.4070  -11.7290 C   0  0  0  0  0
  -32.5800   -2.8470  -10.6750 C   0  0  0  0  0
  -33.2350   -1.2140  -10.0920 Br  0  0  0  0  0
  -31.4890   -3.5340  -10.1320 C   0  0  0  0  0
  -35.4820  -10.0200   -9.7348 H   0  0  0  0  0
  -34.4138  -10.0674  -11.3498 H   0  0  0  0  0
  -32.7012  -10.5010  -11.0148 H   0  0  0  0  0
  -33.2142   -7.6038  -10.9346 H   0  0  0  0  0
  -32.5971   -6.6494  -13.6665 H   0  0  0  0  0
  -31.0373   -7.4829  -13.8601 H   0  0  0  0  0
  -28.9689   -7.9374  -12.1211 H   0  0  0  0  0
  -29.8810   -8.5941  -10.7212 H   0  0  0  0  0
  -27.4622   -6.7845  -10.7568 H   0  0  0  0  0
  -28.7600   -9.6972  -10.2311 H   0  0  0  0  0
  -27.7875   -6.6168   -8.2310 H   0  0  0  0  0
  -29.3631   -7.3717   -8.4340 H   0  0  0  0  0
  -28.3932   -4.7934   -9.6938 H   0  0  0  0  0
  -29.6813   -4.9922   -8.4511 H   0  0  0  0  0
  -33.3862   -5.0718  -13.0652 H   0  0  0  0  0
  -34.1085   -2.8908  -12.1686 H   0  0  0  0  0
  -30.9344   -3.1128   -9.2935 H   0  0  0  0  0
  1  2  1  0  0  0
  2  3  2  0  0  0
  2  4  1  0  0  0
  4  5  1  0  0  0
  5  6  1  0  0  0
  6  7  2  0  0  0
  6  8  1  0  0  0
  8  9  1  0  0  0
  9 10  4  0  0  0
  9 20  4  0  0  0
 10 11  1  0  0  0
 10 18  4  0  0  0
 11 12  1  0  0  0
 12 13  1  0  0  0
 12 16  1  0  0  0
 13 14  1  0  0  0
 13 15  2  0  0  0
 16 17  1  0  0  0
 17 18  1  0  0  0
 18 19  4  0  0  0
 19 20  4  0  0  0
 19 25  4  0  0  0
 20 21  4  0  0  0
 21 22  4  0  0  0
 22 23  4  0  0  0
 23 24  1  0  0  0
 23 25  4  0  0  0
  1 26  1  0  0  0
  4 27  1  0  0  0
  4 28  1  0  0  0
  5 29  1  0  0  0
  8 30  1  0  0  0
  8 31  1  0  0  0
 11 32  1  0  0  0
 11 33  1  0  0  0
 12 34  1  0  0  0
 14 35  1  0  0  0
 16 36  1  0  0  0
 16 37  1  0  0  0
 17 38  1  0  0  0
 17 39  1  0  0  0
 21 40  1  0  0  0
 22 41  1  0  0  0
 25 42  1  0  0  0
M  END
$$$$
