1g2a_ligand
  -I-interpret- 

 62 62  0  0  0  0  0  0  0  0999 V2000
   42.4640    3.5630   14.5930 C   0  0  0  0  0
   42.2320    3.0330   16.0140 C   0  0  0  0  0
   41.2580    3.5170   16.6180 O   0  0  0  0  0
   42.8500    1.9350   16.4260 N   0  0  0  0  0
   42.7700    1.4900   17.5700 O   0  0  0  0  0
   43.3060    4.8970   14.6740 C   0  0  0  0  0
   43.4070    5.6930   13.3660 C   0  0  0  0  0
   43.2940    5.1690   12.2660 O   0  0  0  0  0
   44.7560    4.3510   14.9070 C   0  0  0  0  0
   45.7250    5.5210   15.1510 C   0  0  0  0  0
   47.1440    5.0270   15.4050 C   0  0  0  0  0
   48.0630    6.1120   15.9640 C   0  0  0  0  0
   48.2490    7.2670   15.0410 C   0  0  0  0  0
   43.3670    7.0010   13.5050 N   0  0  0  0  0
   43.6770    7.9330   12.4360 C   0  0  0  0  0
   42.4910    8.8180   12.0470 C   0  0  0  0  0
   41.8520    9.4370   13.2720 C   0  0  0  0  0
   41.4970    7.9190   11.3110 C   0  0  0  0  0
   44.8490    8.7940   12.9120 C   0  0  0  0  0
   44.9400    9.1160   14.0910 O   0  0  0  0  0
   45.7120    9.1780   11.9970 N   0  0  0  0  0
   46.8910    9.9700   12.3090 C   0  0  0  0  0
   45.6620    8.7700   10.5660 C   0  0  0  0  0
   46.8650    9.4690    9.9800 C   0  0  0  0  0
   47.8080    9.6480   11.1280 C   0  0  0  0  0
   46.6350   11.4650   12.4260 C   0  0  0  0  0
   47.5670   12.1760   12.9050 O   0  0  0  0  0
   43.0062    2.8206   14.0073 H   0  0  0  0  0
   41.5056    3.7614   14.1132 H   0  0  0  0  0
   43.4265    1.4287   15.7540 H   0  0  0  0  0
   43.2977    0.6910   17.6390 H   0  0  0  0  0
   42.8565    5.5585   15.4146 H   0  0  0  0  0
   45.0770    3.7971   14.0248 H   0  0  0  0  0
   44.7573    3.6962   15.7784 H   0  0  0  0  0
   45.3882    6.0708   16.0299 H   0  0  0  0  0
   45.7332    6.1534   14.2633 H   0  0  0  0  0
   47.5577    4.7007   14.4508 H   0  0  0  0  0
   47.0896    4.2258   16.1421 H   0  0  0  0  0
   49.0420    5.6608   16.1256 H   0  0  0  0  0
   47.6036    6.4924   16.8763 H   0  0  0  0  0
   48.6874    6.9167   14.1065 H   0  0  0  0  0
   47.2825    7.7289   14.8397 H   0  0  0  0  0
   48.9128    7.9972   15.5040 H   0  0  0  0  0
   43.1036    7.3810   14.4142 H   0  0  0  0  0
   43.9291    7.3683   11.5384 H   0  0  0  0  0
   42.8146    9.6434   11.4128 H   0  0  0  0  0
   41.4974    8.6468   13.9338 H   0  0  0  0  0
   42.5881   10.0475   13.7949 H   0  0  0  0  0
   41.0121   10.0608   12.9661 H   0  0  0  0  0
   41.9753    7.4987   10.4263 H   0  0  0  0  0
   41.1801    7.1124   11.9721 H   0  0  0  0  0
   40.6296    8.5073   11.0117 H   0  0  0  0  0
   47.2999    9.7248   13.2892 H   0  0  0  0  0
   44.7284    9.0478   10.0768 H   0  0  0  0  0
   45.6904    7.6888   10.4307 H   0  0  0  0  0
   47.3156    8.8894    9.1744 H   0  0  0  0  0
   46.5960   10.4229    9.5263 H   0  0  0  0  0
   48.4171    8.7617   11.3060 H   0  0  0  0  0
   48.5393   10.4352   10.9446 H   0  0  0  0  0
   45.7985   11.5688   13.1171 H   0  0  0  0  0
   46.4858   11.8204   11.4064 H   0  0  0  0  0
   47.2880   13.0943   12.9279 H   0  0  0  0  0
  1  6  1  0  0  0
  1  2  1  0  0  0
  2  4  1  0  0  0
  2  3  2  0  0  0
  4  5  1  0  0  0
  6  9  1  0  0  0
  6  7  1  0  0  0
  7 14  1  0  0  0
  7  8  2  0  0  0
 14 15  1  0  0  0
 15 19  1  0  0  0
 15 16  1  0  0  0
 16 18  1  0  0  0
 16 17  1  0  0  0
 19 21  1  0  0  0
 19 20  2  0  0  0
 21 23  1  0  0  0
 21 22  1  0  0  0
 22 26  1  0  0  0
 22 25  1  0  0  0
 25 24  1  0  0  0
 24 23  1  0  0  0
 26 27  1  0  0  0
  9 10  1  0  0  0
 10 11  1  0  0  0
 11 12  1  0  0  0
 12 13  1  0  0  0
  1 28  1  0  0  0
  1 29  1  0  0  0
  4 30  1  0  0  0
  5 31  1  0  0  0
  6 32  1  0  0  0
  9 33  1  0  0  0
  9 34  1  0  0  0
 10 35  1  0  0  0
 10 36  1  0  0  0
 11 37  1  0  0  0
 11 38  1  0  0  0
 12 39  1  0  0  0
 12 40  1  0  0  0
 13 41  1  0  0  0
 13 42  1  0  0  0
 13 43  1  0  0  0
 14 44  1  0  0  0
 15 45  1  0  0  0
 16 46  1  0  0  0
 17 47  1  0  0  0
 17 48  1  0  0  0
 17 49  1  0  0  0
 18 50  1  0  0  0
 18 51  1  0  0  0
 18 52  1  0  0  0
 22 53  1  0  0  0
 23 54  1  0  0  0
 23 55  1  0  0  0
 24 56  1  0  0  0
 24 57  1  0  0  0
 25 58  1  0  0  0
 25 59  1  0  0  0
 26 60  1  0  0  0
 26 61  1  0  0  0
 27 62  1  0  0  0
M  END
$$$$
