1mxl_ligand
  -I-interpret- 

261260  0  0  0  0  0  0  0  0999 V2000
   53.7630    4.3340    6.7510 N   0  3  0  0  0
   54.3680    5.6860    6.9270 C   0  0  0  0  0
   54.9360    6.1850    5.5950 C   0  0  0  0  0
   55.7340    7.1000    5.5550 O   0  0  0  0  0
   55.4870    5.4910    7.9490 C   0  0  0  0  0
   55.7350    6.8050    8.6940 C   0  0  0  0  0
   56.8850    7.5640    8.0280 C   0  0  0  0  0
   57.4680    8.4050    9.1100 N   0  0  0  0  0
   57.9210    9.5980    8.8400 C   0  0  0  0  0
   59.1390    9.7510    8.3980 N   0  0  0  0  0
   57.1560   10.6410    9.0140 N   0  0  0  0  0
   54.5320    5.5890    4.5070 N   0  0  0  0  0
   55.0500    6.0280    3.1790 C   0  0  0  0  0
   53.9170    6.6300    2.3430 C   0  0  0  0  0
   53.8840    6.4940    1.1370 O   0  0  0  0  0
   55.5830    4.7540    2.5220 C   0  0  0  0  0
   56.4830    4.0100    3.5110 C   0  0  0  0  0
   56.3920    5.1200    1.2760 C   0  0  0  0  0
   57.7740    4.8040    3.7220 C   0  0  0  0  0
   52.9890    7.2940    2.9760 N   0  0  0  0  0
   51.8610    7.9030    2.2150 C   0  0  0  0  0
   51.3270    6.9080    1.1810 C   0  0  0  0  0
   51.4880    7.0860   -0.0100 O   0  0  0  0  0
   52.4630    9.1250    1.5240 C   0  0  0  0  0
   51.6330   10.2540    1.7610 O   0  0  0  0  0
   50.6940    5.8590    1.6300 N   0  0  0  0  0
   50.1510    4.8480    0.6770 C   0  0  0  0  0
   49.2990    5.5280   -0.3990 C   0  0  0  0  0
   49.2590    5.0980   -1.5340 O   0  0  0  0  0
   49.2880    3.9230    1.5370 C   0  0  0  0  0
   48.6140    6.5830   -0.0500 N   0  0  0  0  0
   47.7620    7.2840   -1.0540 C   0  0  0  0  0
   48.6180    8.1760   -1.9580 C   0  0  0  0  0
   48.4100    8.2460   -3.1530 O   0  0  0  0  0
   46.7950    8.1320   -0.2260 C   0  0  0  0  0
   47.5890    9.0330    0.7210 C   0  0  0  0  0
   48.3330    8.5010    1.5290 O   0  0  0  0  0
   47.4370   10.2400    0.6260 O   0  0  0  0  0
   49.5760    8.8590   -1.3970 N   0  0  0  0  0
   50.4400    9.7490   -2.2260 C   0  0  0  0  0
   51.5710    8.9450   -2.8750 C   0  0  0  0  0
   52.3390    9.4620   -3.6610 O   0  0  0  0  0
   51.0060   10.7760   -1.2450 C   0  0  0  0  0
   51.6820    7.6860   -2.5510 N   0  0  0  0  0
   52.7670    6.8560   -3.1520 C   0  0  0  0  0
   52.4520    6.5510   -4.6190 C   0  0  0  0  0
   53.2520    6.7990   -5.5000 O   0  0  0  0  0
   52.7860    5.5690   -2.3280 C   0  0  0  0  0
   54.2290    5.2250   -1.9530 C   0  0  0  0  0
   54.6890    3.6440   -2.7060 S   0  0  0  0  0
   55.9990    4.2740   -3.7840 C   0  0  0  0  0
   51.2950    6.0090   -4.8890 N   0  0  0  0  0
   50.9350    5.6850   -6.3000 C   0  0  0  0  0
   50.5160    6.9550   -7.0470 C   0  0  0  0  0
   50.6910    7.0680   -8.2440 O   0  0  0  0  0
   49.7600    4.7110   -6.1960 C   0  0  0  0  0
   50.2880    3.2780   -6.1300 C   0  0  0  0  0
   50.9940    2.9720   -4.4930 S   0  0  0  0  0
   52.7240    3.2590   -4.9380 C   0  0  0  0  0
   49.9610    7.9100   -6.3520 N   0  0  0  0  0
   49.5280    9.1680   -7.0240 C   0  0  0  0  0
   50.7440    9.9430   -7.5430 C   0  0  0  0  0
   50.6750   10.6240   -8.5460 O   0  0  0  0  0
   48.8070    9.9690   -5.9390 C   0  0  0  0  0
   47.4550   10.4490   -6.4700 C   0  0  0  0  0
   46.3570   10.0950   -5.4650 C   0  0  0  0  0
   45.8460   10.9580   -4.7780 O   0  0  0  0  0
   45.9680    8.8540   -5.3490 N   0  0  0  0  0
   51.8570    9.8460   -6.8660 N   0  0  0  0  0
   53.0720   10.5820   -7.3220 C   0  0  0  0  0
   53.8280    9.7620   -8.3730 C   0  0  0  0  0
   54.0870   10.2260   -9.4650 O   0  0  0  0  0
   53.9230   10.7600   -6.0650 C   0  0  0  0  0
   54.1830    8.5480   -8.0520 N   0  0  0  0  0
   54.9210    7.7030   -9.0370 C   0  0  0  0  0
   54.1990    6.3690   -9.2320 C   0  0  0  0  0
   53.0550    6.2100   -8.8560 O   0  0  0  0  0
   56.3110    7.4800   -8.4280 C   0  0  0  0  0
   56.1930    7.2560   -6.9180 C   0  0  0  0  0
   57.4190    6.4900   -6.4160 C   0  0  0  0  0
   56.1180    8.6100   -6.2110 C   0  0  0  0  0
   54.8570    5.4080   -9.8230 N   0  0  0  0  0
   54.2030    4.0870  -10.0450 C   0  0  0  0  0
   52.8790    4.2760  -10.7890 C   0  0  0  0  0
   51.9450    3.5160  -10.6210 O   0  0  0  0  0
   53.9610    3.5250   -8.6440 C   0  0  0  0  0
   55.2950    3.1050   -8.0260 C   0  0  0  0  0
   55.9050    4.2900   -7.2750 C   0  0  0  0  0
   55.0650    1.9500   -7.0510 C   0  0  0  0  0
   52.7910    5.2870  -11.6090 N   0  0  0  0  0
   51.5290    5.5320  -12.3650 C   0  0  0  0  0
   51.2240    7.0300  -12.3730 C   0  0  0  0  0
   50.5950    7.5500  -11.4720 O   0  0  0  0  0
   51.6660    7.7310  -13.3800 N   0  0  0  0  0
   51.4030    9.1970  -13.4400 C   0  0  0  0  0
   51.2610    9.6560  -14.8940 C   0  0  0  0  0
   51.4940   10.8030  -15.2190 O   0  0  0  0  0
   52.6280    9.8430  -12.7910 C   0  0  0  0  0
   50.8780    8.7680  -15.7710 N   0  0  0  0  0
   50.7220    9.1560  -17.2030 C   0  0  0  0  0
   49.4250    9.9450  -17.3990 C   0  0  0  0  0
   48.3410    9.4380  -17.1850 O   0  0  0  0  0
   50.6650    7.8330  -17.9670 C   0  0  0  0  0
   50.7300    8.1070  -19.4700 C   0  0  0  0  0
   49.7970    7.1420  -20.2050 C   0  0  0  0  0
   50.3940    6.9900  -21.5600 N   0  0  0  0  0
   50.1360    5.9280  -22.2720 C   0  0  0  0  0
   48.9050    5.5170  -22.4080 N   0  0  0  0  0
   51.1090    5.2750  -22.8470 N   0  0  0  0  0
   49.5260   11.1810  -17.8040 N   0  0  0  0  0
   48.2980   11.9990  -18.0120 C   0  0  0  0  0
   48.4860   12.9410  -19.2050 C   0  0  0  0  0
   48.1230   14.0990  -19.1580 O   0  0  0  0  0
   48.1290   12.7960  -16.7190 C   0  0  0  0  0
   49.0520   12.4520  -20.2760 N   0  0  0  0  0
   49.2630   13.3190  -21.4710 C   0  0  0  0  0
   50.0970   14.5470  -21.0920 C   0  0  0  0  0
   50.6000   14.5770  -19.9810 O   0  0  0  0  0
   47.8600   13.7390  -21.9080 C   0  0  0  0  0
   47.7710   13.7190  -23.4350 C   0  0  0  0  0
   46.3340   14.0200  -23.8690 C   0  0  0  0  0
   46.3500   14.7910  -25.1910 C   0  0  0  0  0
   45.1980   14.2500  -25.9630 N   0  3  0  0  0
   50.2200   15.4340  -21.9200 O   0  0  0  0  0
   53.0010    4.3892    6.0751 H   0  0  0  0  0
   54.4740    3.6862    6.4115 H   0  0  0  0  0
   53.4017    4.0053    7.6464 H   0  0  0  0  0
   53.6396    6.4255    7.2599 H   0  0  0  0  0
   56.3990    5.1880    7.4347 H   0  0  0  0  0
   55.1966    4.7192    8.6618 H   0  0  0  0  0
   55.9953    6.5900    9.7304 H   0  0  0  0  0
   54.8323    7.4151    8.6624 H   0  0  0  0  0
   56.5389    8.1675    7.1889 H   0  0  0  0  0
   57.6235    6.8856    7.6008 H   0  0  0  0  0
   57.5131    8.0473   10.0642 H   0  0  0  0  0
   59.7386    8.9370    8.2631 H   0  0  0  0  0
   57.5106   11.5742    8.8045 H   0  0  0  0  0
   56.2036   10.5230    9.3595 H   0  0  0  0  0
   53.8616    4.8224    4.5646 H   0  0  0  0  0
   55.8205    6.7939    3.2678 H   0  0  0  0  0
   54.7464    4.1159    2.2373 H   0  0  0  0  0
   56.7235    3.0242    3.1130 H   0  0  0  0  0
   55.9640    3.9003    4.4632 H   0  0  0  0  0
   55.7517    5.6512    0.5718 H   0  0  0  0  0
   57.2281    5.7583    1.5617 H   0  0  0  0  0
   56.7705    4.2103    0.8100 H   0  0  0  0  0
   58.2920    4.9128    2.7691 H   0  0  0  0  0
   57.5320    5.7894    4.1201 H   0  0  0  0  0
   58.4144    4.2733    4.4266 H   0  0  0  0  0
   53.0353    7.3962    3.9898 H   0  0  0  0  0
   51.0240    8.1726    2.8591 H   0  0  0  0  0
   52.5321    8.9412    0.4518 H   0  0  0  0  0
   53.4601    9.3149    1.9213 H   0  0  0  0  0
   52.0096   11.0233    1.3275 H   0  0  0  0  0
   50.5703    5.7301    2.6342 H   0  0  0  0  0
   50.9414    4.3077    0.1560 H   0  0  0  0  0
   49.9073    3.4617    2.3063 H   0  0  0  0  0
   48.4937    4.5026    2.0074 H   0  0  0  0  0
   48.8502    3.1479    0.9080 H   0  0  0  0  0
   48.6613    6.9279    0.9088 H   0  0  0  0  0
   47.2403    6.5852   -1.7079 H   0  0  0  0  0
   46.1445    7.4782    0.3549 H   0  0  0  0  0
   46.1905    8.7480   -0.8918 H   0  0  0  0  0
   48.2916    7.5480    1.4213 H   0  0  0  0  0
   49.7348    8.7851   -0.3922 H   0  0  0  0  0
   49.8850   10.2204   -3.0371 H   0  0  0  0  0
   50.1860   11.3263   -0.7837 H   0  0  0  0  0
   51.5796   10.2621   -0.4737 H   0  0  0  0  0
   51.6545   11.4692   -1.7807 H   0  0  0  0  0
   51.0282    7.2697   -1.8880 H   0  0  0  0  0
   53.7311    7.3643   -3.1350 H   0  0  0  0  0
   52.3592    4.7555   -2.9147 H   0  0  0  0  0
   52.1984    5.7096   -1.4208 H   0  0  0  0  0
   54.3141    5.1491   -0.8690 H   0  0  0  0  0
   54.8949    6.0076   -2.3166 H   0  0  0  0  0
   55.5804    5.0101   -4.4704 H   0  0  0  0  0
   56.7742    4.7413   -3.1767 H   0  0  0  0  0
   56.4286    3.4488   -4.3519 H   0  0  0  0  0
   50.6378    5.8073   -4.1355 H   0  0  0  0  0
   51.7724    5.2564   -6.8506 H   0  0  0  0  0
   49.1189    4.8214   -7.0706 H   0  0  0  0  0
   49.1874    4.9284   -5.2944 H   0  0  0  0  0
   51.0570    3.1383   -6.8897 H   0  0  0  0  0
   49.4701    2.5803   -6.3096 H   0  0  0  0  0
   53.0208    2.5516   -5.7124 H   0  0  0  0  0
   52.8378    4.2769   -5.3110 H   0  0  0  0  0
   53.3520    3.1208   -4.0578 H   0  0  0  0  0
   49.8234    7.7954   -5.3478 H   0  0  0  0  0
   48.8870    8.9739   -7.8839 H   0  0  0  0  0
   49.4139   10.8306   -5.6608 H   0  0  0  0  0
   48.6495    9.3363   -5.0655 H   0  0  0  0  0
   47.2457    9.9628   -7.4228 H   0  0  0  0  0
   47.4832   11.5294   -6.6115 H   0  0  0  0  0
   45.2359    8.6092   -4.6823 H   0  0  0  0  0
   46.3963    8.1293   -5.9251 H   0  0  0  0  0
   51.8953    9.2678   -6.0266 H   0  0  0  0  0
   52.8251   11.5372   -7.7853 H   0  0  0  0  0
   53.3611   11.3301   -5.3251 H   0  0  0  0  0
   54.1749    9.7812   -5.6567 H   0  0  0  0  0
   54.8377   11.2952   -6.3198 H   0  0  0  0  0
   53.9566    8.1769   -7.1293 H   0  0  0  0  0
   54.9844    8.1787  -10.0157 H   0  0  0  0  0
   56.9280    8.3594   -8.6124 H   0  0  0  0  0
   56.7658    6.6016   -8.8858 H   0  0  0  0  0
   55.2928    6.6794   -6.7053 H   0  0  0  0  0
   57.4764    5.5266   -6.9226 H   0  0  0  0  0
   58.3187    7.0676   -6.6281 H   0  0  0  0  0
   57.3321    6.3321   -5.3410 H   0  0  0  0  0
   57.0208    9.1814   -6.4265 H   0  0  0  0  0
   55.2460    9.1574   -6.5687 H   0  0  0  0  0
   56.0339    8.4528   -5.1357 H   0  0  0  0  0
   55.8169    5.5611  -10.1322 H   0  0  0  0  0
   54.8135    3.4165  -10.6498 H   0  0  0  0  0
   53.3019    2.6593   -8.7086 H   0  0  0  0  0
   53.4966    4.2894   -8.0211 H   0  0  0  0  0
   55.9751    2.7848   -8.8154 H   0  0  0  0  0
   56.0692    5.1134   -7.9701 H   0  0  0  0  0
   55.2231    4.6088   -6.4867 H   0  0  0  0  0
   56.8558    3.9891   -6.8350 H   0  0  0  0  0
   54.3844    2.2717   -6.2627 H   0  0  0  0  0
   54.6303    1.1057   -7.5860 H   0  0  0  0  0
   56.0170    1.6521   -6.6116 H   0  0  0  0  0
   53.5877    5.9117  -11.7334 H   0  0  0  0  0
   50.7088    4.9963  -11.8871 H   0  0  0  0  0
   51.6443    5.1787  -13.3897 H   0  0  0  0  0
   52.1916    7.2761  -14.1265 H   0  0  0  0  0
   50.4777    9.4704  -12.9328 H   0  0  0  0  0
   52.7212    9.4913  -11.7635 H   0  0  0  0  0
   53.5215    9.5698  -13.3524 H   0  0  0  0  0
   52.5113   10.9267  -12.7962 H   0  0  0  0  0
   50.6857    7.8103  -15.4775 H   0  0  0  0  0
   51.5360    9.7926  -17.5496 H   0  0  0  0  0
   49.7333    7.3184  -17.7321 H   0  0  0  0  0
   51.5098    7.2090  -17.6752 H   0  0  0  0  0
   51.7517    7.9635  -19.8217 H   0  0  0  0  0
   50.4192    9.1332  -19.6661 H   0  0  0  0  0
   48.7767    7.5225  -20.2525 H   0  0  0  0  0
   49.7156    6.1854  -19.6888 H   0  0  0  0  0
   51.0053    7.7168  -21.9320 H   0  0  0  0  0
   48.1446    6.0262  -21.9575 H   0  0  0  0  0
   50.9070    4.4437  -23.4025 H   0  0  0  0  0
   52.0713    5.5960  -22.7409 H   0  0  0  0  0
   50.4452   11.5873  -17.9782 H   0  0  0  0  0
   47.4238   11.3848  -18.2281 H   0  0  0  0  0
   48.0171   12.1076  -15.8814 H   0  0  0  0  0
   49.0076   13.4216  -16.5619 H   0  0  0  0  0
   47.2422   13.4252  -16.7948 H   0  0  0  0  0
   49.3498   11.4766  -20.2950 H   0  0  0  0  0
   49.8003   12.8027  -22.2665 H   0  0  0  0  0
   50.3698   13.7757  -19.5050 H   0  0  0  0  0
   47.6543   14.7464  -21.5463 H   0  0  0  0  0
   47.1285   13.0454  -21.4933 H   0  0  0  0  0
   48.0618   12.7348  -23.8021 H   0  0  0  0  0
   48.4398   14.4747  -23.8469 H   0  0  0  0  0
   45.8423   14.6212  -23.1042 H   0  0  0  0  0
   45.7912   13.0840  -24.0013 H   0  0  0  0  0
   47.2917   14.6611  -25.7243 H   0  0  0  0  0
   46.2632   15.8661  -25.0339 H   0  0  0  0  0
   45.1440   14.7213  -26.8660 H   0  0  0  0  0
   45.3276   13.2487  -26.1079 H   0  0  0  0  0
   44.3358   14.4106  -25.4422 H   0  0  0  0  0
  1  2  1  0  0  0
  2  3  1  0  0  0
  2  5  1  0  0  0
  3  4  2  0  0  0
  3 12  1  0  0  0
  5  6  1  0  0  0
  6  7  1  0  0  0
  7  8  1  0  0  0
  8  9  1  0  0  0
  9 10  2  0  0  0
  9 11  1  0  0  0
 12 13  1  0  0  0
 13 14  1  0  0  0
 13 16  1  0  0  0
 14 15  2  0  0  0
 14 20  1  0  0  0
 16 17  1  0  0  0
 16 18  1  0  0  0
 17 19  1  0  0  0
 20 21  1  0  0  0
 21 22  1  0  0  0
 21 24  1  0  0  0
 22 23  2  0  0  0
 22 26  1  0  0  0
 24 25  1  0  0  0
 26 27  1  0  0  0
 27 28  1  0  0  0
 27 30  1  0  0  0
 28 29  2  0  0  0
 28 31  1  0  0  0
 31 32  1  0  0  0
 32 33  1  0  0  0
 32 35  1  0  0  0
 33 34  2  0  0  0
 33 39  1  0  0  0
 35 36  1  0  0  0
 36 37  1  0  0  0
 36 38  2  0  0  0
 39 40  1  0  0  0
 40 41  1  0  0  0
 40 43  1  0  0  0
 41 42  2  0  0  0
 41 44  1  0  0  0
 44 45  1  0  0  0
 45 46  1  0  0  0
 45 48  1  0  0  0
 46 47  2  0  0  0
 46 52  1  0  0  0
 48 49  1  0  0  0
 49 50  1  0  0  0
 50 51  1  0  0  0
 52 53  1  0  0  0
 53 54  1  0  0  0
 53 56  1  0  0  0
 54 55  2  0  0  0
 54 60  1  0  0  0
 56 57  1  0  0  0
 57 58  1  0  0  0
 58 59  1  0  0  0
 60 61  1  0  0  0
 61 62  1  0  0  0
 61 64  1  0  0  0
 62 63  2  0  0  0
 62 69  1  0  0  0
 64 65  1  0  0  0
 65 66  1  0  0  0
 66 67  2  0  0  0
 66 68  1  0  0  0
 69 70  1  0  0  0
 70 71  1  0  0  0
 70 73  1  0  0  0
 71 72  2  0  0  0
 71 74  1  0  0  0
 74 75  1  0  0  0
 75 76  1  0  0  0
 75 78  1  0  0  0
 76 77  2  0  0  0
 76 82  1  0  0  0
 78 79  1  0  0  0
 79 80  1  0  0  0
 79 81  1  0  0  0
 82 83  1  0  0  0
 83 84  1  0  0  0
 83 86  1  0  0  0
 84 85  2  0  0  0
 84 90  1  0  0  0
 86 87  1  0  0  0
 87 88  1  0  0  0
 87 89  1  0  0  0
 90 91  1  0  0  0
 91 92  1  0  0  0
 92 93  2  0  0  0
 92 94  1  0  0  0
 94 95  1  0  0  0
 95 96  1  0  0  0
 95 98  1  0  0  0
 96 97  2  0  0  0
 96 99  1  0  0  0
 99100  1  0  0  0
100101  1  0  0  0
100103  1  0  0  0
101102  2  0  0  0
101110  1  0  0  0
103104  1  0  0  0
104105  1  0  0  0
105106  1  0  0  0
106107  1  0  0  0
107108  2  0  0  0
107109  1  0  0  0
110111  1  0  0  0
111112  1  0  0  0
111114  1  0  0  0
112113  2  0  0  0
112115  1  0  0  0
115116  1  0  0  0
116117  1  0  0  0
116119  1  0  0  0
117118  1  0  0  0
117124  2  0  0  0
119120  1  0  0  0
120121  1  0  0  0
121122  1  0  0  0
122123  1  0  0  0
  1125  1  0  0  0
  1126  1  0  0  0
  1127  1  0  0  0
  2128  1  0  0  0
  5129  1  0  0  0
  5130  1  0  0  0
  6131  1  0  0  0
  6132  1  0  0  0
  7133  1  0  0  0
  7134  1  0  0  0
  8135  1  0  0  0
 10136  1  0  0  0
 11137  1  0  0  0
 11138  1  0  0  0
 12139  1  0  0  0
 13140  1  0  0  0
 16141  1  0  0  0
 17142  1  0  0  0
 17143  1  0  0  0
 18144  1  0  0  0
 18145  1  0  0  0
 18146  1  0  0  0
 19147  1  0  0  0
 19148  1  0  0  0
 19149  1  0  0  0
 20150  1  0  0  0
 21151  1  0  0  0
 24152  1  0  0  0
 24153  1  0  0  0
 25154  1  0  0  0
 26155  1  0  0  0
 27156  1  0  0  0
 30157  1  0  0  0
 30158  1  0  0  0
 30159  1  0  0  0
 31160  1  0  0  0
 32161  1  0  0  0
 35162  1  0  0  0
 35163  1  0  0  0
 37164  1  0  0  0
 39165  1  0  0  0
 40166  1  0  0  0
 43167  1  0  0  0
 43168  1  0  0  0
 43169  1  0  0  0
 44170  1  0  0  0
 45171  1  0  0  0
 48172  1  0  0  0
 48173  1  0  0  0
 49174  1  0  0  0
 49175  1  0  0  0
 51176  1  0  0  0
 51177  1  0  0  0
 51178  1  0  0  0
 52179  1  0  0  0
 53180  1  0  0  0
 56181  1  0  0  0
 56182  1  0  0  0
 57183  1  0  0  0
 57184  1  0  0  0
 59185  1  0  0  0
 59186  1  0  0  0
 59187  1  0  0  0
 60188  1  0  0  0
 61189  1  0  0  0
 64190  1  0  0  0
 64191  1  0  0  0
 65192  1  0  0  0
 65193  1  0  0  0
 68194  1  0  0  0
 68195  1  0  0  0
 69196  1  0  0  0
 70197  1  0  0  0
 73198  1  0  0  0
 73199  1  0  0  0
 73200  1  0  0  0
 74201  1  0  0  0
 75202  1  0  0  0
 78203  1  0  0  0
 78204  1  0  0  0
 79205  1  0  0  0
 80206  1  0  0  0
 80207  1  0  0  0
 80208  1  0  0  0
 81209  1  0  0  0
 81210  1  0  0  0
 81211  1  0  0  0
 82212  1  0  0  0
 83213  1  0  0  0
 86214  1  0  0  0
 86215  1  0  0  0
 87216  1  0  0  0
 88217  1  0  0  0
 88218  1  0  0  0
 88219  1  0  0  0
 89220  1  0  0  0
 89221  1  0  0  0
 89222  1  0  0  0
 90223  1  0  0  0
 91224  1  0  0  0
 91225  1  0  0  0
 94226  1  0  0  0
 95227  1  0  0  0
 98228  1  0  0  0
 98229  1  0  0  0
 98230  1  0  0  0
 99231  1  0  0  0
100232  1  0  0  0
103233  1  0  0  0
103234  1  0  0  0
104235  1  0  0  0
104236  1  0  0  0
105237  1  0  0  0
105238  1  0  0  0
106239  1  0  0  0
108240  1  0  0  0
109241  1  0  0  0
109242  1  0  0  0
110243  1  0  0  0
111244  1  0  0  0
114245  1  0  0  0
114246  1  0  0  0
114247  1  0  0  0
115248  1  0  0  0
116249  1  0  0  0
118250  1  0  0  0
119251  1  0  0  0
119252  1  0  0  0
120253  1  0  0  0
120254  1  0  0  0
121255  1  0  0  0
121256  1  0  0  0
122257  1  0  0  0
122258  1  0  0  0
123259  1  0  0  0
123260  1  0  0  0
123261  1  0  0  0
M  END
$$$$
