### 
### Created by X-TOOL on Mon Sep 10 21:12:47 2018
### 

@<TRIPOS>MOLECULE
1mxl_ligand
  261   260     1     0     0
SMALL
GAST_HUCK


@<TRIPOS>ATOM
      1 N          53.7630    4.3340    6.7510 N.4       1 ARG         0.2379
      2 CA         54.3680    5.6860    6.9270 C.3       1 ARG         0.0651
      3 C          54.9360    6.1850    5.5950 C.2       1 ARG         0.2267
      4 O          55.7340    7.1000    5.5550 O.2       1 ARG        -0.3907
      5 CB         55.4870    5.4910    7.9490 C.3       1 ARG         0.0110
      6 CG         55.7350    6.8050    8.6940 C.3       1 ARG        -0.0125
      7 CD         56.8850    7.5640    8.0280 C.3       1 ARG         0.0629
      8 NE         57.4680    8.4050    9.1100 N.pl3     1 ARG        -0.2723
      9 CZ         57.9210    9.5980    8.8400 C.cat     1 ARG         0.2882
     10 NH1        59.1390    9.7510    8.3980 N.pl3     1 ARG        -0.2849
     11 NH2        57.1560   10.6410    9.0140 N.pl3     1 ARG        -0.2849
     12 N          54.5320    5.5890    4.5070 N.am      1 ILE        -0.2608
     13 CA         55.0500    6.0280    3.1790 C.3       1 ILE         0.1336
     14 C          53.9170    6.6300    2.3430 C.2       1 ILE         0.2042
     15 O          53.8840    6.4940    1.1370 O.2       1 ILE        -0.3944
     16 CB         55.5830    4.7540    2.5220 C.3       1 ILE        -0.0037
     17 CG1        56.4830    4.0100    3.5110 C.3       1 ILE        -0.0491
     18 CG2        56.3920    5.1200    1.2760 C.3       1 ILE        -0.0582
     19 CD1        57.7740    4.8040    3.7220 C.3       1 ILE        -0.0648
     20 N          52.9890    7.2940    2.9760 N.am      1 SER        -0.2616
     21 CA         51.8610    7.9030    2.2150 C.3       1 SER         0.1539
     22 C          51.3270    6.9080    1.1810 C.2       1 SER         0.2062
     23 O          51.4880    7.0860   -0.0100 O.2       1 SER        -0.3943
     24 CB         52.4630    9.1250    1.5240 C.3       1 SER         0.0843
     25 OG         51.6330   10.2540    1.7610 O.3       1 SER        -0.3903
     26 N          50.6940    5.8590    1.6300 N.am      1 ALA        -0.2639
     27 CA         50.1510    4.8480    0.6770 C.3       1 ALA         0.1282
     28 C          49.2990    5.5280   -0.3990 C.2       1 ALA         0.2037
     29 O          49.2590    5.0980   -1.5340 O.2       1 ALA        -0.3944
     30 CB         49.2880    3.9230    1.5370 C.3       1 ALA        -0.0244
     31 N          48.6140    6.5830   -0.0500 N.am      1 ASP        -0.2622
     32 CA         47.7620    7.2840   -1.0540 C.3       1 ASP         0.1423
     33 C          48.6180    8.1760   -1.9580 C.2       1 ASP         0.2056
     34 O          48.4100    8.2460   -3.1530 O.2       1 ASP        -0.3943
     35 CB         46.7950    8.1320   -0.2260 C.3       1 ASP         0.0406
     36 CG         47.5890    9.0330    0.7210 C.2       1 ASP         0.0393
     37 OD1        48.3330    8.5010    1.5290 O.co2     1 ASP        -0.5688
     38 OD2        47.4370   10.2400    0.6260 O.co2     1 ASP        -0.5688
     39 N          49.5760    8.8590   -1.3970 N.am      1 ALA        -0.2639
     40 CA         50.4400    9.7490   -2.2260 C.3       1 ALA         0.1282
     41 C          51.5710    8.9450   -2.8750 C.2       1 ALA         0.2036
     42 O          52.3390    9.4620   -3.6610 O.2       1 ALA        -0.3944
     43 CB         51.0060   10.7760   -1.2450 C.3       1 ALA        -0.0244
     44 N          51.6820    7.6860   -2.5510 N.am      1 MET        -0.2637
     45 CA         52.7670    6.8560   -3.1520 C.3       1 MET         0.1317
     46 C          52.4520    6.5510   -4.6190 C.2       1 MET         0.2039
     47 O          53.2520    6.7990   -5.5000 O.2       1 MET        -0.3944
     48 CB         52.7860    5.5690   -2.3280 C.3       1 MET        -0.0034
     49 CG         54.2290    5.2250   -1.9530 C.3       1 MET        -0.0024
     50 SD         54.6890    3.6440   -2.7060 S.3       1 MET        -0.1639
     51 CE         55.9990    4.2740   -3.7840 C.3       1 MET        -0.0181
     52 N          51.2950    6.0090   -4.8890 N.am      1 MET        -0.2637
     53 CA         50.9350    5.6850   -6.3000 C.3       1 MET         0.1317
     54 C          50.5160    6.9550   -7.0470 C.2       1 MET         0.2039
     55 O          50.6910    7.0680   -8.2440 O.2       1 MET        -0.3944
     56 CB         49.7600    4.7110   -6.1960 C.3       1 MET        -0.0034
     57 CG         50.2880    3.2780   -6.1300 C.3       1 MET        -0.0024
     58 SD         50.9940    2.9720   -4.4930 S.3       1 MET        -0.1639
     59 CE         52.7240    3.2590   -4.9380 C.3       1 MET        -0.0181
     60 N          49.9610    7.9100   -6.3520 N.am      1 GLN        -0.2636
     61 CA         49.5280    9.1680   -7.0240 C.3       1 GLN         0.1330
     62 C          50.7440    9.9430   -7.5430 C.2       1 GLN         0.2040
     63 O          50.6750   10.6240   -8.5460 O.2       1 GLN        -0.3944
     64 CB         48.8070    9.9690   -5.9390 C.3       1 GLN         0.0045
     65 CG         47.4550   10.4490   -6.4700 C.3       1 GLN         0.0412
     66 CD         46.3570   10.0950   -5.4650 C.2       1 GLN         0.1737
     67 OE1        45.8460   10.9580   -4.7780 O.2       1 GLN        -0.3973
     68 NE2        45.9680    8.8540   -5.3490 N.am      1 GLN        -0.3009
     69 N          51.8570    9.8460   -6.8660 N.am      1 ALA        -0.2640
     70 CA         53.0720   10.5820   -7.3220 C.3       1 ALA         0.1282
     71 C          53.8280    9.7620   -8.3730 C.2       1 ALA         0.2036
     72 O          54.0870   10.2260   -9.4650 O.2       1 ALA        -0.3944
     73 CB         53.9230   10.7600   -6.0650 C.3       1 ALA        -0.0244
     74 N          54.1830    8.5480   -8.0520 N.am      1 LEU        -0.2637
     75 CA         54.9210    7.7030   -9.0370 C.3       1 LEU         0.1312
     76 C          54.1990    6.3690   -9.2320 C.2       1 LEU         0.2039
     77 O          53.0550    6.2100   -8.8560 O.2       1 LEU        -0.3944
     78 CB         56.3110    7.4800   -8.4280 C.3       1 LEU        -0.0101
     79 CG         56.1930    7.2560   -6.9180 C.3       1 LEU        -0.0425
     80 CD1        57.4190    6.4900   -6.4160 C.3       1 LEU        -0.0625
     81 CD2        56.1180    8.6100   -6.2110 C.3       1 LEU        -0.0625
     82 N          54.8570    5.4080   -9.8230 N.am      1 LEU        -0.2637
     83 CA         54.2030    4.0870  -10.0450 C.3       1 LEU         0.1312
     84 C          52.8790    4.2760  -10.7890 C.2       1 LEU         0.2037
     85 O          51.9450    3.5160  -10.6210 O.2       1 LEU        -0.3944
     86 CB         53.9610    3.5250   -8.6440 C.3       1 LEU        -0.0101
     87 CG         55.2950    3.1050   -8.0260 C.3       1 LEU        -0.0425
     88 CD1        55.9050    4.2900   -7.2750 C.3       1 LEU        -0.0625
     89 CD2        55.0650    1.9500   -7.0510 C.3       1 LEU        -0.0625
     90 N          52.7910    5.2870  -11.6090 N.am      1 GLY        -0.2664
     91 CA         51.5290    5.5320  -12.3650 C.3       1 GLY         0.1201
     92 C          51.2240    7.0300  -12.3730 C.2       1 GLY         0.2007
     93 O          50.5950    7.5500  -11.4720 O.2       1 GLY        -0.3947
     94 N          51.6660    7.7310  -13.3800 N.am      1 ALA        -0.2642
     95 CA         51.4030    9.1970  -13.4400 C.3       1 ALA         0.1282
     96 C          51.2610    9.6560  -14.8940 C.2       1 ALA         0.2036
     97 O          51.4940   10.8030  -15.2190 O.2       1 ALA        -0.3944
     98 CB         52.6280    9.8430  -12.7910 C.3       1 ALA        -0.0244
     99 N          50.8780    8.7680  -15.7710 N.am      1 ARG        -0.2637
    100 CA         50.7220    9.1560  -17.2030 C.3       1 ARG         0.1311
    101 C          49.4250    9.9450  -17.3990 C.2       1 ARG         0.2039
    102 O          48.3410    9.4380  -17.1850 O.2       1 ARG        -0.3944
    103 CB         50.6650    7.8330  -17.9670 C.3       1 ARG        -0.0092
    104 CG         50.7300    8.1070  -19.4700 C.3       1 ARG        -0.0156
    105 CD         49.7970    7.1420  -20.2050 C.3       1 ARG         0.0627
    106 NE         50.3940    6.9900  -21.5600 N.pl3     1 ARG        -0.2723
    107 CZ         50.1360    5.9280  -22.2720 C.cat     1 ARG         0.2882
    108 NH1        48.9050    5.5170  -22.4080 N.pl3     1 ARG        -0.2849
    109 NH2        51.1090    5.2750  -22.8470 N.pl3     1 ARG        -0.2849
    110 N          49.5260   11.1810  -17.8040 N.am      1 ALA        -0.2640
    111 CA         48.2980   11.9990  -18.0120 C.3       1 ALA         0.1282
    112 C          48.4860   12.9410  -19.2050 C.2       1 ALA         0.2031
    113 O          48.1230   14.0990  -19.1580 O.2       1 ALA        -0.3944
    114 CB         48.1290   12.7960  -16.7190 C.3       1 ALA        -0.0244
    115 N          49.0520   12.4520  -20.2760 N.am      1 LYS        -0.2695
    116 CA         49.2630   13.3190  -21.4710 C.3       1 LYS         0.0944
    117 C          50.0970   14.5470  -21.0920 C.2       1 LYS         0.0601
    118 O          50.6000   14.5770  -19.9810 O.co2     1 LYS        -0.5666
    119 CB         47.8600   13.7390  -21.9080 C.3       1 LYS        -0.0177
    120 CG         47.7710   13.7190  -23.4350 C.3       1 LYS        -0.0446
    121 CD         46.3340   14.0200  -23.8690 C.3       1 LYS        -0.0125
    122 CE         46.3500   14.7910  -25.1910 C.3       1 LYS        -0.0354
    123 NZ         45.1980   14.2500  -25.9630 N.4       1 LYS         0.2185
    124 OXT        50.2200   15.4340  -21.9200 O.co2     1 LYS        -0.5666
    125 H1         53.3923    4.0145    7.6322 H         1 ARG         0.2015
    126 H2         54.4683    3.6895    6.4297 H         1 ARG         0.2015
    127 H3         53.0195    4.3843    6.0722 H         1 ARG         0.2015
    128 H4         53.6211    6.4013    7.3018 H         1 ARG         0.1098
    129 H5         56.4074    5.1846    7.4304 H         1 ARG         0.0347
    130 H6         55.1946    4.7118    8.6682 H         1 ARG         0.0347
    131 H7         55.9966    6.5888    9.7403 H         1 ARG         0.0302
    132 H8         54.8240    7.4207    8.6635 H         1 ARG         0.0302
    133 H9         56.5093    8.1941    7.2084 H         1 ARG         0.0689
    134 H10        57.6361    6.8623    7.6364 H         1 ARG         0.0689
    135 H11        57.5136    8.0438   10.0735 H         1 ARG         0.2642
    136 H12        59.4950   10.6938    8.1853 H         1 ARG         0.2615
    137 H13        59.7445    8.9290    8.2618 H         1 ARG         0.2615
    138 H14        56.1942   10.5218    9.3629 H         1 ARG         0.2615
    139 H15        57.5140   11.5833    8.8025 H         1 ARG         0.2615
    140 H16        53.8747    4.8375    4.5635 H         1 ILE         0.1885
    141 H17        55.8544    6.7685    3.2997 H         1 ILE         0.0803
    142 H18        54.7396    4.1086    2.2354 H         1 ILE         0.0345
    143 H19        56.7258    3.0152    3.1092 H         1 ILE         0.0267
    144 H20        55.9593    3.8995    4.4720 H         1 ILE         0.0267
    145 H21        55.7465    5.6550    0.5638 H         1 ILE         0.0235
    146 H22        56.7757    4.2028    0.8055 H         1 ILE         0.0235
    147 H23        57.2353    5.7654    1.5628 H         1 ILE         0.0235
    148 H24        58.4212    4.2694    4.4329 H         1 ILE         0.0230
    149 H25        57.5312    5.7988    4.1238 H         1 ILE         0.0230
    150 H26        58.2977    4.9145    2.7610 H         1 ILE         0.0230
    151 H27        53.0344    7.3942    3.9699 H         1 SER         0.1884
    152 H28        51.0491    8.2022    2.8942 H         1 SER         0.0823
    153 H29        52.5307    8.9393    0.4419 H         1 SER         0.0606
    154 H30        53.4684    9.3170    1.9268 H         1 SER         0.0606
    155 H31        52.0057   11.0152    1.3320 H         1 SER         0.2097
    156 H32        50.5727    5.7326    2.6145 H         1 ALA         0.1883
    157 H33        50.9673    4.2858    0.1999 H         1 ALA         0.0797
    158 H34        48.8456    3.1403    0.9033 H         1 ALA         0.0277
    159 H35        48.4859    4.5068    2.0123 H         1 ALA         0.0277
    160 H36        49.9119    3.4567    2.3138 H         1 ALA         0.0277
    161 H37        48.6604    6.9211    0.8900 H         1 ASP         0.1884
    162 H38        47.2113    6.5576   -1.6696 H         1 ASP         0.0819
    163 H39        46.1384    7.4722    0.3602 H         1 ASP         0.0478
    164 H40        46.1849    8.7536   -0.8978 H         1 ASP         0.0478
    165 H41        49.7317    8.7865   -0.4119 H         1 ALA         0.1883
    166 H42        49.8470   10.2462   -3.0077 H         1 ALA         0.0797
    167 H43        51.6607   11.4763   -1.7844 H         1 ALA         0.0277
    168 H44        51.5852   10.2586   -0.4660 H         1 ALA         0.0277
    169 H45        50.1794   11.3321   -0.7788 H         1 ALA         0.0277
    170 H46        51.0410    7.2778   -1.9010 H         1 MET         0.1883
    171 H47        53.7350    7.3739   -3.0831 H         1 MET         0.0800
    172 H48        52.3554    4.7481   -2.9201 H         1 MET         0.0320
    173 H49        52.1931    5.7110   -1.4124 H         1 MET         0.0320
    174 H50        54.3151    5.1487   -0.8590 H         1 MET         0.0378
    175 H51        54.9012    6.0148   -2.3196 H         1 MET         0.0378
    176 H52        56.4334    3.4421   -4.3578 H         1 MET         0.0340
    177 H53        56.7821    4.7458   -3.1723 H         1 MET         0.0340
    178 H54        55.5778    5.0169   -4.4773 H         1 MET         0.0340
    179 H55        50.6506    5.8112   -4.1503 H         1 MET         0.1883
    180 H56        51.7832    5.2149   -6.8191 H         1 MET         0.0800
    181 H57        49.1125    4.8225   -7.0782 H         1 MET         0.0320
    182 H58        49.1816    4.9305   -5.2865 H         1 MET         0.0320
    183 H59        51.0644    3.1373   -6.8965 H         1 MET         0.0378
    184 H60        49.4623    2.5740   -6.3109 H         1 MET         0.0378
    185 H61        53.3588    3.1198   -4.0505 H         1 MET         0.0340
    186 H62        52.8403    4.2860   -5.3145 H         1 MET         0.0340
    187 H63        53.0248    2.5457   -5.7194 H         1 MET         0.0340
    188 H64        49.8261    7.7977   -5.3675 H         1 GLN         0.1883
    189 H65        48.8476    8.9471   -7.8596 H         1 GLN         0.0801
    190 H66        49.4194   10.8383   -5.6575 H         1 GLN         0.0337
    191 H67        48.6485    9.3310   -5.0571 H         1 GLN         0.0337
    192 H68        47.2437    9.9585   -7.4316 H         1 GLN         0.0504
    193 H69        47.4834   11.5393   -6.6129 H         1 GLN         0.0504
    194 H70        45.2510    8.6139   -4.6946 H         1 GLN         0.1814
    195 H71        46.3871    8.1437   -5.9145 H         1 GLN         0.1814
    196 H72        51.8946    9.2791   -6.0431 H         1 ALA         0.1883
    197 H73        52.7976   11.5595   -7.7452 H         1 ALA         0.0797
    198 H74        54.8465   11.3000   -6.3209 H         1 ALA         0.0277
    199 H75        54.1780    9.7729   -5.6520 H         1 ALA         0.0277
    200 H76        53.3571   11.3353   -5.3175 H         1 ALA         0.0277
    201 H77        53.9610    8.1841   -7.1474 H         1 LEU         0.1883
    202 H78        55.0039    8.2210  -10.0039 H         1 LEU         0.0800
    203 H79        56.9373    8.3643   -8.6169 H         1 LEU         0.0315
    204 H80        56.7742    6.5967   -8.8919 H         1 LEU         0.0315
    205 H81        55.2834    6.6764   -6.7020 H         1 LEU         0.0298
    206 H82        57.3325    6.3300   -5.3311 H         1 LEU         0.0232
    207 H83        58.3277    7.0719   -6.6294 H         1 LEU         0.0232
    208 H84        57.4781    5.5174   -6.9265 H         1 LEU         0.0232
    209 H85        55.2374    9.1628   -6.5701 H         1 LEU         0.0232
    210 H86        57.0279    9.1884   -6.4289 H         1 LEU         0.0232
    211 H87        56.0346    8.4528   -5.1255 H         1 LEU         0.0232
    212 H88        55.7981    5.5581  -10.1261 H         1 LEU         0.1883
    213 H89        54.8591    3.4190  -10.6223 H         1 LEU         0.0800
    214 H90        53.2959    2.6513   -8.7092 H         1 LEU         0.0315
    215 H91        53.4924    4.2965   -8.0153 H         1 LEU         0.0315
    216 H92        55.9821    2.7819   -8.8219 H         1 LEU         0.0298
    217 H93        56.8647    3.9876   -6.8305 H         1 LEU         0.0232
    218 H94        55.2178    4.6127   -6.4790 H         1 LEU         0.0232
    219 H95        56.0713    5.1217   -7.9754 H         1 LEU         0.0232
    220 H96        54.6264    1.0972   -7.5898 H         1 LEU         0.0232
    221 H97        54.3781    2.2733   -6.2550 H         1 LEU         0.0232
    222 H98        56.0250    1.6484   -6.6068 H         1 LEU         0.0232
    223 H99        53.5721    5.8994  -11.7309 H         1 GLY         0.1881
    224 H100       50.7013    4.9917  -11.8823 H         1 GLY         0.0763
    225 H101       51.6458    5.1759  -13.3992 H         1 GLY         0.0763
    226 H102       52.1813    7.2851  -14.1118 H         1 ALA         0.1883
    227 H103       50.4893    9.4509  -12.8827 H         1 ALA         0.0797
    228 H104       52.5114   10.9368  -12.7957 H         1 ALA         0.0277
    229 H105       53.5305    9.5681  -13.3566 H         1 ALA         0.0277
    230 H106       52.7232    9.4889  -11.7539 H         1 ALA         0.0277
    231 H107       50.6895    7.8290  -15.4833 H         1 ARG         0.1883
    232 H108       51.5772    9.7613  -17.5380 H         1 ARG         0.0800
    233 H109       49.7251    7.3131  -17.7298 H         1 ARG         0.0313
    234 H110       51.5171    7.2028  -17.6724 H         1 ARG         0.0313
    235 H111       51.7610    7.9620  -19.8250 H         1 ARG         0.0301
    236 H112       50.4162    9.1426  -19.6679 H         1 ARG         0.0301
    237 H113       48.7825    7.5615  -20.2739 H         1 ARG         0.0689
    238 H114       49.7583    6.1718  -19.6881 H         1 ARG         0.0689
    239 H115       51.0113    7.7240  -21.9357 H         1 ARG         0.2642
    240 H116       48.7012    4.6784  -22.9702 H         1 ARG         0.2615
    241 H117       48.1371    6.0312  -21.9531 H         1 ARG         0.2615
    242 H118       52.0808    5.5992  -22.7398 H         1 ARG         0.2615
    243 H119       50.9050    4.4355  -23.4079 H         1 ARG         0.2615
    244 H120       50.4272   11.5793  -17.9748 H         1 ALA         0.1883
    245 H121       47.4249   11.3529  -18.1859 H         1 ALA         0.0797
    246 H122       47.2343   13.4315  -16.7943 H         1 ALA         0.0277
    247 H123       49.0151   13.4279  -16.5593 H         1 ALA         0.0277
    248 H124       48.0159   12.1024  -15.8728 H         1 ALA         0.0277
    249 H125       49.3440   11.4957  -20.2946 H         1 LYS         0.1875
    250 H126       49.7689   12.7612  -22.2728 H         1 LYS         0.0726
    251 H127       47.6515   14.7553  -21.5424 H         1 LYS         0.0305
    252 H128       47.1213   13.0398  -21.4890 H         1 LYS         0.0305
    253 H129       48.0652   12.7261  -23.8060 H         1 LYS         0.0269
    254 H130       48.4464   14.4809  -23.8512 H         1 LYS         0.0269
    255 H131       45.8375   14.6264  -23.0972 H         1 LYS         0.0317
    256 H132       45.7860   13.0756  -24.0022 H         1 LYS         0.0317
    257 H133       47.2931   14.6164  -25.7296 H         1 LYS         0.0813
    258 H134       46.2240   15.8690  -25.0120 H         1 LYS         0.0813
    259 H135       45.1437   14.7150  -26.8557 H         1 LYS         0.1994
    260 H136       44.3453   14.4082  -25.4493 H         1 LYS         0.1994
    261 H137       45.3249   13.2604  -26.1069 H         1 LYS         0.1994
@<TRIPOS>BOND
     1    1    2 1  
     2    2    3 1  
     3    2    5 1  
     4    3    4 2  
     5    3   12 am 
     6    5    6 1  
     7    6    7 1  
     8    7    8 1  
     9    8    9 ar 
    10    9   10 ar 
    11    9   11 ar 
    12   12   13 1  
    13   13   14 1  
    14   13   16 1  
    15   14   15 2  
    16   14   20 am 
    17   16   17 1  
    18   16   18 1  
    19   17   19 1  
    20   20   21 1  
    21   21   22 1  
    22   21   24 1  
    23   22   23 2  
    24   22   26 am 
    25   24   25 1  
    26   26   27 1  
    27   27   28 1  
    28   27   30 1  
    29   28   29 2  
    30   28   31 am 
    31   31   32 1  
    32   32   33 1  
    33   32   35 1  
    34   33   34 2  
    35   33   39 am 
    36   35   36 1  
    37   36   37 ar 
    38   36   38 ar 
    39   39   40 1  
    40   40   41 1  
    41   40   43 1  
    42   41   42 2  
    43   41   44 am 
    44   44   45 1  
    45   45   46 1  
    46   45   48 1  
    47   46   47 2  
    48   46   52 am 
    49   48   49 1  
    50   49   50 1  
    51   50   51 1  
    52   52   53 1  
    53   53   54 1  
    54   53   56 1  
    55   54   55 2  
    56   54   60 am 
    57   56   57 1  
    58   57   58 1  
    59   58   59 1  
    60   60   61 1  
    61   61   62 1  
    62   61   64 1  
    63   62   63 2  
    64   62   69 am 
    65   64   65 1  
    66   65   66 1  
    67   66   67 2  
    68   66   68 am 
    69   69   70 1  
    70   70   71 1  
    71   70   73 1  
    72   71   72 2  
    73   71   74 am 
    74   74   75 1  
    75   75   76 1  
    76   75   78 1  
    77   76   77 2  
    78   76   82 am 
    79   78   79 1  
    80   79   80 1  
    81   79   81 1  
    82   82   83 1  
    83   83   84 1  
    84   83   86 1  
    85   84   85 2  
    86   84   90 am 
    87   86   87 1  
    88   87   88 1  
    89   87   89 1  
    90   90   91 1  
    91   91   92 1  
    92   92   93 2  
    93   92   94 am 
    94   94   95 1  
    95   95   96 1  
    96   95   98 1  
    97   96   97 2  
    98   96   99 am 
    99   99  100 1  
   100  100  101 1  
   101  100  103 1  
   102  101  102 2  
   103  101  110 am 
   104  103  104 1  
   105  104  105 1  
   106  105  106 1  
   107  106  107 ar 
   108  107  108 ar 
   109  107  109 ar 
   110  110  111 1  
   111  111  112 1  
   112  111  114 1  
   113  112  113 2  
   114  112  115 am 
   115  115  116 1  
   116  116  117 1  
   117  116  119 1  
   118  117  118 ar 
   119  117  124 ar 
   120  119  120 1  
   121  120  121 1  
   122  121  122 1  
   123  122  123 1  
   124    1  125 1  
   125    1  126 1  
   126    1  127 1  
   127    2  128 1  
   128    5  129 1  
   129    5  130 1  
   130    6  131 1  
   131    6  132 1  
   132    7  133 1  
   133    7  134 1  
   134    8  135 1  
   135   10  136 1  
   136   10  137 1  
   137   11  138 1  
   138   11  139 1  
   139   12  140 1  
   140   13  141 1  
   141   16  142 1  
   142   17  143 1  
   143   17  144 1  
   144   18  145 1  
   145   18  146 1  
   146   18  147 1  
   147   19  148 1  
   148   19  149 1  
   149   19  150 1  
   150   20  151 1  
   151   21  152 1  
   152   24  153 1  
   153   24  154 1  
   154   25  155 1  
   155   26  156 1  
   156   27  157 1  
   157   30  158 1  
   158   30  159 1  
   159   30  160 1  
   160   31  161 1  
   161   32  162 1  
   162   35  163 1  
   163   35  164 1  
   164   39  165 1  
   165   40  166 1  
   166   43  167 1  
   167   43  168 1  
   168   43  169 1  
   169   44  170 1  
   170   45  171 1  
   171   48  172 1  
   172   48  173 1  
   173   49  174 1  
   174   49  175 1  
   175   51  176 1  
   176   51  177 1  
   177   51  178 1  
   178   52  179 1  
   179   53  180 1  
   180   56  181 1  
   181   56  182 1  
   182   57  183 1  
   183   57  184 1  
   184   59  185 1  
   185   59  186 1  
   186   59  187 1  
   187   60  188 1  
   188   61  189 1  
   189   64  190 1  
   190   64  191 1  
   191   65  192 1  
   192   65  193 1  
   193   68  194 1  
   194   68  195 1  
   195   69  196 1  
   196   70  197 1  
   197   73  198 1  
   198   73  199 1  
   199   73  200 1  
   200   74  201 1  
   201   75  202 1  
   202   78  203 1  
   203   78  204 1  
   204   79  205 1  
   205   80  206 1  
   206   80  207 1  
   207   80  208 1  
   208   81  209 1  
   209   81  210 1  
   210   81  211 1  
   211   82  212 1  
   212   83  213 1  
   213   86  214 1  
   214   86  215 1  
   215   87  216 1  
   216   88  217 1  
   217   88  218 1  
   218   88  219 1  
   219   89  220 1  
   220   89  221 1  
   221   89  222 1  
   222   90  223 1  
   223   91  224 1  
   224   91  225 1  
   225   94  226 1  
   226   95  227 1  
   227   98  228 1  
   228   98  229 1  
   229   98  230 1  
   230   99  231 1  
   231  100  232 1  
   232  103  233 1  
   233  103  234 1  
   234  104  235 1  
   235  104  236 1  
   236  105  237 1  
   237  105  238 1  
   238  106  239 1  
   239  108  240 1  
   240  108  241 1  
   241  109  242 1  
   242  109  243 1  
   243  110  244 1  
   244  111  245 1  
   245  114  246 1  
   246  114  247 1  
   247  114  248 1  
   248  115  249 1  
   249  116  250 1  
   250  119  251 1  
   251  119  252 1  
   252  120  253 1  
   253  120  254 1  
   254  121  255 1  
   255  121  256 1  
   256  122  257 1  
   257  122  258 1  
   258  123  259 1  
   259  123  260 1  
   260  123  261 1  
@<TRIPOS>SUBSTRUCTURE
     1 ARG         1

