4r6w_ligand
  -I-interpret- 

 47 49  0  0  0  0  0  0  0  0999 V2000
    8.5560   -0.4480   25.6340 N   0  3  0  0  0
    7.5370    0.3600   24.9230 C   0  0  0  0  0
    7.4760    1.8100   25.5300 C   0  0  0  0  0
    8.7610    2.6190   25.3550 C   0  0  0  0  0
    8.6250    4.3260   25.9590 S   0  0  0  0  0
    7.7930    0.3540   23.4660 C   0  0  0  0  0
    8.8720   -0.0360   23.0490 O   0  0  0  0  0
    6.9670    0.8240   22.7110 O   0  0  0  0  0
    9.4240    4.3730   27.5780 C   0  0  0  0  0
    8.5930    3.9820   28.6680 C   0  0  0  0  0
    9.4090    3.8010   29.8480 O   0  0  0  0  0
    7.6890    5.1190   28.9540 C   0  0  0  0  0
    6.3590    4.7160   28.7080 O   0  0  0  0  0
    7.9490    5.4710   30.3590 C   0  0  0  0  0
    6.7640    5.7960   31.0430 O   0  0  0  0  0
    8.6190    4.2470   30.9100 C   0  0  0  0  0
    9.4080    4.5120   32.1710 N   0  0  0  0  0
   10.3620    5.4240   32.3600 C   0  0  0  0  0
   10.8130    5.3120   33.6070 N   0  0  0  0  0
   10.1450    4.3220   34.2280 C   0  0  0  0  0
   10.2000    3.7820   35.5210 C   0  0  0  0  0
   11.0410    4.2850   36.4820 N   0  0  0  0  0
    9.3570    2.7690   35.8060 N   0  0  0  0  0
    8.5100    2.2780   34.8900 C   0  0  0  0  0
    8.4300    2.7940   33.6330 N   0  0  0  0  0
    9.2460    3.7960   33.2950 C   0  0  0  0  0
    8.3629   -0.4317   26.6354 H   0  0  0  0  0
    8.5224   -1.4096   25.2956 H   0  0  0  0  0
    9.4815   -0.0567   25.4585 H   0  0  0  0  0
    6.5528   -0.0861   25.0659 H   0  0  0  0  0
    7.3078    1.7026   26.6016 H   0  0  0  0  0
    6.6856    2.3452   25.0038 H   0  0  0  0  0
    8.9785    2.6641   24.2879 H   0  0  0  0  0
    9.5415    2.1262   25.9348 H   0  0  0  0  0
    9.3936   -0.3735   23.7809 H   0  0  0  0  0
    9.7137    5.4084   27.7573 H   0  0  0  0  0
   10.2520    3.6650   27.5423 H   0  0  0  0  0
    8.0565    3.0652   28.4236 H   0  0  0  0  0
    7.8554    5.9927   28.3239 H   0  0  0  0  0
    5.7651    5.4477   28.8910 H   0  0  0  0  0
    8.5680    6.3615   30.4683 H   0  0  0  0  0
    6.9722    6.0194   31.9531 H   0  0  0  0  0
    7.9014    3.4950   31.2380 H   0  0  0  0  0
   10.7135    6.1408   31.6179 H   0  0  0  0  0
   11.6497    5.0741   36.2647 H   0  0  0  0  0
   11.0573    3.8697   37.4135 H   0  0  0  0  0
    7.8664    1.4408   35.1599 H   0  0  0  0  0
  1  2  1  0  0  0
  2  3  1  0  0  0
  2  6  1  0  0  0
  3  4  1  0  0  0
  4  5  1  0  0  0
  5  9  1  0  0  0
  6  7  1  0  0  0
  6  8  2  0  0  0
  9 10  1  0  0  0
 10 11  1  0  0  0
 10 12  1  0  0  0
 11 16  1  0  0  0
 12 13  1  0  0  0
 12 14  1  0  0  0
 14 15  1  0  0  0
 14 16  1  0  0  0
 16 17  1  0  0  0
 17 18  4  0  0  0
 17 26  4  0  0  0
 18 19  4  0  0  0
 19 20  4  0  0  0
 20 21  4  0  0  0
 20 26  4  0  0  0
 21 22  1  0  0  0
 21 23  4  0  0  0
 23 24  4  0  0  0
 24 25  4  0  0  0
 25 26  4  0  0  0
  1 27  1  0  0  0
  1 28  1  0  0  0
  1 29  1  0  0  0
  2 30  1  0  0  0
  3 31  1  0  0  0
  3 32  1  0  0  0
  4 33  1  0  0  0
  4 34  1  0  0  0
  7 35  1  0  0  0
  9 36  1  0  0  0
  9 37  1  0  0  0
 10 38  1  0  0  0
 12 39  1  0  0  0
 13 40  1  0  0  0
 14 41  1  0  0  0
 15 42  1  0  0  0
 16 43  1  0  0  0
 18 44  1  0  0  0
 22 45  1  0  0  0
 22 46  1  0  0  0
 24 47  1  0  0  0
M  END
$$$$
