4oyi_ligand
  -I-interpret- 

 21 22  0  0  0  0  0  0  0  0999 V2000
   17.2490   20.5360   -0.9150 C   0  0  0  0  0
   18.0090   21.7290   -1.1140 C   0  0  0  0  0
   17.4670   23.0340   -1.5770 C   0  0  0  0  0
   17.6940   25.4530   -2.0430 C   0  0  0  0  0
   18.3050   26.6780   -1.8930 C   0  0  0  0  0
   19.4030   26.8050   -1.0700 C   0  0  0  0  0
   19.8920   25.7070   -0.3960 C   0  0  0  0  0
   19.2840   24.4730   -0.5420 C   0  0  0  0  0
   15.9160   20.3710   -1.1050 N   0  0  0  0  0
   18.0390   19.5850   -0.5090 N   0  0  0  0  0
   19.2900   20.1610   -0.4480 O   0  0  0  0  0
   19.2580   21.4890   -0.8260 N   0  0  0  0  0
   16.3850   23.0330   -2.1590 O   0  0  0  0  0
   18.1770   24.3340   -1.3680 C   0  0  0  0  0
   16.8256   25.3581   -2.6950 H   0  0  0  0  0
   17.9199   27.5476   -2.4255 H   0  0  0  0  0
   19.8854   27.7753   -0.9520 H   0  0  0  0  0
   20.7606   25.8111    0.2542 H   0  0  0  0  0
   19.6752   23.6076   -0.0071 H   0  0  0  0  0
   15.3457   21.1538   -1.4250 H   0  0  0  0  0
   15.4840   19.4641   -0.9279 H   0  0  0  0  0
  2  1  4  0  0  0
  1  9  1  0  0  0
  1 10  4  0  0  0
  3  2  1  0  0  0
  2 12  4  0  0  0
  3 13  2  0  0  0
 14  3  1  0  0  0
  4  5  4  0  0  0
  4 14  4  0  0  0
  5  6  4  0  0  0
  6  7  4  0  0  0
  7  8  4  0  0  0
  8 14  4  0  0  0
 10 11  4  0  0  0
 11 12  4  0  0  0
  4 15  1  0  0  0
  5 16  1  0  0  0
  6 17  1  0  0  0
  7 18  1  0  0  0
  8 19  1  0  0  0
  9 20  1  0  0  0
  9 21  1  0  0  0
M  END
$$$$
