4h3j_ligand
  -I-interpret- 

 52 56  0  0  0  0  0  0  0  0999 V2000
   21.5430   12.2290   23.3130 C   0  0  0  0  0
   22.2370   11.3640   24.1340 N   0  0  0  0  0
   22.2480    9.9970   23.9650 C   0  0  0  0  0
   21.7440    9.4280   22.8060 N   0  0  0  0  0
   22.7370    9.2260   24.9090 N   0  0  0  0  0
   22.9910   12.0060   25.2550 C   0  0  0  0  0
   21.5040   13.4380   23.5050 O   0  0  0  0  0
   20.7870   11.5840   22.1170 C   0  0  0  0  0
   21.3930   10.2250   21.6270 C   0  0  0  0  0
   20.2310    9.5620   20.8930 C   0  0  0  0  0
   19.0440   10.1790   21.5070 N   0  0  0  0  0
   19.3470   11.2580   22.4600 C   0  0  0  0  0
   22.6170   10.5300   20.8450 C   0  0  0  0  0
   22.7170   11.1480   19.5540 C   0  0  0  0  0
   24.0460   11.3070   19.1190 C   0  0  0  0  0
   25.0010   10.8170   20.0380 C   0  0  0  0  0
   24.1850   10.2000   21.3870 S   0  0  0  0  0
   26.4530   10.8800   19.9300 C   0  0  0  0  0
   27.1940   10.4880   21.0570 C   0  0  0  0  0
   28.5900   10.5630   21.0680 C   0  0  0  0  0
   29.2650   11.0500   19.9270 C   0  0  0  0  0
   28.5470   11.4610   18.7880 C   0  0  0  0  0
   27.1320   11.3810   18.7980 C   0  0  0  0  0
   29.2760   10.1320   22.2520 C   0  0  0  0  0
   29.8040    9.7740   23.2180 N   0  0  0  0  0
   30.5860   11.1390   19.8950 F   0  0  0  0  0
   17.7280    9.7790   21.2180 C   0  0  0  0  0
   17.4520    8.8020   20.2130 C   0  0  0  0  0
   16.1240    8.4040   19.9290 C   0  0  0  0  0
   15.0540    8.9730   20.6410 C   0  0  0  0  0
   15.3000    9.9410   21.6410 C   0  0  0  0  0
   16.6270   10.3380   21.9240 C   0  0  0  0  0
   21.6125    8.4171   22.7723 H   0  0  0  0  0
   23.1074    9.6398   25.7646 H   0  0  0  0  0
   22.6162   11.6285   26.2064 H   0  0  0  0  0
   24.0508   11.7693   25.1608 H   0  0  0  0  0
   22.8535   13.0864   25.2118 H   0  0  0  0  0
   20.8746   12.3437   21.3403 H   0  0  0  0  0
   20.2376    8.4765   20.9921 H   0  0  0  0  0
   20.2734    9.7170   19.8149 H   0  0  0  0  0
   18.6773   12.1134   22.3717 H   0  0  0  0  0
   19.2057   10.9676   23.5011 H   0  0  0  0  0
   21.8521   11.4622   18.9698 H   0  0  0  0  0
   24.3127   11.7637   18.1659 H   0  0  0  0  0
   26.6711   10.1186   21.9391 H   0  0  0  0  0
   29.0725   11.8359   17.9097 H   0  0  0  0  0
   26.5646   11.7082   17.9267 H   0  0  0  0  0
   18.2766    8.3564   19.6566 H   0  0  0  0  0
   15.9311    7.6570   19.1590 H   0  0  0  0  0
   14.0313    8.6667   20.4212 H   0  0  0  0  0
   14.4688   10.3803   22.1926 H   0  0  0  0  0
   16.8095   11.0852   22.6964 H   0  0  0  0  0
  1  2  1  0  0  0
  1  7  2  0  0  0
  1  8  1  0  0  0
  2  3  4  0  0  0
  2  6  1  0  0  0
  3  4  1  0  0  0
  3  5  2  0  0  0
  4  9  1  0  0  0
  8  9  1  0  0  0
  8 12  1  0  0  0
  9 10  1  0  0  0
  9 13  1  0  0  0
 10 11  1  0  0  0
 11 12  1  0  0  0
 11 27  1  0  0  0
 13 14  4  0  0  0
 13 17  4  0  0  0
 14 15  4  0  0  0
 15 16  4  0  0  0
 16 17  4  0  0  0
 16 18  1  0  0  0
 18 19  4  0  0  0
 18 23  4  0  0  0
 19 20  4  0  0  0
 20 21  4  0  0  0
 20 24  1  0  0  0
 21 22  4  0  0  0
 21 26  1  0  0  0
 22 23  4  0  0  0
 24 25  3  0  0  0
 27 28  4  0  0  0
 27 32  4  0  0  0
 28 29  4  0  0  0
 29 30  4  0  0  0
 30 31  4  0  0  0
 31 32  4  0  0  0
  4 33  1  0  0  0
  5 34  1  0  0  0
  6 35  1  0  0  0
  6 36  1  0  0  0
  6 37  1  0  0  0
  8 38  1  0  0  0
 10 39  1  0  0  0
 10 40  1  0  0  0
 12 41  1  0  0  0
 12 42  1  0  0  0
 14 43  1  0  0  0
 15 44  1  0  0  0
 19 45  1  0  0  0
 22 46  1  0  0  0
 23 47  1  0  0  0
 28 48  1  0  0  0
 29 49  1  0  0  0
 30 50  1  0  0  0
 31 51  1  0  0  0
 32 52  1  0  0  0
M  END
$$$$
