6uhu_ligand

Created by X-TOOL on Mon Aug  2 16:17:20 2021
 42 41  0  0  0  0  0  0  0  0999 V2000
   20.7110   40.7790   34.9850  C 0  0  0  4  0  5
   19.4940   40.5210   34.0190  B 0  0  0  1  0  4
   28.4660   42.2720   32.1790  C 0  0  0  3  0  4
   27.2500   41.8740   33.0280  C 0  0  0  3  0  4
   27.6440   40.7750   34.0050  C 0  0  0  3  0  4
   25.7240   39.8680   35.5130  C 0  0  0  3  0  4
   24.4770   40.2500   34.7260  C 0  0  0  3  0  4
   23.1650   40.1080   35.4840  C 0  0  0  3  0  4
   21.9590   40.0480   34.5500  C 0  0  0  3  0  4
   28.1730   42.4980   30.7890  N 0  3  0  4  0  4
   26.9280   40.6700   35.3110  N 0  3  0  3  0  4
   18.4880   41.5740   34.1540  O 0  0  0  3  0  3
   19.9460   40.5100   32.6140  O 0  0  0  3  0  3
   18.8640   39.2270   34.3140  O 0  0  0  3  0  3
   20.2261   41.2310   34.1072  H 0  0  0  1  0  1
   20.9797   41.5683   35.7025  H 0  0  0  1  0  1
   20.0184   40.0701   35.4621  H 0  0  0  1  0  1
   29.2113   41.4658   32.2466  H 0  0  0  1  0  1
   28.8885   43.1979   32.5963  H 0  0  0  1  0  1
   26.4484   41.5078   32.3697  H 0  0  0  1  0  1
   26.8926   42.7505   33.5884  H 0  0  0  1  0  1
   28.7107   40.9157   34.2338  H 0  0  0  1  0  1
   27.5040   39.8164   33.4839  H 0  0  0  1  0  1
   25.9733   38.8296   35.2494  H 0  0  0  1  0  1
   25.4679   39.9238   36.5813  H 0  0  0  1  0  1
   24.4266   39.6072   33.8348  H 0  0  0  1  0  1
   24.5788   41.3003   34.4154  H 0  0  0  1  0  1
   23.0494   40.9714   36.1556  H 0  0  0  1  0  1
   23.1983   39.1830   36.0783  H 0  0  0  1  0  1
   22.2689   40.4694   33.5823  H 0  0  0  1  0  1
   21.6935   38.9884   34.4204  H 0  0  0  1  0  1
   29.0192   42.7535   30.3045  H 0  0  0  1  0  1
   27.4994   43.2431   30.7044  H 0  0  0  1  0  1
   27.7952   41.6558   30.3840  H 0  0  0  1  0  1
   26.6751   41.6129   35.5621  H 0  0  0  1  0  1
   27.6061   40.3176   35.9683  H 0  0  0  1  0  1
   17.7787   41.4130   33.5428  H 0  0  0  1  0  1
   17.7788   41.4130   33.5428  H 0  0  0  1  0  1
   20.3206   41.3555   32.3964  H 0  0  0  1  0  1
   20.3206   41.3555   32.3964  H 0  0  0  1  0  1
   18.5233   39.2368   35.2008  H 0  0  0  1  0  1
   18.5233   39.2368   35.2008  H 0  0  0  1  0  1
  1  2  1  0  0  2
  9  1  1  0  0  2
  2 12  1  0  0  2
  2 14  1  0  0  2
  4  3  1  0  0  2
  3 10  1  0  0  2
  5  4  1  0  0  2
 11  5  1  0  0  2
  7  6  1  0  0  2
  6 11  1  0  0  2
  8  7  1  0  0  2
  8  9  1  0  0  2
  2 13  1  0  0  2
  1 15  1  0  0  2
  1 16  1  0  0  2
  1 17  1  0  0  2
  3 18  1  0  0  2
  3 19  1  0  0  2
  4 20  1  0  0  2
  4 21  1  0  0  2
  5 22  1  0  0  2
  5 23  1  0  0  2
  6 24  1  0  0  2
  6 25  1  0  0  2
  7 26  1  0  0  2
  7 27  1  0  0  2
  8 28  1  0  0  2
  8 29  1  0  0  2
  9 30  1  0  0  2
  9 31  1  0  0  2
 10 32  1  0  0  2
 10 33  1  0  0  2
 10 34  1  0  0  2
 11 35  1  0  0  2
 11 36  1  0  0  2
 12 37  1  0  0  2
 12 38  1  0  0  2
 13 39  1  0  0  2
 13 40  1  0  0  2
 14 41  1  0  0  2
 14 42  1  0  0  2
M  END
> <MOLECULAR_FORMULA>
C8H28N2O3B

> <MOLECULAR_WEIGHT>
210.9

> <NUM_HB_ATOMS>
5  

> <NUM_ROTOR>
9  

> <XLOGP2>
-1.15

$$$$
