#	Name:			6uhu_ligand
#	Creating user name:	wangrx
#	Creation time:		Thu Aug  5 18:20:41 2021

#	Modifying user name:	wangrx
#	Modification time:	Thu Aug  5 18:21:11 2021

@<TRIPOS>MOLECULE
6uhu_ligand
   41    40     1     0     0
SMALL
GAST_HUCK


@<TRIPOS>ATOM
      1 C10        20.7110   40.7790   34.9850 C.3       1 Q7V        -0.3457 
      2 B11        19.4940   40.5210   34.0190 B         1 Q7V         4.0000 
      3 C02        28.4660   42.2720   32.1790 C.3       1 Q7V        -0.0305 
      4 C03        27.2500   41.8740   33.0280 C.3       1 Q7V         0.0275 
      5 C04        27.6440   40.7750   34.0050 C.3       1 Q7V        -0.0288 
      6 C06        25.7240   39.8680   35.5130 C.3       1 Q7V        -0.0338 
      7 C07        24.4770   40.2500   34.7260 C.3       1 Q7V        -0.0149 
      8 C08        23.1650   40.1080   35.4840 C.3       1 Q7V        -0.0755 
      9 C09        21.9590   40.0480   34.5500 C.3       1 Q7V        -0.1825 
     10 N01        28.1730   42.4980   30.7890 N.4       1 Q7V         0.2187 
     11 N05        26.9280   40.6700   35.3110 N.4       1 Q7V         0.2271 
     12 O12        18.4880   41.5740   34.1540 O.3       1 Q7V        -0.4105 
     13 O13        19.9460   40.5100   32.6140 O.3       1 Q7V        -0.4105 
     14 O14        18.8640   39.2270   34.3140 O.3       1 Q7V        -0.4105 
     15 H2         20.9797   41.5683   35.7025 H         1 Q7V        -0.2101 
     16 H3         20.0184   40.0701   35.4621 H         1 Q7V        -0.2101 
     17 H4         29.2113   41.4658   32.2466 H         1 Q7V         0.0815 
     18 H5         28.8885   43.1979   32.5963 H         1 Q7V         0.0815 
     19 H6         26.4484   41.5078   32.3697 H         1 Q7V         0.0369 
     20 H7         26.8926   42.7505   33.5884 H         1 Q7V         0.0369 
     21 H8         28.7107   40.9157   34.2338 H         1 Q7V         0.0816 
     22 H9         27.5040   39.8164   33.4839 H         1 Q7V         0.0816 
     23 H10        25.9733   38.8296   35.2494 H         1 Q7V         0.0814 
     24 H11        25.4679   39.9238   36.5813 H         1 Q7V         0.0814 
     25 H12        24.4266   39.6072   33.8348 H         1 Q7V         0.0316 
     26 H13        24.5788   41.3003   34.4154 H         1 Q7V         0.0316 
     27 H14        23.0494   40.9714   36.1556 H         1 Q7V         0.0243 
     28 H15        23.1983   39.1830   36.0783 H         1 Q7V         0.0243 
     29 H16        22.2689   40.4694   33.5823 H         1 Q7V        -0.0084 
     30 H17        21.6935   38.9884   34.4204 H         1 Q7V        -0.0084 
     31 H18        29.0192   42.7535   30.3045 H         1 Q7V         0.1994 
     32 H19        27.4994   43.2431   30.7044 H         1 Q7V         0.1994 
     33 H20        27.7952   41.6558   30.3840 H         1 Q7V         0.1994 
     34 H21        26.6751   41.6129   35.5621 H         1 Q7V         0.2013 
     35 H22        27.6061   40.3176   35.9683 H         1 Q7V         0.2013 
     36 H23        17.7787   41.4130   33.5428 H         1 Q7V         0.2052 
     37 H24        17.7788   41.4130   33.5428 H         1 Q7V         0.2052 
     38 H25        20.3206   41.3555   32.3964 H         1 Q7V         0.2052 
     39 H26        20.3206   41.3555   32.3964 H         1 Q7V         0.2052 
     40 H27        18.5233   39.2368   35.2008 H         1 Q7V         0.2052 
     41 H28        18.5233   39.2368   35.2008 H         1 Q7V         0.2052 
@<TRIPOS>BOND
     1    1    2 1    
     2    9    1 1    
     3    2   12 1    
     4    2   14 1    
     5    4    3 1    
     6    3   10 1    
     7    5    4 1    
     8   11    5 1    
     9    7    6 1    
    10    6   11 1    
    11    8    7 1    
    12    8    9 1    
    13    2   13 1    
    14    1   15 1    
    15    1   16 1    
    16    3   17 1    
    17    3   18 1    
    18    4   19 1    
    19    4   20 1    
    20    5   21 1    
    21    5   22 1    
    22    6   23 1    
    23    6   24 1    
    24    7   25 1    
    25    7   26 1    
    26    8   27 1    
    27    8   28 1    
    28    9   29 1    
    29    9   30 1    
    30   10   31 1    
    31   10   32 1    
    32   10   33 1    
    33   11   34 1    
    34   11   35 1    
    35   12   36 1    
    36   12   37 1    
    37   13   38 1    
    38   13   39 1    
    39   14   40 1    
    40   14   41 1    
@<TRIPOS>SUBSTRUCTURE
     1 Q7V         1 PERM              0 ****  ****    0 ROOT 
