5a09_ligand
  -I-interpret- 

 51 53  0  0  0  0  0  0  0  0999 V2000
   -4.8580   35.9030   -4.8250 C   0  0  0  0  0
   -5.2610   37.0140   -3.9380 N   0  0  0  0  0
   -5.9260   36.8000   -2.7840 C   0  0  0  0  0
   -5.9030   35.5670   -2.2480 N   0  0  0  0  0
   -5.0630   34.5900   -2.7330 C   0  0  0  0  0
   -4.5210   34.7060   -3.9870 C   0  0  0  0  0
   -5.9320   35.6860   -5.8530 C   0  0  0  0  0
   -5.7200   36.0950   -7.1720 C   0  0  0  0  0
   -6.7130   35.9720   -8.1560 C   0  0  0  0  0
   -7.9490   35.4120   -7.7940 C   0  0  0  0  0
   -8.1760   35.0120   -6.4770 C   0  0  0  0  0
   -7.1760   35.1390   -5.5020 C   0  0  0  0  0
   -8.8770   35.3100   -8.6760 C   0  0  0  0  0
   -9.7570   35.2830   -9.4300 N   0  0  0  0  0
   -3.5810   33.7930   -4.6340 C   0  0  0  0  0
   -3.0720   32.9110   -3.9410 O   0  0  0  0  0
   -3.2910   33.8620   -6.0890 C   0  0  0  0  0
   -6.5930   35.4070   -0.9980 C   0  0  0  0  0
   -7.8570   34.8290   -1.0030 C   0  0  0  0  0
   -8.5550   34.6390    0.1790 C   0  0  0  0  0
   -8.0080   35.0130    1.4180 C   0  0  0  0  0
   -6.7160   35.5800    1.4520 C   0  0  0  0  0
   -6.0410   35.7760    0.2310 C   0  0  0  0  0
   -9.9290   34.0570    0.0760 C   0  0  0  0  0
  -10.1560   33.3450    1.1640 F   0  0  0  0  0
  -10.7510   35.1010   -0.0170 F   0  0  0  0  0
  -10.0660   33.2930   -0.9980 F   0  0  0  0  0
   -4.7540   33.4130   -1.8570 C   0  0  0  0  0
   -6.5680   37.7130   -2.2080 O   0  0  0  0  0
   -5.2810   38.3880   -4.4140 C   0  0  0  0  0
   -3.8620   38.9300   -4.5630 C   0  0  0  0  0
   -2.9200   38.3700   -3.9580 O   0  0  0  0  0
   -3.6820   39.9090   -5.3120 O   0  0  0  0  0
   -3.9528   36.1294   -5.3885 H   0  0  0  0  0
   -4.7550   36.5222   -7.4448 H   0  0  0  0  0
   -6.5292   36.3035   -9.1779 H   0  0  0  0  0
   -9.1446   34.5947   -6.2018 H   0  0  0  0  0
   -7.3636   34.8150   -4.4783 H   0  0  0  0  0
   -2.2198   33.9971   -6.2387 H   0  0  0  0  0
   -3.6119   32.9362   -6.5664 H   0  0  0  0  0
   -3.8292   34.7032   -6.5259 H   0  0  0  0  0
   -8.3047   34.5214   -1.9480 H   0  0  0  0  0
   -8.5728   34.8675    2.3388 H   0  0  0  0  0
   -6.2525   35.8590    2.3983 H   0  0  0  0  0
   -5.0513   36.2325    0.2459 H   0  0  0  0  0
   -5.0738   32.4975   -2.3546 H   0  0  0  0  0
   -3.6807   33.3715   -1.6717 H   0  0  0  0  0
   -5.2837   33.5174   -0.9101 H   0  0  0  0  0
   -5.8182   39.0026   -3.6917 H   0  0  0  0  0
   -5.7722   38.4161   -5.3867 H   0  0  0  0  0
   -3.2644   37.6415   -3.4362 H   0  0  0  0  0
  1  2  1  0  0  0
  1  6  1  0  0  0
  1  7  1  0  0  0
  2  3  1  0  0  0
  2 30  1  0  0  0
  3  4  1  0  0  0
  3 29  2  0  0  0
  4  5  1  0  0  0
  4 18  1  0  0  0
  5  6  2  0  0  0
  5 28  1  0  0  0
  6 15  1  0  0  0
  7  8  4  0  0  0
  7 12  4  0  0  0
  8  9  4  0  0  0
  9 10  4  0  0  0
 10 11  4  0  0  0
 10 13  1  0  0  0
 11 12  4  0  0  0
 13 14  3  0  0  0
 15 16  2  0  0  0
 15 17  1  0  0  0
 18 19  4  0  0  0
 18 23  4  0  0  0
 19 20  4  0  0  0
 20 21  4  0  0  0
 20 24  1  0  0  0
 21 22  4  0  0  0
 22 23  4  0  0  0
 24 25  1  0  0  0
 24 26  1  0  0  0
 24 27  1  0  0  0
 30 31  1  0  0  0
 31 32  1  0  0  0
 31 33  2  0  0  0
  1 34  1  0  0  0
  8 35  1  0  0  0
  9 36  1  0  0  0
 11 37  1  0  0  0
 12 38  1  0  0  0
 17 39  1  0  0  0
 17 40  1  0  0  0
 17 41  1  0  0  0
 19 42  1  0  0  0
 21 43  1  0  0  0
 22 44  1  0  0  0
 23 45  1  0  0  0
 28 46  1  0  0  0
 28 47  1  0  0  0
 28 48  1  0  0  0
 30 49  1  0  0  0
 30 50  1  0  0  0
 32 51  1  0  0  0
M  END
$$$$
