3aya_ligand
  -I-interpret- 

 66 67  0  0  0  0  0  0  0  0999 V2000
    7.1670   -2.5680  -38.8930 N   0  3  0  0  0
    6.3780   -3.0370  -40.0400 C   0  0  0  0  0
    6.1650   -1.8720  -41.0090 C   0  0  0  0  0
    7.1480   -1.5360  -41.7070 O   0  0  0  0  0
    5.0360   -3.5800  -39.5390 C   0  0  0  0  0
    4.4350   -2.6430  -38.6330 O   0  0  0  0  0
    5.2590   -4.9170  -38.8310 C   0  0  0  0  0
    5.0330   -1.3450  -41.0410 O   0  0  0  0  0
    2.1420   -2.9660  -39.0760 O   0  0  0  0  0
    3.2530   -2.0650  -39.2050 C   0  0  0  0  0
    2.9500   -0.7480  -38.4880 C   0  0  0  0  0
    4.1240    0.1310  -38.6040 N   0  0  0  0  0
    2.6610   -1.0040  -37.0080 C   0  0  0  0  0
    2.3020    0.2420  -36.3930 O   0  0  0  0  0
    1.5170   -2.0160  -36.9240 C   0  0  0  0  0
    0.3250   -1.4440  -37.4700 O   0  0  0  0  0
    1.8790   -3.2840  -37.7000 C   0  0  0  0  0
    0.7090   -4.2690  -37.6300 C   0  0  0  0  0
    1.0380   -5.4550  -38.3580 O   0  0  0  0  0
    4.0170    1.4380  -38.8190 C   0  0  0  0  0
    2.7890    2.0110  -38.9380 O   0  0  0  0  0
    5.1630    2.2180  -38.9290 C   0  0  0  0  0
    2.3250    0.1530  -34.9610 C   0  0  0  0  0
    2.6930    1.5390  -34.4260 C   0  0  0  0  0
    2.5930    1.5840  -32.9010 C   0  0  0  0  0
    1.2080    1.0930  -32.4800 C   0  0  0  0  0
    0.9720   -0.3060  -33.0530 C   0  0  0  0  0
   -0.3970   -0.8130  -32.5940 C   0  0  0  0  0
    4.0190    1.8860  -34.8320 O   0  0  0  0  0
    2.7800    2.9270  -32.4490 O   0  0  0  0  0
    0.2140    1.9850  -32.9920 O   0  0  0  0  0
    1.0310   -0.2590  -34.4880 O   0  0  0  0  0
   -0.5940   -2.1510  -33.0570 O   0  0  0  0  0
    8.0616   -2.2056  -39.2227 H   0  0  0  0  0
    6.6564   -1.8287  -38.4101 H   0  0  0  0  0
    7.3289   -3.3452  -38.2526 H   0  0  0  0  0
    6.9042   -3.8361  -40.5622 H   0  0  0  0  0
    7.8976   -2.0961  -41.4927 H   0  0  0  0  0
    4.3685   -3.7272  -40.3881 H   0  0  0  0  0
    5.9186   -4.7684  -37.9760 H   0  0  0  0  0
    4.3015   -5.3097  -38.4889 H   0  0  0  0  0
    5.7154   -5.6226  -39.5252 H   0  0  0  0  0
    3.4168   -1.8773  -40.2661 H   0  0  0  0  0
    2.0761   -0.2816  -38.9428 H   0  0  0  0  0
    5.0543   -0.2778  -38.5162 H   0  0  0  0  0
    3.5304   -1.4059  -36.4877 H   0  0  0  0  0
    1.3495   -2.2739  -35.8783 H   0  0  0  0  0
   -0.3895   -2.0828  -37.4149 H   0  0  0  0  0
    2.7712   -3.7278  -37.2582 H   0  0  0  0  0
   -0.1782   -3.8100  -38.0663 H   0  0  0  0  0
    0.5124   -4.5253  -36.5890 H   0  0  0  0  0
    0.3031   -6.0711  -38.3128 H   0  0  0  0  0
    5.1865    2.6904  -39.9110 H   0  0  0  0  0
    5.1541    2.9856  -38.1552 H   0  0  0  0  0
    6.0434    1.5872  -38.8067 H   0  0  0  0  0
    3.0532   -0.5813  -34.6166 H   0  0  0  0  0
    1.9865    2.2587  -34.8395 H   0  0  0  0  0
    3.3608    0.9469  -32.4621 H   0  0  0  0  0
    1.1466    1.0600  -31.3922 H   0  0  0  0  0
    1.7446   -0.9863  -32.6948 H   0  0  0  0  0
   -1.1765   -0.1702  -33.0030 H   0  0  0  0  0
   -0.4423   -0.7967  -31.5051 H   0  0  0  0  0
    4.2393    2.7561  -34.4915 H   0  0  0  0  0
    2.7168    2.9529  -31.4914 H   0  0  0  0  0
   -0.6564    1.6777  -32.7283 H   0  0  0  0  0
   -1.4535   -2.4654  -32.7672 H   0  0  0  0  0
  1  2  1  0  0  0
  2  3  1  0  0  0
  2  5  1  0  0  0
  3  4  1  0  0  0
  3  8  2  0  0  0
  5  6  1  0  0  0
  5  7  1  0  0  0
  6 10  1  0  0  0
 10  9  1  0  0  0
  9 17  1  0  0  0
 10 11  1  0  0  0
 11 12  1  0  0  0
 11 13  1  0  0  0
 12 20  1  0  0  0
 13 14  1  0  0  0
 13 15  1  0  0  0
 14 23  1  0  0  0
 15 16  1  0  0  0
 15 17  1  0  0  0
 17 18  1  0  0  0
 18 19  1  0  0  0
 20 21  2  0  0  0
 20 22  1  0  0  0
 23 24  1  0  0  0
 23 32  1  0  0  0
 24 25  1  0  0  0
 24 29  1  0  0  0
 25 26  1  0  0  0
 25 30  1  0  0  0
 26 27  1  0  0  0
 26 31  1  0  0  0
 27 28  1  0  0  0
 27 32  1  0  0  0
 28 33  1  0  0  0
  1 34  1  0  0  0
  1 35  1  0  0  0
  1 36  1  0  0  0
  2 37  1  0  0  0
  4 38  1  0  0  0
  5 39  1  0  0  0
  7 40  1  0  0  0
  7 41  1  0  0  0
  7 42  1  0  0  0
 10 43  1  0  0  0
 11 44  1  0  0  0
 12 45  1  0  0  0
 13 46  1  0  0  0
 15 47  1  0  0  0
 16 48  1  0  0  0
 17 49  1  0  0  0
 18 50  1  0  0  0
 18 51  1  0  0  0
 19 52  1  0  0  0
 22 53  1  0  0  0
 22 54  1  0  0  0
 22 55  1  0  0  0
 23 56  1  0  0  0
 24 57  1  0  0  0
 25 58  1  0  0  0
 26 59  1  0  0  0
 27 60  1  0  0  0
 28 61  1  0  0  0
 28 62  1  0  0  0
 29 63  1  0  0  0
 30 64  1  0  0  0
 31 65  1  0  0  0
 33 66  1  0  0  0
M  END
$$$$
