### 
### Created by X-TOOL on Mon Sep 10 21:13:31 2018
### 

@<TRIPOS>MOLECULE
5ksv_ligand
  190   191     1     0     0
SMALL
GAST_HUCK


@<TRIPOS>ATOM
      1 N          21.5240   65.3230   25.7270 N.4       1 MET         0.2379
      2 CA         21.5920   63.9600   26.2410 C.3       1 MET         0.0658
      3 C          22.3100   63.0230   25.2770 C.2       1 MET         0.2267
      4 O          22.3630   63.2530   24.0630 O.2       1 MET        -0.3907
      5 CB         20.1930   63.3910   26.5270 C.3       1 MET         0.0168
      6 CG         19.8740   63.2090   28.0010 C.3       1 MET         0.0007
      7 SD         19.7580   64.7660   28.9150 S.3       1 MET        -0.1638
      8 CE         18.1600   65.4010   28.3900 C.3       1 MET        -0.0181
      9 N          22.8610   61.9600   25.8470 N.am      1 ALA        -0.2613
     10 CA         23.4180   60.8520   25.0960 C.3       1 ALA         0.1283
     11 C          22.4890   59.6460   25.2800 C.2       1 ALA         0.2037
     12 O          22.9340   58.4950   25.2640 O.2       1 ALA        -0.3944
     13 CB         24.8160   60.5370   25.6120 C.3       1 ALA        -0.0244
     14 N          21.1980   59.9280   25.4470 N.am      1 THR        -0.2613
     15 CA         20.2180   58.9090   25.8240 C.3       1 THR         0.1567
     16 C          18.9660   58.9340   24.9460 C.2       1 THR         0.2090
     17 O          18.1460   59.8360   25.0720 O.2       1 THR        -0.3941
     18 CB         19.7700   59.1240   27.2830 C.3       1 THR         0.0924
     19 OG1        20.9210   59.1390   28.1370 O.3       1 THR        -0.3874
     20 CG2        18.8180   58.0310   27.7320 C.3       1 THR        -0.0346
     21 N          18.7990   57.9270   24.0730 N.am      1 PRO        -0.2498
     22 CA         17.5580   57.8130   23.2960 C.3       1 PRO         0.1338
     23 C          16.3930   57.4380   24.2070 C.2       1 PRO         0.2041
     24 O          16.5540   56.6000   25.0900 O.2       1 PRO        -0.3944
     25 CB         17.8380   56.6470   22.3310 C.3       1 PRO        -0.0104
     26 CG         19.3500   56.4330   22.3800 C.3       1 PRO        -0.0281
     27 CD         19.7450   56.8380   23.7750 C.3       1 PRO         0.0369
     28 N          15.2360   58.0470   23.9990 N.am      1 LEU        -0.2637
     29 CA         14.0650   57.6920   24.7840 C.3       1 LEU         0.1312
     30 C          13.1650   56.7830   23.9510 C.2       1 LEU         0.2039
     31 O          13.3560   56.6580   22.7360 O.2       1 LEU        -0.3944
     32 CB         13.3320   58.9660   25.2540 C.3       1 LEU        -0.0101
     33 CG         14.1780   59.8230   26.2080 C.3       1 LEU        -0.0425
     34 CD1        13.5300   61.1680   26.5420 C.3       1 LEU        -0.0625
     35 CD2        14.4730   59.0500   27.4890 C.3       1 LEU        -0.0625
     36 N          12.2050   56.1260   24.5930 N.am      1 LEU        -0.2637
     37 CA         11.3290   55.2180   23.8600 C.3       1 LEU         0.1312
     38 C           9.8740   55.4830   24.1930 C.2       1 LEU         0.2039
     39 O           9.5710   56.1060   25.1970 O.2       1 LEU        -0.3944
     40 CB         11.6550   53.7540   24.1800 C.3       1 LEU        -0.0101
     41 CG         11.1010   53.2340   25.5020 C.3       1 LEU        -0.0425
     42 CD1        10.9500   51.7170   25.4700 C.3       1 LEU        -0.0625
     43 CD2        12.0040   53.6510   26.6570 C.3       1 LEU        -0.0625
     44 N           8.9770   54.9960   23.3470 N.am      1 MET        -0.2637
     45 CA          7.5530   55.0470   23.6530 C.3       1 MET         0.1317
     46 C           7.1420   53.7940   24.4120 C.2       1 MET         0.2039
     47 O           7.5020   52.6670   24.0470 O.2       1 MET        -0.3944
     48 CB          6.7260   55.2060   22.3750 C.3       1 MET        -0.0034
     49 CG          7.0460   56.5060   21.6930 C.3       1 MET        -0.0024
     50 SD          6.1040   56.8080   20.2150 S.3       1 MET        -0.1639
     51 CE          7.3590   57.6970   19.2920 C.3       1 MET        -0.0181
     52 N           6.3850   53.9970   25.4790 N.am      1 GLN        -0.2636
     53 CA          6.0320   52.8770   26.3330 C.3       1 GLN         0.1330
     54 C           4.7590   52.1970   25.8720 C.2       1 GLN         0.2040
     55 O           3.7620   52.8580   25.6180 O.2       1 GLN        -0.3944
     56 CB          5.8920   53.3400   27.7770 C.3       1 GLN         0.0045
     57 CG          7.2230   53.4150   28.4980 C.3       1 GLN         0.0412
     58 CD          7.0290   53.6630   29.9660 C.2       1 GLN         0.1737
     59 OE1         6.3800   54.6320   30.3550 O.2       1 GLN        -0.3973
     60 NE2         7.5520   52.7680   30.7950 N.am      1 GLN        -0.3009
     61 N           4.8120   50.8750   25.7440 N.am      1 ALA        -0.2640
     62 CA          3.6150   50.0780   25.5060 C.3       1 ALA         0.1282
     63 C           2.7370   50.1590   26.7460 C.2       1 ALA         0.2036
     64 O           3.2450   50.2150   27.8720 O.2       1 ALA        -0.3944
     65 CB          3.9920   48.6360   25.2410 C.3       1 ALA        -0.0244
     66 N           1.4240   50.1550   26.5390 N.am      1 LEU        -0.2637
     67 CA          0.4570   50.1770   27.6320 C.3       1 LEU         0.1314
     68 C          -0.2160   48.8130   27.7400 C.2       1 LEU         0.2064
     69 O          -0.4320   48.1390   26.7240 O.2       1 LEU        -0.3942
     70 CB         -0.5890   51.2430   27.3610 C.3       1 LEU        -0.0101
     71 CG         -0.0440   52.6570   27.1920 C.3       1 LEU        -0.0425
     72 CD1        -1.0980   53.5210   26.5600 C.3       1 LEU        -0.0625
     73 CD2         0.3680   53.2460   28.5390 C.3       1 LEU        -0.0625
     74 N          -0.5000   48.3680   28.9740 N.am      1 PRO        -0.2498
     75 CA         -1.1960   47.0880   29.1570 C.3       1 PRO         0.1337
     76 C          -2.6890   47.2340   28.8850 C.2       1 PRO         0.2035
     77 O          -3.2830   48.2420   29.2670 O.2       1 PRO        -0.3944
     78 CB         -0.9670   46.7650   30.6460 C.3       1 PRO        -0.0104
     79 CG         -0.6710   48.0930   31.2940 C.3       1 PRO        -0.0281
     80 CD          0.0420   48.9000   30.2390 C.3       1 PRO         0.0369
     81 N          -3.2830   46.2440   28.2330 N.am      1 MET        -0.2695
     82 CA         -4.7310   46.1910   28.0880 C.3       1 MET         0.0951
     83 C          -5.3700   45.5790   29.3330 C.2       1 MET         0.0601
     84 O          -6.2730   46.1660   29.9370 O.co2     1 MET        -0.5666
     85 CB         -5.1070   45.3710   26.8560 C.3       1 MET        -0.0089
     86 CG         -4.4380   45.8490   25.5890 C.3       1 MET        -0.0030
     87 SD         -4.8400   44.8130   24.1830 S.3       1 MET        -0.1639
     88 CE         -4.2690   45.8510   22.8270 C.3       1 MET        -0.0181
     89 OXT        -4.9980   44.4830   29.7640 O.co2     1 MET        -0.5666
     90 H1         21.0435   65.9091   26.3916 H         1 MET         0.2015
     91 H2         21.0239   65.3275   24.8518 H         1 MET         0.2015
     92 H3         22.4576   65.6746   25.5824 H         1 MET         0.2015
     93 H4         22.1565   63.9851   27.1848 H         1 MET         0.1098
     94 H5         20.1143   62.4102   26.0352 H         1 MET         0.0354
     95 H6         19.4488   64.0775   26.0971 H         1 MET         0.0354
     96 H7         20.6673   62.5974   28.4555 H         1 MET         0.0380
     97 H8         18.9115   62.6834   28.0861 H         1 MET         0.0380
     98 H9         17.9674   66.3641   28.8854 H         1 MET         0.0340
     99 H10        17.3724   64.6838   28.6641 H         1 MET         0.0340
    100 H11        18.1625   65.5438   27.2993 H         1 MET         0.0340
    101 H12        22.8940   61.9206   26.8457 H         1 ALA         0.1884
    102 H13        23.4753   61.1150   24.0295 H         1 ALA         0.0797
    103 H14        25.2368   59.6962   25.0410 H         1 ALA         0.0277
    104 H15        24.7615   60.2663   26.6768 H         1 ALA         0.0277
    105 H16        25.4594   61.4209   25.4908 H         1 ALA         0.0277
    106 H17        20.8878   60.8687   25.3100 H         1 THR         0.1884
    107 H18        20.6942   57.9218   25.7316 H         1 THR         0.0826
    108 H19        19.2549   60.0932   27.3560 H         1 THR         0.0639
    109 H20        20.6450   59.2715   29.0363 H         1 THR         0.2101
    110 H21        18.5173   58.2122   28.7745 H         1 THR         0.0257
    111 H22        19.3200   57.0549   27.6596 H         1 THR         0.0257
    112 H23        17.9266   58.0336   27.0875 H         1 THR         0.0257
    113 H24        17.3359   58.7444   22.7546 H         1 PRO         0.0802
    114 H25        17.5191   56.9068   21.3108 H         1 PRO         0.0313
    115 H26        17.3102   55.7398   22.6603 H         1 PRO         0.0313
    116 H27        19.8560   57.0639   21.6344 H         1 PRO         0.0287
    117 H28        19.5991   55.3774   22.1968 H         1 PRO         0.0287
    118 H29        19.6239   56.0026   24.4803 H         1 PRO         0.0524
    119 H30        20.7848   57.1957   23.8052 H         1 PRO         0.0524
    120 H31        15.1671   58.7560   23.2972 H         1 LEU         0.1883
    121 H32        14.3910   57.1356   25.6751 H         1 LEU         0.0800
    122 H33        12.4092   58.6689   25.7737 H         1 LEU         0.0315
    123 H34        13.0772   59.5707   24.3711 H         1 LEU         0.0315
    124 H35        15.1344   60.0313   25.7062 H         1 LEU         0.0298
    125 H36        14.1833   61.7300   27.2256 H         1 LEU         0.0232
    126 H37        12.5562   60.9963   27.0239 H         1 LEU         0.0232
    127 H38        13.3847   61.7448   25.6167 H         1 LEU         0.0232
    128 H39        14.9382   58.0858   27.2365 H         1 LEU         0.0232
    129 H40        13.5345   58.8725   28.0346 H         1 LEU         0.0232
    130 H41        15.1591   59.6340   28.1200 H         1 LEU         0.0232
    131 H42        12.0830   56.2536   25.5773 H         1 LEU         0.1883
    132 H43        11.4812   55.3855   22.7835 H         1 LEU         0.0800
    133 H44        12.7496   53.6479   24.2057 H         1 LEU         0.0315
    134 H45        11.2450   53.1306   23.3717 H         1 LEU         0.0315
    135 H46        10.1069   53.6779   25.6592 H         1 LEU         0.0298
    136 H47        10.5496   51.3680   26.4333 H         1 LEU         0.0232
    137 H48        11.9320   51.2544   25.2920 H         1 LEU         0.0232
    138 H49        10.2595   51.4342   24.6618 H         1 LEU         0.0232
    139 H50        12.1036   54.7464   26.6675 H         1 LEU         0.0232
    140 H51        12.9964   53.1939   26.5301 H         1 LEU         0.0232
    141 H52        11.5637   53.3138   27.6069 H         1 LEU         0.0232
    142 H53         9.2818   54.5878   22.4865 H         1 MET         0.1883
    143 H54         7.3659   55.9202   24.2953 H         1 MET         0.0800
    144 H55         5.6567   55.1870   22.6323 H         1 MET         0.0320
    145 H56         6.9536   54.3744   21.6919 H         1 MET         0.0320
    146 H57         8.1132   56.5017   21.4265 H         1 MET         0.0378
    147 H58         6.8481   57.3243   22.4009 H         1 MET         0.0378
    148 H59         6.9572   57.9833   18.3089 H         1 MET         0.0340
    149 H60         8.2391   57.0517   19.1545 H         1 MET         0.0340
    150 H61         7.6503   58.6013   19.8464 H         1 MET         0.0340
    151 H62         6.0580   54.9169   25.6957 H         1 GLN         0.1883
    152 H63         6.8478   52.1408   26.2836 H         1 GLN         0.0801
    153 H64         5.2412   52.6327   28.3120 H         1 GLN         0.0337
    154 H65         5.4314   54.3389   27.7834 H         1 GLN         0.0337
    155 H66         7.8175   54.2358   28.0705 H         1 GLN         0.0504
    156 H67         7.7594   52.4643   28.3621 H         1 GLN         0.0504
    157 H68         7.4526   52.8838   31.7833 H         1 GLN         0.1814
    158 H69         8.0454   51.9779   30.4313 H         1 GLN         0.1814
    159 H70         5.6971   50.4147   25.8129 H         1 ALA         0.1883
    160 H71         3.0705   50.4779   24.6379 H         1 ALA         0.0797
    161 H72         3.0811   48.0456   25.0631 H         1 ALA         0.0277
    162 H73         4.5272   48.2308   26.1124 H         1 ALA         0.0277
    163 H74         4.6416   48.5837   24.3549 H         1 ALA         0.0277
    164 H75         1.0857   50.1362   25.5981 H         1 LEU         0.1883
    165 H76         0.9751   50.4049   28.5752 H         1 LEU         0.0800
    166 H77        -1.2957   51.2489   28.2039 H         1 LEU         0.0315
    167 H78        -1.1216   50.9707   26.4379 H         1 LEU         0.0315
    168 H79         0.8374   52.6237   26.5347 H         1 LEU         0.0298
    169 H80        -0.7090   54.5424   26.4361 H         1 LEU         0.0232
    170 H81        -1.9888   53.5436   27.2049 H         1 LEU         0.0232
    171 H82        -1.3679   53.1097   25.5762 H         1 LEU         0.0232
    172 H83         1.1395   52.6095   28.9969 H         1 LEU         0.0232
    173 H84        -0.5086   53.2939   29.2018 H         1 LEU         0.0232
    174 H85         0.7699   54.2588   28.3888 H         1 LEU         0.0232
    175 H86        -0.7713   46.3087   28.5071 H         1 PRO         0.0802
    176 H87        -0.1160   46.0785   30.7659 H         1 PRO         0.0313
    177 H88        -1.8679   46.3127   31.0862 H         1 PRO         0.0313
    178 H89        -0.0272   47.9567   32.1754 H         1 PRO         0.0287
    179 H90        -1.6042   48.5914   31.5951 H         1 PRO         0.0287
    180 H91        -0.1840   49.9714   30.3439 H         1 PRO         0.0524
    181 H92         1.1299   48.7475   30.2957 H         1 PRO         0.0524
    182 H93        -2.7244   45.5179   27.8321 H         1 MET         0.1875
    183 H94        -5.1109   47.2156   27.9622 H         1 MET         0.0726
    184 H95        -6.1967   45.4292   26.7179 H         1 MET         0.0313
    185 H96        -4.8148   44.3251   27.0310 H         1 MET         0.0313
    186 H97        -3.3481   45.8383   25.7374 H         1 MET         0.0378
    187 H98        -4.7694   46.8766   25.3787 H         1 MET         0.0378
    188 H99        -4.4519   45.3387   21.8709 H         1 MET         0.0340
    189 H100       -3.1917   46.0423   22.9402 H         1 MET         0.0340
    190 H101       -4.8146   46.8061   22.8414 H         1 MET         0.0340
@<TRIPOS>BOND
     1    1    2 1  
     2    2    3 1  
     3    2    5 1  
     4    3    4 2  
     5    3    9 am 
     6    5    6 1  
     7    6    7 1  
     8    7    8 1  
     9    9   10 1  
    10   10   11 1  
    11   10   13 1  
    12   11   12 2  
    13   11   14 am 
    14   14   15 1  
    15   15   16 1  
    16   15   18 1  
    17   16   17 2  
    18   16   21 am 
    19   18   19 1  
    20   18   20 1  
    21   21   22 1  
    22   21   27 1  
    23   22   23 1  
    24   22   25 1  
    25   23   24 2  
    26   23   28 am 
    27   25   26 1  
    28   26   27 1  
    29   28   29 1  
    30   29   30 1  
    31   29   32 1  
    32   30   31 2  
    33   30   36 am 
    34   32   33 1  
    35   33   34 1  
    36   33   35 1  
    37   36   37 1  
    38   37   38 1  
    39   37   40 1  
    40   38   39 2  
    41   38   44 am 
    42   40   41 1  
    43   41   42 1  
    44   41   43 1  
    45   44   45 1  
    46   45   46 1  
    47   45   48 1  
    48   46   47 2  
    49   46   52 am 
    50   48   49 1  
    51   49   50 1  
    52   50   51 1  
    53   52   53 1  
    54   53   54 1  
    55   53   56 1  
    56   54   55 2  
    57   54   61 am 
    58   56   57 1  
    59   57   58 1  
    60   58   59 2  
    61   58   60 am 
    62   61   62 1  
    63   62   63 1  
    64   62   65 1  
    65   63   64 2  
    66   63   66 am 
    67   66   67 1  
    68   67   68 1  
    69   67   70 1  
    70   68   69 2  
    71   68   74 am 
    72   70   71 1  
    73   71   72 1  
    74   71   73 1  
    75   74   75 1  
    76   74   80 1  
    77   75   76 1  
    78   75   78 1  
    79   76   77 2  
    80   76   81 am 
    81   78   79 1  
    82   79   80 1  
    83   81   82 1  
    84   82   83 1  
    85   82   85 1  
    86   83   84 ar 
    87   83   89 ar 
    88   85   86 1  
    89   86   87 1  
    90   87   88 1  
    91    1   90 1  
    92    1   91 1  
    93    1   92 1  
    94    2   93 1  
    95    5   94 1  
    96    5   95 1  
    97    6   96 1  
    98    6   97 1  
    99    8   98 1  
   100    8   99 1  
   101    8  100 1  
   102    9  101 1  
   103   10  102 1  
   104   13  103 1  
   105   13  104 1  
   106   13  105 1  
   107   14  106 1  
   108   15  107 1  
   109   18  108 1  
   110   19  109 1  
   111   20  110 1  
   112   20  111 1  
   113   20  112 1  
   114   22  113 1  
   115   25  114 1  
   116   25  115 1  
   117   26  116 1  
   118   26  117 1  
   119   27  118 1  
   120   27  119 1  
   121   28  120 1  
   122   29  121 1  
   123   32  122 1  
   124   32  123 1  
   125   33  124 1  
   126   34  125 1  
   127   34  126 1  
   128   34  127 1  
   129   35  128 1  
   130   35  129 1  
   131   35  130 1  
   132   36  131 1  
   133   37  132 1  
   134   40  133 1  
   135   40  134 1  
   136   41  135 1  
   137   42  136 1  
   138   42  137 1  
   139   42  138 1  
   140   43  139 1  
   141   43  140 1  
   142   43  141 1  
   143   44  142 1  
   144   45  143 1  
   145   48  144 1  
   146   48  145 1  
   147   49  146 1  
   148   49  147 1  
   149   51  148 1  
   150   51  149 1  
   151   51  150 1  
   152   52  151 1  
   153   53  152 1  
   154   56  153 1  
   155   56  154 1  
   156   57  155 1  
   157   57  156 1  
   158   60  157 1  
   159   60  158 1  
   160   61  159 1  
   161   62  160 1  
   162   65  161 1  
   163   65  162 1  
   164   65  163 1  
   165   66  164 1  
   166   67  165 1  
   167   70  166 1  
   168   70  167 1  
   169   71  168 1  
   170   72  169 1  
   171   72  170 1  
   172   72  171 1  
   173   73  172 1  
   174   73  173 1  
   175   73  174 1  
   176   75  175 1  
   177   78  176 1  
   178   78  177 1  
   179   79  178 1  
   180   79  179 1  
   181   80  180 1  
   182   80  181 1  
   183   81  182 1  
   184   82  183 1  
   185   85  184 1  
   186   85  185 1  
   187   86  186 1  
   188   86  187 1  
   189   88  188 1  
   190   88  189 1  
   191   88  190 1  
@<TRIPOS>SUBSTRUCTURE
     1 MET         1

