5ksv_ligand
  -I-interpret- 

191192  0  0  0  0  0  0  0  0999 V2000
   21.5240   65.3230   25.7270 N   0  3  0  0  0
   21.5920   63.9600   26.2410 C   0  0  0  0  0
   22.3100   63.0230   25.2770 C   0  0  0  0  0
   22.3630   63.2530   24.0630 O   0  0  0  0  0
   20.1930   63.3910   26.5270 C   0  0  0  0  0
   19.8740   63.2090   28.0010 C   0  0  0  0  0
   19.7580   64.7660   28.9150 S   0  0  0  0  0
   18.1600   65.4010   28.3900 C   0  0  0  0  0
   22.8610   61.9600   25.8470 N   0  0  0  0  0
   23.4180   60.8520   25.0960 C   0  0  0  0  0
   22.4890   59.6460   25.2800 C   0  0  0  0  0
   22.9340   58.4950   25.2640 O   0  0  0  0  0
   24.8160   60.5370   25.6120 C   0  0  0  0  0
   21.1980   59.9280   25.4470 N   0  0  0  0  0
   20.2180   58.9090   25.8240 C   0  0  0  0  0
   18.9660   58.9340   24.9460 C   0  0  0  0  0
   18.1460   59.8360   25.0720 O   0  0  0  0  0
   19.7700   59.1240   27.2830 C   0  0  0  0  0
   20.9210   59.1390   28.1370 O   0  0  0  0  0
   18.8180   58.0310   27.7320 C   0  0  0  0  0
   18.7990   57.9270   24.0730 N   0  0  0  0  0
   17.5580   57.8130   23.2960 C   0  0  0  0  0
   16.3930   57.4380   24.2070 C   0  0  0  0  0
   16.5540   56.6000   25.0900 O   0  0  0  0  0
   17.8380   56.6470   22.3310 C   0  0  0  0  0
   19.3500   56.4330   22.3800 C   0  0  0  0  0
   19.7450   56.8380   23.7750 C   0  0  0  0  0
   15.2360   58.0470   23.9990 N   0  0  0  0  0
   14.0650   57.6920   24.7840 C   0  0  0  0  0
   13.1650   56.7830   23.9510 C   0  0  0  0  0
   13.3560   56.6580   22.7360 O   0  0  0  0  0
   13.3320   58.9660   25.2540 C   0  0  0  0  0
   14.1780   59.8230   26.2080 C   0  0  0  0  0
   13.5300   61.1680   26.5420 C   0  0  0  0  0
   14.4730   59.0500   27.4890 C   0  0  0  0  0
   12.2050   56.1260   24.5930 N   0  0  0  0  0
   11.3290   55.2180   23.8600 C   0  0  0  0  0
    9.8740   55.4830   24.1930 C   0  0  0  0  0
    9.5710   56.1060   25.1970 O   0  0  0  0  0
   11.6550   53.7540   24.1800 C   0  0  0  0  0
   11.1010   53.2340   25.5020 C   0  0  0  0  0
   10.9500   51.7170   25.4700 C   0  0  0  0  0
   12.0040   53.6510   26.6570 C   0  0  0  0  0
    8.9770   54.9960   23.3470 N   0  0  0  0  0
    7.5530   55.0470   23.6530 C   0  0  0  0  0
    7.1420   53.7940   24.4120 C   0  0  0  0  0
    7.5020   52.6670   24.0470 O   0  0  0  0  0
    6.7260   55.2060   22.3750 C   0  0  0  0  0
    7.0460   56.5060   21.6930 C   0  0  0  0  0
    6.1040   56.8080   20.2150 S   0  0  0  0  0
    7.3590   57.6970   19.2920 C   0  0  0  0  0
    6.3850   53.9970   25.4790 N   0  0  0  0  0
    6.0320   52.8770   26.3330 C   0  0  0  0  0
    4.7590   52.1970   25.8720 C   0  0  0  0  0
    3.7620   52.8580   25.6180 O   0  0  0  0  0
    5.8920   53.3400   27.7770 C   0  0  0  0  0
    7.2230   53.4150   28.4980 C   0  0  0  0  0
    7.0290   53.6630   29.9660 C   0  0  0  0  0
    6.3800   54.6320   30.3550 O   0  0  0  0  0
    7.5520   52.7680   30.7950 N   0  0  0  0  0
    4.8120   50.8750   25.7440 N   0  0  0  0  0
    3.6150   50.0780   25.5060 C   0  0  0  0  0
    2.7370   50.1590   26.7460 C   0  0  0  0  0
    3.2450   50.2150   27.8720 O   0  0  0  0  0
    3.9920   48.6360   25.2410 C   0  0  0  0  0
    1.4240   50.1550   26.5390 N   0  0  0  0  0
    0.4570   50.1770   27.6320 C   0  0  0  0  0
   -0.2160   48.8130   27.7400 C   0  0  0  0  0
   -0.4320   48.1390   26.7240 O   0  0  0  0  0
   -0.5890   51.2430   27.3610 C   0  0  0  0  0
   -0.0440   52.6570   27.1920 C   0  0  0  0  0
   -1.0980   53.5210   26.5600 C   0  0  0  0  0
    0.3680   53.2460   28.5390 C   0  0  0  0  0
   -0.5000   48.3680   28.9740 N   0  0  0  0  0
   -1.1960   47.0880   29.1570 C   0  0  0  0  0
   -2.6890   47.2340   28.8850 C   0  0  0  0  0
   -3.2830   48.2420   29.2670 O   0  0  0  0  0
   -0.9670   46.7650   30.6460 C   0  0  0  0  0
   -0.6710   48.0930   31.2940 C   0  0  0  0  0
    0.0420   48.9000   30.2390 C   0  0  0  0  0
   -3.2830   46.2440   28.2330 N   0  0  0  0  0
   -4.7310   46.1910   28.0880 C   0  0  0  0  0
   -5.3700   45.5790   29.3330 C   0  0  0  0  0
   -6.2730   46.1660   29.9370 O   0  0  0  0  0
   -5.1070   45.3710   26.8560 C   0  0  0  0  0
   -4.4380   45.8490   25.5890 C   0  0  0  0  0
   -4.8400   44.8130   24.1830 S   0  0  0  0  0
   -4.2690   45.8510   22.8270 C   0  0  0  0  0
   -4.9980   44.4830   29.7640 O   0  0  0  0  0
   22.4682   65.6657   25.5497 H   0  0  0  0  0
   20.9893   65.3313   24.8584 H   0  0  0  0  0
   21.0671   65.9220   26.4146 H   0  0  0  0  0
   22.1574   64.0186   27.1711 H   0  0  0  0  0
   20.1512   62.4032   26.0680 H   0  0  0  0  0
   19.4716   64.1059   26.1311 H   0  0  0  0  0
   20.6861   62.6310   28.4421 H   0  0  0  0  0
   18.9029   62.7183   28.0669 H   0  0  0  0  0
   18.1638   65.5420   27.3092 H   0  0  0  0  0
   17.3805   64.6894   28.6621 H   0  0  0  0  0
   17.9704   66.3552   28.8815 H   0  0  0  0  0
   22.8947   61.9198   26.8657 H   0  0  0  0  0
   23.4962   61.1002   24.0375 H   0  0  0  0  0
   25.4525   61.4136   25.4914 H   0  0  0  0  0
   24.7606   60.2690   26.6671 H   0  0  0  0  0
   25.2318   59.7038   25.0455 H   0  0  0  0  0
   20.8816   60.8876   25.3072 H   0  0  0  0  0
   20.7141   57.9471   25.6944 H   0  0  0  0  0
   19.2462   60.0779   27.3446 H   0  0  0  0  0
   20.6421   59.2729   29.0458 H   0  0  0  0  0
   17.9352   58.0346   27.0926 H   0  0  0  0  0
   19.3166   57.0644   27.6598 H   0  0  0  0  0
   18.5207   58.2116   28.7650 H   0  0  0  0  0
   17.2932   58.7436   22.7941 H   0  0  0  0  0
   17.4987   56.8739   21.3203 H   0  0  0  0  0
   17.2969   55.7471   22.6233 H   0  0  0  0  0
   19.8697   57.0197   21.6225 H   0  0  0  0  0
   19.6230   55.4004   22.1624 H   0  0  0  0  0
   19.6884   56.0167   24.4894 H   0  0  0  0  0
   20.7877   57.1466   23.8501 H   0  0  0  0  0
   15.1657   58.7702   23.2831 H   0  0  0  0  0
   14.3623   57.1477   25.6803 H   0  0  0  0  0
   12.4353   58.6561   25.7906 H   0  0  0  0  0
   13.1107   59.5678   24.3725 H   0  0  0  0  0
   15.1092   60.0443   25.6864 H   0  0  0  0  0
   13.3865   61.7385   25.6244 H   0  0  0  0  0
   12.5652   60.9965   27.0193 H   0  0  0  0  0
   14.1782   61.7239   27.2194 H   0  0  0  0  0
   13.5348   58.7899   27.9791 H   0  0  0  0  0
   15.0212   58.1401   27.2447 H   0  0  0  0  0
   15.0731   59.6694   28.1556 H   0  0  0  0  0
   12.0805   56.2562   25.5970 H   0  0  0  0  0
   11.4966   55.3977   22.7981 H   0  0  0  0  0
   12.7406   53.6850   24.2490 H   0  0  0  0  0
   11.1971   53.1542   23.3934 H   0  0  0  0  0
   10.1142   53.6720   25.6520 H   0  0  0  0  0
   10.2656   51.4381   24.6688 H   0  0  0  0  0
   11.9236   51.2599   25.2935 H   0  0  0  0  0
   10.5532   51.3724   26.4249 H   0  0  0  0  0
   13.0017   53.2399   26.5032 H   0  0  0  0  0
   12.0602   54.7388   26.6982 H   0  0  0  0  0
   11.5936   53.2714   27.5927 H   0  0  0  0  0
    9.2879   54.5796   22.4693 H   0  0  0  0  0
    7.3611   55.9162   24.2821 H   0  0  0  0  0
    5.6679   55.1968   22.6368 H   0  0  0  0  0
    6.9629   54.3854   21.6978 H   0  0  0  0  0
    8.0956   56.4657   21.4018 H   0  0  0  0  0
    6.8059   57.3043   22.3952 H   0  0  0  0  0
    7.6468   58.5927   19.8424 H   0  0  0  0  0
    8.2305   57.0565   19.1565 H   0  0  0  0  0
    6.9597   57.9801   18.3181 H   0  0  0  0  0
    6.0515   54.9353   25.7000 H   0  0  0  0  0
    6.8370   52.1450   26.2678 H   0  0  0  0  0
    5.2672   52.6170   28.3015 H   0  0  0  0  0
    5.4593   54.3404   27.7675 H   0  0  0  0  0
    7.8011   54.2383   28.0785 H   0  0  0  0  0
    7.7430   52.4656   28.3703 H   0  0  0  0  0
    7.4225   52.8685   31.8017 H   0  0  0  0  0
    8.0834   51.9797   30.4253 H   0  0  0  0  0
    5.7148   50.4055   25.8142 H   0  0  0  0  0
    3.0808   50.4598   24.6360 H   0  0  0  0  0
    4.6357   48.5856   24.3628 H   0  0  0  0  0
    4.5222   48.2357   26.1052 H   0  0  0  0  0
    3.0886   48.0521   25.0649 H   0  0  0  0  0
    1.0789   50.1358   25.5793 H   0  0  0  0  0
    0.9682   50.4034   28.5677 H   0  0  0  0  0
   -1.2485   51.2628   28.2286 H   0  0  0  0  0
   -1.0702   50.9779   26.4196 H   0  0  0  0  0
    0.8378   52.6195   26.5524 H   0  0  0  0  0
   -1.3646   53.1123   25.5853 H   0  0  0  0  0
   -1.9801   53.5426   27.2000 H   0  0  0  0  0
   -0.7114   54.5328   26.4378 H   0  0  0  0  0
   -0.4984   53.2801   29.1995 H   0  0  0  0  0
    1.1424   52.6221   28.9853 H   0  0  0  0  0
    0.7532   54.2548   28.3905 H   0  0  0  0  0
   -0.8321   46.3149   28.4802 H   0  0  0  0  0
   -0.1492   46.0577   30.7841 H   0  0  0  0  0
   -1.8368   46.2833   31.0926 H   0  0  0  0  0
   -0.0610   47.9754   32.1897 H   0  0  0  0  0
   -1.5824   48.5876   31.6298 H   0  0  0  0  0
   -0.1261   49.9714   30.3478 H   0  0  0  0  0
    1.1260   48.8051   30.3019 H   0  0  0  0  0
   -2.7133   45.5034   27.8241 H   0  0  0  0  0
   -5.1032   47.2082   27.9663 H   0  0  0  0  0
   -6.1836   45.4659   26.7146 H   0  0  0  0  0
   -4.7816   44.3458   27.0323 H   0  0  0  0  0
   -3.3591   45.8140   25.7399 H   0  0  0  0  0
   -4.7896   46.8591   25.3789 H   0  0  0  0  0
   -4.8103   46.7970   22.8424 H   0  0  0  0  0
   -3.2015   46.0399   22.9403 H   0  0  0  0  0
   -4.4508   45.3423   21.8803 H   0  0  0  0  0
   -4.2969   44.1415   29.2042 H   0  0  0  0  0
  1  2  1  0  0  0
  2  3  1  0  0  0
  2  5  1  0  0  0
  3  4  2  0  0  0
  3  9  1  0  0  0
  5  6  1  0  0  0
  6  7  1  0  0  0
  7  8  1  0  0  0
  9 10  1  0  0  0
 10 11  1  0  0  0
 10 13  1  0  0  0
 11 12  2  0  0  0
 11 14  1  0  0  0
 14 15  1  0  0  0
 15 16  1  0  0  0
 15 18  1  0  0  0
 16 17  2  0  0  0
 16 21  1  0  0  0
 18 19  1  0  0  0
 18 20  1  0  0  0
 21 22  1  0  0  0
 21 27  1  0  0  0
 22 23  1  0  0  0
 22 25  1  0  0  0
 23 24  2  0  0  0
 23 28  1  0  0  0
 25 26  1  0  0  0
 26 27  1  0  0  0
 28 29  1  0  0  0
 29 30  1  0  0  0
 29 32  1  0  0  0
 30 31  2  0  0  0
 30 36  1  0  0  0
 32 33  1  0  0  0
 33 34  1  0  0  0
 33 35  1  0  0  0
 36 37  1  0  0  0
 37 38  1  0  0  0
 37 40  1  0  0  0
 38 39  2  0  0  0
 38 44  1  0  0  0
 40 41  1  0  0  0
 41 42  1  0  0  0
 41 43  1  0  0  0
 44 45  1  0  0  0
 45 46  1  0  0  0
 45 48  1  0  0  0
 46 47  2  0  0  0
 46 52  1  0  0  0
 48 49  1  0  0  0
 49 50  1  0  0  0
 50 51  1  0  0  0
 52 53  1  0  0  0
 53 54  1  0  0  0
 53 56  1  0  0  0
 54 55  2  0  0  0
 54 61  1  0  0  0
 56 57  1  0  0  0
 57 58  1  0  0  0
 58 59  2  0  0  0
 58 60  1  0  0  0
 61 62  1  0  0  0
 62 63  1  0  0  0
 62 65  1  0  0  0
 63 64  2  0  0  0
 63 66  1  0  0  0
 66 67  1  0  0  0
 67 68  1  0  0  0
 67 70  1  0  0  0
 68 69  2  0  0  0
 68 74  1  0  0  0
 70 71  1  0  0  0
 71 72  1  0  0  0
 71 73  1  0  0  0
 74 75  1  0  0  0
 74 80  1  0  0  0
 75 76  1  0  0  0
 75 78  1  0  0  0
 76 77  2  0  0  0
 76 81  1  0  0  0
 78 79  1  0  0  0
 79 80  1  0  0  0
 81 82  1  0  0  0
 82 83  1  0  0  0
 82 85  1  0  0  0
 83 84  2  0  0  0
 83 89  1  0  0  0
 85 86  1  0  0  0
 86 87  1  0  0  0
 87 88  1  0  0  0
  1 90  1  0  0  0
  1 91  1  0  0  0
  1 92  1  0  0  0
  2 93  1  0  0  0
  5 94  1  0  0  0
  5 95  1  0  0  0
  6 96  1  0  0  0
  6 97  1  0  0  0
  8 98  1  0  0  0
  8 99  1  0  0  0
  8100  1  0  0  0
  9101  1  0  0  0
 10102  1  0  0  0
 13103  1  0  0  0
 13104  1  0  0  0
 13105  1  0  0  0
 14106  1  0  0  0
 15107  1  0  0  0
 18108  1  0  0  0
 19109  1  0  0  0
 20110  1  0  0  0
 20111  1  0  0  0
 20112  1  0  0  0
 22113  1  0  0  0
 25114  1  0  0  0
 25115  1  0  0  0
 26116  1  0  0  0
 26117  1  0  0  0
 27118  1  0  0  0
 27119  1  0  0  0
 28120  1  0  0  0
 29121  1  0  0  0
 32122  1  0  0  0
 32123  1  0  0  0
 33124  1  0  0  0
 34125  1  0  0  0
 34126  1  0  0  0
 34127  1  0  0  0
 35128  1  0  0  0
 35129  1  0  0  0
 35130  1  0  0  0
 36131  1  0  0  0
 37132  1  0  0  0
 40133  1  0  0  0
 40134  1  0  0  0
 41135  1  0  0  0
 42136  1  0  0  0
 42137  1  0  0  0
 42138  1  0  0  0
 43139  1  0  0  0
 43140  1  0  0  0
 43141  1  0  0  0
 44142  1  0  0  0
 45143  1  0  0  0
 48144  1  0  0  0
 48145  1  0  0  0
 49146  1  0  0  0
 49147  1  0  0  0
 51148  1  0  0  0
 51149  1  0  0  0
 51150  1  0  0  0
 52151  1  0  0  0
 53152  1  0  0  0
 56153  1  0  0  0
 56154  1  0  0  0
 57155  1  0  0  0
 57156  1  0  0  0
 60157  1  0  0  0
 60158  1  0  0  0
 61159  1  0  0  0
 62160  1  0  0  0
 65161  1  0  0  0
 65162  1  0  0  0
 65163  1  0  0  0
 66164  1  0  0  0
 67165  1  0  0  0
 70166  1  0  0  0
 70167  1  0  0  0
 71168  1  0  0  0
 72169  1  0  0  0
 72170  1  0  0  0
 72171  1  0  0  0
 73172  1  0  0  0
 73173  1  0  0  0
 73174  1  0  0  0
 75175  1  0  0  0
 78176  1  0  0  0
 78177  1  0  0  0
 79178  1  0  0  0
 79179  1  0  0  0
 80180  1  0  0  0
 80181  1  0  0  0
 81182  1  0  0  0
 82183  1  0  0  0
 85184  1  0  0  0
 85185  1  0  0  0
 86186  1  0  0  0
 86187  1  0  0  0
 88188  1  0  0  0
 88189  1  0  0  0
 88190  1  0  0  0
 89191  1  0  0  0
M  END
$$$$
