5qb2_ligand
  -I-interpret- 

 45 49  0  0  0  0  0  0  0  0999 V2000
   91.0270  247.9930    3.3440 N   0  0  0  0  0
   92.9840  246.4270    4.5740 C   0  0  0  0  0
   97.4220  254.9270    5.8030 O   0  0  0  0  0
   91.9100  245.8530    3.9690 C   0  0  0  0  0
   95.7830  251.7860    5.1450 C   0  0  0  0  0
   96.6030  252.7100    5.7680 C   0  0  0  0  0
   96.6730  254.1090    5.2260 C   0  0  0  0  0
   95.9810  250.3190    7.0240 C   0  0  0  0  0
   96.8500  251.2150    7.6550 C   0  0  0  0  0
   97.1570  252.4090    7.0050 C   0  0  0  0  0
   97.2960  251.0050    9.0540 C   0  0  0  0  0
   96.5040  251.4440   10.1160 C   0  0  0  0  0
   96.9200  251.3450   11.4080 C   0  0  0  0  0
   98.5260  250.4410    9.3400 C   0  0  0  0  0
   90.9630  246.6710    3.3740 C   0  0  0  0  0
   98.9900  250.3330   10.6700 C   0  0  0  0  0
   98.1800  250.7970   11.7280 C   0  0  0  0  0
  100.6760  249.7770   12.1400 C   0  0  0  0  0
   99.9500  250.2200   13.2340 C   0  0  0  0  0
   98.7020  250.7210   13.0320 C   0  0  0  0  0
   92.0950  248.5860    3.9630 C   0  0  0  0  0
   93.1060  247.8290    4.5930 C   0  0  0  0  0
   92.1610  249.9940    4.0200 C   0  0  0  0  0
   93.1890  250.6120    4.6520 C   0  0  0  0  0
   94.2280  249.8910    5.2490 C   0  0  0  0  0
   94.1650  248.5110    5.2340 C   0  0  0  0  0
   95.4080  250.6100    5.7840 C   0  0  0  0  0
  100.2420  249.8140   10.8890 N   0  0  0  0  0
   95.9310  254.3700    4.2400 O   0  0  0  0  0
   93.7466  245.8044    5.0419 H   0  0  0  0  0
   91.7961  244.7691    3.9524 H   0  0  0  0  0
   95.4246  251.9839    4.1348 H   0  0  0  0  0
   95.7457  249.3726    7.5108 H   0  0  0  0  0
   97.8412  253.1160    7.4741 H   0  0  0  0  0
   95.5265  251.8776    9.9051 H   0  0  0  0  0
   96.2688  251.6950   12.2090 H   0  0  0  0  0
   99.1487  250.0732    8.5245 H   0  0  0  0  0
   90.1067  246.1933    2.8980 H   0  0  0  0  0
  101.6711  249.3708   12.3210 H   0  0  0  0  0
  100.3714  250.1679   14.2379 H   0  0  0  0  0
   98.1073  251.0630   13.8790 H   0  0  0  0  0
   91.3782  250.5906    3.5516 H   0  0  0  0  0
   93.2061  251.7010    4.6960 H   0  0  0  0  0
   94.9488  247.9359    5.7270 H   0  0  0  0  0
   95.4559  253.5774    3.9798 H   0  0  0  0  0
  1 15  4  0  0  0
 21  1  4  0  0  0
  2  4  4  0  0  0
 22  2  4  0  0  0
  7  3  2  0  0  0
  4 15  4  0  0  0
  5  6  4  0  0  0
 27  5  4  0  0  0
  6  7  1  0  0  0
  6 10  4  0  0  0
  7 29  1  0  0  0
  8  9  4  0  0  0
 27  8  4  0  0  0
  9 10  4  0  0  0
  9 11  1  0  0  0
 11 12  4  0  0  0
 11 14  4  0  0  0
 12 13  4  0  0  0
 13 17  4  0  0  0
 14 16  4  0  0  0
 16 17  4  0  0  0
 16 28  4  0  0  0
 17 20  4  0  0  0
 18 19  4  0  0  0
 28 18  4  0  0  0
 20 19  4  0  0  0
 22 21  4  0  0  0
 23 21  4  0  0  0
 26 22  4  0  0  0
 24 23  4  0  0  0
 25 24  4  0  0  0
 25 26  4  0  0  0
 25 27  1  0  0  0
  2 30  1  0  0  0
  4 31  1  0  0  0
  5 32  1  0  0  0
  8 33  1  0  0  0
 10 34  1  0  0  0
 12 35  1  0  0  0
 13 36  1  0  0  0
 14 37  1  0  0  0
 15 38  1  0  0  0
 18 39  1  0  0  0
 19 40  1  0  0  0
 20 41  1  0  0  0
 23 42  1  0  0  0
 24 43  1  0  0  0
 26 44  1  0  0  0
 29 45  1  0  0  0
M  END
$$$$
