2g2r_ligand
  -I-interpret- 

 48 49  0  0  0  0  0  0  0  0999 V2000
  -58.3540   27.4370   12.0970 O   0  0  0  0  0
  -57.3570   28.0670   12.5380 C   0  0  0  0  0
  -57.0900   28.0940   13.7760 O   0  0  0  0  0
  -56.4740   28.8100   11.5230 C   0  0  0  0  0
  -54.9590   28.5490   11.6850 C   0  0  0  0  0
  -54.6310   27.0530   11.8260 C   0  0  0  0  0
  -53.1440   26.6860   11.8040 C   0  0  0  0  0
  -53.0100   25.4110   12.5270 N   0  0  0  0  0
  -53.5000   24.1550   11.9690 C   0  0  0  0  0
  -52.3680   25.3850   13.7720 C   0  0  0  0  0
  -51.7710   24.2040   14.1870 C   0  0  0  0  0
  -51.1160   24.1630   15.4070 C   0  0  0  0  0
  -52.2940   26.5270   14.5770 C   0  0  0  0  0
  -51.6350   26.4880   15.7940 C   0  0  0  0  0
  -51.0500   25.2980   16.2060 C   0  0  0  0  0
  -50.3390   25.1870   17.5040 C   0  0  0  0  0
  -50.2280   26.2220   18.3250 C   0  0  0  0  0
  -49.5320   26.1420   19.6220 C   0  0  0  0  0
  -49.4840   27.3020   20.3890 C   0  0  0  0  0
  -48.9360   24.9650   20.0760 C   0  0  0  0  0
  -48.2890   24.9650   21.3050 C   0  0  0  0  0
  -48.2500   26.1320   22.0700 C   0  0  0  0  0
  -48.8440   27.3020   21.6150 C   0  0  0  0  0
  -47.6060   26.1430   23.3190 N   0  0  0  0  0
  -47.0750   25.1270   23.7400 O   0  0  0  0  0
  -47.5710   27.1600   24.0100 O   0  0  0  0  0
  -56.2996   28.6194   13.9204 H   0  0  0  0  0
  -56.6338   29.8768   11.6798 H   0  0  0  0  0
  -56.7562   28.4542   10.5321 H   0  0  0  0  0
  -54.6259   29.0533   12.5921 H   0  0  0  0  0
  -54.4563   28.9209   10.7922 H   0  0  0  0  0
  -55.0808   26.5588   10.9649 H   0  0  0  0  0
  -55.0069   26.7482   12.8027 H   0  0  0  0  0
  -52.5456   27.4646   12.2771 H   0  0  0  0  0
  -52.7835   26.5905   10.7798 H   0  0  0  0  0
  -54.5740   24.2292   11.7983 H   0  0  0  0  0
  -52.9936   23.9565   11.0244 H   0  0  0  0  0
  -53.2972   23.3443   12.6689 H   0  0  0  0  0
  -51.8168   23.3149   13.5581 H   0  0  0  0  0
  -50.6502   23.2361   15.7417 H   0  0  0  0  0
  -52.7589   27.4547   14.2434 H   0  0  0  0  0
  -51.5763   27.3786   16.4197 H   0  0  0  0  0
  -49.8977   24.2320   17.7890 H   0  0  0  0  0
  -50.6704   27.1730   18.0282 H   0  0  0  0  0
  -49.9530   28.2149   20.0219 H   0  0  0  0  0
  -48.9776   24.0573   19.4740 H   0  0  0  0  0
  -47.8127   24.0556   21.6714 H   0  0  0  0  0
  -48.8062   28.2098   22.2172 H   0  0  0  0  0
  1  2  2  0  0  0
  2  3  1  0  0  0
  2  4  1  0  0  0
  4  5  1  0  0  0
  5  6  1  0  0  0
  6  7  1  0  0  0
  7  8  1  0  0  0
  8  9  1  0  0  0
  8 10  1  0  0  0
 10 11  4  0  0  0
 10 13  4  0  0  0
 11 12  4  0  0  0
 12 15  4  0  0  0
 13 14  4  0  0  0
 14 15  4  0  0  0
 15 16  1  0  0  0
 16 17  2  0  0  0
 17 18  1  0  0  0
 18 19  4  0  0  0
 18 20  4  0  0  0
 19 23  4  0  0  0
 20 21  4  0  0  0
 21 22  4  0  0  0
 22 23  4  0  0  0
 22 24  1  0  0  0
 24 25  2  0  0  0
 24 26  2  0  0  0
  3 27  1  0  0  0
  4 28  1  0  0  0
  4 29  1  0  0  0
  5 30  1  0  0  0
  5 31  1  0  0  0
  6 32  1  0  0  0
  6 33  1  0  0  0
  7 34  1  0  0  0
  7 35  1  0  0  0
  9 36  1  0  0  0
  9 37  1  0  0  0
  9 38  1  0  0  0
 11 39  1  0  0  0
 12 40  1  0  0  0
 13 41  1  0  0  0
 14 42  1  0  0  0
 16 43  1  0  0  0
 17 44  1  0  0  0
 19 45  1  0  0  0
 20 46  1  0  0  0
 21 47  1  0  0  0
 23 48  1  0  0  0
M  END
$$$$
