6sfc_ligand
  -I-interpret- 

 39 42  0  0  0  0  0  0  0  0999 V2000
   34.5850   -0.7500   35.5720 C   0  0  0  0  0
   32.7860   -1.0970   36.7560 C   0  0  0  0  0
   30.6070   -1.5150   37.9150 C   0  0  0  0  0
   27.6010   -0.6450   35.0460 C   0  0  0  0  0
   28.0820    0.2820   35.9550 C   0  0  0  0  0
   28.5670    2.1300   37.1360 C   0  0  0  0  0
   29.0430   -0.0380   36.8820 C   0  0  0  0  0
   34.4120    0.5450   36.0080 C   0  0  0  0  0
   35.5270    1.3120   35.8240 C   0  0  0  0  0
   36.6690    0.9200   35.0290 C   0  0  0  0  0
   37.3830    2.0530   34.8460 C   0  0  0  0  0
   37.0830    4.4370   35.5810 C   0  0  0  0  0
   36.7030    3.0380   35.4690 N   0  0  0  0  0
   35.4890    2.6470   35.9200 N   0  0  0  0  0
   32.9590    0.6240   36.9690 S   0  0  0  0  0
   33.7960   -1.6680   36.1850 N   0  0  0  0  0
   35.7680   -1.3420   34.8800 C   0  0  0  0  0
   31.6150   -1.7240   36.8960 N   0  0  0  0  0
   29.3630   -1.3730   37.0970 C   0  0  0  0  0
   29.0050   -2.2880   36.1050 C   0  0  0  0  0
   27.7760    1.6240   36.0540 O   0  0  0  0  0
   29.3140    1.0450   37.6950 O   0  0  0  0  0
   28.0930   -1.9400   35.1170 C   0  0  0  0  0
   30.8072   -0.6518   38.5498 H   0  0  0  0  0
   30.5549   -2.3244   38.6432 H   0  0  0  0  0
   26.8589   -0.3659   34.2980 H   0  0  0  0  0
   27.9214    2.5694   37.8965 H   0  0  0  0  0
   29.2454    2.9021   36.7730 H   0  0  0  0  0
   36.9042   -0.0770   34.6565 H   0  0  0  0  0
   38.3226    2.1515   34.3024 H   0  0  0  0  0
   38.0402    4.5120   36.0971 H   0  0  0  0  0
   37.1714    4.8691   34.5842 H   0  0  0  0  0
   36.3213    4.9750   36.1454 H   0  0  0  0  0
   35.9420   -0.8124   33.9433 H   0  0  0  0  0
   36.6456   -1.2492   35.5198 H   0  0  0  0  0
   35.5771   -2.3951   34.6734 H   0  0  0  0  0
   31.4045   -2.4384   36.1991 H   0  0  0  0  0
   29.4455   -3.2850   36.1060 H   0  0  0  0  0
   27.7628   -2.6869   34.3951 H   0  0  0  0  0
  1  8  2  0  0  0
 16  1  1  0  0  0
  1 17  1  0  0  0
  2 15  1  0  0  0
  2 16  2  0  0  0
 18  2  1  0  0  0
  3 18  1  0  0  0
 19  3  1  0  0  0
  5  4  4  0  0  0
  4 23  4  0  0  0
  7  5  4  0  0  0
  5 21  1  0  0  0
 21  6  1  0  0  0
  6 22  1  0  0  0
 19  7  4  0  0  0
  7 22  1  0  0  0
  8  9  1  0  0  0
 15  8  1  0  0  0
  9 10  1  0  0  0
  9 14  2  0  0  0
 10 11  2  0  0  0
 11 13  1  0  0  0
 13 12  1  0  0  0
 14 13  1  0  0  0
 19 20  4  0  0  0
 20 23  4  0  0  0
  3 24  1  0  0  0
  3 25  1  0  0  0
  4 26  1  0  0  0
  6 27  1  0  0  0
  6 28  1  0  0  0
 10 29  1  0  0  0
 11 30  1  0  0  0
 12 31  1  0  0  0
 12 32  1  0  0  0
 12 33  1  0  0  0
 17 34  1  0  0  0
 17 35  1  0  0  0
 17 36  1  0  0  0
 18 37  1  0  0  0
 20 38  1  0  0  0
 23 39  1  0  0  0
M  END
$$$$
