5y3o_ligand
  -I-interpret- 

 37 39  0  0  0  0  0  0  0  0999 V2000
    6.7620    7.6620   21.5370 C   0  0  0  0  0
    7.7210    3.9330   21.0340 C   0  0  0  0  0
    5.4540    4.3720   20.3100 C   0  0  0  0  0
    9.0820    5.8790   21.9640 C   0  0  0  0  0
    6.3040    2.0000   20.0890 C   0  0  0  0  0
    8.6560    9.1210   23.6470 N   0  0  0  0  0
    9.3230    9.6510   24.6820 C   0  0  0  0  0
    8.9370    9.4650   25.9460 N   0  0  0  0  0
    7.8350    8.7170   26.2210 C   0  0  0  0  0
    7.0890    8.1300   25.1460 C   0  0  0  0  0
    7.5410    8.3580   23.8160 C   0  0  0  0  0
    5.8960    7.2930   24.9970 C   0  0  0  0  0
    5.7260    7.0900   23.6780 N   0  0  0  0  0
    6.6610    7.7040   22.9880 N   0  0  0  0  0
    6.6880    6.1540   21.1550 C   0  0  0  0  0
    7.7940    5.3080   21.3740 C   0  0  0  0  0
    6.4970    3.4700   20.4880 C   0  0  0  0  0
    5.5830    5.6650   20.6480 N   0  0  0  0  0
    8.8170    3.0650   21.2540 O   0  0  0  0  0
    9.6950    2.8900   20.1700 C   0  0  0  0  0
    7.3270    8.4720   27.8810 Cl  0  0  0  0  0
   10.4740   10.4330   24.4250 N   0  0  0  0  0
    7.6899    8.1159   21.1891 H   0  0  0  0  0
    5.9616    8.2321   21.0654 H   0  0  0  0  0
    4.5121    4.0222   19.8873 H   0  0  0  0  0
    9.3134    5.3628   22.8957 H   0  0  0  0  0
    9.8985    5.7372   21.2560 H   0  0  0  0  0
    8.9499    6.9431   22.1598 H   0  0  0  0  0
    7.0351    1.7330   19.3259 H   0  0  0  0  0
    6.4429    1.3659   20.9647 H   0  0  0  0  0
    5.2975    1.8611   19.6942 H   0  0  0  0  0
    5.2672    6.9087   25.8001 H   0  0  0  0  0
    9.1470    2.4764   19.3234 H   0  0  0  0  0
   10.1232    3.8530   19.8918 H   0  0  0  0  0
   10.4931    2.2054   20.4574 H   0  0  0  0  0
   10.7832   10.5853   23.4650 H   0  0  0  0  0
   10.9945   10.8444   25.1998 H   0  0  0  0  0
  1 14  1  0  0  0
 15  1  1  0  0  0
 16  2  4  0  0  0
  2 17  4  0  0  0
  2 19  1  0  0  0
 17  3  4  0  0  0
  3 18  4  0  0  0
 16  4  1  0  0  0
 17  5  1  0  0  0
  6  7  4  0  0  0
 11  6  4  0  0  0
  7  8  4  0  0  0
  7 22  1  0  0  0
  9  8  4  0  0  0
 10  9  4  0  0  0
  9 21  1  0  0  0
 11 10  4  0  0  0
 12 10  4  0  0  0
 14 11  4  0  0  0
 13 12  4  0  0  0
 14 13  4  0  0  0
 15 16  4  0  0  0
 15 18  4  0  0  0
 19 20  1  0  0  0
  1 23  1  0  0  0
  1 24  1  0  0  0
  3 25  1  0  0  0
  4 26  1  0  0  0
  4 27  1  0  0  0
  4 28  1  0  0  0
  5 29  1  0  0  0
  5 30  1  0  0  0
  5 31  1  0  0  0
 12 32  1  0  0  0
 20 33  1  0  0  0
 20 34  1  0  0  0
 20 35  1  0  0  0
 22 36  1  0  0  0
 22 37  1  0  0  0
M  END
$$$$
