1p6e_ligand
  -I-interpret- 

 65 64  0  0  0  0  0  0  0  0999 V2000
   41.5130   21.3400   -4.8090 C   0  0  0  0  0
   41.1310   22.6980   -4.1460 C   0  0  0  0  0
   40.5620   22.5520   -2.7150 C   0  0  0  0  0
   41.3530   23.5270   -1.8280 C   0  0  0  0  0
   41.0450   23.6920   -0.3220 C   0  0  0  0  0
   41.8350   24.4190    0.3230 O   0  0  0  0  0
   39.8940   23.0260    0.4090 O   0  0  0  0  0
   39.5420   22.9120    1.8490 C   0  0  0  0  0
   39.2150   24.2070    2.6180 C   0  0  0  0  0
   38.0140   24.7400    1.9900 O   0  0  0  0  0
   37.9040   25.8290    0.9800 C   0  0  0  0  0
   38.7270   26.7760    1.0140 O   0  0  0  0  0
   36.5150   26.0380    0.2940 C   0  0  0  0  0
   36.4540   25.9970   -1.2460 C   0  0  0  0  0
   36.7440   24.5750   -1.7910 C   0  0  0  0  0
   37.0630   24.5790   -3.3080 C   0  0  0  0  0
   39.0260   24.2420    4.1780 C   0  0  0  0  0
   39.4480   23.1550    5.0690 O   0  0  0  0  0
   40.9100   22.9500    5.8300 P   0  0  0  0  0
   41.9920   24.3750    6.1020 S   0  0  0  0  0
   40.7560   21.9030    7.4600 S   0  0  0  0  0
   41.4750   21.9360    4.6340 O   0  0  0  0  0
   42.7790   21.9370    3.9290 C   0  0  0  0  0
   43.2030   20.5880    3.2400 C   0  0  0  0  0
   42.4160   19.8370    2.0870 N   0  3  0  0  0
   43.1230   18.5480    1.7160 C   0  0  0  0  0
   40.9950   19.3930    2.4450 C   0  0  0  0  0
   42.4610   20.5870    0.7590 C   0  0  0  0  0
   42.2730   20.8436   -4.2056 H   0  0  0  0  0
   40.6280   20.7070   -4.8736 H   0  0  0  0  0
   41.9042   21.5231   -5.8098 H   0  0  0  0  0
   40.3550   23.1543   -4.7606 H   0  0  0  0  0
   42.0408   23.2942   -4.0761 H   0  0  0  0  0
   40.6654   21.5277   -2.3570 H   0  0  0  0  0
   39.4968   22.7821   -2.6936 H   0  0  0  0  0
   41.1184   24.5053   -2.2476 H   0  0  0  0  0
   42.3656   23.1237   -1.8412 H   0  0  0  0  0
   40.4299   22.5047    2.3326 H   0  0  0  0  0
   38.6273   22.3199    1.8773 H   0  0  0  0  0
   40.1403   24.7778    2.5393 H   0  0  0  0  0
   36.2060   27.0466    0.5686 H   0  0  0  0  0
   35.8986   25.2041    0.6298 H   0  0  0  0  0
   37.2098   26.6771   -1.6388 H   0  0  0  0  0
   35.4511   26.2878   -1.5588 H   0  0  0  0  0
   35.8541   23.9653   -1.6345 H   0  0  0  0  0
   37.6135   24.1821   -1.2640 H   0  0  0  0  0
   36.2120   24.9837   -3.8559 H   0  0  0  0  0
   37.9420   25.1969   -3.4915 H   0  0  0  0  0
   37.2585   23.5592   -3.6396 H   0  0  0  0  0
   37.9421   24.2453    4.2929 H   0  0  0  0  0
   39.6654   25.0703    4.4831 H   0  0  0  0  0
   42.0859   25.0794    4.9777 H   0  0  0  0  0
   43.5337   22.1388    4.6891 H   0  0  0  0  0
   42.6893   22.6707    3.1279 H   0  0  0  0  0
   43.1188   19.8804    4.0648 H   0  0  0  0  0
   44.1222   20.8772    2.7306 H   0  0  0  0  0
   44.1309   18.7749    1.3686 H   0  0  0  0  0
   43.1761   17.8995    2.5905 H   0  0  0  0  0
   42.5684   18.0461    0.9231 H   0  0  0  0  0
   41.0324   18.7075    3.2916 H   0  0  0  0  0
   40.3985   20.2663    2.7090 H   0  0  0  0  0
   40.5461   18.8903    1.5883 H   0  0  0  0  0
   42.0117   21.5722    0.8842 H   0  0  0  0  0
   43.4975   20.6968    0.4402 H   0  0  0  0  0
   41.9058   20.0259    0.0073 H   0  0  0  0  0
  1  2  1  0  0  0
  2  3  1  0  0  0
  3  4  1  0  0  0
  4  5  1  0  0  0
  5  6  2  0  0  0
  5  7  1  0  0  0
  7  8  1  0  0  0
  8  9  1  0  0  0
  9 10  1  0  0  0
  9 17  1  0  0  0
 10 11  1  0  0  0
 11 12  2  0  0  0
 11 13  1  0  0  0
 13 14  1  0  0  0
 14 15  1  0  0  0
 15 16  1  0  0  0
 17 18  1  0  0  0
 18 19  1  0  0  0
 19 20  1  0  0  0
 19 21  2  0  0  0
 19 22  1  0  0  0
 22 23  1  0  0  0
 23 24  1  0  0  0
 24 25  1  0  0  0
 25 26  1  0  0  0
 25 27  1  0  0  0
 25 28  1  0  0  0
  1 29  1  0  0  0
  1 30  1  0  0  0
  1 31  1  0  0  0
  2 32  1  0  0  0
  2 33  1  0  0  0
  3 34  1  0  0  0
  3 35  1  0  0  0
  4 36  1  0  0  0
  4 37  1  0  0  0
  8 38  1  0  0  0
  8 39  1  0  0  0
  9 40  1  0  0  0
 13 41  1  0  0  0
 13 42  1  0  0  0
 14 43  1  0  0  0
 14 44  1  0  0  0
 15 45  1  0  0  0
 15 46  1  0  0  0
 16 47  1  0  0  0
 16 48  1  0  0  0
 16 49  1  0  0  0
 17 50  1  0  0  0
 17 51  1  0  0  0
 20 52  1  0  0  0
 23 53  1  0  0  0
 23 54  1  0  0  0
 24 55  1  0  0  0
 24 56  1  0  0  0
 26 57  1  0  0  0
 26 58  1  0  0  0
 26 59  1  0  0  0
 27 60  1  0  0  0
 27 61  1  0  0  0
 27 62  1  0  0  0
 28 63  1  0  0  0
 28 64  1  0  0  0
 28 65  1  0  0  0
M  END
$$$$
