4b8y_ligand
  -I-interpret- 

 93 93  0  0  0  0  0  0  0  0999 V2000
   -0.7250   14.6200    3.3000 N   0  0  0  0  0
   -0.6000   16.0650    3.3450 C   0  0  0  0  0
    0.6360   16.4580    2.5520 C   0  0  0  0  0
    1.4720   15.6020    2.2880 O   0  0  0  0  0
    1.1200   17.7510    2.2140 N   0  0  0  0  0
    2.3830   17.8640    1.4860 C   0  0  0  0  0
    3.6240   17.4920    2.2910 C   0  0  0  0  0
    3.6180   17.4930    3.5280 O   0  0  0  0  0
    4.3610   16.6050    1.5930 N   0  0  0  0  0
    5.6000   15.9440    1.9580 C   0  0  0  0  0
    5.3530   14.5090    2.3970 C   0  0  0  0  0
    6.2840   13.7170    2.5490 O   0  0  0  0  0
    2.5990   12.2210    1.8970 C   0  0  0  0  0
    3.7530   12.7840    2.6760 C   0  0  0  0  0
    3.6200   12.5690    4.1610 C   0  0  0  0  0
    2.6880   13.4710    4.9340 C   0  0  0  0  0
    2.6120   13.2240    6.4140 C   0  0  0  0  0
    2.7750   10.9190    7.4400 C   0  0  0  0  0
    4.0840   11.2090    8.1050 C   0  0  0  0  0
    3.8570   14.1790    2.3240 N   0  0  0  0  0
    2.0930   11.8980    6.6590 N   0  0  0  0  0
    2.2080   12.8070    0.8730 O   0  0  0  0  0
    0.9520   11.5800    6.1030 O   0  0  0  0  0
    2.2700    9.8200    7.5380 O   0  0  0  0  0
   -0.5630   11.5570    1.6140 C   0  0  0  0  0
    0.6410   10.6740    1.4180 C   0  0  0  0  0
    0.3120    9.2410    1.7570 C   0  0  0  0  0
    1.3750    8.1940    1.5630 C   0  0  0  0  0
    2.4870    8.0320    2.5580 C   0  0  0  0  0
    1.5830    7.1450    4.7640 C   0  0  0  0  0
    1.6360    5.7040    4.3240 C   0  0  0  0  0
    1.6980   11.1510    2.2940 N   0  0  0  0  0
    2.0200    8.2200    3.9120 N   0  0  0  0  0
   -1.3880   11.7210    0.7180 O   0  0  0  0  0
    1.9600    9.4440    4.3540 O   0  0  0  0  0
    1.1840    7.4060    5.9030 O   0  0  0  0  0
   -2.0830   14.1440    3.2260 C   0  0  0  0  0
   -2.1830   12.6470    3.1570 C   0  0  0  0  0
   -2.7350   12.1300    4.4530 C   0  0  0  0  0
   -3.2890   10.7450    4.3230 C   0  0  0  0  0
   -3.2710    9.9410    5.5690 C   0  0  0  0  0
   -1.6220    9.5120    7.3910 C   0  0  0  0  0
   -2.7160    9.6370    8.4020 C   0  0  0  0  0
   -0.8910   12.0300    2.9540 N   0  0  0  0  0
   -1.9380    9.6390    6.0130 N   0  0  0  0  0
   -3.0940   14.8300    3.3880 O   0  0  0  0  0
   -0.9790    9.5240    5.1440 O   0  0  0  0  0
   -0.4810    9.2460    7.7350 O   0  0  0  0  0
    0.0803   13.9942    3.3191 H   0  0  0  0  0
   -0.5063   16.4017    4.3775 H   0  0  0  0  0
   -1.4860   16.5320    2.9149 H   0  0  0  0  0
    0.5952   18.5858    2.4749 H   0  0  0  0  0
    2.4920   18.9113    1.2041 H   0  0  0  0  0
    2.3286   17.1668    0.6499 H   0  0  0  0  0
    3.9936   16.3629    0.6728 H   0  0  0  0  0
    6.0516   16.4876    2.7878 H   0  0  0  0  0
    6.2562   15.9323    1.0877 H   0  0  0  0  0
    4.6713   12.2579    2.4149 H   0  0  0  0  0
    4.6118   12.7642    4.5689 H   0  0  0  0  0
    3.2048   11.5670    4.2696 H   0  0  0  0  0
    1.6880   13.2880    4.5408 H   0  0  0  0  0
    3.0703   14.4844    4.8115 H   0  0  0  0  0
    1.9514   13.9612    6.8704 H   0  0  0  0  0
    3.6090   13.3080    6.8465 H   0  0  0  0  0
    3.9843   11.0617    9.1804 H   0  0  0  0  0
    4.8460   10.5349    7.7138 H   0  0  0  0  0
    4.3717   12.2408    7.9035 H   0  0  0  0  0
    3.0961   14.8123    2.0784 H   0  0  0  0  0
    0.7205   10.6796    6.3425 H   0  0  0  0  0
    0.9570   10.7123    0.3755 H   0  0  0  0  0
   -0.4893    8.9633    1.0722 H   0  0  0  0  0
    0.1055    9.2420    2.8273 H   0  0  0  0  0
    1.8812    8.4964    0.6462 H   0  0  0  0  0
    0.8314    7.2508    1.6166 H   0  0  0  0  0
    3.2487    8.7831    2.3488 H   0  0  0  0  0
    2.8853    7.0214    2.4681 H   0  0  0  0  0
    2.3026    5.1483    4.9835 H   0  0  0  0  0
    0.6354    5.2742    4.3706 H   0  0  0  0  0
    2.0081    5.6513    3.3008 H   0  0  0  0  0
    1.8110   10.7232    3.2130 H   0  0  0  0  0
    1.6379    9.4410    5.2583 H   0  0  0  0  0
   -2.8306   12.4004    2.3157 H   0  0  0  0  0
   -3.5450   12.7903    4.7628 H   0  0  0  0  0
   -1.9227   12.1023    5.1793 H   0  0  0  0  0
   -2.6602   10.2217    3.6027 H   0  0  0  0  0
   -4.3343   10.8510    4.0329 H   0  0  0  0  0
   -3.7788    8.9979    5.3669 H   0  0  0  0  0
   -3.7610   10.5222    6.3502 H   0  0  0  0  0
   -2.8230    8.6940    8.9382 H   0  0  0  0  0
   -2.4688   10.4310    9.1066 H   0  0  0  0  0
   -3.6511    9.8767    7.8958 H   0  0  0  0  0
   -0.2297   11.9288    3.7240 H   0  0  0  0  0
   -0.1584    9.3224    5.5995 H   0  0  0  0  0
  1  2  1  0  0  0
  2  3  1  0  0  0
  3  4  2  0  0  0
  5  6  1  0  0  0
  6  7  1  0  0  0
  7  8  2  0  0  0
  3  5  1  0  0  0
  9 10  1  0  0  0
 10 11  1  0  0  0
 11 12  2  0  0  0
  7  9  1  0  0  0
 14 13  1  0  0  0
 13 22  2  0  0  0
 14 15  1  0  0  0
 20 14  1  0  0  0
 15 16  1  0  0  0
 16 17  1  0  0  0
 17 21  1  0  0  0
 18 19  1  0  0  0
 21 18  1  0  0  0
 18 24  2  0  0  0
 21 23  1  0  0  0
 25 26  1  0  0  0
 25 34  2  0  0  0
 26 27  1  0  0  0
 26 32  1  0  0  0
 27 28  1  0  0  0
 28 29  1  0  0  0
 29 33  1  0  0  0
 30 31  1  0  0  0
 33 30  1  0  0  0
 30 36  2  0  0  0
 33 35  1  0  0  0
 38 37  1  0  0  0
 37 46  2  0  0  0
 38 39  1  0  0  0
 44 38  1  0  0  0
 39 40  1  0  0  0
 40 41  1  0  0  0
 41 45  1  0  0  0
 42 43  1  0  0  0
 45 42  1  0  0  0
 42 48  2  0  0  0
 45 47  1  0  0  0
 11 20  1  0  0  0
 37  1  1  0  0  0
 44 25  1  0  0  0
 32 13  1  0  0  0
  1 49  1  0  0  0
  2 50  1  0  0  0
  2 51  1  0  0  0
  5 52  1  0  0  0
  6 53  1  0  0  0
  6 54  1  0  0  0
  9 55  1  0  0  0
 10 56  1  0  0  0
 10 57  1  0  0  0
 14 58  1  0  0  0
 15 59  1  0  0  0
 15 60  1  0  0  0
 16 61  1  0  0  0
 16 62  1  0  0  0
 17 63  1  0  0  0
 17 64  1  0  0  0
 19 65  1  0  0  0
 19 66  1  0  0  0
 19 67  1  0  0  0
 20 68  1  0  0  0
 23 69  1  0  0  0
 26 70  1  0  0  0
 27 71  1  0  0  0
 27 72  1  0  0  0
 28 73  1  0  0  0
 28 74  1  0  0  0
 29 75  1  0  0  0
 29 76  1  0  0  0
 31 77  1  0  0  0
 31 78  1  0  0  0
 31 79  1  0  0  0
 32 80  1  0  0  0
 35 81  1  0  0  0
 38 82  1  0  0  0
 39 83  1  0  0  0
 39 84  1  0  0  0
 40 85  1  0  0  0
 40 86  1  0  0  0
 41 87  1  0  0  0
 41 88  1  0  0  0
 43 89  1  0  0  0
 43 90  1  0  0  0
 43 91  1  0  0  0
 44 92  1  0  0  0
 47 93  1  0  0  0
M  END
$$$$
