3gs7_ligand
  -I-interpret- 

 29 29  0  0  0  0  0  0  0  0999 V2000
   20.9850   39.4800    8.3190 C   0  0  0  0  0
   21.0750   40.3020    9.4670 O   0  0  0  0  0
   21.0760   41.6800    9.3190 C   0  0  0  0  0
   21.0320   42.5780   10.4310 C   0  0  0  0  0
   21.0770   43.9650   10.2400 C   0  0  0  0  0
   21.1680   44.4690    8.9520 C   0  0  0  0  0
   21.2160   43.5900    7.8480 C   0  0  0  0  0
   21.1680   42.1890    8.0230 C   0  0  0  0  0
   21.2180   41.2780    6.9380 C   0  0  0  0  0
   21.3850   41.4700    5.6500 N   0  0  0  0  0
   21.5630   42.6700    5.0660 O   0  0  0  0  0
   21.7630   42.4320    3.6810 C   0  0  0  0  0
   20.4060   42.3800    3.0190 C   0  0  0  0  0
   20.5630   42.1010    1.5480 C   0  0  0  0  0
   19.7260   41.3490    0.9690 O   0  0  0  0  0
   21.5180   42.6550    1.0070 O   0  0  0  0  0
   20.0559   39.6956    7.7913 H   0  0  0  0  0
   21.8320   39.6805    7.6629 H   0  0  0  0  0
   20.9980   38.4329    8.6215 H   0  0  0  0  0
   20.9624   42.1773   11.4423 H   0  0  0  0  0
   21.0409   44.6404   11.0948 H   0  0  0  0  0
   21.2026   45.5465    8.7910 H   0  0  0  0  0
   21.2916   44.0004    6.8411 H   0  0  0  0  0
   21.0962   40.2332    7.2236 H   0  0  0  0  0
   22.2924   41.4909    3.5319 H   0  0  0  0  0
   22.3662   43.2278    3.2441 H   0  0  0  0  0
   19.9048   43.3389    3.1513 H   0  0  0  0  0
   19.8145   41.5856    3.4742 H   0  0  0  0  0
   19.0782   41.0419    1.6074 H   0  0  0  0  0
  1  2  1  0  0  0
  2  3  1  0  0  0
  3  4  4  0  0  0
  3  8  4  0  0  0
  4  5  4  0  0  0
  5  6  4  0  0  0
  6  7  4  0  0  0
  7  8  4  0  0  0
  8  9  1  0  0  0
  9 10  2  0  0  0
 10 11  1  0  0  0
 11 12  1  0  0  0
 12 13  1  0  0  0
 13 14  1  0  0  0
 14 15  1  0  0  0
 14 16  2  0  0  0
  1 17  1  0  0  0
  1 18  1  0  0  0
  1 19  1  0  0  0
  4 20  1  0  0  0
  5 21  1  0  0  0
  6 22  1  0  0  0
  7 23  1  0  0  0
  9 24  1  0  0  0
 12 25  1  0  0  0
 12 26  1  0  0  0
 13 27  1  0  0  0
 13 28  1  0  0  0
 15 29  1  0  0  0
M  END
$$$$
