3oyw_ligand
  -I-interpret- 

 45 46  0  0  0  0  0  0  0  0999 V2000
   23.3850    0.3650   17.8970 C   0  0  0  0  0
   24.2870   -0.9310   17.0980 S   0  0  0  0  0
   23.7660    1.7360   17.3280 C   0  0  0  0  0
   25.1250    2.0480   17.6380 O   0  0  0  0  0
   22.8600    2.8230   17.9150 C   0  0  0  0  0
   23.1370    4.1010   17.3370 O   0  0  0  0  0
   21.3920    2.4600   17.7130 C   0  0  0  0  0
   21.0960    2.3730   16.3080 O   0  0  0  0  0
   21.1440    1.1140   18.3860 C   0  0  0  0  0
   21.9720    0.1300   17.7440 O   0  0  0  0  0
   19.6770    0.7020   18.3270 C   0  0  0  0  0
   19.4940   -0.5220   19.0620 O   0  0  0  0  0
   23.5920   -2.3020   17.9770 C   0  0  0  0  0
   23.2320   -3.4670   17.0420 C   0  0  0  0  0
   22.2210   -3.0770   16.1020 O   0  0  0  0  0
   22.7020   -4.6520   17.8640 C   0  0  0  0  0
   22.5190   -5.8040   17.0360 O   0  0  0  0  0
   23.6100   -4.9960   19.0480 C   0  0  0  0  0
   24.8390   -5.5500   18.5670 O   0  0  0  0  0
   23.8910   -3.7310   19.8650 C   0  0  0  0  0
   24.4950   -2.7500   19.0040 O   0  0  0  0  0
   24.7180   -4.0130   21.1260 C   0  0  0  0  0
   26.0670   -3.5470   20.9940 O   0  0  0  0  0
   23.6389    0.3660   18.9570 H   0  0  0  0  0
   23.6419    1.6988   16.2457 H   0  0  0  0  0
   25.6990    1.3706   17.2730 H   0  0  0  0  0
   23.0657    2.8853   18.9836 H   0  0  0  0  0
   24.0627    4.3175   17.4707 H   0  0  0  0  0
   20.7486    3.2239   18.1497 H   0  0  0  0  0
   21.2555    3.2249   15.8952 H   0  0  0  0  0
   21.3987    1.1964   19.4426 H   0  0  0  0  0
   19.3831    0.5502   17.2884 H   0  0  0  0  0
   19.0608    1.4862   18.7669 H   0  0  0  0  0
   18.5704   -0.7813   19.0248 H   0  0  0  0  0
   22.6672   -1.9545   18.4375 H   0  0  0  0  0
   24.1343   -3.7534   16.5018 H   0  0  0  0  0
   22.0136   -3.8198   15.5303 H   0  0  0  0  0
   21.7381   -4.3441   18.2693 H   0  0  0  0  0
   22.1881   -6.5306   17.5691 H   0  0  0  0  0
   23.1139   -5.7289   19.6843 H   0  0  0  0  0
   25.4053   -5.7643   19.3119 H   0  0  0  0  0
   22.9487   -3.3331   20.2417 H   0  0  0  0  0
   24.7423   -5.0910   21.2855 H   0  0  0  0  0
   24.2554   -3.4897   21.9629 H   0  0  0  0  0
   26.5515   -3.7406   21.7998 H   0  0  0  0  0
  1  2  1  0  0  0
  1  3  1  0  0  0
  1 10  1  0  0  0
  2 13  1  0  0  0
  3  4  1  0  0  0
  3  5  1  0  0  0
  5  6  1  0  0  0
  5  7  1  0  0  0
  7  8  1  0  0  0
  7  9  1  0  0  0
  9 10  1  0  0  0
  9 11  1  0  0  0
 11 12  1  0  0  0
 13 14  1  0  0  0
 13 21  1  0  0  0
 14 15  1  0  0  0
 14 16  1  0  0  0
 16 17  1  0  0  0
 16 18  1  0  0  0
 18 19  1  0  0  0
 18 20  1  0  0  0
 20 21  1  0  0  0
 20 22  1  0  0  0
 22 23  1  0  0  0
  1 24  1  0  0  0
  3 25  1  0  0  0
  4 26  1  0  0  0
  5 27  1  0  0  0
  6 28  1  0  0  0
  7 29  1  0  0  0
  8 30  1  0  0  0
  9 31  1  0  0  0
 11 32  1  0  0  0
 11 33  1  0  0  0
 12 34  1  0  0  0
 13 35  1  0  0  0
 14 36  1  0  0  0
 15 37  1  0  0  0
 16 38  1  0  0  0
 17 39  1  0  0  0
 18 40  1  0  0  0
 19 41  1  0  0  0
 20 42  1  0  0  0
 22 43  1  0  0  0
 22 44  1  0  0  0
 23 45  1  0  0  0
M  END
$$$$
