### 
### Created by X-TOOL on Mon Sep 10 21:12:57 2018
### 

@<TRIPOS>MOLECULE
2jqk_ligand
  225   224     1     0     0
SMALL
GAST_HUCK


@<TRIPOS>ATOM
      1 N           8.7000  -10.2160   -1.8810 N.4       1 ASP         0.2391
      2 CA          7.7540  -10.3470   -0.7770 C.3       1 ASP         0.0764
      3 C           8.3950   -9.9300    0.5440 C.2       1 ASP         0.2284
      4 O           7.7250   -9.4170    1.4370 O.2       1 ASP        -0.3906
      5 CB          7.2490  -11.7860   -0.6820 C.3       1 ASP         0.0607
      6 CG          8.3770  -12.7990   -0.7280 C.2       1 ASP         0.0425
      7 OD1         8.8880  -13.0750   -1.8360 O.co2     1 ASP        -0.5686
      8 OD2         8.7530  -13.3220    0.3430 O.co2     1 ASP        -0.5686
      9 N           9.6970  -10.1600    0.6620 N.am      1 GLU        -0.2608
     10 CA         10.4340   -9.8170    1.8740 C.3       1 GLU         0.1326
     11 C          10.6400   -8.3000    1.9670 C.2       1 GLU         0.2040
     12 O          10.6350   -7.7300    3.0590 O.2       1 GLU        -0.3944
     13 CB         11.7810  -10.5280    1.9070 C.3       1 GLU        -0.0008
     14 CG         12.5680  -10.4170    0.6110 C.3       1 GLU         0.0044
     15 CD         14.0670  -10.4690    0.8300 C.2       1 GLU         0.0350
     16 OE1        14.5180  -10.0910    1.9310 O.co2     1 GLU        -0.5690
     17 OE2        14.7850  -10.8800   -0.1010 O.co2     1 GLU        -0.5690
     18 N          10.8270   -7.6630    0.8180 N.am      1 GLU        -0.2636
     19 CA         11.0400   -6.2230    0.7720 C.3       1 GLU         0.1325
     20 C           9.7180   -5.4720    0.9100 C.2       1 GLU         0.2040
     21 O           9.5990   -4.5560    1.7200 O.2       1 GLU        -0.3944
     22 CB         11.7280   -5.8260   -0.5340 C.3       1 GLU        -0.0008
     23 CG         13.2390   -5.9770   -0.4950 C.3       1 GLU         0.0044
     24 CD         13.6750   -7.4120   -0.2450 C.2       1 GLU         0.0350
     25 OE1        13.6250   -8.2240   -1.1940 O.co2     1 GLU        -0.5690
     26 OE2        14.0630   -7.7190    0.8990 O.co2     1 GLU        -0.5690
     27 N           8.7300   -5.8740    0.1190 N.am      1 ILE        -0.2635
     28 CA          7.4180   -5.2400    0.1570 C.3       1 ILE         0.1335
     29 C           6.7730   -5.4030    1.5290 C.2       1 ILE         0.2042
     30 O           6.2380   -4.4470    2.0920 O.2       1 ILE        -0.3944
     31 CB          6.4790   -5.8240   -0.9180 C.3       1 ILE        -0.0037
     32 CG1         7.1280   -5.7350   -2.2990 C.3       1 ILE        -0.0491
     33 CG2         5.1410   -5.0960   -0.9100 C.3       1 ILE        -0.0582
     34 CD1         6.2660   -6.2930   -3.4120 C.3       1 ILE        -0.0648
     35 N           6.8260   -6.6180    2.0630 N.am      1 GLU        -0.2636
     36 CA          6.2460   -6.9030    3.3700 C.3       1 GLU         0.1325
     37 C           6.9070   -6.0570    4.4540 C.2       1 GLU         0.2040
     38 O           6.2370   -5.5090    5.3230 O.2       1 GLU        -0.3944
     39 CB          6.3910   -8.3920    3.7000 C.3       1 GLU        -0.0008
     40 CG          5.6210   -8.8150    4.9390 C.3       1 GLU         0.0044
     41 CD          6.3190   -8.4170    6.2240 C.2       1 GLU         0.0350
     42 OE1         7.5030   -8.7720    6.3910 O.co2     1 GLU        -0.5690
     43 OE2         5.6820   -7.7450    7.0640 O.co2     1 GLU        -0.5690
     44 N           8.2340   -5.9730    4.4000 N.am      1 ARG        -0.2637
     45 CA          8.9890   -5.2000    5.3790 C.3       1 ARG         0.1311
     46 C           8.6660   -3.7170    5.2680 C.2       1 ARG         0.2039
     47 O           8.6910   -2.9910    6.2620 O.2       1 ARG        -0.3944
     48 CB         10.4920   -5.4220    5.1850 C.3       1 ARG        -0.0092
     49 CG         11.3140   -5.1330    6.4290 C.3       1 ARG        -0.0156
     50 CD         11.1560   -6.2290    7.4670 C.3       1 ARG         0.0627
     51 NE         12.2290   -6.2050    8.4600 N.pl3     1 ARG        -0.2723
     52 CZ         13.4850   -6.5490    8.2020 C.cat     1 ARG         0.2882
     53 NH1        13.8370   -6.9620    6.9870 N.pl3     1 ARG        -0.2849
     54 NH2        14.3990   -6.4980    9.1620 N.pl3     1 ARG        -0.2849
     55 N           8.3610   -3.2720    4.0540 N.am      1 GLN        -0.2636
     56 CA          8.0300   -1.8720    3.8140 C.3       1 GLN         0.1330
     57 C           6.8030   -1.4570    4.6200 C.2       1 GLN         0.2040
     58 O           6.8010   -0.4130    5.2720 O.2       1 GLN        -0.3944
     59 CB          7.7810   -1.6320    2.3240 C.3       1 GLN         0.0045
     60 CG          9.0320   -1.2400    1.5530 C.3       1 GLN         0.0412
     61 CD          9.1310    0.2540    1.3230 C.2       1 GLN         0.1737
     62 OE1         9.8140    0.9650    2.0600 O.2       1 GLN        -0.3973
     63 NE2         8.4460    0.7400    0.2940 N.am      1 GLN        -0.3009
     64 N           5.7620   -2.2820    4.5720 N.am      1 LEU        -0.2637
     65 CA          4.5300   -1.9980    5.2990 C.3       1 LEU         0.1312
     66 C           4.7920   -1.9110    6.7980 C.2       1 LEU         0.2039
     67 O           4.3520   -0.9710    7.4610 O.2       1 LEU        -0.3944
     68 CB          3.4850   -3.0800    5.0140 C.3       1 LEU        -0.0101
     69 CG          2.6970   -2.8910    3.7140 C.3       1 LEU        -0.0425
     70 CD1         3.1930   -3.8530    2.6430 C.3       1 LEU        -0.0625
     71 CD2         1.2070   -3.0870    3.9580 C.3       1 LEU        -0.0625
     72 N           5.5090   -2.8960    7.3270 N.am      1 LYS        -0.2637
     73 CA          5.8300   -2.9320    8.7490 C.3       1 LYS         0.1310
     74 C           6.6310   -1.6990    9.1560 C.2       1 LYS         0.2039
     75 O           6.5180   -1.2170   10.2840 O.2       1 LYS        -0.3944
     76 CB          6.6160   -4.2000    9.0850 C.3       1 LYS        -0.0122
     77 CG          6.3860   -4.7000   10.5020 C.3       1 LYS        -0.0440
     78 CD          7.2700   -3.9710   11.5010 C.3       1 LYS        -0.0124
     79 CE          8.5020   -4.7810   11.8510 C.3       1 LYS        -0.0354
     80 NZ          9.3870   -4.9930   10.6710 N.4       1 LYS         0.2185
     81 N           7.4410   -1.1940    8.2310 N.am      1 ALA        -0.2640
     82 CA          8.2610   -0.0190    8.4940 C.3       1 ALA         0.1282
     83 C           7.4080    1.2440    8.5560 C.2       1 ALA         0.2036
     84 O           7.4890    2.0130    9.5130 O.2       1 ALA        -0.3944
     85 CB          9.3380    0.1220    7.4280 C.3       1 ALA        -0.0244
     86 N           6.5910    1.4500    7.5280 N.am      1 LEU        -0.2637
     87 CA          5.7220    2.6190    7.4660 C.3       1 LEU         0.1312
     88 C           4.6650    2.5710    8.5650 C.2       1 LEU         0.2037
     89 O           4.3980    3.5740    9.2260 O.2       1 LEU        -0.3944
     90 CB          5.0450    2.7050    6.0960 C.3       1 LEU        -0.0101
     91 CG          5.8700    3.3960    5.0090 C.3       1 LEU        -0.0425
     92 CD1         5.5460    2.8140    3.6420 C.3       1 LEU        -0.0625
     93 CD2         5.6190    4.8970    5.0250 C.3       1 LEU        -0.0625
     94 N           4.0690    1.3990    8.7560 N.am      1 GLY        -0.2664
     95 CA          3.0490    1.2430    9.7750 C.3       1 GLY         0.1201
     96 C           3.6110    0.7150   11.0810 C.2       1 GLY         0.2008
     97 O           3.5760   -0.4870   11.3400 O.2       1 GLY        -0.3947
     98 N           4.1310    1.6190   11.9070 N.am      1 VAL        -0.2637
     99 CA          4.7030    1.2390   13.1920 C.3       1 VAL         0.1332
    100 C           4.7260    2.4230   14.1540 C.2       1 VAL         0.2037
    101 O           5.1360    3.5240   13.7880 O.2       1 VAL        -0.3944
    102 CB          6.1330    0.6880   13.0290 C.3       1 VAL        -0.0063
    103 CG1         7.0570    1.7510   12.4530 C.3       1 VAL        -0.0584
    104 CG2         6.6640    0.1700   14.3590 C.3       1 VAL        -0.0584
    105 N           4.2840    2.1870   15.3850 N.am      1 ASP        -0.2679
    106 CA          4.2550    3.2350   16.4000 C.3       1 ASP         0.1057
    107 C           4.6400    2.6790   17.7670 C.2       1 ASP         0.0618
    108 O           5.4070    3.3540   18.4850 O.co2     1 ASP        -0.5665
    109 CB          2.8650    3.8700   16.4670 C.3       1 ASP         0.0351
    110 CG          2.3880    4.3620   15.1150 C.2       1 ASP         0.0387
    111 OD1         3.0570    5.2440   14.5350 O.co2     1 ASP        -0.5688
    112 OD2         1.3470    3.8680   14.6360 O.co2     1 ASP        -0.5688
    113 OXT         4.1710    1.5730   18.1080 O.co2     1 ASP        -0.5665
    114 H1          8.2543  -10.4966   -2.7405 H         1 ASP         0.2016
    115 H2          9.5000  -10.8048   -1.7097 H         1 ASP         0.2016
    116 H3          8.9989   -9.2562   -1.9553 H         1 ASP         0.2016
    117 H4          6.8969   -9.6860   -0.9728 H         1 ASP         0.1117
    118 H5          6.5677  -11.9776   -1.5241 H         1 ASP         0.0512
    119 H6          6.7039  -11.9072    0.2657 H         1 ASP         0.0512
    120 H7         10.1870  -10.5804   -0.1016 H         1 GLU         0.1885
    121 H8          9.8448  -10.1444    2.7432 H         1 GLU         0.0801
    122 H9         11.6051  -11.5937    2.1152 H         1 GLU         0.0330
    123 H10        12.3837  -10.0908    2.7167 H         1 GLU         0.0330
    124 H11        12.3161   -9.4618    0.1271 H         1 GLU         0.0433
    125 H12        12.2797  -11.2492   -0.0481 H         1 GLU         0.0433
    126 H13        10.8215   -8.1836   -0.0358 H         1 GLU         0.1883
    127 H14        11.6917   -5.9411    1.6121 H         1 GLU         0.0801
    128 H15        11.4890   -4.7737   -0.7472 H         1 GLU         0.0330
    129 H16        11.3356   -6.4620   -1.3412 H         1 GLU         0.0330
    130 H17        13.6362   -5.3423    0.3108 H         1 GLU         0.0433
    131 H18        13.6515   -5.6461   -1.4595 H         1 GLU         0.0433
    132 H19         8.8897   -6.6288   -0.5172 H         1 ILE         0.1883
    133 H20         7.5507   -4.1664   -0.0423 H         1 ILE         0.0803
    134 H21         6.2998   -6.8840   -0.6851 H         1 ILE         0.0345
    135 H22         8.0729   -6.2976   -2.2759 H         1 ILE         0.0267
    136 H23         7.3362   -4.6773   -2.5177 H         1 ILE         0.0267
    137 H24         4.6891   -5.1704    0.0901 H         1 ILE         0.0235
    138 H25         4.4695   -5.5547   -1.6507 H         1 ILE         0.0235
    139 H26         5.2981   -4.0372   -1.1635 H         1 ILE         0.0235
    140 H27         6.7963   -6.1949   -4.3707 H         1 ILE         0.0230
    141 H28         5.3194   -5.7345   -3.4578 H         1 ILE         0.0230
    142 H29         6.0561   -7.3549   -3.2160 H         1 ILE         0.0230
    143 H30         7.2743   -7.3547    1.5567 H         1 GLU         0.1883
    144 H31         5.1752   -6.6535    3.3378 H         1 GLU         0.0801
    145 H32         7.4569   -8.6110    3.8608 H         1 GLU         0.0330
    146 H33         6.0217   -8.9760    2.8442 H         1 GLU         0.0330
    147 H34         5.5052   -9.9088    4.9254 H         1 GLU         0.0433
    148 H35         4.6287   -8.3409    4.9159 H         1 GLU         0.0433
    149 H36         8.7246   -6.4509    3.6714 H         1 ARG         0.1883
    150 H37         8.7092   -5.5444    6.3855 H         1 ARG         0.0800
    151 H38        10.8398   -4.7616    4.3770 H         1 ARG         0.0313
    152 H39        10.6544   -6.4710    4.8967 H         1 ARG         0.0313
    153 H40        10.9815   -4.1787    6.8634 H         1 ARG         0.0301
    154 H41        12.3746   -5.0579    6.1472 H         1 ARG         0.0301
    155 H42        11.1659   -7.2039    6.9577 H         1 ARG         0.0689
    156 H43        10.1933   -6.0939    7.9818 H         1 ARG         0.0689
    157 H44        11.9965   -5.9031    9.4169 H         1 ARG         0.2642
    158 H45        14.8139   -7.2269    6.7960 H         1 ARG         0.2615
    159 H46        13.1326   -7.0168    6.2375 H         1 ARG         0.2615
    160 H47        14.1372   -6.1798   10.1060 H         1 ARG         0.2615
    161 H48        15.3705   -6.7766    8.9634 H         1 ARG         0.2615
    162 H49         8.3583   -3.9125    3.2860 H         1 GLN         0.1883
    163 H50         8.8823   -1.2536    4.1318 H         1 GLN         0.0801
    164 H51         7.0415   -0.8243    2.2207 H         1 GLN         0.0337
    165 H52         7.3777   -2.5567    1.8854 H         1 GLN         0.0337
    166 H53         9.0171   -1.7464    0.5766 H         1 GLN         0.0504
    167 H54         9.9140   -1.5678    2.1227 H         1 GLN         0.0504
    168 H55         8.4731    1.7192    0.0930 H         1 GLN         0.1814
    169 H56         7.9032    0.1267   -0.2797 H         1 GLN         0.1814
    170 H57         5.8250   -3.1166    4.0248 H         1 LEU         0.1883
    171 H58         4.1373   -1.0297    4.9554 H         1 LEU         0.0800
    172 H59         2.7688   -3.0913    5.8488 H         1 LEU         0.0315
    173 H60         4.0025   -4.0492    4.9617 H         1 LEU         0.0315
    174 H61         2.8577   -1.8627    3.3578 H         1 LEU         0.0298
    175 H62         2.6158   -3.7020    1.7188 H         1 LEU         0.0232
    176 H63         3.0631   -4.8882    2.9914 H         1 LEU         0.0232
    177 H64         4.2583   -3.6637    2.4450 H         1 LEU         0.0232
    178 H65         0.8670   -2.3848    4.7334 H         1 LEU         0.0232
    179 H66         1.0227   -4.1189    4.2916 H         1 LEU         0.0232
    180 H67         0.6548   -2.8989    3.0254 H         1 LEU         0.0232
    181 H68         5.8372   -3.6319    6.7348 H         1 LYS         0.1883
    182 H69         4.8888   -2.9410    9.3183 H         1 LYS         0.0800
    183 H70         7.6882   -3.9880    8.9607 H         1 LYS         0.0312
    184 H71         6.3151   -4.9920    8.3835 H         1 LYS         0.0312
    185 H72         6.6127   -5.7756   10.5426 H         1 LYS         0.0269
    186 H73         5.3322   -4.5369   10.7719 H         1 LYS         0.0269
    187 H74         6.6929   -3.7845   12.4187 H         1 LYS         0.0317
    188 H75         7.5856   -3.0117   11.0649 H         1 LYS         0.0317
    189 H76         8.1845   -5.7609   12.2368 H         1 LYS         0.0813
    190 H77         9.0687   -4.2471   12.6280 H         1 LYS         0.0813
    191 H78        10.1913   -5.5341   10.9472 H         1 LYS         0.1994
    192 H79         9.6893   -4.1005   10.3131 H         1 LYS         0.1994
    193 H80         8.8791   -5.4878    9.9546 H         1 LYS         0.1994
    194 H81         7.4887   -1.6312    7.3329 H         1 ALA         0.1883
    195 H82         8.7520   -0.1519    9.4693 H         1 ALA         0.0797
    196 H83         9.9486    1.0122    7.6392 H         1 ALA         0.0277
    197 H84         8.8650    0.2277    6.4406 H         1 ALA         0.0277
    198 H85         9.9789   -0.7720    7.4338 H         1 ALA         0.0277
    199 H86         6.5719    0.7874    6.7793 H         1 LEU         0.1883
    200 H87         6.3376    3.5189    7.6117 H         1 LEU         0.0800
    201 H88         4.1035    3.2612    6.2150 H         1 LEU         0.0315
    202 H89         4.8259    1.6811    5.7588 H         1 LEU         0.0315
    203 H90         6.9357    3.2200    5.2171 H         1 LEU         0.0298
    204 H91         6.1481    3.3228    2.8748 H         1 LEU         0.0232
    205 H92         4.4774    2.9594    3.4255 H         1 LEU         0.0232
    206 H93         5.7782    1.7388    3.6368 H         1 LEU         0.0232
    207 H94         5.8589    5.2982    6.0207 H         1 LEU         0.0232
    208 H95         4.5616    5.0944    4.7952 H         1 LEU         0.0232
    209 H96         6.2552    5.3832    4.2708 H         1 LEU         0.0232
    210 H97         4.3267    0.6155    8.1906 H         1 GLY         0.1881
    211 H98         2.2879    0.5388    9.4079 H         1 GLY         0.0763
    212 H99         2.5833    2.2220    9.9612 H         1 GLY         0.0763
    213 H100        4.1292    2.5826   11.6395 H         1 VAL         0.1883
    214 H101        4.0729    0.4487   13.6261 H         1 VAL         0.0802
    215 H102        6.0979   -0.1545   12.3226 H         1 VAL         0.0343
    216 H103        8.0703    1.3367   12.3454 H         1 VAL         0.0234
    217 H104        7.0853    2.6179   13.1295 H         1 VAL         0.0234
    218 H105        6.6835    2.0667   11.4677 H         1 VAL         0.0234
    219 H106        5.9798   -0.5955   14.7538 H         1 VAL         0.0234
    220 H107        6.7351    1.0023   15.0747 H         1 VAL         0.0234
    221 H108        7.6605   -0.2710   14.2093 H         1 VAL         0.0234
    222 H109        3.9637    1.2696   15.6212 H         1 ASP         0.1876
    223 H110        4.9830    4.0109   16.1206 H         1 ASP         0.0745
    224 H111        2.8994    4.7227   17.1610 H         1 ASP         0.0471
    225 H112        2.1521    3.1207   16.8417 H         1 ASP         0.0471
@<TRIPOS>BOND
     1    1    2 1  
     2    2    3 1  
     3    2    5 1  
     4    3    4 2  
     5    3    9 am 
     6    5    6 1  
     7    6    7 ar 
     8    6    8 ar 
     9    9   10 1  
    10   10   11 1  
    11   10   13 1  
    12   11   12 2  
    13   11   18 am 
    14   13   14 1  
    15   14   15 1  
    16   15   16 ar 
    17   15   17 ar 
    18   18   19 1  
    19   19   20 1  
    20   19   22 1  
    21   20   21 2  
    22   20   27 am 
    23   22   23 1  
    24   23   24 1  
    25   24   25 ar 
    26   24   26 ar 
    27   27   28 1  
    28   28   29 1  
    29   28   31 1  
    30   29   30 2  
    31   29   35 am 
    32   31   32 1  
    33   31   33 1  
    34   32   34 1  
    35   35   36 1  
    36   36   37 1  
    37   36   39 1  
    38   37   38 2  
    39   37   44 am 
    40   39   40 1  
    41   40   41 1  
    42   41   42 ar 
    43   41   43 ar 
    44   44   45 1  
    45   45   46 1  
    46   45   48 1  
    47   46   47 2  
    48   46   55 am 
    49   48   49 1  
    50   49   50 1  
    51   50   51 1  
    52   51   52 ar 
    53   52   53 ar 
    54   52   54 ar 
    55   55   56 1  
    56   56   57 1  
    57   56   59 1  
    58   57   58 2  
    59   57   64 am 
    60   59   60 1  
    61   60   61 1  
    62   61   62 2  
    63   61   63 am 
    64   64   65 1  
    65   65   66 1  
    66   65   68 1  
    67   66   67 2  
    68   66   72 am 
    69   68   69 1  
    70   69   70 1  
    71   69   71 1  
    72   72   73 1  
    73   73   74 1  
    74   73   76 1  
    75   74   75 2  
    76   74   81 am 
    77   76   77 1  
    78   77   78 1  
    79   78   79 1  
    80   79   80 1  
    81   81   82 1  
    82   82   83 1  
    83   82   85 1  
    84   83   84 2  
    85   83   86 am 
    86   86   87 1  
    87   87   88 1  
    88   87   90 1  
    89   88   89 2  
    90   88   94 am 
    91   90   91 1  
    92   91   92 1  
    93   91   93 1  
    94   94   95 1  
    95   95   96 1  
    96   96   97 2  
    97   96   98 am 
    98   98   99 1  
    99   99  100 1  
   100   99  102 1  
   101  100  101 2  
   102  100  105 am 
   103  102  103 1  
   104  102  104 1  
   105  105  106 1  
   106  106  107 1  
   107  106  109 1  
   108  107  108 ar 
   109  107  113 ar 
   110  109  110 1  
   111  110  111 ar 
   112  110  112 ar 
   113    1  114 1  
   114    1  115 1  
   115    1  116 1  
   116    2  117 1  
   117    5  118 1  
   118    5  119 1  
   119    9  120 1  
   120   10  121 1  
   121   13  122 1  
   122   13  123 1  
   123   14  124 1  
   124   14  125 1  
   125   18  126 1  
   126   19  127 1  
   127   22  128 1  
   128   22  129 1  
   129   23  130 1  
   130   23  131 1  
   131   27  132 1  
   132   28  133 1  
   133   31  134 1  
   134   32  135 1  
   135   32  136 1  
   136   33  137 1  
   137   33  138 1  
   138   33  139 1  
   139   34  140 1  
   140   34  141 1  
   141   34  142 1  
   142   35  143 1  
   143   36  144 1  
   144   39  145 1  
   145   39  146 1  
   146   40  147 1  
   147   40  148 1  
   148   44  149 1  
   149   45  150 1  
   150   48  151 1  
   151   48  152 1  
   152   49  153 1  
   153   49  154 1  
   154   50  155 1  
   155   50  156 1  
   156   51  157 1  
   157   53  158 1  
   158   53  159 1  
   159   54  160 1  
   160   54  161 1  
   161   55  162 1  
   162   56  163 1  
   163   59  164 1  
   164   59  165 1  
   165   60  166 1  
   166   60  167 1  
   167   63  168 1  
   168   63  169 1  
   169   64  170 1  
   170   65  171 1  
   171   68  172 1  
   172   68  173 1  
   173   69  174 1  
   174   70  175 1  
   175   70  176 1  
   176   70  177 1  
   177   71  178 1  
   178   71  179 1  
   179   71  180 1  
   180   72  181 1  
   181   73  182 1  
   182   76  183 1  
   183   76  184 1  
   184   77  185 1  
   185   77  186 1  
   186   78  187 1  
   187   78  188 1  
   188   79  189 1  
   189   79  190 1  
   190   80  191 1  
   191   80  192 1  
   192   80  193 1  
   193   81  194 1  
   194   82  195 1  
   195   85  196 1  
   196   85  197 1  
   197   85  198 1  
   198   86  199 1  
   199   87  200 1  
   200   90  201 1  
   201   90  202 1  
   202   91  203 1  
   203   92  204 1  
   204   92  205 1  
   205   92  206 1  
   206   93  207 1  
   207   93  208 1  
   208   93  209 1  
   209   94  210 1  
   210   95  211 1  
   211   95  212 1  
   212   98  213 1  
   213   99  214 1  
   214  102  215 1  
   215  103  216 1  
   216  103  217 1  
   217  103  218 1  
   218  104  219 1  
   219  104  220 1  
   220  104  221 1  
   221  105  222 1  
   222  106  223 1  
   223  109  224 1  
   224  109  225 1  
@<TRIPOS>SUBSTRUCTURE
     1 ASP         1

