2jqk_ligand
  -I-interpret- 

230229  0  0  0  0  0  0  0  0999 V2000
    8.7000  -10.2160   -1.8810 N   0  3  0  0  0
    7.7540  -10.3470   -0.7770 C   0  0  0  0  0
    8.3950   -9.9300    0.5440 C   0  0  0  0  0
    7.7250   -9.4170    1.4370 O   0  0  0  0  0
    7.2490  -11.7860   -0.6820 C   0  0  0  0  0
    8.3770  -12.7990   -0.7280 C   0  0  0  0  0
    8.8880  -13.0750   -1.8360 O   0  0  0  0  0
    8.7530  -13.3220    0.3430 O   0  0  0  0  0
    9.6970  -10.1600    0.6620 N   0  0  0  0  0
   10.4340   -9.8170    1.8740 C   0  0  0  0  0
   10.6400   -8.3000    1.9670 C   0  0  0  0  0
   10.6350   -7.7300    3.0590 O   0  0  0  0  0
   11.7810  -10.5280    1.9070 C   0  0  0  0  0
   12.5680  -10.4170    0.6110 C   0  0  0  0  0
   14.0670  -10.4690    0.8300 C   0  0  0  0  0
   14.5180  -10.0910    1.9310 O   0  0  0  0  0
   14.7850  -10.8800   -0.1010 O   0  0  0  0  0
   10.8270   -7.6630    0.8180 N   0  0  0  0  0
   11.0400   -6.2230    0.7720 C   0  0  0  0  0
    9.7180   -5.4720    0.9100 C   0  0  0  0  0
    9.5990   -4.5560    1.7200 O   0  0  0  0  0
   11.7280   -5.8260   -0.5340 C   0  0  0  0  0
   13.2390   -5.9770   -0.4950 C   0  0  0  0  0
   13.6750   -7.4120   -0.2450 C   0  0  0  0  0
   13.6250   -8.2240   -1.1940 O   0  0  0  0  0
   14.0630   -7.7190    0.8990 O   0  0  0  0  0
    8.7300   -5.8740    0.1190 N   0  0  0  0  0
    7.4180   -5.2400    0.1570 C   0  0  0  0  0
    6.7730   -5.4030    1.5290 C   0  0  0  0  0
    6.2380   -4.4470    2.0920 O   0  0  0  0  0
    6.4790   -5.8240   -0.9180 C   0  0  0  0  0
    7.1280   -5.7350   -2.2990 C   0  0  0  0  0
    5.1410   -5.0960   -0.9100 C   0  0  0  0  0
    6.2660   -6.2930   -3.4120 C   0  0  0  0  0
    6.8260   -6.6180    2.0630 N   0  0  0  0  0
    6.2460   -6.9030    3.3700 C   0  0  0  0  0
    6.9070   -6.0570    4.4540 C   0  0  0  0  0
    6.2370   -5.5090    5.3230 O   0  0  0  0  0
    6.3910   -8.3920    3.7000 C   0  0  0  0  0
    5.6210   -8.8150    4.9390 C   0  0  0  0  0
    6.3190   -8.4170    6.2240 C   0  0  0  0  0
    7.5030   -8.7720    6.3910 O   0  0  0  0  0
    5.6820   -7.7450    7.0640 O   0  0  0  0  0
    8.2340   -5.9730    4.4000 N   0  0  0  0  0
    8.9890   -5.2000    5.3790 C   0  0  0  0  0
    8.6660   -3.7170    5.2680 C   0  0  0  0  0
    8.6910   -2.9910    6.2620 O   0  0  0  0  0
   10.4920   -5.4220    5.1850 C   0  0  0  0  0
   11.3140   -5.1330    6.4290 C   0  0  0  0  0
   11.1560   -6.2290    7.4670 C   0  0  0  0  0
   12.2290   -6.2050    8.4600 N   0  0  0  0  0
   13.4850   -6.5490    8.2020 C   0  0  0  0  0
   13.8370   -6.9620    6.9870 N   0  0  0  0  0
   14.3990   -6.4980    9.1620 N   0  0  0  0  0
    8.3610   -3.2720    4.0540 N   0  0  0  0  0
    8.0300   -1.8720    3.8140 C   0  0  0  0  0
    6.8030   -1.4570    4.6200 C   0  0  0  0  0
    6.8010   -0.4130    5.2720 O   0  0  0  0  0
    7.7810   -1.6320    2.3240 C   0  0  0  0  0
    9.0320   -1.2400    1.5530 C   0  0  0  0  0
    9.1310    0.2540    1.3230 C   0  0  0  0  0
    9.8140    0.9650    2.0600 O   0  0  0  0  0
    8.4460    0.7400    0.2940 N   0  0  0  0  0
    5.7620   -2.2820    4.5720 N   0  0  0  0  0
    4.5300   -1.9980    5.2990 C   0  0  0  0  0
    4.7920   -1.9110    6.7980 C   0  0  0  0  0
    4.3520   -0.9710    7.4610 O   0  0  0  0  0
    3.4850   -3.0800    5.0140 C   0  0  0  0  0
    2.6970   -2.8910    3.7140 C   0  0  0  0  0
    3.1930   -3.8530    2.6430 C   0  0  0  0  0
    1.2070   -3.0870    3.9580 C   0  0  0  0  0
    5.5090   -2.8960    7.3270 N   0  0  0  0  0
    5.8300   -2.9320    8.7490 C   0  0  0  0  0
    6.6310   -1.6990    9.1560 C   0  0  0  0  0
    6.5180   -1.2170   10.2840 O   0  0  0  0  0
    6.6160   -4.2000    9.0850 C   0  0  0  0  0
    6.3860   -4.7000   10.5020 C   0  0  0  0  0
    7.2700   -3.9710   11.5010 C   0  0  0  0  0
    8.5020   -4.7810   11.8510 C   0  0  0  0  0
    9.3870   -4.9930   10.6710 N   0  3  0  0  0
    7.4410   -1.1940    8.2310 N   0  0  0  0  0
    8.2610   -0.0190    8.4940 C   0  0  0  0  0
    7.4080    1.2440    8.5560 C   0  0  0  0  0
    7.4890    2.0130    9.5130 O   0  0  0  0  0
    9.3380    0.1220    7.4280 C   0  0  0  0  0
    6.5910    1.4500    7.5280 N   0  0  0  0  0
    5.7220    2.6190    7.4660 C   0  0  0  0  0
    4.6650    2.5710    8.5650 C   0  0  0  0  0
    4.3980    3.5740    9.2260 O   0  0  0  0  0
    5.0450    2.7050    6.0960 C   0  0  0  0  0
    5.8700    3.3960    5.0090 C   0  0  0  0  0
    5.5460    2.8140    3.6420 C   0  0  0  0  0
    5.6190    4.8970    5.0250 C   0  0  0  0  0
    4.0690    1.3990    8.7560 N   0  0  0  0  0
    3.0490    1.2430    9.7750 C   0  0  0  0  0
    3.6110    0.7150   11.0810 C   0  0  0  0  0
    3.5760   -0.4870   11.3400 O   0  0  0  0  0
    4.1310    1.6190   11.9070 N   0  0  0  0  0
    4.7030    1.2390   13.1920 C   0  0  0  0  0
    4.7260    2.4230   14.1540 C   0  0  0  0  0
    5.1360    3.5240   13.7880 O   0  0  0  0  0
    6.1330    0.6880   13.0290 C   0  0  0  0  0
    7.0570    1.7510   12.4530 C   0  0  0  0  0
    6.6640    0.1700   14.3590 C   0  0  0  0  0
    4.2840    2.1870   15.3850 N   0  0  0  0  0
    4.2550    3.2350   16.4000 C   0  0  0  0  0
    4.6400    2.6790   17.7670 C   0  0  0  0  0
    5.4070    3.3540   18.4850 O   0  0  0  0  0
    2.8650    3.8700   16.4670 C   0  0  0  0  0
    2.3880    4.3620   15.1150 C   0  0  0  0  0
    3.0570    5.2440   14.5350 O   0  0  0  0  0
    1.3470    3.8680   14.6360 O   0  0  0  0  0
    4.1710    1.5730   18.1080 O   0  0  0  0  0
    9.0287   -9.2518   -1.9329 H   0  0  0  0  0
    9.4925  -10.8387   -1.7238 H   0  0  0  0  0
    8.2375  -10.4663   -2.7550 H   0  0  0  0  0
    6.9105   -9.6850   -0.9730 H   0  0  0  0  0
    6.5949  -11.9708   -1.5341 H   0  0  0  0  0
    6.7322  -11.8998    0.2710 H   0  0  0  0  0
    8.4540  -12.5644   -2.5234 H   0  0  0  0  0
   10.1968  -10.5888   -0.1169 H   0  0  0  0  0
    9.8460  -10.1461    2.7308 H   0  0  0  0  0
   11.5847  -11.5865    2.0775 H   0  0  0  0  0
   12.3767  -10.0577    2.6893 H   0  0  0  0  0
   12.3296   -9.4556    0.1562 H   0  0  0  0  0
   12.2928  -11.2615   -0.0208 H   0  0  0  0  0
   13.7918   -9.8174    2.4961 H   0  0  0  0  0
   10.8214   -8.1940   -0.0529 H   0  0  0  0  0
   11.6828   -5.9519    1.6095 H   0  0  0  0  0
   11.5090   -4.7732   -0.7121 H   0  0  0  0  0
   11.3533   -6.4874   -1.3152 H   0  0  0  0  0
   13.6171   -5.3635    0.3228 H   0  0  0  0  0
   13.6326   -5.6701   -1.4640 H   0  0  0  0  0
   13.2987   -7.7776   -1.9788 H   0  0  0  0  0
    8.8929   -6.6439   -0.5299 H   0  0  0  0  0
    7.5698   -4.1800   -0.0465 H   0  0  0  0  0
    6.3010   -6.8743   -0.6870 H   0  0  0  0  0
    8.0438   -6.3253   -2.2681 H   0  0  0  0  0
    7.2955   -4.6796   -2.5136 H   0  0  0  0  0
    4.6735   -5.2083    0.0682 H   0  0  0  0  0
    5.3031   -4.0382   -1.1173 H   0  0  0  0  0
    4.4923   -5.5223   -1.6752 H   0  0  0  0  0
    6.0588   -7.3451   -3.2166 H   0  0  0  0  0
    5.3284   -5.7388   -3.4563 H   0  0  0  0  0
    6.7925   -6.1953   -4.3614 H   0  0  0  0  0
    7.2832   -7.3694    1.5466 H   0  0  0  0  0
    5.1866   -6.6490    3.3362 H   0  0  0  0  0
    7.4471   -8.5847    3.8886 H   0  0  0  0  0
    5.9906   -8.9552    2.8570 H   0  0  0  0  0
    5.5363   -9.9016    4.9263 H   0  0  0  0  0
    4.6511   -8.3182    4.9167 H   0  0  0  0  0
    4.7942   -7.5836    6.7362 H   0  0  0  0  0
    8.7344   -6.4605    3.6568 H   0  0  0  0  0
    8.7021   -5.5418    6.3735 H   0  0  0  0  0
   10.8260   -4.7369    4.4058 H   0  0  0  0  0
   10.6377   -6.4725    4.9334 H   0  0  0  0  0
   10.9670   -4.1948    6.8619 H   0  0  0  0  0
   12.3644   -5.0767    6.1434 H   0  0  0  0  0
   11.1888   -7.1902    6.9541 H   0  0  0  0  0
   10.2098   -6.0727    7.9851 H   0  0  0  0  0
   11.9987   -5.9061    9.4076 H   0  0  0  0  0
   14.8018   -7.2356    6.8010 H   0  0  0  0  0
   13.1420   -7.0050    6.2417 H   0  0  0  0  0
   14.1372   -6.1942   10.0998 H   0  0  0  0  0
    8.3582   -3.9253    3.2707 H   0  0  0  0  0
    8.8762   -1.2649    4.1355 H   0  0  0  0  0
    7.0733   -0.8073    2.2396 H   0  0  0  0  0
    7.4147   -2.5666    1.8992 H   0  0  0  0  0
    8.9918   -1.7272    0.5788 H   0  0  0  0  0
    9.8976   -1.5469    2.1402 H   0  0  0  0  0
    8.4735    1.7388    0.0891 H   0  0  0  0  0
    7.8925    0.1144   -0.2913 H   0  0  0  0  0
    5.8262   -3.1333    4.0139 H   0  0  0  0  0
    4.1491   -1.0352    4.9583 H   0  0  0  0  0
    2.7621   -3.0423    5.8289 H   0  0  0  0  0
    4.0246   -4.0225    4.9212 H   0  0  0  0  0
    2.8567   -1.8719    3.3618 H   0  0  0  0  0
    4.2487   -3.6644    2.4477 H   0  0  0  0  0
    3.0638   -4.8784    2.9894 H   0  0  0  0  0
    2.6204   -3.7025    1.7278 H   0  0  0  0  0
    1.0313   -4.0945    4.3351 H   0  0  0  0  0
    0.8611   -2.3579    4.6908 H   0  0  0  0  0
    0.6656   -2.9484    3.0222 H   0  0  0  0  0
    5.8437   -3.6467    6.7230 H   0  0  0  0  0
    4.8940   -2.9362    9.3076 H   0  0  0  0  0
    7.6756   -3.9629    8.9897 H   0  0  0  0  0
    6.2815   -4.9824    8.4037 H   0  0  0  0  0
    6.6290   -5.7620   10.5369 H   0  0  0  0  0
    5.3442   -4.5192   10.7669 H   0  0  0  0  0
    6.6958   -3.8062   12.4127 H   0  0  0  0  0
    7.5919   -3.0305   11.0538 H   0  0  0  0  0
    8.1764   -5.7567   12.2116 H   0  0  0  0  0
    9.0664   -4.2328   12.6053 H   0  0  0  0  0
   10.2005   -5.5406   10.9516 H   0  0  0  0  0
    8.8720   -5.4937    9.9468 H   0  0  0  0  0
    9.6922   -4.0893   10.3097 H   0  0  0  0  0
    7.4896   -1.6399    7.3149 H   0  0  0  0  0
    8.7396   -0.1508    9.4644 H   0  0  0  0  0
    9.9723   -0.7644    7.4347 H   0  0  0  0  0
    8.8680    0.2266    6.4501 H   0  0  0  0  0
    9.9423    1.0044    7.6384 H   0  0  0  0  0
    6.5715    0.7741    6.7643 H   0  0  0  0  0
    6.3373    3.5060    7.6169 H   0  0  0  0  0
    4.1402    3.2982    6.2290 H   0  0  0  0  0
    4.8797    1.6807    5.7620 H   0  0  0  0  0
    6.9262    3.2213    5.2137 H   0  0  0  0  0
    5.7765    1.7487    3.6382 H   0  0  0  0  0
    4.4869    2.9587    3.4287 H   0  0  0  0  0
    6.1432    3.3190    2.8827 H   0  0  0  0  0
    4.5614    5.0892    4.8444 H   0  0  0  0  0
    5.9023    5.3011    5.9969 H   0  0  0  0  0
    6.2142    5.3719    4.2451 H   0  0  0  0  0
    4.3319    0.5998    8.1793 H   0  0  0  0  0
    2.3147    0.5251    9.4095 H   0  0  0  0  0
    2.6127    2.2231    9.9678 H   0  0  0  0  0
    4.1292    2.6018   11.6341 H   0  0  0  0  0
    4.0678    0.4550   13.6043 H   0  0  0  0  0
    6.1003   -0.1467   12.3288 H   0  0  0  0  0
    6.6858    2.0630   11.4768 H   0  0  0  0  0
    7.0841    2.6094   13.1242 H   0  0  0  0  0
    8.0607    1.3393   12.3469 H   0  0  0  0  0
    6.6794    0.9835   15.0843 H   0  0  0  0  0
    6.0167   -0.6289   14.7209 H   0  0  0  0  0
    7.6746   -0.2141   14.2205 H   0  0  0  0  0
    3.9573    1.2512   15.6259 H   0  0  0  0  0
    4.9820    3.9976   16.1207 H   0  0  0  0  0
    2.9181    4.7273   17.1381 H   0  0  0  0  0
    2.1644    3.1114   16.8159 H   0  0  0  0  0
    3.8132    5.4791   15.0776 H   0  0  0  0  0
    3.6094    1.2349   17.4067 H   0  0  0  0  0
  1  2  1  0  0  0
  2  3  1  0  0  0
  2  5  1  0  0  0
  3  4  2  0  0  0
  3  9  1  0  0  0
  5  6  1  0  0  0
  6  7  1  0  0  0
  6  8  2  0  0  0
  9 10  1  0  0  0
 10 11  1  0  0  0
 10 13  1  0  0  0
 11 12  2  0  0  0
 11 18  1  0  0  0
 13 14  1  0  0  0
 14 15  1  0  0  0
 15 16  1  0  0  0
 15 17  2  0  0  0
 18 19  1  0  0  0
 19 20  1  0  0  0
 19 22  1  0  0  0
 20 21  2  0  0  0
 20 27  1  0  0  0
 22 23  1  0  0  0
 23 24  1  0  0  0
 24 25  1  0  0  0
 24 26  2  0  0  0
 27 28  1  0  0  0
 28 29  1  0  0  0
 28 31  1  0  0  0
 29 30  2  0  0  0
 29 35  1  0  0  0
 31 32  1  0  0  0
 31 33  1  0  0  0
 32 34  1  0  0  0
 35 36  1  0  0  0
 36 37  1  0  0  0
 36 39  1  0  0  0
 37 38  2  0  0  0
 37 44  1  0  0  0
 39 40  1  0  0  0
 40 41  1  0  0  0
 41 42  2  0  0  0
 41 43  1  0  0  0
 44 45  1  0  0  0
 45 46  1  0  0  0
 45 48  1  0  0  0
 46 47  2  0  0  0
 46 55  1  0  0  0
 48 49  1  0  0  0
 49 50  1  0  0  0
 50 51  1  0  0  0
 51 52  1  0  0  0
 52 53  1  0  0  0
 52 54  2  0  0  0
 55 56  1  0  0  0
 56 57  1  0  0  0
 56 59  1  0  0  0
 57 58  2  0  0  0
 57 64  1  0  0  0
 59 60  1  0  0  0
 60 61  1  0  0  0
 61 62  2  0  0  0
 61 63  1  0  0  0
 64 65  1  0  0  0
 65 66  1  0  0  0
 65 68  1  0  0  0
 66 67  2  0  0  0
 66 72  1  0  0  0
 68 69  1  0  0  0
 69 70  1  0  0  0
 69 71  1  0  0  0
 72 73  1  0  0  0
 73 74  1  0  0  0
 73 76  1  0  0  0
 74 75  2  0  0  0
 74 81  1  0  0  0
 76 77  1  0  0  0
 77 78  1  0  0  0
 78 79  1  0  0  0
 79 80  1  0  0  0
 81 82  1  0  0  0
 82 83  1  0  0  0
 82 85  1  0  0  0
 83 84  2  0  0  0
 83 86  1  0  0  0
 86 87  1  0  0  0
 87 88  1  0  0  0
 87 90  1  0  0  0
 88 89  2  0  0  0
 88 94  1  0  0  0
 90 91  1  0  0  0
 91 92  1  0  0  0
 91 93  1  0  0  0
 94 95  1  0  0  0
 95 96  1  0  0  0
 96 97  2  0  0  0
 96 98  1  0  0  0
 98 99  1  0  0  0
 99100  1  0  0  0
 99102  1  0  0  0
100101  2  0  0  0
100105  1  0  0  0
102103  1  0  0  0
102104  1  0  0  0
105106  1  0  0  0
106107  1  0  0  0
106109  1  0  0  0
107108  2  0  0  0
107113  1  0  0  0
109110  1  0  0  0
110111  1  0  0  0
110112  2  0  0  0
  1114  1  0  0  0
  1115  1  0  0  0
  1116  1  0  0  0
  2117  1  0  0  0
  5118  1  0  0  0
  5119  1  0  0  0
  7120  1  0  0  0
  9121  1  0  0  0
 10122  1  0  0  0
 13123  1  0  0  0
 13124  1  0  0  0
 14125  1  0  0  0
 14126  1  0  0  0
 16127  1  0  0  0
 18128  1  0  0  0
 19129  1  0  0  0
 22130  1  0  0  0
 22131  1  0  0  0
 23132  1  0  0  0
 23133  1  0  0  0
 25134  1  0  0  0
 27135  1  0  0  0
 28136  1  0  0  0
 31137  1  0  0  0
 32138  1  0  0  0
 32139  1  0  0  0
 33140  1  0  0  0
 33141  1  0  0  0
 33142  1  0  0  0
 34143  1  0  0  0
 34144  1  0  0  0
 34145  1  0  0  0
 35146  1  0  0  0
 36147  1  0  0  0
 39148  1  0  0  0
 39149  1  0  0  0
 40150  1  0  0  0
 40151  1  0  0  0
 43152  1  0  0  0
 44153  1  0  0  0
 45154  1  0  0  0
 48155  1  0  0  0
 48156  1  0  0  0
 49157  1  0  0  0
 49158  1  0  0  0
 50159  1  0  0  0
 50160  1  0  0  0
 51161  1  0  0  0
 53162  1  0  0  0
 53163  1  0  0  0
 54164  1  0  0  0
 55165  1  0  0  0
 56166  1  0  0  0
 59167  1  0  0  0
 59168  1  0  0  0
 60169  1  0  0  0
 60170  1  0  0  0
 63171  1  0  0  0
 63172  1  0  0  0
 64173  1  0  0  0
 65174  1  0  0  0
 68175  1  0  0  0
 68176  1  0  0  0
 69177  1  0  0  0
 70178  1  0  0  0
 70179  1  0  0  0
 70180  1  0  0  0
 71181  1  0  0  0
 71182  1  0  0  0
 71183  1  0  0  0
 72184  1  0  0  0
 73185  1  0  0  0
 76186  1  0  0  0
 76187  1  0  0  0
 77188  1  0  0  0
 77189  1  0  0  0
 78190  1  0  0  0
 78191  1  0  0  0
 79192  1  0  0  0
 79193  1  0  0  0
 80194  1  0  0  0
 80195  1  0  0  0
 80196  1  0  0  0
 81197  1  0  0  0
 82198  1  0  0  0
 85199  1  0  0  0
 85200  1  0  0  0
 85201  1  0  0  0
 86202  1  0  0  0
 87203  1  0  0  0
 90204  1  0  0  0
 90205  1  0  0  0
 91206  1  0  0  0
 92207  1  0  0  0
 92208  1  0  0  0
 92209  1  0  0  0
 93210  1  0  0  0
 93211  1  0  0  0
 93212  1  0  0  0
 94213  1  0  0  0
 95214  1  0  0  0
 95215  1  0  0  0
 98216  1  0  0  0
 99217  1  0  0  0
102218  1  0  0  0
103219  1  0  0  0
103220  1  0  0  0
103221  1  0  0  0
104222  1  0  0  0
104223  1  0  0  0
104224  1  0  0  0
105225  1  0  0  0
106226  1  0  0  0
109227  1  0  0  0
109228  1  0  0  0
111229  1  0  0  0
113230  1  0  0  0
M  END
$$$$
