6ps5_ligand
  -I-interpret- 

 41 42  0  0  0  0  0  0  0  0999 V2000
    1.9150    1.7230   49.7180 C   0  0  0  0  0
    1.2010    1.5090   48.5220 C   0  0  0  0  0
    0.3990    0.3830   48.3640 C   0  0  0  0  0
    0.2910   -0.5450   49.3900 C   0  0  0  0  0
    0.8830   -1.3100   51.6060 C   0  0  0  0  0
    1.5730   -1.1570   52.8000 C   0  0  0  0  0
    2.3890   -0.0530   52.9850 C   0  0  0  0  0
    2.5140    0.9020   51.9800 C   0  0  0  0  0
    1.8230    0.7700   50.7590 C   0  0  0  0  0
    0.9940   -0.3640   50.5840 C   0  0  0  0  0
    2.7740    2.8150   49.9380 O   0  0  0  0  0
    2.3460    4.1310   49.5590 C   0  0  0  0  0
    3.1080    5.1120   50.4370 C   0  0  0  0  0
    3.5660    6.2010   49.6320 O   0  0  0  0  0
    2.2110    5.5720   51.6030 C   0  0  0  0  0
    2.6760    6.8160   52.2440 N   0  3  0  0  0
    2.2610    6.9330   53.6600 C   0  0  0  0  0
    3.3470    7.7090   54.4030 C   0  0  0  0  0
    0.9160    7.6400   53.8810 C   0  0  0  0  0
    1.2779    2.2338   47.7115 H   0  0  0  0  0
   -0.1456    0.2296   47.4323 H   0  0  0  0  0
   -0.3460   -1.4204   49.2638 H   0  0  0  0  0
    0.2445   -2.1818   51.4632 H   0  0  0  0  0
    1.4734   -1.9023   53.5891 H   0  0  0  0  0
    2.9350    0.0683   53.9206 H   0  0  0  0  0
    3.1576    1.7670   52.1403 H   0  0  0  0  0
    1.2705    4.2430   49.6965 H   0  0  0  0  0
    2.5503    4.3158   48.5044 H   0  0  0  0  0
    3.9835    4.6352   50.8777 H   0  0  0  0  0
    4.0478    6.8233   50.1817 H   0  0  0  0  0
    2.2267    4.7870   52.3591 H   0  0  0  0  0
    1.2173    5.7628   51.1977 H   0  0  0  0  0
    2.2639    7.5983   51.7356 H   0  0  0  0  0
    3.6957    6.8135   52.2200 H   0  0  0  0  0
    2.1293    5.9172   54.0327 H   0  0  0  0  0
    4.2918    7.1706   54.3287 H   0  0  0  0  0
    3.4548    8.6978   53.9572 H   0  0  0  0  0
    3.0666    7.8103   55.4514 H   0  0  0  0  0
    0.9704    8.6538   53.4843 H   0  0  0  0  0
    0.1285    7.0890   53.3668 H   0  0  0  0  0
    0.6977    7.6774   54.9483 H   0  0  0  0  0
  2  1  4  0  0  0
  1  9  4  0  0  0
  1 11  1  0  0  0
  3  2  4  0  0  0
  4  3  4  0  0  0
 10  4  4  0  0  0
  5  6  4  0  0  0
  5 10  4  0  0  0
  6  7  4  0  0  0
  7  8  4  0  0  0
  8  9  4  0  0  0
  9 10  4  0  0  0
 11 12  1  0  0  0
 12 13  1  0  0  0
 13 14  1  0  0  0
 13 15  1  0  0  0
 15 16  1  0  0  0
 16 17  1  0  0  0
 17 18  1  0  0  0
 17 19  1  0  0  0
  2 20  1  0  0  0
  3 21  1  0  0  0
  4 22  1  0  0  0
  5 23  1  0  0  0
  6 24  1  0  0  0
  7 25  1  0  0  0
  8 26  1  0  0  0
 12 27  1  0  0  0
 12 28  1  0  0  0
 13 29  1  0  0  0
 14 30  1  0  0  0
 15 31  1  0  0  0
 15 32  1  0  0  0
 16 33  1  0  0  0
 16 34  1  0  0  0
 17 35  1  0  0  0
 18 36  1  0  0  0
 18 37  1  0  0  0
 18 38  1  0  0  0
 19 39  1  0  0  0
 19 40  1  0  0  0
 19 41  1  0  0  0
M  END
$$$$
