3n8k_ligand
  -I-interpret- 

 16 16  0  0  0  0  0  0  0  0999 V2000
  -41.3890    9.4860  -11.4250 O   0  0  0  0  0
  -37.2970    9.3080   -7.3120 O   0  0  0  0  0
  -40.1540    7.6700  -11.1940 O   0  0  0  0  0
  -37.8710   13.0240  -10.0860 O   0  0  0  0  0
  -39.0730   11.0060  -10.5050 C   0  0  0  0  0
  -38.7530    9.0970   -9.0500 C   0  0  0  0  0
  -37.5390   11.1520   -8.6340 N   0  0  0  0  0
  -40.3810    8.8830  -10.9930 C   0  0  0  0  0
  -38.1600   11.7400   -9.7490 C   0  0  0  0  0
  -39.3700    9.6850  -10.1580 C   0  0  0  0  0
  -37.8410    9.8260   -8.2860 C   0  0  0  0  0
  -41.3533   10.4049  -11.1494 H   0  0  0  0  0
  -37.2293   13.3795   -9.4668 H   0  0  0  0  0
  -39.5562   11.4633  -11.3684 H   0  0  0  0  0
  -38.9850    8.0662   -8.7821 H   0  0  0  0  0
  -36.8709   11.6870   -8.0792 H   0  0  0  0  0
  8  1  1  0  0  0
 11  2  2  0  0  0
  8  3  2  0  0  0
  9  4  1  0  0  0
  5  9  2  0  0  0
 10  5  1  0  0  0
 10  6  2  0  0  0
  6 11  1  0  0  0
  9  7  1  0  0  0
 11  7  1  0  0  0
  8 10  1  0  0  0
  1 12  1  0  0  0
  4 13  1  0  0  0
  5 14  1  0  0  0
  6 15  1  0  0  0
  7 16  1  0  0  0
M  END
$$$$
