3rzb_ligand
  -I-interpret- 

 26 27  0  0  0  0  0  0  0  0999 V2000
   94.4780   79.6370  -50.1200 C   0  0  0  0  0
   91.7900   82.0990  -51.0290 N   0  0  0  0  0
   92.3540   80.9210  -48.8170 S   0  0  0  0  0
   93.4440   81.2580  -52.4820 N   0  0  0  0  0
   90.3180   82.7280  -49.2810 N   0  0  0  0  0
   93.3190   80.5890  -50.1700 C   0  0  0  0  0
   92.8790   81.3100  -51.2750 C   0  0  0  0  0
   91.3950   81.9920  -49.7580 C   0  0  0  0  0
   89.5730   82.5770  -48.1340 C   0  0  0  0  0
   89.7610   81.4740  -47.0800 C   0  0  0  0  0
   88.9440   81.4140  -45.9120 C   0  0  0  0  0
   87.8970   82.4440  -45.7130 C   0  0  0  0  0
   87.6960   83.5210  -46.7170 C   0  0  0  0  0
   88.5150   83.5860  -47.9070 C   0  0  0  0  0
   95.1730   79.4140  -51.1220 O   0  0  0  0  0
   94.7070   79.0410  -48.9410 N   0  0  0  0  0
   93.0641   81.8150  -53.2474 H   0  0  0  0  0
   94.2560   80.6612  -52.6397 H   0  0  0  0  0
   90.0336   83.5055  -49.8768 H   0  0  0  0  0
   90.5354   80.7213  -47.2282 H   0  0  0  0  0
   89.0877   80.6223  -45.1767 H   0  0  0  0  0
   87.2691   82.4112  -44.8226 H   0  0  0  0  0
   86.9219   84.2710  -46.5545 H   0  0  0  0  0
   88.3528   84.3788  -48.6372 H   0  0  0  0  0
   95.4759   78.3775  -48.8457 H   0  0  0  0  0
   94.1124   79.2511  -48.1393 H   0  0  0  0  0
  6  1  1  0  0  0
  1 15  2  0  0  0
  1 16  1  0  0  0
  2  7  4  0  0  0
  8  2  4  0  0  0
  3  6  4  0  0  0
  3  8  4  0  0  0
  7  4  1  0  0  0
  8  5  1  0  0  0
  5  9  1  0  0  0
  6  7  4  0  0  0
  9 10  4  0  0  0
  9 14  4  0  0  0
 10 11  4  0  0  0
 11 12  4  0  0  0
 12 13  4  0  0  0
 13 14  4  0  0  0
  4 17  1  0  0  0
  4 18  1  0  0  0
  5 19  1  0  0  0
 10 20  1  0  0  0
 11 21  1  0  0  0
 12 22  1  0  0  0
 13 23  1  0  0  0
 14 24  1  0  0  0
 16 25  1  0  0  0
 16 26  1  0  0  0
M  END
$$$$
