### 
### Created by X-TOOL on Mon Sep 10 21:13:18 2018
### 

@<TRIPOS>MOLECULE
4n7h_ligand
  129   131     1     0     0
SMALL
GAST_HUCK


@<TRIPOS>ATOM
      1 N          15.4350   24.7250   -1.6610 N.4       1 GLU         0.2380
      2 CA         16.0530   23.4270   -1.4310 C.3       1 GLU         0.0665
      3 C          15.0490   22.2680   -1.3120 C.2       1 GLU         0.2268
      4 O          15.4290   21.1940   -0.8650 O.2       1 GLU        -0.3907
      5 CB         16.9320   23.4570   -0.1700 C.3       1 GLU         0.0194
      6 CG         16.1940   23.5410    1.1710 C.3       1 GLU         0.0075
      7 CD         17.1600   23.4670    2.3780 C.2       1 GLU         0.0351
      8 OE1        17.4450   22.3430    2.8770 O.co2     1 GLU        -0.5690
      9 OE2        17.6310   24.5360    2.8420 O.co2     1 GLU        -0.5690
     10 N          13.7960   22.4780   -1.7180 N.am      1 ALA        -0.2613
     11 CA         12.8410   21.3820   -1.8260 C.3       1 ALA         0.1285
     12 C          13.2610   20.4400   -2.9500 C.2       1 ALA         0.2061
     13 O          13.9520   20.8620   -3.8880 O.2       1 ALA        -0.3942
     14 CB         11.4520   21.9050   -2.0990 C.3       1 ALA        -0.0244
     15 N          12.7970   19.1890   -2.8930 N.am      1 PRO        -0.2498
     16 CA         13.1180   18.2470   -3.9640 C.3       1 PRO         0.1340
     17 C          12.3760   18.5590   -5.2420 C.2       1 PRO         0.2066
     18 O          11.3440   19.2420   -5.2250 O.2       1 PRO        -0.3942
     19 CB         12.6430   16.9080   -3.4130 C.3       1 PRO        -0.0104
     20 CG         11.5790   17.2430   -2.5040 C.3       1 PRO        -0.0281
     21 CD         11.9280   18.5720   -1.8800 C.3       1 PRO         0.0369
     22 N          12.8770   18.0240   -6.3520 N.am      1 PRO        -0.2498
     23 CA         12.1270   18.1400   -7.5950 C.3       1 PRO         0.1338
     24 C          10.7540   17.5260   -7.3960 C.2       1 PRO         0.2042
     25 O          10.6130   16.5420   -6.6820 O.2       1 PRO        -0.3944
     26 CB         12.9700   17.3430   -8.5930 C.3       1 PRO        -0.0104
     27 CG         14.3170   17.3010   -8.0140 C.3       1 PRO        -0.0281
     28 CD         14.1300   17.2750   -6.5250 C.3       1 PRO         0.0369
     29 N           9.7340   18.1220   -7.9980 N.am      1 SER        -0.2616
     30 CA          8.4040   17.5970   -7.8460 C.3       1 SER         0.1539
     31 C           8.1870   16.4660   -8.8020 C.2       1 SER         0.2063
     32 O           8.9850   16.2350   -9.7210 O.2       1 SER        -0.3943
     33 CB          7.3770   18.6800   -8.0630 C.3       1 SER         0.0843
     34 OG          7.4360   19.1080   -9.3860 O.3       1 SER        -0.3903
     35 N           7.0990   15.7470   -8.5930 N.am      1 TYR        -0.2621
     36 CA          6.8510   14.5480   -9.3810 C.3       1 TYR         0.1390
     37 C           6.7450   14.8810  -10.8600 C.2       1 TYR         0.2057
     38 O           7.1310   14.0860  -11.7060 O.2       1 TYR        -0.3942
     39 CB          5.5920   13.8710   -8.9190 C.3       1 TYR         0.0163
     40 CG          5.3880   12.5330   -9.5640 C.ar      1 TYR        -0.0493
     41 CD1         6.0600   11.4170   -9.0850 C.ar      1 TYR        -0.0685
     42 CD2         4.5520   12.3890  -10.6490 C.ar      1 TYR        -0.0685
     43 CE1         5.8830   10.2070   -9.6470 C.ar      1 TYR        -0.0398
     44 CE2         4.3660   11.1770  -11.2180 C.ar      1 TYR        -0.0398
     45 CZ          5.0530   10.0890  -10.7170 C.ar      1 TYR         0.0805
     46 OH          4.8990    8.8480  -11.2730 O.3       1 TYR        -0.3376
     47 N           6.2390   16.0630  -11.1770 N.am      1 ALA        -0.2639
     48 CA          6.1360   16.4760  -12.5900 C.3       1 ALA         0.1282
     49 C           7.4920   16.5880  -13.3000 C.2       1 ALA         0.2036
     50 O           7.5510   16.6500  -14.5480 O.2       1 ALA        -0.3944
     51 CB          5.4160   17.7870  -12.6910 C.3       1 ALA        -0.0244
     52 N           8.5780   16.6140  -12.5340 N.am      1 GLU        -0.2636
     53 CA          9.9200   16.7660  -13.0990 C.3       1 GLU         0.1324
     54 C          10.5850   15.4250  -13.3390 C.2       1 GLU         0.2035
     55 O          11.7300   15.3690  -13.8050 O.2       1 GLU        -0.3944
     56 CB         10.8060   17.6140  -12.1840 C.3       1 GLU        -0.0008
     57 CG         10.3440   19.0490  -12.0180 C.3       1 GLU         0.0044
     58 CD         11.2920   19.8750  -11.1550 C.2       1 GLU         0.0350
     59 OE1        12.3830   20.2530  -11.6440 O.co2     1 GLU        -0.5690
     60 OE2        10.9490   20.1500   -9.9730 O.co2     1 GLU        -0.5690
     61 N           9.8520   14.3590  -13.0420 N.am      1 VAL        -0.2668
     62 CA         10.3220   12.9950  -13.2280 C.3       1 VAL         0.1249
     63 C           9.8070   12.4660  -14.5550 C.2       1 VAL         0.2152
     64 O          10.6030   12.2080  -15.4450 O.co2     1 VAL        -0.4120
     65 CB          9.8500   12.0710  -12.0770 C.3       1 VAL        -0.0094
     66 CG1        10.3800   10.6730  -12.2520 C.3       1 VAL        -0.0589
     67 CG2        10.2830   12.6280  -10.7200 C.3       1 VAL        -0.0589
     68 H          16.1513   25.4311   -1.7277 H         1 GLU         0.2015
     69 H          14.8178   24.9439   -0.8947 H         1 GLU         0.2015
     70 H          14.9081   24.6988   -2.5199 H         1 GLU         0.2015
     71 H          16.7001   23.2175   -2.2955 H         1 GLU         0.1099
     72 H          17.5938   24.3326   -0.2436 H         1 GLU         0.0363
     73 H          17.5379   22.5390   -0.1620 H         1 GLU         0.0363
     74 H          15.4819   22.7051    1.2360 H         1 GLU         0.0434
     75 H          15.6460   24.4938    1.2143 H         1 GLU         0.0434
     76 H          13.5059   23.4057   -1.9530 H         1 ALA         0.1884
     77 H          12.8309   20.8262   -0.8768 H         1 ALA         0.0797
     78 H          10.7510   21.0608   -2.1761 H         1 ALA         0.0277
     79 H          11.4516   22.4693   -3.0432 H         1 ALA         0.0277
     80 H          11.1409   22.5660   -1.2767 H         1 ALA         0.0277
     81 H          14.2002   18.2361   -4.1608 H         1 PRO         0.0802
     82 H          13.4591   16.3954   -2.8827 H         1 PRO         0.0313
     83 H          12.2717   16.2645   -4.2242 H         1 PRO         0.0313
     84 H          11.4922   16.4718   -1.7245 H         1 PRO         0.0287
     85 H          10.6273   17.3212   -3.0500 H         1 PRO         0.0287
     86 H          11.0263   19.1784   -1.7089 H         1 PRO         0.0524
     87 H          12.4635   18.4348   -0.9290 H         1 PRO         0.0524
     88 H          12.0268   19.1884   -7.9125 H         1 PRO         0.0802
     89 H          12.9866   17.8455   -9.5714 H         1 PRO         0.0313
     90 H          12.5690   16.3254   -8.7101 H         1 PRO         0.0313
     91 H          14.8882   18.1928   -8.3114 H         1 PRO         0.0287
     92 H          14.8479   16.3973   -8.3478 H         1 PRO         0.0287
     93 H          14.0320   16.2441   -6.1541 H         1 PRO         0.0524
     94 H          14.9653   17.7721   -6.0102 H         1 PRO         0.0524
     95 H           9.8896   18.9362   -8.5574 H         1 SER         0.1884
     96 H           8.2941   17.2143   -6.8206 H         1 SER         0.0823
     97 H           7.5876   19.5264   -7.3928 H         1 SER         0.0606
     98 H           6.3735   18.2837   -7.8490 H         1 SER         0.0606
     99 H           6.7901   19.7904   -9.5260 H         1 SER         0.2097
    100 H           6.4436   16.0269   -7.8915 H         1 TYR         0.1885
    101 H           7.6949   13.8571   -9.2379 H         1 TYR         0.0821
    102 H           4.7348   14.5151   -9.1648 H         1 TYR         0.0453
    103 H           5.6459   13.7323   -7.8291 H         1 TYR         0.0453
    104 H           6.7377   11.5216   -8.2455 H         1 TYR         0.0530
    105 H           4.0386   13.2553  -11.0503 H         1 TYR         0.0530
    106 H           6.3957    9.3377   -9.2515 H         1 TYR         0.0525
    107 H           3.6874   11.0609  -12.0553 H         1 TYR         0.0525
    108 H           5.4421    8.2236  -10.8065 H         1 TYR         0.2458
    109 H           5.9249   16.6792  -10.4548 H         1 ALA         0.1883
    110 H           5.5444   15.7126  -13.1166 H         1 ALA         0.0797
    111 H           5.3446   18.0857  -13.7473 H         1 ALA         0.0277
    112 H           5.9701   18.5538  -12.1298 H         1 ALA         0.0277
    113 H           4.4050   17.6835  -12.2701 H         1 ALA         0.0277
    114 H           8.4754   16.5272  -11.5431 H         1 GLU         0.1883
    115 H           9.8244   17.2815  -14.0660 H         1 GLU         0.0801
    116 H          11.8224   17.6264  -12.6045 H         1 GLU         0.0330
    117 H          10.8259   17.1420  -11.1906 H         1 GLU         0.0330
    118 H           9.3502   19.0467  -11.5464 H         1 GLU         0.0433
    119 H          10.2770   19.5147  -13.0123 H         1 GLU         0.0433
    120 H           8.9334   14.5002  -12.6730 H         1 VAL         0.1876
    121 H          11.4218   12.9998  -13.2457 H         1 VAL         0.0754
    122 O1          8.5719   12.2950  -14.7361 O.co2     1 VAL        -0.4120
    123 H           8.7510   12.0294  -12.0999 H         1 VAL         0.0336
    124 H          10.0295   10.0415  -11.4223 H         1 VAL         0.0234
    125 H          11.4797   10.6956  -12.2563 H         1 VAL         0.0234
    126 H          10.0180   10.2602  -13.2052 H         1 VAL         0.0234
    127 H           9.8915   13.6491  -10.6010 H         1 VAL         0.0234
    128 H          11.3815   12.6478  -10.6653 H         1 VAL         0.0234
    129 H           9.8874   11.9878   -9.9177 H         1 VAL         0.0234
@<TRIPOS>BOND
     1    1    2 1  
     2    2    3 1  
     3    2    5 1  
     4    3    4 2  
     5    3   10 am 
     6    5    6 1  
     7    6    7 1  
     8    7    8 ar 
     9    7    9 ar 
    10   10   11 1  
    11   11   12 1  
    12   11   14 1  
    13   12   13 2  
    14   12   15 am 
    15   15   16 1  
    16   15   21 1  
    17   16   17 1  
    18   16   19 1  
    19   17   18 2  
    20   17   22 am 
    21   19   20 1  
    22   20   21 1  
    23   22   23 1  
    24   22   28 1  
    25   23   24 1  
    26   23   26 1  
    27   24   25 2  
    28   24   29 am 
    29   26   27 1  
    30   27   28 1  
    31   29   30 1  
    32   30   31 1  
    33   30   33 1  
    34   31   32 2  
    35   31   35 am 
    36   33   34 1  
    37   35   36 1  
    38   36   37 1  
    39   36   39 1  
    40   37   38 2  
    41   37   47 am 
    42   39   40 1  
    43   40   41 ar 
    44   40   42 ar 
    45   41   43 ar 
    46   42   44 ar 
    47   43   45 ar 
    48   44   45 ar 
    49   45   46 1  
    50   47   48 1  
    51   48   49 1  
    52   48   51 1  
    53   49   50 2  
    54   49   52 am 
    55   52   53 1  
    56   53   54 1  
    57   53   56 1  
    58   54   55 2  
    59   54   61 am 
    60   56   57 1  
    61   57   58 1  
    62   58   59 ar 
    63   58   60 ar 
    64   61   62 1  
    65   62   63 1  
    66   62   65 1  
    67   63   64 ar 
    68   65   66 1  
    69   65   67 1  
    70    1   68 1  
    71    1   69 1  
    72    1   70 1  
    73    2   71 1  
    74    5   72 1  
    75    5   73 1  
    76    6   74 1  
    77    6   75 1  
    78   10   76 1  
    79   11   77 1  
    80   14   78 1  
    81   14   79 1  
    82   14   80 1  
    83   16   81 1  
    84   19   82 1  
    85   19   83 1  
    86   20   84 1  
    87   20   85 1  
    88   21   86 1  
    89   21   87 1  
    90   23   88 1  
    91   26   89 1  
    92   26   90 1  
    93   27   91 1  
    94   27   92 1  
    95   28   93 1  
    96   28   94 1  
    97   29   95 1  
    98   30   96 1  
    99   33   97 1  
   100   33   98 1  
   101   34   99 1  
   102   35  100 1  
   103   36  101 1  
   104   39  102 1  
   105   39  103 1  
   106   41  104 1  
   107   42  105 1  
   108   43  106 1  
   109   44  107 1  
   110   46  108 1  
   111   47  109 1  
   112   48  110 1  
   113   51  111 1  
   114   51  112 1  
   115   51  113 1  
   116   52  114 1  
   117   53  115 1  
   118   56  116 1  
   119   56  117 1  
   120   57  118 1  
   121   57  119 1  
   122   61  120 1  
   123   62  121 1  
   124   63  122 ar 
   125   65  123 1  
   126   66  124 1  
   127   66  125 1  
   128   66  126 1  
   129   67  127 1  
   130   67  128 1  
   131   67  129 1  
@<TRIPOS>SUBSTRUCTURE
     1 GLU         1

