4n7h_ligand
  -I-interpret- 

132134  0  0  0  0  0  0  0  0999 V2000
   15.4350   24.7250   -1.6610 N   0  3  0  0  0
   16.0530   23.4270   -1.4310 C   0  0  0  0  0
   15.0490   22.2680   -1.3120 C   0  0  0  0  0
   15.4290   21.1940   -0.8650 O   0  0  0  0  0
   16.9320   23.4570   -0.1700 C   0  0  0  0  0
   16.1940   23.5410    1.1710 C   0  0  0  0  0
   17.1600   23.4670    2.3780 C   0  0  0  0  0
   17.4450   22.3430    2.8770 O   0  0  0  0  0
   17.6310   24.5360    2.8420 O   0  0  0  0  0
   13.7960   22.4780   -1.7180 N   0  0  0  0  0
   12.8410   21.3820   -1.8260 C   0  0  0  0  0
   13.2610   20.4400   -2.9500 C   0  0  0  0  0
   13.9520   20.8620   -3.8880 O   0  0  0  0  0
   11.4520   21.9050   -2.0990 C   0  0  0  0  0
   12.7970   19.1890   -2.8930 N   0  0  0  0  0
   13.1180   18.2470   -3.9640 C   0  0  0  0  0
   12.3760   18.5590   -5.2420 C   0  0  0  0  0
   11.3440   19.2420   -5.2250 O   0  0  0  0  0
   12.6430   16.9080   -3.4130 C   0  0  0  0  0
   11.5790   17.2430   -2.5040 C   0  0  0  0  0
   11.9280   18.5720   -1.8800 C   0  0  0  0  0
   12.8770   18.0240   -6.3520 N   0  0  0  0  0
   12.1270   18.1400   -7.5950 C   0  0  0  0  0
   10.7540   17.5260   -7.3960 C   0  0  0  0  0
   10.6130   16.5420   -6.6820 O   0  0  0  0  0
   12.9700   17.3430   -8.5930 C   0  0  0  0  0
   14.3170   17.3010   -8.0140 C   0  0  0  0  0
   14.1300   17.2750   -6.5250 C   0  0  0  0  0
    9.7340   18.1220   -7.9980 N   0  0  0  0  0
    8.4040   17.5970   -7.8460 C   0  0  0  0  0
    8.1870   16.4660   -8.8020 C   0  0  0  0  0
    8.9850   16.2350   -9.7210 O   0  0  0  0  0
    7.3770   18.6800   -8.0630 C   0  0  0  0  0
    7.4360   19.1080   -9.3860 O   0  0  0  0  0
    7.0990   15.7470   -8.5930 N   0  0  0  0  0
    6.8510   14.5480   -9.3810 C   0  0  0  0  0
    6.7450   14.8810  -10.8600 C   0  0  0  0  0
    7.1310   14.0860  -11.7060 O   0  0  0  0  0
    5.5920   13.8710   -8.9190 C   0  0  0  0  0
    5.3880   12.5330   -9.5640 C   0  0  0  0  0
    6.0600   11.4170   -9.0850 C   0  0  0  0  0
    4.5520   12.3890  -10.6490 C   0  0  0  0  0
    5.8830   10.2070   -9.6470 C   0  0  0  0  0
    4.3660   11.1770  -11.2180 C   0  0  0  0  0
    5.0530   10.0890  -10.7170 C   0  0  0  0  0
    4.8990    8.8480  -11.2730 O   0  0  0  0  0
    6.2390   16.0630  -11.1770 N   0  0  0  0  0
    6.1360   16.4760  -12.5900 C   0  0  0  0  0
    7.4920   16.5880  -13.3000 C   0  0  0  0  0
    7.5510   16.6500  -14.5480 O   0  0  0  0  0
    5.4160   17.7870  -12.6910 C   0  0  0  0  0
    8.5780   16.6140  -12.5340 N   0  0  0  0  0
    9.9200   16.7660  -13.0990 C   0  0  0  0  0
   10.5850   15.4250  -13.3390 C   0  0  0  0  0
   11.7300   15.3690  -13.8050 O   0  0  0  0  0
   10.8060   17.6140  -12.1840 C   0  0  0  0  0
   10.3440   19.0490  -12.0180 C   0  0  0  0  0
   11.2920   19.8750  -11.1550 C   0  0  0  0  0
   12.3830   20.2530  -11.6440 O   0  0  0  0  0
   10.9490   20.1500   -9.9730 O   0  0  0  0  0
    9.8520   14.3590  -13.0420 N   0  0  0  0  0
   10.3220   12.9950  -13.2280 C   0  0  0  0  0
    9.8070   12.4660  -14.5550 C   0  0  0  0  0
   10.6030   12.2080  -15.4450 O   0  0  0  0  0
    9.8500   12.0710  -12.0770 C   0  0  0  0  0
   10.3800   10.6730  -12.2520 C   0  0  0  0  0
   10.2830   12.6280  -10.7200 C   0  0  0  0  0
    8.5719   12.2950  -14.7361 O   0  0  0  0  0
   14.8578   24.6814   -2.5009 H   0  0  0  0  0
   14.8534   24.9701   -0.8597 H   0  0  0  0  0
   16.1623   25.4297   -1.7830 H   0  0  0  0  0
   16.6588   23.2383   -2.3173 H   0  0  0  0  0
   17.5348   24.3623   -0.2418 H   0  0  0  0  0
   17.4772   22.5132   -0.1577 H   0  0  0  0  0
   15.5088   22.6956    1.2337 H   0  0  0  0  0
   15.6742   24.4982    1.2118 H   0  0  0  0  0
   16.9911   21.6527    2.3880 H   0  0  0  0  0
   13.5001   23.4243   -1.9577 H   0  0  0  0  0
   12.8297   20.8422   -0.8791 H   0  0  0  0  0
   11.1449   22.5598   -1.2835 H   0  0  0  0  0
   11.4530   22.4639   -3.0348 H   0  0  0  0  0
   10.7583   21.0677   -2.1752 H   0  0  0  0  0
   14.1769   18.2758   -4.2208 H   0  0  0  0  0
   13.4467   16.3651   -2.9155 H   0  0  0  0  0
   12.3055   16.2393   -4.2049 H   0  0  0  0  0
   11.4723   16.4751   -1.7378 H   0  0  0  0  0
   10.6276   17.3047   -3.0323 H   0  0  0  0  0
   11.0505   19.1759   -1.6490 H   0  0  0  0  0
   12.4134   18.4707   -0.9093 H   0  0  0  0  0
   11.9633   19.1631   -7.9334 H   0  0  0  0  0
   12.9711   17.8079   -9.5789 H   0  0  0  0  0
   12.5683   16.3417   -8.7482 H   0  0  0  0  0
   14.9050   18.1656   -8.3219 H   0  0  0  0  0
   14.8658   16.4240   -8.3572 H   0  0  0  0  0
   14.0854   16.2654   -6.1165 H   0  0  0  0  0
   14.9679   17.7103   -5.9804 H   0  0  0  0  0
    9.8927   18.9524   -8.5686 H   0  0  0  0  0
    8.2906   17.2220   -6.8288 H   0  0  0  0  0
    7.5833   19.5184   -7.3977 H   0  0  0  0  0
    6.3823   18.2891   -7.8490 H   0  0  0  0  0
    6.7833   19.7976   -9.5275 H   0  0  0  0  0
    6.4305   16.0325   -7.8775 H   0  0  0  0  0
    7.6938   13.8715   -9.2388 H   0  0  0  0  0
    4.7496   14.5069   -9.1911 H   0  0  0  0  0
    5.6693   13.7167   -7.8428 H   0  0  0  0  0
    6.7415   11.5222   -8.2408 H   0  0  0  0  0
    4.0358   13.2601  -11.0525 H   0  0  0  0  0
    6.3986    9.3329   -9.2493 H   0  0  0  0  0
    3.6837   11.0603  -12.0600 H   0  0  0  0  0
    4.2916    8.9039  -12.0143 H   0  0  0  0  0
    5.9186   16.6915  -10.4403 H   0  0  0  0  0
    5.5775   15.6877  -13.0947 H   0  0  0  0  0
    4.4144   17.6831  -12.2736 H   0  0  0  0  0
    5.9660   18.5459  -12.1345 H   0  0  0  0  0
    5.3459   18.0818  -13.7380 H   0  0  0  0  0
    8.4733   16.5255  -11.5233 H   0  0  0  0  0
    9.8026   17.2704  -14.0581 H   0  0  0  0  0
   11.7959   17.6475  -12.6390 H   0  0  0  0  0
   10.7792   17.1533  -11.1965 H   0  0  0  0  0
    9.3712   19.0332  -11.5265 H   0  0  0  0  0
   10.3072   19.5058  -13.0070 H   0  0  0  0  0
   10.0853   19.7706   -9.7952 H   0  0  0  0  0
    8.9150   14.5031  -12.6656 H   0  0  0  0  0
   11.4120   13.0028  -13.2244 H   0  0  0  0  0
    8.7611   12.0342  -12.1097 H   0  0  0  0  0
   10.0207   10.2652  -13.1968 H   0  0  0  0  0
   11.4697   10.6968  -12.2561 H   0  0  0  0  0
   10.0320   10.0483  -11.4294 H   0  0  0  0  0
   11.3701   12.7013  -10.6889 H   0  0  0  0  0
    9.8467   13.6168  -10.5786 H   0  0  0  0  0
    9.9397   11.9615   -9.9288 H   0  0  0  0  0
    8.0954   12.5453  -13.9412 H   0  0  0  0  0
  1  2  1  0  0  0
  2  3  1  0  0  0
  2  5  1  0  0  0
  3  4  2  0  0  0
  3 10  1  0  0  0
  5  6  1  0  0  0
  6  7  1  0  0  0
  7  8  1  0  0  0
  7  9  2  0  0  0
 10 11  1  0  0  0
 11 12  1  0  0  0
 11 14  1  0  0  0
 12 13  2  0  0  0
 12 15  1  0  0  0
 15 16  1  0  0  0
 15 21  1  0  0  0
 16 17  1  0  0  0
 16 19  1  0  0  0
 17 18  2  0  0  0
 17 22  1  0  0  0
 19 20  1  0  0  0
 20 21  1  0  0  0
 22 23  1  0  0  0
 22 28  1  0  0  0
 23 24  1  0  0  0
 23 26  1  0  0  0
 24 25  2  0  0  0
 24 29  1  0  0  0
 26 27  1  0  0  0
 27 28  1  0  0  0
 29 30  1  0  0  0
 30 31  1  0  0  0
 30 33  1  0  0  0
 31 32  2  0  0  0
 31 35  1  0  0  0
 33 34  1  0  0  0
 35 36  1  0  0  0
 36 37  1  0  0  0
 36 39  1  0  0  0
 37 38  2  0  0  0
 37 47  1  0  0  0
 39 40  1  0  0  0
 40 41  4  0  0  0
 40 42  4  0  0  0
 41 43  4  0  0  0
 42 44  4  0  0  0
 43 45  4  0  0  0
 44 45  4  0  0  0
 45 46  1  0  0  0
 47 48  1  0  0  0
 48 49  1  0  0  0
 48 51  1  0  0  0
 49 50  2  0  0  0
 49 52  1  0  0  0
 52 53  1  0  0  0
 53 54  1  0  0  0
 53 56  1  0  0  0
 54 55  2  0  0  0
 54 61  1  0  0  0
 56 57  1  0  0  0
 57 58  1  0  0  0
 58 59  2  0  0  0
 58 60  1  0  0  0
 61 62  1  0  0  0
 62 63  1  0  0  0
 62 65  1  0  0  0
 63 64  2  0  0  0
 65 66  1  0  0  0
 65 67  1  0  0  0
 63 68  1  0  0  0
  1 69  1  0  0  0
  1 70  1  0  0  0
  1 71  1  0  0  0
  2 72  1  0  0  0
  5 73  1  0  0  0
  5 74  1  0  0  0
  6 75  1  0  0  0
  6 76  1  0  0  0
  8 77  1  0  0  0
 10 78  1  0  0  0
 11 79  1  0  0  0
 14 80  1  0  0  0
 14 81  1  0  0  0
 14 82  1  0  0  0
 16 83  1  0  0  0
 19 84  1  0  0  0
 19 85  1  0  0  0
 20 86  1  0  0  0
 20 87  1  0  0  0
 21 88  1  0  0  0
 21 89  1  0  0  0
 23 90  1  0  0  0
 26 91  1  0  0  0
 26 92  1  0  0  0
 27 93  1  0  0  0
 27 94  1  0  0  0
 28 95  1  0  0  0
 28 96  1  0  0  0
 29 97  1  0  0  0
 30 98  1  0  0  0
 33 99  1  0  0  0
 33100  1  0  0  0
 34101  1  0  0  0
 35102  1  0  0  0
 36103  1  0  0  0
 39104  1  0  0  0
 39105  1  0  0  0
 41106  1  0  0  0
 42107  1  0  0  0
 43108  1  0  0  0
 44109  1  0  0  0
 46110  1  0  0  0
 47111  1  0  0  0
 48112  1  0  0  0
 51113  1  0  0  0
 51114  1  0  0  0
 51115  1  0  0  0
 52116  1  0  0  0
 53117  1  0  0  0
 56118  1  0  0  0
 56119  1  0  0  0
 57120  1  0  0  0
 57121  1  0  0  0
 60122  1  0  0  0
 61123  1  0  0  0
 62124  1  0  0  0
 65125  1  0  0  0
 66126  1  0  0  0
 66127  1  0  0  0
 66128  1  0  0  0
 67129  1  0  0  0
 67130  1  0  0  0
 67131  1  0  0  0
 68132  1  0  0  0
M  END
$$$$
