5g22_ligand
  -I-interpret- 

 62 65  0  0  0  0  0  0  0  0999 V2000
   21.9580   45.4280   63.5440 N   0  0  0  0  0
   22.7880   45.4560   62.7650 C   0  0  0  0  0
   23.7620   45.5000   61.7070 C   0  0  0  0  0
   23.6840   46.6940   60.7470 C   0  0  0  0  0
   22.4560   47.9070   61.0690 S   0  0  0  0  0
   22.8570   48.7320   62.4820 C   0  0  0  0  0
   24.2640   48.9900   62.9240 C   0  0  0  0  0
   24.4410   49.6940   64.2070 C   0  0  0  0  0
   23.3490   50.0720   64.8980 N   0  0  0  0  0
   22.0730   49.8460   64.5100 C   0  0  0  0  0
   21.7400   49.1930   63.3340 C   0  0  0  0  0
   20.2890   48.9640   62.9840 C   0  0  0  0  0
   19.7780   49.2190   61.6560 O   0  0  0  0  0
   18.3780   49.0940   61.3690 C   0  0  0  0  0
   17.7360   50.4610   61.4950 C   0  0  0  0  0
   19.5000   48.5650   63.8340 O   0  0  0  0  0
   25.7200   49.9840   64.6790 C   0  0  0  0  0
   26.8370   49.5790   63.9400 C   0  0  0  0  0
   26.6970   48.9010   62.7180 C   0  0  0  0  0
   25.4080   48.6250   62.2170 C   0  0  0  0  0
   27.8370   48.5150   62.0170 O   0  0  0  0  0
   27.9430   47.2720   61.2770 C   0  0  0  0  0
   28.0450   46.1900   62.3230 C   0  0  0  0  0
   26.9200   45.4720   62.7320 C   0  0  0  0  0
   27.0340   44.5250   63.6850 N   0  0  0  0  0
   28.2270   44.2590   64.2900 C   0  0  0  0  0
   29.3730   44.9730   63.8910 C   0  0  0  0  0
   29.2830   45.9530   62.9140 C   0  0  0  0  0
   28.3380   43.2880   65.3040 N   0  0  0  0  0
   29.7020   42.8800   65.7030 C   0  0  0  0  0
   29.6750   41.9270   66.8940 C   0  0  0  0  0
   28.6350   42.2600   67.8700 N   0  3  0  0  0
   27.3020   42.6970   67.4610 C   0  0  0  0  0
   27.1170   42.7610   65.9400 C   0  0  0  0  0
   23.5839   44.6135   61.0983 H   0  0  0  0  0
   24.7334   45.5714   62.1963 H   0  0  0  0  0
   23.4351   46.2735   59.7726 H   0  0  0  0  0
   24.6398   47.2099   60.8393 H   0  0  0  0  0
   21.2663   50.1950   65.1547 H   0  0  0  0  0
   17.9153   48.4001   62.0708 H   0  0  0  0  0
   18.2387   48.7098   60.3585 H   0  0  0  0  0
   17.8760   50.8347   62.5093 H   0  0  0  0  0
   18.2014   51.1463   60.7865 H   0  0  0  0  0
   16.6705   50.3818   61.2795 H   0  0  0  0  0
   25.8492   50.5228   65.6177 H   0  0  0  0  0
   27.8356   49.7940   64.3203 H   0  0  0  0  0
   25.3046   48.1165   61.2585 H   0  0  0  0  0
   28.8097   47.2725   60.6160 H   0  0  0  0  0
   27.0822   47.1193   60.6260 H   0  0  0  0  0
   25.9491   45.6769   62.2809 H   0  0  0  0  0
   30.3360   44.7543   64.3525 H   0  0  0  0  0
   30.1617   46.5248   62.6155 H   0  0  0  0  0
   30.2598   43.7722   65.9875 H   0  0  0  0  0
   30.1690   42.3679   64.8617 H   0  0  0  0  0
   30.6387   41.9984   67.3983 H   0  0  0  0  0
   29.4660   40.9269   66.5143 H   0  0  0  0  0
   29.0145   43.0714   68.3578 H   0  0  0  0  0
   28.4617   41.3754   68.3474 H   0  0  0  0  0
   27.1541   43.7041   67.8510 H   0  0  0  0  0
   26.5870   41.9704   67.8470 H   0  0  0  0  0
   26.9199   41.7583   65.5607 H   0  0  0  0  0
   26.2798   43.4195   65.7085 H   0  0  0  0  0
  1  2  3  0  0  0
  2  3  1  0  0  0
  3  4  1  0  0  0
  4  5  1  0  0  0
  5  6  1  0  0  0
  6  7  4  0  0  0
  6 11  4  0  0  0
  7  8  4  0  0  0
  7 20  4  0  0  0
  8  9  4  0  0  0
  8 17  4  0  0  0
  9 10  4  0  0  0
 10 11  4  0  0  0
 11 12  1  0  0  0
 12 13  1  0  0  0
 12 16  2  0  0  0
 13 14  1  0  0  0
 14 15  1  0  0  0
 17 18  4  0  0  0
 18 19  4  0  0  0
 19 20  4  0  0  0
 19 21  1  0  0  0
 21 22  1  0  0  0
 22 23  1  0  0  0
 23 24  4  0  0  0
 23 28  4  0  0  0
 24 25  4  0  0  0
 25 26  4  0  0  0
 26 27  4  0  0  0
 26 29  1  0  0  0
 27 28  4  0  0  0
 29 30  1  0  0  0
 29 34  1  0  0  0
 30 31  1  0  0  0
 31 32  1  0  0  0
 32 33  1  0  0  0
 33 34  1  0  0  0
  3 35  1  0  0  0
  3 36  1  0  0  0
  4 37  1  0  0  0
  4 38  1  0  0  0
 10 39  1  0  0  0
 14 40  1  0  0  0
 14 41  1  0  0  0
 15 42  1  0  0  0
 15 43  1  0  0  0
 15 44  1  0  0  0
 17 45  1  0  0  0
 18 46  1  0  0  0
 20 47  1  0  0  0
 22 48  1  0  0  0
 22 49  1  0  0  0
 24 50  1  0  0  0
 27 51  1  0  0  0
 28 52  1  0  0  0
 30 53  1  0  0  0
 30 54  1  0  0  0
 31 55  1  0  0  0
 31 56  1  0  0  0
 32 57  1  0  0  0
 32 58  1  0  0  0
 33 59  1  0  0  0
 33 60  1  0  0  0
 34 61  1  0  0  0
 34 62  1  0  0  0
M  END
$$$$
