3sff_ligand
  -I-interpret- 

 49 51  0  0  0  0  0  0  0  0999 V2000
   10.0800   13.0350  -25.9630 C   0  0  0  0  0
   14.3950   10.5630  -23.7870 F   0  0  0  0  0
   10.9380   14.2270  -26.2280 N   0  0  0  0  0
    6.7760   15.7730  -24.1880 O   0  0  0  0  0
    7.2110   17.2190  -19.4190 Cl  0  0  0  0  0
    9.2970   13.1780  -24.6410 C   0  0  0  0  0
   13.3450   12.9500  -28.6500 F   0  0  0  0  0
    8.6060   14.5030  -24.5790 N   0  0  0  0  0
   12.9590   15.2490  -26.5970 O   0  0  0  0  0
    9.4820   15.6600  -24.9240 C   0  0  0  0  0
    4.9310   13.7720  -23.8810 N   0  3  0  0  0
   10.1730   15.4920  -26.2970 C   0  0  0  0  0
    7.3000   14.6490  -24.2020 C   0  0  0  0  0
    6.3740   13.4740  -23.7800 C   0  0  0  0  0
    6.7920   12.9300  -22.3850 C   0  0  0  0  0
    6.2650   13.7250  -21.2040 C   0  0  0  0  0
    6.9330   14.9270  -20.8290 C   0  0  0  0  0
    6.4290   15.7180  -19.7710 C   0  0  0  0  0
    5.3370   15.2550  -19.0020 C   0  0  0  0  0
    4.7060   14.0400  -19.3400 C   0  0  0  0  0
    5.1450   13.2810  -20.4550 C   0  0  0  0  0
   12.3020   14.2300  -26.3640 C   0  0  0  0  0
   13.0870   12.9520  -26.2770 C   0  0  0  0  0
   13.5980   12.3670  -27.4580 C   0  0  0  0  0
   14.3640   11.1780  -27.4120 C   0  0  0  0  0
   14.5960   10.5650  -26.1670 C   0  0  0  0  0
   14.1160   11.1570  -24.9750 C   0  0  0  0  0
   13.3590   12.3550  -25.0150 C   0  0  0  0  0
   10.7235   12.1585  -25.8879 H   0  0  0  0  0
    9.3629   12.9399  -26.7783 H   0  0  0  0  0
    9.9953   13.1045  -23.8073 H   0  0  0  0  0
    8.5492   12.3868  -24.5861 H   0  0  0  0  0
   10.2593   15.7315  -24.1632 H   0  0  0  0  0
    8.8577   16.5524  -24.9690 H   0  0  0  0  0
    4.3950   12.9551  -23.5880 H   0  0  0  0  0
    4.7053   14.5626  -23.2774 H   0  0  0  0  0
    4.6996   14.0033  -24.8471 H   0  0  0  0  0
    9.4396   15.4620  -27.1028 H   0  0  0  0  0
   10.8301   16.3352  -26.5099 H   0  0  0  0  0
    6.5212   12.6781  -24.5101 H   0  0  0  0  0
    7.8798   12.9815  -22.3395 H   0  0  0  0  0
    6.3757   11.9262  -22.3003 H   0  0  0  0  0
    7.8338   15.2369  -21.3587 H   0  0  0  0  0
    4.9836   15.8357  -18.1499 H   0  0  0  0  0
    3.8717   13.6802  -18.7378 H   0  0  0  0  0
    4.6260   12.3640  -20.7341 H   0  0  0  0  0
   14.7679   10.7439  -28.3266 H   0  0  0  0  0
   15.1496    9.6272  -26.1205 H   0  0  0  0  0
   12.9920   12.8104  -24.0952 H   0  0  0  0  0
  3  1  1  0  0  0
  1  6  1  0  0  0
 27  2  1  0  0  0
  3 12  1  0  0  0
 22  3  1  0  0  0
 13  4  2  0  0  0
 18  5  1  0  0  0
  6  8  1  0  0  0
 24  7  1  0  0  0
 10  8  1  0  0  0
  8 13  1  0  0  0
 22  9  2  0  0  0
 12 10  1  0  0  0
 14 11  1  0  0  0
 13 14  1  0  0  0
 14 15  1  0  0  0
 15 16  1  0  0  0
 16 17  4  0  0  0
 16 21  4  0  0  0
 17 18  4  0  0  0
 18 19  4  0  0  0
 20 19  4  0  0  0
 21 20  4  0  0  0
 23 22  1  0  0  0
 24 23  4  0  0  0
 23 28  4  0  0  0
 25 24  4  0  0  0
 26 25  4  0  0  0
 26 27  4  0  0  0
 27 28  4  0  0  0
  1 29  1  0  0  0
  1 30  1  0  0  0
  6 31  1  0  0  0
  6 32  1  0  0  0
 10 33  1  0  0  0
 10 34  1  0  0  0
 11 35  1  0  0  0
 11 36  1  0  0  0
 11 37  1  0  0  0
 12 38  1  0  0  0
 12 39  1  0  0  0
 14 40  1  0  0  0
 15 41  1  0  0  0
 15 42  1  0  0  0
 17 43  1  0  0  0
 19 44  1  0  0  0
 20 45  1  0  0  0
 21 46  1  0  0  0
 25 47  1  0  0  0
 26 48  1  0  0  0
 28 49  1  0  0  0
M  END
$$$$
