1xm4_ligand
  -I-interpret- 

 43 45  0  0  0  0  0  0  0  0999 V2000
   84.2230    4.1420   62.1940 Cl  0  0  0  0  0
   83.7590    3.1500   60.8640 C   0  0  0  0  0
   82.4610    3.2340   60.4140 C   0  0  0  0  0
   82.1200    2.4890   59.3530 N   0  0  0  0  0
   83.0170    1.6920   58.7430 C   0  0  0  0  0
   84.3220    1.6080   59.2090 C   0  0  0  0  0
   85.4620    0.5040   58.4430 Cl  0  0  0  0  0
   84.7170    2.3150   60.3070 C   0  0  0  0  0
   86.0210    2.2750   60.8080 N   0  0  0  0  0
   86.2890    1.8620   62.0590 C   0  0  0  0  0
   85.4190    1.5040   62.8300 O   0  0  0  0  0
   87.6950    1.9120   62.5860 C   0  0  0  0  0
   88.7810    2.2920   61.7990 C   0  0  0  0  0
   90.0540    2.3500   62.3450 C   0  0  0  0  0
   90.2810    2.0350   63.6840 C   0  0  0  0  0
   91.5310    2.0800   64.3100 O   0  0  0  0  0
   92.7290    2.3910   63.5910 C   0  0  0  0  0
   89.2070    1.6580   64.4510 C   0  0  0  0  0
   87.9190    1.5910   63.9060 C   0  0  0  0  0
   89.4720    1.3550   65.7500 O   0  0  0  0  0
   88.4730    0.7980   66.6020 C   0  0  0  0  0
   87.4590    1.8730   66.9680 C   0  0  0  0  0
   87.9550    2.4290   68.2830 C   0  0  0  0  0
   88.6440    1.2750   68.9620 C   0  0  0  0  0
   89.1190    0.3490   67.8870 C   0  0  0  0  0
   81.7355    3.8838   60.9034 H   0  0  0  0  0
   82.7157    1.1066   57.8743 H   0  0  0  0  0
   86.7916    2.5676   60.2072 H   0  0  0  0  0
   88.6286    2.5447   60.7497 H   0  0  0  0  0
   90.8929    2.6474   61.7158 H   0  0  0  0  0
   92.8783    1.6553   62.8007 H   0  0  0  0  0
   92.6401    3.3847   63.1520 H   0  0  0  0  0
   93.5776    2.3690   64.2747 H   0  0  0  0  0
   87.0838    1.2811   64.5341 H   0  0  0  0  0
   87.9913   -0.0327   66.0862 H   0  0  0  0  0
   86.4490    1.4713   67.0492 H   0  0  0  0  0
   87.3853    2.6434   66.2005 H   0  0  0  0  0
   87.1382    2.8230   68.8877 H   0  0  0  0  0
   88.6308    3.2713   68.1351 H   0  0  0  0  0
   87.9584    0.7613   69.6359 H   0  0  0  0  0
   89.4823    1.6280   69.5627 H   0  0  0  0  0
   90.2054    0.3796   67.8038 H   0  0  0  0  0
   88.8460   -0.6810   68.1167 H   0  0  0  0  0
  1  2  1  0  0  0
  2  3  4  0  0  0
  2  8  4  0  0  0
  3  4  4  0  0  0
  4  5  4  0  0  0
  5  6  4  0  0  0
  6  7  1  0  0  0
  6  8  4  0  0  0
  8  9  1  0  0  0
  9 10  1  0  0  0
 10 11  2  0  0  0
 10 12  1  0  0  0
 12 13  4  0  0  0
 12 19  4  0  0  0
 13 14  4  0  0  0
 14 15  4  0  0  0
 15 16  1  0  0  0
 15 18  4  0  0  0
 16 17  1  0  0  0
 18 19  4  0  0  0
 18 20  1  0  0  0
 20 21  1  0  0  0
 21 22  1  0  0  0
 21 25  1  0  0  0
 22 23  1  0  0  0
 23 24  1  0  0  0
 24 25  1  0  0  0
  3 26  1  0  0  0
  5 27  1  0  0  0
  9 28  1  0  0  0
 13 29  1  0  0  0
 14 30  1  0  0  0
 17 31  1  0  0  0
 17 32  1  0  0  0
 17 33  1  0  0  0
 19 34  1  0  0  0
 21 35  1  0  0  0
 22 36  1  0  0  0
 22 37  1  0  0  0
 23 38  1  0  0  0
 23 39  1  0  0  0
 24 40  1  0  0  0
 24 41  1  0  0  0
 25 42  1  0  0  0
 25 43  1  0  0  0
M  END
$$$$
