1au2_ligand
  -I-interpret- 

 70 72  0  0  0  0  0  0  0  0999 V2000
    3.2680   39.4450   63.9150 C   0  0  0  0  0
    3.0200   38.6560   62.7970 C   0  0  0  0  0
    1.7520   38.1850   62.5520 C   0  0  0  0  0
    0.7360   38.4880   63.3900 C   0  0  0  0  0
    0.9530   39.2620   64.4790 C   0  0  0  0  0
    2.1820   39.7320   64.7470 C   0  0  0  0  0
    4.6460   39.9500   64.2870 O   0  0  0  0  0
    5.6050   39.0650   64.6990 C   0  0  0  0  0
    5.5930   38.7770   66.0560 C   0  0  0  0  0
    6.5610   37.8690   66.7090 C   0  0  0  0  0
    7.5660   37.2330   65.9310 C   0  0  0  0  0
    7.5920   37.5030   64.5500 C   0  0  0  0  0
    6.5980   38.4320   63.8920 C   0  0  0  0  0
    8.7260   36.1520   66.6980 S   0  0  0  0  0
    8.1080   34.8230   66.9790 O   0  0  0  0  0
    9.9290   36.0860   65.8280 O   0  0  0  0  0
    9.2680   36.8500   68.1670 N   0  0  0  0  0
    9.4800   38.3070   68.3640 C   0  0  0  0  0
    8.9590   39.2330   69.4960 C   0  0  0  0  0
    8.2830   39.9960   68.5450 O   0  0  0  0  0
   10.1500   40.1030   70.1250 C   0  0  0  0  0
   10.8640   39.0530   70.8690 N   0  0  0  0  0
   11.8470   39.2820   71.7330 C   0  0  0  0  0
   12.2700   40.4480   72.0140 O   0  0  0  0  0
   12.4010   38.0250   72.3840 C   0  0  0  0  0
   11.7520   37.8550   73.7800 C   0  0  0  0  0
   12.4260   37.9740   75.1570 C   0  0  0  0  0
   12.6610   36.6370   75.7620 C   0  0  0  0  0
   13.6170   38.9040   75.2430 C   0  0  0  0  0
   13.8550   38.0350   72.4770 N   0  0  0  0  0
   14.4620   36.8740   72.6910 C   0  0  0  0  0
   13.8160   35.8280   72.7860 O   0  0  0  0  0
   15.9130   36.4740   72.8910 C   0  0  0  0  0
   16.1220   35.8870   74.1330 C   0  0  0  0  0
   17.3560   35.4120   74.5400 C   0  0  0  0  0
   18.3880   35.5480   73.6430 N   0  0  0  0  0
   16.9720   36.5910   72.0350 C   0  0  0  0  0
   18.2300   36.1210   72.4110 C   0  0  0  0  0
    3.8328   38.4105   62.1135 H   0  0  0  0  0
    1.5649   37.5633   61.6764 H   0  0  0  0  0
   -0.2648   38.1066   63.1876 H   0  0  0  0  0
    0.1239   39.5056   65.1434 H   0  0  0  0  0
    2.3360   40.3500   65.6315 H   0  0  0  0  0
    4.8281   39.2457   66.6751 H   0  0  0  0  0
    6.5038   37.6884   67.7824 H   0  0  0  0  0
    8.3546   37.0261   63.9343 H   0  0  0  0  0
    6.6386   38.6158   62.8184 H   0  0  0  0  0
    9.4562   36.2276   68.9528 H   0  0  0  0  0
    8.9305   38.7057   67.5112 H   0  0  0  0  0
   10.5508   38.3273   68.5666 H   0  0  0  0  0
    8.4530   38.8122   70.3649 H   0  0  0  0  0
    7.8209   40.7147   68.9826 H   0  0  0  0  0
    9.8211   40.9444   70.7349 H   0  0  0  0  0
   10.7597   40.6307   69.3916 H   0  0  0  0  0
   10.5855   38.0846   70.7108 H   0  0  0  0  0
   12.1487   37.1732   71.7524 H   0  0  0  0  0
   11.4935   36.7962   73.7637 H   0  0  0  0  0
   11.0760   38.7098   73.8027 H   0  0  0  0  0
   11.6973   38.4954   75.7777 H   0  0  0  0  0
   11.7078   36.1229   75.8856 H   0  0  0  0  0
   13.3084   36.0525   75.1083 H   0  0  0  0  0
   13.1385   36.7584   76.7343 H   0  0  0  0  0
   14.3928   38.5631   74.5574 H   0  0  0  0  0
   13.3084   39.9135   74.9715 H   0  0  0  0  0
   14.0045   38.9028   76.2618 H   0  0  0  0  0
   14.3860   38.9006   72.3814 H   0  0  0  0  0
   15.2773   35.7969   74.8160 H   0  0  0  0  0
   17.5016   34.9549   75.5187 H   0  0  0  0  0
   16.8332   37.0522   71.0572 H   0  0  0  0  0
   19.0774   36.2092   71.7311 H   0  0  0  0  0
  1  2  4  0  0  0
  1  6  4  0  0  0
  1  7  1  0  0  0
  2  3  4  0  0  0
  3  4  4  0  0  0
  4  5  4  0  0  0
  5  6  4  0  0  0
  7  8  1  0  0  0
  8  9  4  0  0  0
  8 13  4  0  0  0
  9 10  4  0  0  0
 10 11  4  0  0  0
 11 12  4  0  0  0
 11 14  1  0  0  0
 12 13  4  0  0  0
 14 15  2  0  0  0
 14 16  2  0  0  0
 14 17  1  0  0  0
 17 18  1  0  0  0
 18 19  1  0  0  0
 19 20  1  0  0  0
 19 21  1  0  0  0
 21 22  1  0  0  0
 22 23  1  0  0  0
 23 24  2  0  0  0
 23 25  1  0  0  0
 25 26  1  0  0  0
 25 30  1  0  0  0
 26 27  1  0  0  0
 27 28  1  0  0  0
 27 29  1  0  0  0
 30 31  1  0  0  0
 31 32  2  0  0  0
 31 33  1  0  0  0
 33 34  4  0  0  0
 33 37  4  0  0  0
 34 35  4  0  0  0
 35 36  4  0  0  0
 36 38  4  0  0  0
 37 38  4  0  0  0
  2 39  1  0  0  0
  3 40  1  0  0  0
  4 41  1  0  0  0
  5 42  1  0  0  0
  6 43  1  0  0  0
  9 44  1  0  0  0
 10 45  1  0  0  0
 12 46  1  0  0  0
 13 47  1  0  0  0
 17 48  1  0  0  0
 18 49  1  0  0  0
 18 50  1  0  0  0
 19 51  1  0  0  0
 20 52  1  0  0  0
 21 53  1  0  0  0
 21 54  1  0  0  0
 22 55  1  0  0  0
 25 56  1  0  0  0
 26 57  1  0  0  0
 26 58  1  0  0  0
 27 59  1  0  0  0
 28 60  1  0  0  0
 28 61  1  0  0  0
 28 62  1  0  0  0
 29 63  1  0  0  0
 29 64  1  0  0  0
 29 65  1  0  0  0
 30 66  1  0  0  0
 34 67  1  0  0  0
 35 68  1  0  0  0
 37 69  1  0  0  0
 38 70  1  0  0  0
M  END
$$$$
