3ii5_ligand
  -I-interpret- 

 63 67  0  0  0  0  0  0  0  0999 V2000
  -11.9550    8.5420    9.0290 C   0  0  0  0  0
   -8.5590   22.0150    1.2540 F   0  0  0  0  0
  -12.8220    9.0000   10.1780 N   0  3  0  0  0
   -8.6300   20.8260    5.7140 O   0  0  0  0  0
  -14.0960    9.6700    9.7310 C   0  0  0  0  0
   -6.7380   22.5700    0.1950 F   0  0  0  0  0
   -8.6910   16.8420    9.8400 N   0  0  0  0  0
  -12.0500    9.7430   11.2660 C   0  0  0  0  0
   -7.8680   24.0670    1.2580 F   0  0  0  0  0
   -9.8980   17.3980   10.1210 N   0  0  0  0  0
  -11.5880   11.1680   11.0270 C   0  0  0  0  0
  -12.1400   16.7890   10.7540 N   0  0  0  0  0
  -12.2670   12.2670   11.5860 C   0  0  0  0  0
   -6.9640   21.3760    7.2520 N   0  0  0  0  0
  -11.8360   13.5840   11.3620 C   0  0  0  0  0
  -10.7050   13.8370   10.5690 C   0  0  0  0  0
  -10.0250   12.7400   10.0190 C   0  0  0  0  0
  -10.4550   11.4270   10.2420 C   0  0  0  0  0
  -10.2060   15.1920   10.3450 C   0  0  0  0  0
   -8.8930   15.5400    9.9800 C   0  0  0  0  0
  -10.8590   16.4200   10.4380 C   0  0  0  0  0
  -12.4000   18.0630   10.7380 C   0  0  0  0  0
  -11.4560   19.1600   10.4160 C   0  0  0  0  0
  -10.2040   18.7700   10.1080 C   0  0  0  0  0
   -9.1710   19.7890    9.8230 C   0  0  0  0  0
   -8.7870   20.5510   10.9340 C   0  0  0  0  0
   -7.8270   21.5510   10.8460 C   0  0  0  0  0
   -7.2210   21.8130    9.6250 C   0  0  0  0  0
   -7.5730   21.0740    8.4930 C   0  0  0  0  0
   -8.5550   20.0530    8.5830 C   0  0  0  0  0
   -7.5210   21.2500    5.9980 C   0  0  0  0  0
   -6.6740   21.7180    4.8850 C   0  0  0  0  0
   -5.2890   21.8720    4.9640 C   0  0  0  0  0
   -4.5940   22.3280    3.8430 C   0  0  0  0  0
   -5.2730   22.6290    2.6590 C   0  0  0  0  0
   -6.6610   22.4770    2.5840 C   0  0  0  0  0
   -7.3530   22.0220    3.7040 C   0  0  0  0  0
   -7.4380   22.7820    1.3400 C   0  0  0  0  0
  -11.4848    9.4078    8.5627 H   0  0  0  0  0
  -11.1856    7.8665    9.4029 H   0  0  0  0  0
  -12.5712    8.0224    8.2952 H   0  0  0  0  0
  -13.1391    8.1502   10.6446 H   0  0  0  0  0
  -14.7706    9.7691   10.5814 H   0  0  0  0  0
  -13.8649   10.6576    9.3319 H   0  0  0  0  0
  -14.5705    9.0661    8.9575 H   0  0  0  0  0
  -11.1283    9.1733   11.3845 H   0  0  0  0  0
  -12.7526    9.8192   12.0959 H   0  0  0  0  0
  -13.1462   12.0916   12.2060 H   0  0  0  0  0
   -6.0066   21.7257    7.2899 H   0  0  0  0  0
  -12.3827   14.4157   11.8065 H   0  0  0  0  0
   -9.1420   12.9143    9.4042 H   0  0  0  0  0
   -9.9034   10.5968    9.8009 H   0  0  0  0  0
   -8.1074   14.8005    9.8253 H   0  0  0  0  0
  -13.4199   18.3554   10.9878 H   0  0  0  0  0
  -11.7541   20.2084   10.4277 H   0  0  0  0  0
   -9.2562   20.3530   11.8977 H   0  0  0  0  0
   -7.5514   22.1262   11.7299 H   0  0  0  0  0
   -6.4682   22.5977    9.5492 H   0  0  0  0  0
   -8.8307   19.4772    7.6995 H   0  0  0  0  0
   -4.7583   21.6396    5.8873 H   0  0  0  0  0
   -3.5120   22.4505    3.8912 H   0  0  0  0  0
   -4.7182   22.9837    1.7904 H   0  0  0  0  0
   -8.4354   21.9022    3.6577 H   0  0  0  0  0
  3  1  1  0  0  0
 38  2  1  0  0  0
  3  5  1  0  0  0
  8  3  1  0  0  0
 31  4  2  0  0  0
 38  6  1  0  0  0
 10  7  4  0  0  0
  7 20  4  0  0  0
 11  8  1  0  0  0
 38  9  1  0  0  0
 10 21  4  0  0  0
 24 10  4  0  0  0
 13 11  4  0  0  0
 18 11  4  0  0  0
 21 12  4  0  0  0
 22 12  4  0  0  0
 15 13  4  0  0  0
 14 29  1  0  0  0
 31 14  1  0  0  0
 16 15  4  0  0  0
 16 17  4  0  0  0
 19 16  1  0  0  0
 17 18  4  0  0  0
 19 20  4  0  0  0
 21 19  4  0  0  0
 23 22  4  0  0  0
 24 23  4  0  0  0
 25 24  1  0  0  0
 25 26  4  0  0  0
 30 25  4  0  0  0
 27 26  4  0  0  0
 28 27  4  0  0  0
 29 28  4  0  0  0
 29 30  4  0  0  0
 32 31  1  0  0  0
 32 33  4  0  0  0
 37 32  4  0  0  0
 34 33  4  0  0  0
 35 34  4  0  0  0
 36 35  4  0  0  0
 36 37  4  0  0  0
 36 38  1  0  0  0
  1 39  1  0  0  0
  1 40  1  0  0  0
  1 41  1  0  0  0
  3 42  1  0  0  0
  5 43  1  0  0  0
  5 44  1  0  0  0
  5 45  1  0  0  0
  8 46  1  0  0  0
  8 47  1  0  0  0
 13 48  1  0  0  0
 14 49  1  0  0  0
 15 50  1  0  0  0
 17 51  1  0  0  0
 18 52  1  0  0  0
 20 53  1  0  0  0
 22 54  1  0  0  0
 23 55  1  0  0  0
 26 56  1  0  0  0
 27 57  1  0  0  0
 28 58  1  0  0  0
 30 59  1  0  0  0
 33 60  1  0  0  0
 34 61  1  0  0  0
 35 62  1  0  0  0
 37 63  1  0  0  0
M  END
$$$$
