1snk_ligand
  -I-interpret- 

 58 58  0  0  0  0  0  0  0  0999 V2000
  -17.2420   30.7340   76.3180 C   0  0  0  0  0
  -17.0590   31.4290   77.6750 C   0  0  0  0  0
  -15.7270   32.2230   77.6910 C   0  0  0  0  0
  -15.6540   33.1020   78.9830 C   0  0  0  0  0
  -16.6100   34.1840   78.8960 N   0  0  0  0  0
  -17.4310   34.4170   79.9100 C   0  0  0  0  0
  -17.3960   33.6950   80.8890 O   0  0  0  0  0
  -18.4200   35.5780   79.8510 C   0  0  0  0  0
  -17.9180   36.6880   80.7920 C   0  0  0  0  0
  -18.0650   38.0980   80.1720 C   0  0  0  0  0
  -18.2100   39.1170   81.2920 C   0  0  0  0  0
  -19.2760   38.1740   79.2560 C   0  0  0  0  0
  -19.6880   35.1180   80.3480 N   0  0  0  0  0
  -20.5120   34.3410   79.6060 C   0  0  0  0  0
  -20.1100   33.7820   78.5810 O   0  0  0  0  0
  -21.7600   34.1870   79.9990 O   0  0  0  0  0
  -22.3260   32.9870   79.5440 C   0  0  0  0  0
  -23.1770   32.3890   80.6330 C   0  0  0  0  0
  -23.8470   31.2070   80.4030 C   0  0  0  0  0
  -24.6260   30.6500   81.3960 C   0  0  0  0  0
  -24.7420   31.2800   82.6310 C   0  0  0  0  0
  -25.8320   30.4850   84.0100 Br  0  0  0  0  0
  -24.0700   32.4700   82.8660 C   0  0  0  0  0
  -23.2890   33.0270   81.8690 C   0  0  0  0  0
  -14.2840   33.6910   79.1250 C   0  0  0  0  0
  -13.3350   32.6870   79.0380 O   0  0  0  0  0
  -16.5350   29.3660   76.3400 C   0  0  0  0  0
  -16.8093   31.3532   75.5322 H   0  0  0  0  0
  -18.3050   30.5897   76.1250 H   0  0  0  0  0
  -17.0363   30.6759   78.4627 H   0  0  0  0  0
  -17.8880   32.1173   77.8393 H   0  0  0  0  0
  -15.6789   32.8665   76.8125 H   0  0  0  0  0
  -14.8898   31.5251   77.6805 H   0  0  0  0  0
  -15.8791   32.4719   79.8435 H   0  0  0  0  0
  -16.6521   34.7647   78.0585 H   0  0  0  0  0
  -18.5144   35.9469   78.8297 H   0  0  0  0  0
  -16.8596   36.5132   80.9853 H   0  0  0  0  0
  -18.5174   36.6555   81.7018 H   0  0  0  0  0
  -17.1773   38.3112   79.5766 H   0  0  0  0  0
  -19.0940   38.8806   81.8843 H   0  0  0  0  0
  -17.3254   39.0842   81.9281 H   0  0  0  0  0
  -18.3142   40.1138   80.8634 H   0  0  0  0  0
  -19.1659   37.4492   78.4494 H   0  0  0  0  0
  -20.1768   37.9497   79.8273 H   0  0  0  0  0
  -19.3505   39.1774   78.8369 H   0  0  0  0  0
  -19.9760   35.3854   81.2893 H   0  0  0  0  0
  -21.5324   32.2887   79.2782 H   0  0  0  0  0
  -22.9435   33.1856   78.6680 H   0  0  0  0  0
  -23.7614   30.7118   79.4358 H   0  0  0  0  0
  -25.1523   29.7133   81.2124 H   0  0  0  0  0
  -24.1568   32.9651   83.8332 H   0  0  0  0  0
  -22.7614   33.9637   82.0489 H   0  0  0  0  0
  -14.2009   34.1848   80.0932 H   0  0  0  0  0
  -14.1175   34.4164   78.3286 H   0  0  0  0  0
  -12.4585   33.0679   79.1294 H   0  0  0  0  0
  -15.4721   29.5108   76.5335 H   0  0  0  0  0
  -16.9678   28.7474   77.1262 H   0  0  0  0  0
  -16.6665   28.8750   75.3758 H   0  0  0  0  0
  1  2  1  0  0  0
  1 27  1  0  0  0
  2  3  1  0  0  0
  3  4  1  0  0  0
  4  5  1  0  0  0
  4 25  1  0  0  0
  5  6  1  0  0  0
  6  7  2  0  0  0
  6  8  1  0  0  0
  8  9  1  0  0  0
  8 13  1  0  0  0
  9 10  1  0  0  0
 10 11  1  0  0  0
 10 12  1  0  0  0
 13 14  1  0  0  0
 14 15  2  0  0  0
 14 16  1  0  0  0
 16 17  1  0  0  0
 17 18  1  0  0  0
 18 19  4  0  0  0
 18 24  4  0  0  0
 19 20  4  0  0  0
 20 21  4  0  0  0
 21 22  1  0  0  0
 21 23  4  0  0  0
 23 24  4  0  0  0
 25 26  1  0  0  0
  1 28  1  0  0  0
  1 29  1  0  0  0
  2 30  1  0  0  0
  2 31  1  0  0  0
  3 32  1  0  0  0
  3 33  1  0  0  0
  4 34  1  0  0  0
  5 35  1  0  0  0
  8 36  1  0  0  0
  9 37  1  0  0  0
  9 38  1  0  0  0
 10 39  1  0  0  0
 11 40  1  0  0  0
 11 41  1  0  0  0
 11 42  1  0  0  0
 12 43  1  0  0  0
 12 44  1  0  0  0
 12 45  1  0  0  0
 13 46  1  0  0  0
 17 47  1  0  0  0
 17 48  1  0  0  0
 19 49  1  0  0  0
 20 50  1  0  0  0
 23 51  1  0  0  0
 24 52  1  0  0  0
 25 53  1  0  0  0
 25 54  1  0  0  0
 26 55  1  0  0  0
 27 56  1  0  0  0
 27 57  1  0  0  0
 27 58  1  0  0  0
M  END
$$$$
