### 
### Created by X-TOOL on Mon Sep 10 21:12:51 2018
### 

@<TRIPOS>MOLECULE
1o42_ligand
   73    76     1     0     0
SMALL
GAST_HUCK


@<TRIPOS>ATOM
      1 C1         19.3210   26.3050   19.2960 C.ar      1 843        -0.0239
      2 C2         18.5070   27.0090   18.3770 C.ar      1 843         0.0115
      3 C3         17.1720   26.5550   18.1450 C.ar      1 843         0.1728
      4 C4         16.6390   25.5050   18.8960 C.ar      1 843         0.0115
      5 C5         17.4510   24.8170   19.8120 C.ar      1 843        -0.0239
      6 C6         18.7840   25.2010   20.0000 C.ar      1 843        -0.0004
      7 P7         15.9750   28.5680   17.5660 P.3       1 843         0.1348
      8 O8         14.7640   28.7130   16.6630 O.co2     1 843        -0.6653
      9 O9         16.9940   29.7000   17.3240 O.co2     1 843        -0.6653
     10 O10        15.4970   28.6280   18.9770 O.co2     1 843        -0.6653
     11 C11        19.6780   24.4750   20.9690 C.3       1 843         0.0400
     12 C12        19.5220   25.0730   22.3610 C.3       1 843         0.1468
     13 C13        20.3970   24.3230   23.3480 C.2       1 843         0.2074
     14 N14        19.7370   23.3120   23.9060 N.am      1 843        -0.2635
     15 N15        19.9760   26.4480   22.3830 N.am      1 843        -0.2628
     16 C16        19.3490   27.3880   23.1080 C.2       1 843         0.1753
     17 C17        19.8030   28.8290   22.7290 C.3       1 843         0.0258
     18 O18        18.4970   27.1280   23.9470 O.2       1 843        -0.3972
     19 O19        21.5620   24.6870   23.5650 O.2       1 843        -0.3941
     20 C20        20.3800   22.3640   24.8000 C.3       1 843         0.1312
     21 C21        19.2710   21.4210   25.3450 C.3       1 843        -0.0123
     22 C22        19.6400   20.6300   26.6180 C.3       1 843        -0.0470
     23 C23        20.8490   19.7020   26.4480 C.3       1 843        -0.0321
     24 C24        22.1140   20.4740   26.1560 C.3       1 843         0.0362
     25 N25        22.2600   20.6810   24.6850 N.am      1 843        -0.2598
     26 C26        21.3950   21.5740   23.9400 C.2       1 843         0.2060
     27 C27        23.2240   19.8030   23.9370 C.3       1 843         0.0680
     28 C28        22.5680   18.4910   23.6560 C.ar      1 843        -0.0198
     29 O29        21.3640   21.6850   22.6810 O.2       1 843        -0.3942
     30 O30        16.4470   27.2240   17.1230 O.3       1 843        -0.2040
     31 C54        21.3280   18.4410   22.9420 C.ar      1 843        -0.0570
     32 C55        20.7210   17.1680   22.6640 C.ar      1 843        -0.0600
     33 C56        21.3630   15.9890   23.0990 C.ar      1 843        -0.0242
     34 C57        22.5330   16.0660   23.8850 C.ar      1 843        -0.0600
     35 C58        23.1300   17.3100   24.1510 C.ar      1 843        -0.0570
     36 C63        20.7590   14.6960   22.7790 C.ar      1 843        -0.0221
     37 C64        21.5370   13.5390   22.6490 C.ar      1 843        -0.0557
     38 C65        20.8230   12.3350   22.3900 C.ar      1 843        -0.0622
     39 C66        19.4170   12.2680   22.2620 C.ar      1 843        -0.0627
     40 C67        18.6550   13.4170   22.4460 C.ar      1 843        -0.0622
     41 C68        19.3330   14.6270   22.6910 C.ar      1 843        -0.0557
     42 H1         20.3485   26.6092   19.4595 H         1 843         0.0703
     43 H2         18.8903   27.8794   17.8569 H         1 843         0.0736
     44 H3         15.6001   25.2216   18.7720 H         1 843         0.0736
     45 H4         17.0441   23.9853   20.3757 H         1 843         0.0703
     46 H5         20.7244   24.5731   20.6445 H         1 843         0.0584
     47 H6         19.4004   23.4109   20.9954 H         1 843         0.0584
     48 H7         18.4668   25.0173   22.6667 H         1 843         0.0840
     49 H8         18.7642   23.2004   23.7032 H         1 843         0.1883
     50 H9         20.7782   26.7042   21.8436 H         1 843         0.1885
     51 H10        19.2619   29.5589   23.3491 H         1 843         0.0467
     52 H11        19.5832   29.0154   21.6674 H         1 843         0.0467
     53 H12        20.8844   28.9304   22.9029 H         1 843         0.0467
     54 H13        20.8902   22.8772   25.6285 H         1 843         0.0800
     55 H14        19.0236   20.6964   24.5553 H         1 843         0.0312
     56 H15        18.3858   22.0336   25.5710 H         1 843         0.0312
     57 H16        18.7730   20.0186   26.9087 H         1 843         0.0268
     58 H17        19.8663   21.3495   27.4187 H         1 843         0.0268
     59 H18        20.6532   19.0116   25.6143 H         1 843         0.0285
     60 H19        20.9892   19.1269   27.3751 H         1 843         0.0285
     61 H20        22.9799   19.9092   26.5317 H         1 843         0.0524
     62 H21        22.0679   21.4516   26.6582 H         1 843         0.0524
     63 H22        24.1254   19.6417   24.5465 H         1 843         0.0689
     64 H23        23.5038   20.2860   22.9892 H         1 843         0.0689
     65 H24        20.8502   19.3568   22.6133 H         1 843         0.0561
     66 H25        19.7812   17.1143   22.1265 H         1 843         0.0609
     67 H26        22.9735   15.1602   24.2857 H         1 843         0.0609
     68 H27        24.0351   17.3546   24.7458 H         1 843         0.0561
     69 H28        22.6170   13.5589   22.7400 H         1 843         0.0615
     70 H29        21.3900   11.4171   22.2849 H         1 843         0.0615
     71 H30        18.9355   11.3270   22.0219 H         1 843         0.0610
     72 H31        17.5724   13.3823   22.4022 H         1 843         0.0615
     73 H32        18.7553   15.5356   22.8170 H         1 843         0.0615
@<TRIPOS>BOND
     1    2    1 ar 
     2    1    6 ar 
     3    3    2 ar 
     4    3    4 ar 
     5   30    3 1  
     6    4    5 ar 
     7    5    6 ar 
     8    6   11 1  
     9    7    8 ar 
    10    7    9 ar 
    11    7   10 ar 
    12    7   30 1  
    13   11   12 1  
    14   12   13 1  
    15   12   15 1  
    16   13   14 am 
    17   13   19 2  
    18   14   20 1  
    19   15   16 am 
    20   16   17 1  
    21   16   18 2  
    22   20   21 1  
    23   20   26 1  
    24   21   22 1  
    25   22   23 1  
    26   23   24 1  
    27   24   25 1  
    28   25   26 am 
    29   25   27 1  
    30   26   29 2  
    31   27   28 1  
    32   28   31 ar 
    33   28   35 ar 
    34   31   32 ar 
    35   32   33 ar 
    36   33   34 ar 
    37   33   36 1  
    38   34   35 ar 
    39   36   37 ar 
    40   36   41 ar 
    41   37   38 ar 
    42   38   39 ar 
    43   39   40 ar 
    44   40   41 ar 
    45    1   42 1  
    46    2   43 1  
    47    4   44 1  
    48    5   45 1  
    49   11   46 1  
    50   11   47 1  
    51   12   48 1  
    52   14   49 1  
    53   15   50 1  
    54   17   51 1  
    55   17   52 1  
    56   17   53 1  
    57   20   54 1  
    58   21   55 1  
    59   21   56 1  
    60   22   57 1  
    61   22   58 1  
    62   23   59 1  
    63   23   60 1  
    64   24   61 1  
    65   24   62 1  
    66   27   63 1  
    67   27   64 1  
    68   31   65 1  
    69   32   66 1  
    70   34   67 1  
    71   35   68 1  
    72   37   69 1  
    73   38   70 1  
    74   39   71 1  
    75   40   72 1  
    76   41   73 1  
@<TRIPOS>SUBSTRUCTURE
     1 843         1

