1o42_ligand
  -I-interpret- 

 75 78  0  0  0  0  0  0  0  0999 V2000
   19.3210   26.3050   19.2960 C   0  0  0  0  0
   18.5070   27.0090   18.3770 C   0  0  0  0  0
   17.1720   26.5550   18.1450 C   0  0  0  0  0
   16.6390   25.5050   18.8960 C   0  0  0  0  0
   17.4510   24.8170   19.8120 C   0  0  0  0  0
   18.7840   25.2010   20.0000 C   0  0  0  0  0
   15.9750   28.5680   17.5660 P   0  0  0  0  0
   14.7640   28.7130   16.6630 O   0  0  0  0  0
   16.9940   29.7000   17.3240 O   0  0  0  0  0
   15.4970   28.6280   18.9770 O   0  0  0  0  0
   19.6780   24.4750   20.9690 C   0  0  0  0  0
   19.5220   25.0730   22.3610 C   0  0  0  0  0
   20.3970   24.3230   23.3480 C   0  0  0  0  0
   19.7370   23.3120   23.9060 N   0  0  0  0  0
   19.9760   26.4480   22.3830 N   0  0  0  0  0
   19.3490   27.3880   23.1080 C   0  0  0  0  0
   19.8030   28.8290   22.7290 C   0  0  0  0  0
   18.4970   27.1280   23.9470 O   0  0  0  0  0
   21.5620   24.6870   23.5650 O   0  0  0  0  0
   20.3800   22.3640   24.8000 C   0  0  0  0  0
   19.2710   21.4210   25.3450 C   0  0  0  0  0
   19.6400   20.6300   26.6180 C   0  0  0  0  0
   20.8490   19.7020   26.4480 C   0  0  0  0  0
   22.1140   20.4740   26.1560 C   0  0  0  0  0
   22.2600   20.6810   24.6850 N   0  0  0  0  0
   21.3950   21.5740   23.9400 C   0  0  0  0  0
   23.2240   19.8030   23.9370 C   0  0  0  0  0
   22.5680   18.4910   23.6560 C   0  0  0  0  0
   21.3640   21.6850   22.6810 O   0  0  0  0  0
   16.4470   27.2240   17.1230 O   0  0  0  0  0
   21.3280   18.4410   22.9420 C   0  0  0  0  0
   20.7210   17.1680   22.6640 C   0  0  0  0  0
   21.3630   15.9890   23.0990 C   0  0  0  0  0
   22.5330   16.0660   23.8850 C   0  0  0  0  0
   23.1300   17.3100   24.1510 C   0  0  0  0  0
   20.7590   14.6960   22.7790 C   0  0  0  0  0
   21.5370   13.5390   22.6490 C   0  0  0  0  0
   20.8230   12.3350   22.3900 C   0  0  0  0  0
   19.4170   12.2680   22.2620 C   0  0  0  0  0
   18.6550   13.4170   22.4460 C   0  0  0  0  0
   19.3330   14.6270   22.6910 C   0  0  0  0  0
   20.3542   26.6109   19.4604 H   0  0  0  0  0
   18.8925   27.8842   17.8541 H   0  0  0  0  0
   15.5943   25.2200   18.7713 H   0  0  0  0  0
   17.0418   23.9807   20.3788 H   0  0  0  0  0
   15.0443   28.6777   15.7455 H   0  0  0  0  0
   17.3026   29.6625   16.4157 H   0  0  0  0  0
   20.7147   24.5749   20.6476 H   0  0  0  0  0
   19.4004   23.4213   20.9959 H   0  0  0  0  0
   18.4666   25.0065   22.6250 H   0  0  0  0  0
   18.7447   23.1982   23.6991 H   0  0  0  0  0
   20.7942   26.7093   21.8328 H   0  0  0  0  0
   18.9478   29.3911   22.3537 H   0  0  0  0  0
   20.2066   29.3253   23.6115 H   0  0  0  0  0
   20.5711   28.7754   21.9575 H   0  0  0  0  0
   20.8906   22.8387   25.6379 H   0  0  0  0  0
   19.0791   20.6837   24.5655 H   0  0  0  0  0
   18.4247   22.0557   25.6077 H   0  0  0  0  0
   18.7842   20.0031   26.8683 H   0  0  0  0  0
   19.8971   21.3579   27.3875 H   0  0  0  0  0
   20.6533   19.0357   25.6079 H   0  0  0  0  0
   20.9912   19.1516   27.3780 H   0  0  0  0  0
   22.9707   19.9100   26.5248 H   0  0  0  0  0
   22.0636   21.4440   26.6507 H   0  0  0  0  0
   24.1199   19.6452   24.5375 H   0  0  0  0  0
   23.5059   20.2817   22.9992 H   0  0  0  0  0
   20.8476   19.3619   22.6115 H   0  0  0  0  0
   19.7760   17.1140   22.1236 H   0  0  0  0  0
   22.9759   15.1552   24.2879 H   0  0  0  0  0
   24.0402   17.3549   24.7491 H   0  0  0  0  0
   22.6230   13.5591   22.7405 H   0  0  0  0  0
   21.3932   11.4120   22.2844 H   0  0  0  0  0
   18.9328   11.3217   22.0206 H   0  0  0  0  0
   17.5665   13.3821   22.4019 H   0  0  0  0  0
   18.7521   15.5406   22.8177 H   0  0  0  0  0
  2  1  4  0  0  0
  1  6  4  0  0  0
  3  2  4  0  0  0
  3  4  4  0  0  0
 30  3  1  0  0  0
  4  5  4  0  0  0
  5  6  4  0  0  0
  6 11  1  0  0  0
  7  8  1  0  0  0
  7  9  1  0  0  0
  7 10  2  0  0  0
  7 30  1  0  0  0
 11 12  1  0  0  0
 12 13  1  0  0  0
 12 15  1  0  0  0
 13 14  1  0  0  0
 13 19  2  0  0  0
 14 20  1  0  0  0
 15 16  1  0  0  0
 16 17  1  0  0  0
 16 18  2  0  0  0
 20 21  1  0  0  0
 20 26  1  0  0  0
 21 22  1  0  0  0
 22 23  1  0  0  0
 23 24  1  0  0  0
 24 25  1  0  0  0
 25 26  1  0  0  0
 25 27  1  0  0  0
 26 29  2  0  0  0
 27 28  1  0  0  0
 28 31  4  0  0  0
 28 35  4  0  0  0
 31 32  4  0  0  0
 32 33  4  0  0  0
 33 34  4  0  0  0
 33 36  1  0  0  0
 34 35  4  0  0  0
 36 37  4  0  0  0
 36 41  4  0  0  0
 37 38  4  0  0  0
 38 39  4  0  0  0
 39 40  4  0  0  0
 40 41  4  0  0  0
  1 42  1  0  0  0
  2 43  1  0  0  0
  4 44  1  0  0  0
  5 45  1  0  0  0
  8 46  1  0  0  0
  9 47  1  0  0  0
 11 48  1  0  0  0
 11 49  1  0  0  0
 12 50  1  0  0  0
 14 51  1  0  0  0
 15 52  1  0  0  0
 17 53  1  0  0  0
 17 54  1  0  0  0
 17 55  1  0  0  0
 20 56  1  0  0  0
 21 57  1  0  0  0
 21 58  1  0  0  0
 22 59  1  0  0  0
 22 60  1  0  0  0
 23 61  1  0  0  0
 23 62  1  0  0  0
 24 63  1  0  0  0
 24 64  1  0  0  0
 27 65  1  0  0  0
 27 66  1  0  0  0
 31 67  1  0  0  0
 32 68  1  0  0  0
 34 69  1  0  0  0
 35 70  1  0  0  0
 37 71  1  0  0  0
 38 72  1  0  0  0
 39 73  1  0  0  0
 40 74  1  0  0  0
 41 75  1  0  0  0
M  END
$$$$
