1gjc_ligand
  -I-interpret- 

 40 43  0  0  0  0  0  0  0  0999 V2000
    8.7610    1.3670   24.6990 C   0  0  0  0  0
    9.5260    1.2400   23.5100 C   0  0  0  0  0
   10.1020    2.3400   22.8490 C   0  0  0  0  0
    9.8850    3.5570   23.4180 C   0  0  0  0  0
    9.1700    3.7280   24.5370 C   0  0  0  0  0
    8.5860    2.6760   25.2210 C   0  0  0  0  0
    8.2110    0.2360   25.3310 C   0  0  0  0  0
    7.7860    0.3080   26.5690 N   0  0  0  0  0
    8.1250   -0.8970   24.6800 N   0  0  0  0  0
   10.2680    4.7330   23.0440 N   0  0  0  0  0
    9.0780    5.0000   24.9000 N   0  0  0  0  0
    9.7860    5.5600   23.9200 C   0  0  0  0  0
   10.0470    6.9550   23.8570 C   0  0  0  0  0
    9.7040    7.8070   24.9150 C   0  0  0  0  0
    9.9550    9.1710   24.8730 C   0  0  0  0  0
   10.5550    9.7220   23.7660 C   0  0  0  0  0
   10.9270    8.9440   22.6670 C   0  0  0  0  0
   10.6660    7.5610   22.7300 C   0  0  0  0  0
   11.0360    6.7970   21.6420 O   0  0  0  0  0
   11.5400    9.5710   21.5850 C   0  0  0  0  0
   12.7980    9.1700   21.1430 C   0  0  0  0  0
   13.4460    9.8080   20.0970 C   0  0  0  0  0
   12.8360   10.8760   19.4600 C   0  0  0  0  0
   11.5800   11.2970   19.8720 C   0  0  0  0  0
   10.9360   10.6510   20.9230 C   0  0  0  0  0
    9.6738    0.2450   23.0902 H   0  0  0  0  0
   10.6867    2.2246   21.9364 H   0  0  0  0  0
    8.0105    2.8467   26.1308 H   0  0  0  0  0
    7.3904   -0.5163   27.0212 H   0  0  0  0  0
    7.8509    1.1883   27.0801 H   0  0  0  0  0
    7.7286   -1.7186   25.1364 H   0  0  0  0  0
    9.2251    7.3852   25.7986 H   0  0  0  0  0
    9.6771    9.8039   25.7158 H   0  0  0  0  0
   10.7457   10.7950   23.7450 H   0  0  0  0  0
   11.4362    7.3619   20.9770 H   0  0  0  0  0
   13.2878    8.3293   21.6342 H   0  0  0  0  0
   14.4318    9.4706   19.7769 H   0  0  0  0  0
   13.3409   11.3837   18.6382 H   0  0  0  0  0
   11.0964   12.1358   19.3713 H   0  0  0  0  0
    9.9482   10.9887   21.2365 H   0  0  0  0  0
  7  1  1  0  0  0
  1  6  4  0  0  0
  1  2  4  0  0  0
  2  3  4  0  0  0
  3  4  4  0  0  0
  4 10  4  0  0  0
  4  5  4  0  0  0
  5 11  4  0  0  0
  6  5  4  0  0  0
 11 12  4  0  0  0
 12 13  1  0  0  0
 10 12  4  0  0  0
 13 18  4  0  0  0
 13 14  4  0  0  0
 14 15  4  0  0  0
 15 16  4  0  0  0
 16 17  4  0  0  0
 17 20  1  0  0  0
 18 17  4  0  0  0
 18 19  1  0  0  0
 20 25  4  0  0  0
 20 21  4  0  0  0
 21 22  4  0  0  0
 22 23  4  0  0  0
 23 24  4  0  0  0
 25 24  4  0  0  0
  7  9  2  0  0  0
  7  8  1  0  0  0
  2 26  1  0  0  0
  3 27  1  0  0  0
  6 28  1  0  0  0
  8 29  1  0  0  0
  8 30  1  0  0  0
  9 31  1  0  0  0
 14 32  1  0  0  0
 15 33  1  0  0  0
 16 34  1  0  0  0
 19 35  1  0  0  0
 21 36  1  0  0  0
 22 37  1  0  0  0
 23 38  1  0  0  0
 24 39  1  0  0  0
 25 40  1  0  0  0
M  END
$$$$
