4ztm_ligand
  -I-interpret- 

 53 57  0  0  0  0  0  0  0  0999 V2000
   29.3500    7.7390   -7.1130 C   0  0  0  0  0
   28.6970    7.2840   -5.9920 N   0  0  0  0  0
   28.7070    6.0430   -5.6240 C   0  0  0  0  0
   29.4030    5.0770   -6.3980 N   0  0  0  0  0
   30.1060    5.4050   -7.5570 C   0  0  0  0  0
   30.0660    6.8750   -7.9330 C   0  0  0  0  0
   29.1840    9.1250   -7.3020 N   0  0  0  0  0
   27.9980    5.6470   -4.4980 N   0  0  0  0  0
   30.6870    4.4890   -8.2030 O   0  0  0  0  0
   30.7900    7.3540   -9.1320 C   0  0  0  0  0
   28.5500   10.2460   -6.5870 C   0  0  0  0  0
   28.6730   10.1800   -5.0540 C   0  0  0  0  0
   28.3630   11.6190   -4.5680 C   0  0  0  0  0
   28.6960   12.5010   -5.7690 C   0  0  0  0  0
   29.3010   11.5670   -6.8170 C   0  0  0  0  0
   27.7590    9.2630   -4.4810 O   0  0  0  0  0
   26.9960   11.8770   -4.1550 O   0  0  0  0  0
   29.5030   13.7590   -5.4140 C   0  0  0  0  0
   29.1520   14.7890   -6.3360 O   0  0  0  0  0
   27.9780    4.4410   -3.7090 C   0  0  0  0  0
   26.6920    4.0520   -2.9930 C   0  0  0  0  0
   27.8380    4.6730   -2.2160 C   0  0  0  0  0
   31.9060    6.3100   -9.9720 S   0  0  0  0  0
   32.4900    7.6690  -10.9170 C   0  0  0  0  0
   31.7180    8.8210  -10.6090 C   0  0  0  0  0
   30.7820    8.6280   -9.5890 N   0  0  0  0  0
   33.5740    7.7470  -11.8240 C   0  0  0  0  0
   33.8940    9.0010  -12.4750 C   0  0  0  0  0
   33.1030   10.1380  -12.2250 C   0  0  0  0  0
   32.0270   10.0450  -11.2800 C   0  0  0  0  0
   28.1806    7.9555   -5.4239 H   0  0  0  0  0
   29.6214    9.4369   -8.1690 H   0  0  0  0  0
   27.3547    6.3611   -4.1566 H   0  0  0  0  0
   27.5262   10.1890   -6.9568 H   0  0  0  0  0
   29.6630    9.8339   -4.7570 H   0  0  0  0  0
   28.9430   11.8103   -3.6652 H   0  0  0  0  0
   27.8060   12.9691   -6.1895 H   0  0  0  0  0
   29.1854   11.9446   -7.8330 H   0  0  0  0  0
   30.3806   11.4603   -6.7114 H   0  0  0  0  0
   27.8709    9.2549   -3.5276 H   0  0  0  0  0
   26.9147   12.7916   -3.8749 H   0  0  0  0  0
   30.5708   13.5489   -5.4758 H   0  0  0  0  0
   29.2761   14.0746   -4.3957 H   0  0  0  0  0
   29.6477   15.5847   -6.1291 H   0  0  0  0  0
   28.6543    3.9031   -4.3734 H   0  0  0  0  0
   26.0234    3.1943   -2.9197 H   0  0  0  0  0
   25.6167    4.1851   -3.1118 H   0  0  0  0  0
   27.9950    5.4773   -1.4972 H   0  0  0  0  0
   28.4037    4.4815   -1.3042 H   0  0  0  0  0
   34.1708    6.8593  -12.0336 H   0  0  0  0  0
   34.7434    9.0637  -13.1552 H   0  0  0  0  0
   33.3049   11.0761  -12.7420 H   0  0  0  0  0
   31.4292   10.9315  -11.0681 H   0  0  0  0  0
  1  2  1  0  0  0
  1  6  2  0  0  0
  1  7  1  0  0  0
  2  3  1  0  0  0
  3  4  4  0  0  0
  3  8  1  0  0  0
  4  5  1  0  0  0
  5  6  1  0  0  0
  5  9  2  0  0  0
  6 10  1  0  0  0
  7 11  1  0  0  0
  8 20  1  0  0  0
 10 23  4  0  0  0
 10 26  4  0  0  0
 11 12  1  0  0  0
 11 15  1  0  0  0
 12 13  1  0  0  0
 12 16  1  0  0  0
 13 14  1  0  0  0
 13 17  1  0  0  0
 14 15  1  0  0  0
 14 18  1  0  0  0
 18 19  1  0  0  0
 20 21  1  0  0  0
 20 22  1  0  0  0
 21 22  1  0  0  0
 23 24  4  0  0  0
 24 25  4  0  0  0
 24 27  4  0  0  0
 25 26  4  0  0  0
 25 30  4  0  0  0
 27 28  4  0  0  0
 28 29  4  0  0  0
 29 30  4  0  0  0
  2 31  1  0  0  0
  7 32  1  0  0  0
  8 33  1  0  0  0
 11 34  1  0  0  0
 12 35  1  0  0  0
 13 36  1  0  0  0
 14 37  1  0  0  0
 15 38  1  0  0  0
 15 39  1  0  0  0
 16 40  1  0  0  0
 17 41  1  0  0  0
 18 42  1  0  0  0
 18 43  1  0  0  0
 19 44  1  0  0  0
 20 45  1  0  0  0
 21 46  1  0  0  0
 21 47  1  0  0  0
 22 48  1  0  0  0
 22 49  1  0  0  0
 27 50  1  0  0  0
 28 51  1  0  0  0
 29 52  1  0  0  0
 30 53  1  0  0  0
M  END
$$$$
