3tc5_ligand
  -I-interpret- 

 62 65  0  0  0  0  0  0  0  0999 V2000
   37.9660  -11.4600   16.0100 F   0  0  0  0  0
   43.1900  -17.7430   13.2270 P   0  0  0  0  0
   37.9350  -16.0040   16.3660 C   0  0  0  0  0
   38.9410  -14.0300   18.3400 O   0  0  0  0  0
   38.2880  -14.8620   15.4010 C   0  0  0  0  0
   37.0880   -7.4820   18.6000 O   0  0  0  0  0
   39.4660  -14.0280   15.9440 C   0  0  0  0  0
   39.0860  -14.3910   13.1320 O   0  0  0  0  0
   39.0350  -13.1850   17.1780 C   0  0  0  0  0
   38.9320  -17.7810   13.9730 O   0  0  0  0  0
   37.7300  -12.3650   16.9590 C   0  0  0  0  0
   41.6540  -17.6710   13.8230 O   0  0  0  0  0
   43.0790  -17.7940   11.6270 O   0  0  0  0  0
   37.2920  -11.5890   18.2210 C   0  0  0  0  0
   43.8360  -16.3180   13.6070 O   0  0  0  0  0
   36.8800  -12.5070   19.3790 C   0  0  0  0  0
   43.9510  -18.8980   13.7550 O   0  0  0  0  0
   38.3410  -10.7900   18.6800 C   0  0  0  0  0
   38.2580   -9.4060   18.8110 C   0  0  0  0  0
   37.1110   -8.7050   18.4600 C   0  0  0  0  0
   36.0020   -9.3870   17.9690 C   0  0  0  0  0
   36.0500  -10.7750   17.8400 C   0  0  0  0  0
   34.8630  -11.5550   17.2820 C   0  0  0  0  0
   35.3240  -12.4170   16.0920 C   0  0  0  0  0
   36.5890  -13.2450   16.4000 C   0  0  0  0  0
   37.0980  -13.9520   15.1390 C   0  0  0  0  0
   36.1200  -14.8650   14.4000 C   0  0  0  0  0
   37.0510  -15.7190   13.5120 C   0  0  0  0  0
   36.8390  -15.4120   12.0210 C   0  0  0  0  0
   38.4960  -15.3980   13.9720 C   0  0  0  0  0
   39.4020  -16.6430   13.9270 C   0  0  0  0  0
   40.9170  -16.4350   13.7880 C   0  0  0  0  0
   38.8002  -16.6557   16.4876 H   0  0  0  0  0
   37.6539  -15.5870   17.3330 H   0  0  0  0  0
   37.1014  -16.5767   15.9596 H   0  0  0  0  0
   38.6747  -13.5029   19.0969 H   0  0  0  0  0
   39.8037  -13.3503   15.1599 H   0  0  0  0  0
   40.2630  -14.7070   16.2471 H   0  0  0  0  0
   39.9788  -14.2073   13.4334 H   0  0  0  0  0
   39.8126  -12.4376   17.3357 H   0  0  0  0  0
   42.5814  -17.0336   11.3175 H   0  0  0  0  0
   43.2975  -15.6148   13.2366 H   0  0  0  0  0
   36.0422  -13.1303   19.0664 H   0  0  0  0  0
   37.7225  -13.1407   19.6560 H   0  0  0  0  0
   36.5836  -11.9000   20.2344 H   0  0  0  0  0
   39.2777  -11.2769   18.9511 H   0  0  0  0  0
   39.1163   -8.8578   19.1995 H   0  0  0  0  0
   35.1021   -8.8404   17.6872 H   0  0  0  0  0
   34.0960  -10.8566   16.9474 H   0  0  0  0  0
   34.4559  -12.2005   18.0603 H   0  0  0  0  0
   35.5605  -11.7446   15.2674 H   0  0  0  0  0
   34.5202  -13.1146   15.8568 H   0  0  0  0  0
   36.3036  -13.9797   17.1529 H   0  0  0  0  0
   37.3238  -13.0770   14.5295 H   0  0  0  0  0
   35.3762  -14.3127   13.8258 H   0  0  0  0  0
   35.5092  -15.4656   15.0740 H   0  0  0  0  0
   36.8389  -16.7826   13.6209 H   0  0  0  0  0
   35.8058  -15.6293   11.7500 H   0  0  0  0  0
   37.0513  -14.3593   11.8344 H   0  0  0  0  0
   37.5101  -16.0305   11.4250 H   0  0  0  0  0
   41.1024  -15.9624   12.8234 H   0  0  0  0  0
   41.2489  -15.8240   14.6274 H   0  0  0  0  0
 11  1  1  0  0  0
 12  2  1  0  0  0
  2 13  1  0  0  0
  2 15  1  0  0  0
  2 17  2  0  0  0
  5  3  1  0  0  0
  9  4  1  0  0  0
  5  7  1  0  0  0
  5 26  1  0  0  0
 30  5  1  0  0  0
 20  6  2  0  0  0
  7  9  1  0  0  0
 30  8  1  0  0  0
  9 11  1  0  0  0
 31 10  2  0  0  0
 11 14  1  0  0  0
 25 11  1  0  0  0
 32 12  1  0  0  0
 14 16  1  0  0  0
 14 18  1  0  0  0
 14 22  1  0  0  0
 18 19  2  0  0  0
 19 20  1  0  0  0
 21 20  1  0  0  0
 22 21  2  0  0  0
 23 22  1  0  0  0
 24 23  1  0  0  0
 25 24  1  0  0  0
 26 25  1  0  0  0
 27 26  1  0  0  0
 28 27  1  0  0  0
 28 29  1  0  0  0
 30 28  1  0  0  0
 31 30  1  0  0  0
 31 32  1  0  0  0
  3 33  1  0  0  0
  3 34  1  0  0  0
  3 35  1  0  0  0
  4 36  1  0  0  0
  7 37  1  0  0  0
  7 38  1  0  0  0
  8 39  1  0  0  0
  9 40  1  0  0  0
 13 41  1  0  0  0
 15 42  1  0  0  0
 16 43  1  0  0  0
 16 44  1  0  0  0
 16 45  1  0  0  0
 18 46  1  0  0  0
 19 47  1  0  0  0
 21 48  1  0  0  0
 23 49  1  0  0  0
 23 50  1  0  0  0
 24 51  1  0  0  0
 24 52  1  0  0  0
 25 53  1  0  0  0
 26 54  1  0  0  0
 27 55  1  0  0  0
 27 56  1  0  0  0
 28 57  1  0  0  0
 29 58  1  0  0  0
 29 59  1  0  0  0
 29 60  1  0  0  0
 32 61  1  0  0  0
 32 62  1  0  0  0
M  END
$$$$
