### 
### Created by X-TOOL on Mon Sep 10 21:13:06 2018
### 

@<TRIPOS>MOLECULE
3tc5_ligand
   60    63     1     0     0
SMALL
GAST_HUCK


@<TRIPOS>ATOM
      1 F          37.9660  -11.4600   16.0100 F         1 3T5        -0.2564
      2 P          43.1900  -17.7430   13.2270 P.3       1 3T5         0.2041
      3 C1         37.9350  -16.0040   16.3660 C.3       1 3T5        -0.0576
      4 O1         38.9410  -14.0300   18.3400 O.3       1 3T5        -0.3901
      5 C2         38.2880  -14.8620   15.4010 C.3       1 3T5         0.0079
      6 O2         37.0880   -7.4820   18.6000 O.2       1 3T5        -0.2667
      7 C3         39.4660  -14.0280   15.9440 C.3       1 3T5        -0.0180
      8 O3         39.0860  -14.3910   13.1320 O.3       1 3T5        -0.3849
      9 C4         39.0350  -13.1850   17.1780 C.3       1 3T5         0.0761
     10 O4         38.9320  -17.7810   13.9730 O.2       1 3T5        -0.3268
     11 C5         37.7300  -12.3650   16.9590 C.3       1 3T5         0.1042
     12 O5         41.6540  -17.6710   13.8230 O.3       1 3T5        -0.2576
     13 O6         43.0790  -17.7940   11.6270 O.co2     1 3T5        -0.5536
     14 C7         37.2920  -11.5890   18.2210 C.3       1 3T5        -0.0156
     15 O7         43.8360  -16.3180   13.6070 O.co2     1 3T5        -0.5536
     16 C8         36.8800  -12.5070   19.3790 C.3       1 3T5        -0.1015
     17 O8         43.9510  -18.8980   13.7550 O.co2     1 3T5        -0.5536
     18 C9         38.3410  -10.7900   18.6800 C.2       1 3T5        -0.0937
     19 C10        38.2580   -9.4060   18.8110 C.2       1 3T5         0.0360
     20 C11        37.1110   -8.7050   18.4600 C.2       1 3T5         0.2468
     21 C12        36.0020   -9.3870   17.9690 C.2       1 3T5         0.0346
     22 C13        36.0500  -10.7750   17.8400 C.2       1 3T5        -0.0755
     23 C14        34.8630  -11.5550   17.2820 C.3       1 3T5        -0.0268
     24 C15        35.3240  -12.4170   16.0920 C.3       1 3T5        -0.0384
     25 C16        36.5890  -13.2450   16.4000 C.3       1 3T5        -0.0131
     26 C17        37.0980  -13.9520   15.1390 C.3       1 3T5        -0.0292
     27 C18        36.1200  -14.8650   14.4000 C.3       1 3T5        -0.0453
     28 C19        37.0510  -15.7190   13.5120 C.3       1 3T5        -0.0088
     29 C20        36.8390  -15.4120   12.0210 C.3       1 3T5        -0.0608
     30 C21        38.4960  -15.3980   13.9720 C.3       1 3T5         0.1391
     31 C22        39.4020  -16.6430   13.9270 C.2       1 3T5         0.1892
     32 C23        40.9170  -16.4350   13.7880 C.3       1 3T5         0.1551
     33 H          38.8002  -16.6557   16.4876 H         1 3T5         0.0234
     34 H          37.6539  -15.5870   17.3330 H         1 3T5         0.0234
     35 H          37.1014  -16.5767   15.9596 H         1 3T5         0.0234
     36 H          38.6747  -13.5029   19.0969 H         1 3T5         0.2098
     37 H          39.8037  -13.3503   15.1599 H         1 3T5         0.0295
     38 H          40.2630  -14.7070   16.2471 H         1 3T5         0.0295
     39 H          39.2071  -14.7443   12.2476 H         1 3T5         0.2077
     40 H          39.8126  -12.4376   17.3357 H         1 3T5         0.0610
     41 H          36.0422  -13.1303   19.0664 H         1 3T5         0.0057
     42 H          37.7225  -13.1407   19.6560 H         1 3T5         0.0057
     43 H          36.5836  -11.9000   20.2344 H         1 3T5         0.0057
     44 H          39.2777  -11.2769   18.9511 H         1 3T5         0.0522
     45 H          39.1163   -8.8578   19.1995 H         1 3T5         0.1206
     46 H          35.1021   -8.8404   17.6872 H         1 3T5         0.1051
     47 H          34.0960  -10.8566   16.9474 H         1 3T5         0.0436
     48 H          34.4559  -12.2005   18.0603 H         1 3T5         0.0436
     49 H          35.5605  -11.7446   15.2674 H         1 3T5         0.0293
     50 H          34.5202  -13.1146   15.8568 H         1 3T5         0.0293
     51 H          36.3036  -13.9797   17.1529 H         1 3T5         0.0322
     52 H          37.3238  -13.0770   14.5295 H         1 3T5         0.0308
     53 H          35.3762  -14.3127   13.8258 H         1 3T5         0.0270
     54 H          35.5092  -15.4656   15.0740 H         1 3T5         0.0270
     55 H          36.8389  -16.7826   13.6209 H         1 3T5         0.0311
     56 H          35.8058  -15.6293   11.7500 H         1 3T5         0.0232
     57 H          37.0513  -14.3593   11.8344 H         1 3T5         0.0232
     58 H          37.5101  -16.0305   11.4250 H         1 3T5         0.0232
     59 H          41.1024  -15.9624   12.8234 H         1 3T5         0.0842
     60 H          41.2489  -15.8240   14.6274 H         1 3T5         0.0842
@<TRIPOS>BOND
     1   11    1 1  
     2   12    2 1  
     3    2   13 ar 
     4    2   15 ar 
     5    2   17 ar 
     6    5    3 1  
     7    9    4 1  
     8    5    7 1  
     9    5   26 1  
    10   30    5 1  
    11   20    6 2  
    12    7    9 1  
    13   30    8 1  
    14    9   11 1  
    15   31   10 2  
    16   11   14 1  
    17   25   11 1  
    18   32   12 1  
    19   14   16 1  
    20   14   18 1  
    21   14   22 1  
    22   18   19 2  
    23   19   20 1  
    24   21   20 1  
    25   22   21 2  
    26   23   22 1  
    27   24   23 1  
    28   25   24 1  
    29   26   25 1  
    30   27   26 1  
    31   28   27 1  
    32   28   29 1  
    33   30   28 1  
    34   31   30 1  
    35   31   32 1  
    36    3   33 1  
    37    3   34 1  
    38    3   35 1  
    39    4   36 1  
    40    7   37 1  
    41    7   38 1  
    42    8   39 1  
    43    9   40 1  
    44   16   41 1  
    45   16   42 1  
    46   16   43 1  
    47   18   44 1  
    48   19   45 1  
    49   21   46 1  
    50   23   47 1  
    51   23   48 1  
    52   24   49 1  
    53   24   50 1  
    54   25   51 1  
    55   26   52 1  
    56   27   53 1  
    57   27   54 1  
    58   28   55 1  
    59   29   56 1  
    60   29   57 1  
    61   29   58 1  
    62   32   59 1  
    63   32   60 1  
@<TRIPOS>SUBSTRUCTURE
     1 3T5         1

