3k3a_ligand
  -I-interpret- 

 45 45  0  0  0  0  0  0  0  0999 V2000
  -10.4550  -28.4260  -13.8380 C   0  0  0  0  0
  -10.4410  -27.8540  -12.7150 O   0  0  0  0  0
  -10.6240  -29.6120  -14.0270 O   0  0  0  0  0
  -10.0320  -27.6750  -14.8490 C   0  0  0  0  0
   -9.7990  -26.2270  -14.5020 C   0  0  0  0  0
   -8.7580  -25.6160  -15.4680 C   0  0  0  0  0
   -8.8030  -26.3860  -16.8060 C   0  0  0  0  0
   -7.7760  -25.7500  -17.6650 N   0  0  0  0  0
   -7.6880  -24.7780  -18.5730 C   0  0  0  0  0
   -8.6470  -24.2420  -19.0970 O   0  0  0  0  0
   -6.3030  -24.3790  -19.0440 C   0  0  0  0  0
   -8.6970  -27.8430  -16.8930 C   0  0  0  0  0
   -9.7080  -28.3830  -15.9090 C   0  0  0  0  0
   -8.8760  -28.2020  -18.3110 O   0  0  0  0  0
   -8.0080  -29.2810  -18.7050 C   0  0  0  0  0
   -7.9900  -29.4270  -20.2170 C   0  0  0  0  0
   -8.3930  -30.6240  -18.0740 C   0  0  0  0  0
   -9.8290  -30.9120  -18.5250 C   0  0  0  0  0
   -7.6530  -28.1180  -20.8180 C   0  0  0  0  0
   -8.9510  -24.1430  -15.7420 N   0  3  0  0  0
  -10.2892  -26.9141  -12.8378 H   0  0  0  0  0
   -9.4259  -26.1575  -13.4802 H   0  0  0  0  0
  -10.7376  -25.6800  -14.5918 H   0  0  0  0  0
   -7.7904  -25.7107  -14.9751 H   0  0  0  0  0
   -9.8474  -26.2967  -17.1049 H   0  0  0  0  0
   -6.8657  -26.1858  -17.5174 H   0  0  0  0  0
   -6.2048  -24.5988  -20.1071 H   0  0  0  0  0
   -6.1574  -23.3117  -18.8773 H   0  0  0  0  0
   -5.5547  -24.9407  -18.4849 H   0  0  0  0  0
   -7.7387  -28.2810  -16.6139 H   0  0  0  0  0
  -10.1678  -29.3569  -16.0770 H   0  0  0  0  0
   -7.0152  -29.0184  -18.3395 H   0  0  0  0  0
   -8.9687  -29.7539  -20.5683 H   0  0  0  0  0
   -7.2467  -30.1694  -20.5077 H   0  0  0  0  0
   -8.3234  -30.5819  -16.9870 H   0  0  0  0  0
   -7.7150  -31.4162  -18.3915 H   0  0  0  0  0
  -10.4845  -30.1130  -18.1785 H   0  0  0  0  0
   -9.8629  -30.9653  -19.6132 H   0  0  0  0  0
  -10.1574  -31.8618  -18.1030 H   0  0  0  0  0
   -8.4021  -27.3820  -20.5262 H   0  0  0  0  0
   -6.6721  -27.7994  -20.4653 H   0  0  0  0  0
   -7.6373  -28.2114  -21.9039 H   0  0  0  0  0
   -8.9224  -23.6281  -14.8620 H   0  0  0  0  0
   -8.2062  -23.8120  -16.3553 H   0  0  0  0  0
   -9.8543  -23.9978  -16.1930 H   0  0  0  0  0
  1  2  1  0  0  0
  1  3  2  0  0  0
  1  4  1  0  0  0
  4  5  1  0  0  0
  4 13  2  0  0  0
  5  6  1  0  0  0
  6  7  1  0  0  0
  6 20  1  0  0  0
  7  8  1  0  0  0
  7 12  1  0  0  0
  8  9  1  0  0  0
  9 10  2  0  0  0
  9 11  1  0  0  0
 12 13  1  0  0  0
 12 14  1  0  0  0
 14 15  1  0  0  0
 15 16  1  0  0  0
 15 17  1  0  0  0
 16 19  1  0  0  0
 17 18  1  0  0  0
  2 21  1  0  0  0
  5 22  1  0  0  0
  5 23  1  0  0  0
  6 24  1  0  0  0
  7 25  1  0  0  0
  8 26  1  0  0  0
 11 27  1  0  0  0
 11 28  1  0  0  0
 11 29  1  0  0  0
 12 30  1  0  0  0
 13 31  1  0  0  0
 15 32  1  0  0  0
 16 33  1  0  0  0
 16 34  1  0  0  0
 17 35  1  0  0  0
 17 36  1  0  0  0
 18 37  1  0  0  0
 18 38  1  0  0  0
 18 39  1  0  0  0
 19 40  1  0  0  0
 19 41  1  0  0  0
 19 42  1  0  0  0
 20 43  1  0  0  0
 20 44  1  0  0  0
 20 45  1  0  0  0
M  END
$$$$
