1ikw_ligand
  -I-interpret- 

 30 32  0  0  0  0  0  0  0  0999 V2000
   -7.0580  146.0360  175.8400 Cl  0  0  0  0  0
  -12.0580  145.1600  174.8030 F   0  0  0  0  0
  -11.9300  144.5790  172.6110 F   0  0  0  0  0
  -13.2680  143.4330  173.9990 F   0  0  0  0  0
  -10.8650  141.1570  171.3080 O   0  0  0  0  0
  -10.9920  141.8560  173.4180 O   0  0  0  0  0
   -9.3010  142.7160  171.8850 N   0  0  0  0  0
   -8.7220  143.5640  172.8590 C   0  0  0  0  0
   -7.4330  144.1570  172.6480 C   0  0  0  0  0
   -6.8570  145.0020  173.6550 C   0  0  0  0  0
   -7.5710  145.2540  174.8720 C   0  0  0  0  0
   -8.8540  144.6570  175.0620 C   0  0  0  0  0
   -9.4650  143.8010  174.0690 C   0  0  0  0  0
  -10.8690  143.0970  174.2060 C   0  0  0  0  0
  -10.9970  142.5760  175.5730 C   0  0  0  0  0
  -11.2010  142.0780  176.8030 C   0  0  0  0  0
  -11.3910  141.4730  178.1030 C   0  0  0  0  0
  -10.7410  140.2320  178.5780 C   0  0  0  0  0
  -10.1040  141.6150  178.9340 C   0  0  0  0  0
  -12.0590  144.1020  173.9050 C   0  0  0  0  0
  -10.4100  141.8780  172.1860 C   0  0  0  0  0
   -8.9125  142.7056  170.9419 H   0  0  0  0  0
   -6.8905  143.9657  171.7221 H   0  0  0  0  0
   -5.8772  145.4518  173.4944 H   0  0  0  0  0
   -9.3926  144.8535  175.9891 H   0  0  0  0  0
  -12.4521  141.7206  178.1313 H   0  0  0  0  0
  -10.4236  139.2733  178.1677 H   0  0  0  0  0
  -11.0235  139.3122  179.0901 H   0  0  0  0  0
   -9.7092  142.1657  179.7878 H   0  0  0  0  0
   -9.1429  142.1290  178.9171 H   0  0  0  0  0
 11  1  1  0  0  0
 20  2  1  0  0  0
 20  3  1  0  0  0
 20  4  1  0  0  0
 21  5  2  0  0  0
 14  6  1  0  0  0
  6 21  1  0  0  0
  8  7  1  0  0  0
 21  7  1  0  0  0
  8  9  4  0  0  0
 13  8  4  0  0  0
  9 10  4  0  0  0
 11 10  4  0  0  0
 12 11  4  0  0  0
 13 12  4  0  0  0
 14 13  1  0  0  0
 14 15  1  0  0  0
 14 20  1  0  0  0
 15 16  3  0  0  0
 16 17  1  0  0  0
 17 18  1  0  0  0
 17 19  1  0  0  0
 18 19  1  0  0  0
  7 22  1  0  0  0
  9 23  1  0  0  0
 10 24  1  0  0  0
 12 25  1  0  0  0
 17 26  1  0  0  0
 18 27  1  0  0  0
 18 28  1  0  0  0
 19 29  1  0  0  0
 19 30  1  0  0  0
M  END
$$$$
