6d1x_ligand
  -I-interpret- 

 41 43  0  0  0  0  0  0  0  0999 V2000
   26.4620   14.5970   22.0710 C   0  0  0  0  0
   27.5310   15.0920   22.4590 O   0  0  0  0  0
   26.2480   13.2800   22.0120 N   0  0  0  0  0
   27.2620   12.3410   22.3900 C   0  0  0  0  0
   27.8780   11.7820   21.1040 C   0  0  0  0  0
   26.8980   11.9380   19.9360 C   0  0  0  0  0
   25.3230   15.4540   21.6510 C   0  0  0  0  0
   24.8400   16.1270   22.7800 O   0  0  0  0  0
   25.6560   16.4590   20.5720 C   0  0  0  0  0
   25.4720   15.9350   19.2790 O   0  0  0  0  0
   24.6940   17.5560   20.9920 C   0  0  0  0  0
   23.4600   17.2440   20.3320 O   0  0  0  0  0
   24.5420   17.4710   22.5500 C   0  0  0  0  0
   25.5130   18.3550   23.2160 N   0  0  0  0  0
   26.7240   18.0980   23.8250 C   0  0  0  0  0
   27.2700   19.1890   24.3080 N   0  0  0  0  0
   26.3470   20.1920   23.9910 C   0  0  0  0  0
   26.2790   21.6050   24.2170 C   0  0  0  0  0
   27.2600   22.2700   24.8260 N   0  0  0  0  0
   25.1750   22.2820   23.7570 N   0  0  0  0  0
   24.1850   21.6420   23.1090 C   0  0  0  0  0
   24.1130   20.3330   22.8380 N   0  0  0  0  0
   25.2510   19.6930   23.3210 C   0  0  0  0  0
   25.3433   12.9353   21.6910 H   0  0  0  0  0
   26.8319   11.5365   22.9865 H   0  0  0  0  0
   28.0251   12.8290   22.9963 H   0  0  0  0  0
   28.0993   10.7241   21.2451 H   0  0  0  0  0
   28.7921   12.3312   20.8784 H   0  0  0  0  0
   25.9801   11.3938   20.1584 H   0  0  0  0  0
   26.6701   12.9943   19.7932 H   0  0  0  0  0
   27.3492   11.5364   19.0287 H   0  0  0  0  0
   24.5756   14.7917   21.2142 H   0  0  0  0  0
   26.6918   16.7900   20.4967 H   0  0  0  0  0
   25.6945   16.6052   18.6287 H   0  0  0  0  0
   25.0220   18.5625   20.7320 H   0  0  0  0  0
   22.8018   17.9055   20.5573 H   0  0  0  0  0
   23.5678   17.7807   22.9283 H   0  0  0  0  0
   27.1733   17.1075   23.8963 H   0  0  0  0  0
   28.0907   21.7726   25.1468 H   0  0  0  0  0
   27.1802   23.2764   24.9714 H   0  0  0  0  0
   23.3513   22.2556   22.7677 H   0  0  0  0  0
  1  2  2  0  0  0
  1  3  1  0  0  0
  1  7  1  0  0  0
  3  4  1  0  0  0
  4  5  1  0  0  0
  5  6  1  0  0  0
  7  8  1  0  0  0
  7  9  1  0  0  0
  8 13  1  0  0  0
  9 10  1  0  0  0
  9 11  1  0  0  0
 11 12  1  0  0  0
 11 13  1  0  0  0
 13 14  1  0  0  0
 14 15  4  0  0  0
 14 23  4  0  0  0
 15 16  4  0  0  0
 16 17  4  0  0  0
 17 18  4  0  0  0
 17 23  4  0  0  0
 18 19  1  0  0  0
 18 20  4  0  0  0
 20 21  4  0  0  0
 21 22  4  0  0  0
 22 23  4  0  0  0
  3 24  1  0  0  0
  4 25  1  0  0  0
  4 26  1  0  0  0
  5 27  1  0  0  0
  5 28  1  0  0  0
  6 29  1  0  0  0
  6 30  1  0  0  0
  6 31  1  0  0  0
  7 32  1  0  0  0
  9 33  1  0  0  0
 10 34  1  0  0  0
 11 35  1  0  0  0
 12 36  1  0  0  0
 13 37  1  0  0  0
 15 38  1  0  0  0
 19 39  1  0  0  0
 19 40  1  0  0  0
 21 41  1  0  0  0
M  END
$$$$
