1k06_ligand
  -I-interpret- 

 41 42  0  0  0  0  0  0  0  0999 V2000
   33.1100   21.5100   28.3840 O   0  0  0  0  0
   33.2740   22.9230   28.0680 C   0  0  0  0  0
   33.7430   23.1030   26.5760 C   0  0  0  0  0
   33.9270   24.4960   26.2810 O   0  0  0  0  0
   32.6530   22.4710   25.6550 C   0  0  0  0  0
   33.0420   22.6130   24.2810 O   0  0  0  0  0
   32.5080   20.9830   26.0360 C   0  0  0  0  0
   31.5000   20.3850   25.2030 O   0  0  0  0  0
   32.1280   20.8610   27.5430 C   0  0  0  0  0
   32.0230   19.3760   27.9840 C   0  0  0  0  0
   33.2020   18.6690   27.5350 O   0  0  0  0  0
   34.2330   23.4910   29.0030 N   0  0  0  0  0
   33.8060   24.1330   30.1390 C   0  0  0  0  0
   32.5820   24.2130   30.3440 O   0  0  0  0  0
   34.7020   24.6680   31.0290 N   0  0  0  0  0
   34.3990   25.3220   32.2000 C   0  0  0  0  0
   33.2410   25.5190   32.5960 O   0  0  0  0  0
   35.5240   25.8380   33.0700 C   0  0  0  0  0
   36.7620   26.2740   32.5040 C   0  0  0  0  0
   37.8070   26.7480   33.3380 C   0  0  0  0  0
   37.6230   26.7940   34.7600 C   0  0  0  0  0
   36.3950   26.3610   35.3350 C   0  0  0  0  0
   35.3490   25.8850   34.4950 C   0  0  0  0  0
   32.3231   23.4465   28.1673 H   0  0  0  0  0
   34.6988   22.6065   26.4085 H   0  0  0  0  0
   34.6011   24.8584   26.8606 H   0  0  0  0  0
   31.6954   22.9748   25.7867 H   0  0  0  0  0
   33.1256   23.5453   24.0680 H   0  0  0  0  0
   33.4521   20.4611   25.8802 H   0  0  0  0  0
   31.7550   20.4720   24.2816 H   0  0  0  0  0
   31.1594   21.3476   27.6578 H   0  0  0  0  0
   31.1332   18.9238   27.5459 H   0  0  0  0  0
   31.9504   19.3186   29.0701 H   0  0  0  0  0
   33.1442   17.7493   27.8042 H   0  0  0  0  0
   35.2320   23.4115   28.8128 H   0  0  0  0  0
   35.6911   24.5711   30.7995 H   0  0  0  0  0
   36.9041   26.2420   31.4238 H   0  0  0  0  0
   38.7488   27.0769   32.8989 H   0  0  0  0  0
   38.4246   27.1610   35.4010 H   0  0  0  0  0
   36.2560   26.3938   36.4156 H   0  0  0  0  0
   34.4088   25.5539   34.9361 H   0  0  0  0  0
  1  2  1  0  0  0
  1  9  1  0  0  0
  2  3  1  0  0  0
  2 12  1  0  0  0
  3  4  1  0  0  0
  3  5  1  0  0  0
  5  6  1  0  0  0
  5  7  1  0  0  0
  7  8  1  0  0  0
  7  9  1  0  0  0
  9 10  1  0  0  0
 10 11  1  0  0  0
 12 13  1  0  0  0
 13 14  2  0  0  0
 13 15  1  0  0  0
 15 16  1  0  0  0
 16 17  2  0  0  0
 16 18  1  0  0  0
 18 19  4  0  0  0
 18 23  4  0  0  0
 19 20  4  0  0  0
 20 21  4  0  0  0
 21 22  4  0  0  0
 22 23  4  0  0  0
  2 24  1  0  0  0
  3 25  1  0  0  0
  4 26  1  0  0  0
  5 27  1  0  0  0
  6 28  1  0  0  0
  7 29  1  0  0  0
  8 30  1  0  0  0
  9 31  1  0  0  0
 10 32  1  0  0  0
 10 33  1  0  0  0
 11 34  1  0  0  0
 12 35  1  0  0  0
 15 36  1  0  0  0
 19 37  1  0  0  0
 20 38  1  0  0  0
 21 39  1  0  0  0
 22 40  1  0  0  0
 23 41  1  0  0  0
M  END
$$$$
