1kmv_ligand
  -I-interpret- 

 44 46  0  0  0  0  0  0  0  0999 V2000
   13.7320   24.1770   32.2440 C   0  0  0  0  0
   15.0590   24.2740   31.7180 C   0  0  0  0  0
   14.6820   22.5230   30.2630 C   0  0  0  0  0
   12.8780   23.3290   31.5750 C   0  0  0  0  0
   13.1900   24.9470   33.3790 C   0  0  0  0  0
   11.8790   24.9590   33.5350 C   0  0  0  0  0
   11.0050   23.9870   32.7670 C   0  0  0  0  0
   14.0540   25.6400   34.3650 C   0  0  0  0  0
   11.0920   25.9000   34.4630 C   0  0  0  0  0
    9.6990   24.1260   35.8350 C   0  0  0  0  0
   10.5750   23.1020   36.1780 C   0  0  0  0  0
   10.0870   21.8830   36.5780 C   0  0  0  0  0
    8.7060   21.6770   36.6270 C   0  0  0  0  0
    7.8140   22.6790   36.2890 C   0  0  0  0  0
    8.3300   23.8990   35.8950 C   0  0  0  0  0
   10.1650   25.5060   35.3870 C   0  0  0  0  0
   12.6970   22.2420   36.0020 C   0  0  0  0  0
    5.6270   23.6940   36.2150 C   0  0  0  0  0
   15.5040   23.4370   30.7740 N   0  0  0  0  0
   13.3990   22.4420   30.6080 N   0  0  0  0  0
   11.5550   23.2240   31.8130 N   0  0  0  0  0
   15.9540   25.1520   32.1230 N   0  0  0  0  0
   15.1430   21.6620   29.3730 N   0  0  0  0  0
   11.9030   23.4250   36.0890 O   0  0  0  0  0
    6.4510   22.5660   36.3120 O   0  0  0  0  0
    9.9406   23.9098   32.9886 H   0  0  0  0  0
   14.6959   24.9109   34.8595 H   0  0  0  0  0
   14.6694   26.3785   33.8512 H   0  0  0  0  0
   13.4295   26.1382   35.1066 H   0  0  0  0  0
   11.2897   26.9684   34.3767 H   0  0  0  0  0
   10.7718   21.0816   36.8554 H   0  0  0  0  0
    8.3229   20.7052   36.9385 H   0  0  0  0  0
    7.6456   24.7031   35.6246 H   0  0  0  0  0
    9.6675   26.3307   35.8973 H   0  0  0  0  0
   12.5376   21.6328   36.8917 H   0  0  0  0  0
   12.4081   21.6764   35.1162 H   0  0  0  0  0
   13.7495   22.5167   35.9319 H   0  0  0  0  0
    5.8377   24.3687   37.0447 H   0  0  0  0  0
    5.8214   24.2043   35.2717 H   0  0  0  0  0
    4.5827   23.3839   36.2533 H   0  0  0  0  0
   15.7177   25.8196   32.8571 H   0  0  0  0  0
   16.8832   25.1641   31.7025 H   0  0  0  0  0
   16.1203   21.7017   29.0837 H   0  0  0  0  0
   14.5216   20.9577   28.9753 H   0  0  0  0  0
  1  2  4  0  0  0
  1  4  4  0  0  0
  5  1  4  0  0  0
  2 19  4  0  0  0
  2 22  1  0  0  0
 19  3  4  0  0  0
 20  3  4  0  0  0
  3 23  1  0  0  0
  4 20  4  0  0  0
 21  4  4  0  0  0
  6  5  4  0  0  0
  5  8  1  0  0  0
  6  7  4  0  0  0
  9  6  1  0  0  0
  7 21  4  0  0  0
 16  9  2  0  0  0
 10 11  4  0  0  0
 10 15  4  0  0  0
 10 16  1  0  0  0
 11 12  4  0  0  0
 11 24  1  0  0  0
 12 13  4  0  0  0
 13 14  4  0  0  0
 14 15  4  0  0  0
 14 25  1  0  0  0
 24 17  1  0  0  0
 25 18  1  0  0  0
  7 26  1  0  0  0
  8 27  1  0  0  0
  8 28  1  0  0  0
  8 29  1  0  0  0
  9 30  1  0  0  0
 12 31  1  0  0  0
 13 32  1  0  0  0
 15 33  1  0  0  0
 16 34  1  0  0  0
 17 35  1  0  0  0
 17 36  1  0  0  0
 17 37  1  0  0  0
 18 38  1  0  0  0
 18 39  1  0  0  0
 18 40  1  0  0  0
 22 41  1  0  0  0
 22 42  1  0  0  0
 23 43  1  0  0  0
 23 44  1  0  0  0
M  END
$$$$
