6cee_ligand
  -I-interpret- 

 29 30  0  0  0  0  0  0  0  0999 V2000
   -1.1330    5.4470    4.4780 C   0  0  0  0  0
    3.4560    3.5230    8.2840 C   0  0  0  0  0
   -0.3750    3.9490    6.2030 C   0  0  0  0  0
    0.6870    3.2900    6.8130 N   0  0  0  0  0
    0.4410    2.4750    7.7870 C   0  0  0  0  0
    2.9430    2.1410    7.9900 C   0  0  0  0  0
   -1.1080    1.4200    9.2540 O   0  0  0  0  0
   -0.9350    2.1810    8.3120 C   0  0  0  0  0
    1.5800    1.8200    8.4990 C   0  0  0  0  0
    2.9850    4.1170    9.3660 O   0  0  0  0  0
    4.2900    3.9870    7.5610 O   0  0  0  0  0
   -1.7070    3.7600    6.6140 C   0  0  0  0  0
   -1.9480    2.8690    7.6890 N   0  0  0  0  0
   -3.2930    2.7290    8.2540 C   0  0  0  0  0
   -2.7380    4.4190    5.9430 C   0  0  0  0  0
   -2.4400    5.2570    4.8800 C   0  0  0  0  0
   -0.0980    4.8030    5.1350 C   0  0  0  0  0
   -0.9146    6.1075    3.6389 H   0  0  0  0  0
    3.6236    1.4520    8.4902 H   0  0  0  0  0
    2.8875    2.0627    6.9042 H   0  0  0  0  0
    1.4483    0.7466    8.3627 H   0  0  0  0  0
    1.5453    2.1808    9.5270 H   0  0  0  0  0
    2.3277    3.5523    9.7792 H   0  0  0  0  0
   -3.5899    1.6806    8.2265 H   0  0  0  0  0
   -3.2906    3.0804    9.2858 H   0  0  0  0  0
   -3.9953    3.3223    7.6684 H   0  0  0  0  0
   -3.7729    4.2753    6.2535 H   0  0  0  0  0
   -3.2457    5.7712    4.3561 H   0  0  0  0  0
    0.9325    4.9632    4.8180 H   0  0  0  0  0
  1 16  4  0  0  0
 17  1  4  0  0  0
  6  2  1  0  0  0
  2 10  1  0  0  0
  2 11  2  0  0  0
  4  3  1  0  0  0
  3 12  4  0  0  0
  3 17  4  0  0  0
  5  4  2  0  0  0
  5  8  1  0  0  0
  9  5  1  0  0  0
  6  9  1  0  0  0
  8  7  2  0  0  0
  8 13  1  0  0  0
 12 13  1  0  0  0
 12 15  4  0  0  0
 13 14  1  0  0  0
 15 16  4  0  0  0
  1 18  1  0  0  0
  6 19  1  0  0  0
  6 20  1  0  0  0
  9 21  1  0  0  0
  9 22  1  0  0  0
 10 23  1  0  0  0
 14 24  1  0  0  0
 14 25  1  0  0  0
 14 26  1  0  0  0
 15 27  1  0  0  0
 16 28  1  0  0  0
 17 29  1  0  0  0
M  END
$$$$
