3vi5_ligand
  -I-interpret- 

 47 50  0  0  0  0  0  0  0  0999 V2000
   25.0190    5.1200   66.3190 C   0  0  0  0  0
   25.9850    0.1350   67.5030 N   0  0  0  0  0
   25.9130    2.4050   68.5800 O   0  0  0  0  0
   25.8480   -1.7480   65.2010 S   0  0  0  0  0
   24.7870    6.5040   66.3010 C   0  0  0  0  0
   24.7590    2.5920   62.7060 N   0  0  0  0  0
   27.0990   -2.1430   65.9470 O   0  0  0  0  0
   22.0900    1.1170   57.8430 S   0  0  0  0  0
   24.8590    7.2560   67.4740 C   0  0  0  0  0
   20.8680    0.2980   58.1250 N   0  0  0  0  0
   24.8210   -2.5290   65.9150 O   0  0  0  0  0
   25.2220    6.6390   68.6800 C   0  0  0  0  0
   25.7960   -2.2800   63.7890 O   0  0  0  0  0
   25.4660    5.2520   68.6870 C   0  0  0  0  0
   25.3600    4.4820   67.5170 C   0  0  0  0  0
   21.6980    2.3950   57.1670 O   0  0  0  0  0
   25.6090    3.0030   67.5320 C   0  0  0  0  0
   24.6460    5.0120   64.0050 O   0  0  0  0  0
   25.4940    2.1730   66.3090 C   0  0  0  0  0
   22.9930    0.3690   56.9190 O   0  0  0  0  0
   25.6920    0.6910   66.3300 C   0  0  0  0  0
   25.5900   -0.1000   65.1800 C   0  0  0  0  0
   25.2610    0.5700   63.9840 C   0  0  0  0  0
   25.0510    1.9620   63.8710 C   0  0  0  0  0
   24.1790    2.1190   61.5880 C   0  0  0  0  0
   23.4860    3.0950   60.8640 C   0  0  0  0  0
   22.8270    2.7750   59.6870 C   0  0  0  0  0
   22.8720    1.4490   59.2220 C   0  0  0  0  0
   23.5830    0.4580   59.9550 C   0  0  0  0  0
   24.2490    0.7870   61.1530 C   0  0  0  0  0
   25.1690    2.8560   65.0520 C   0  0  0  0  0
   24.9270    4.3520   65.0520 C   0  0  0  0  0
   26.0654    0.7165   68.3371 H   0  0  0  0  0
   26.1291   -0.8727   67.5680 H   0  0  0  0  0
   24.5476    6.9975   65.3590 H   0  0  0  0  0
   25.0196    3.5776   62.6722 H   0  0  0  0  0
   24.6333    8.3222   67.4531 H   0  0  0  0  0
   19.9475    0.6464   57.8572 H   0  0  0  0  0
   20.9563   -0.6082   58.5849 H   0  0  0  0  0
   25.3137    7.2228   69.5959 H   0  0  0  0  0
   24.9801   -1.9953   63.3708 H   0  0  0  0  0
   25.7435    4.7648   69.6218 H   0  0  0  0  0
   25.1614   -0.0306   63.0799 H   0  0  0  0  0
   23.4639    4.1213   61.2304 H   0  0  0  0  0
   22.2830    3.5388   59.1313 H   0  0  0  0  0
   23.6130   -0.5672   59.5859 H   0  0  0  0  0
   24.7977    0.0349   61.7200 H   0  0  0  0  0
  1  5  4  0  0  0
 15  1  4  0  0  0
  1 32  1  0  0  0
 21  2  1  0  0  0
 17  3  2  0  0  0
  4  7  2  0  0  0
  4 11  2  0  0  0
  4 13  1  0  0  0
 22  4  1  0  0  0
  5  9  4  0  0  0
  6 24  1  0  0  0
 25  6  1  0  0  0
  8 10  1  0  0  0
  8 16  2  0  0  0
  8 20  2  0  0  0
 28  8  1  0  0  0
 12  9  4  0  0  0
 14 12  4  0  0  0
 15 14  4  0  0  0
 17 15  1  0  0  0
 19 17  1  0  0  0
 32 18  2  0  0  0
 19 21  4  0  0  0
 31 19  4  0  0  0
 22 21  4  0  0  0
 23 22  4  0  0  0
 24 23  4  0  0  0
 24 31  4  0  0  0
 26 25  4  0  0  0
 25 30  4  0  0  0
 27 26  4  0  0  0
 27 28  4  0  0  0
 28 29  4  0  0  0
 29 30  4  0  0  0
 31 32  1  0  0  0
  2 33  1  0  0  0
  2 34  1  0  0  0
  5 35  1  0  0  0
  6 36  1  0  0  0
  9 37  1  0  0  0
 10 38  1  0  0  0
 10 39  1  0  0  0
 12 40  1  0  0  0
 13 41  1  0  0  0
 14 42  1  0  0  0
 23 43  1  0  0  0
 26 44  1  0  0  0
 27 45  1  0  0  0
 29 46  1  0  0  0
 30 47  1  0  0  0
M  END
$$$$
