3lzs_ligand
  -I-interpret- 

 75 78  0  0  0  0  0  0  0  0999 V2000
   -8.1290   16.3510   -8.1130 N   0  0  0  0  0
   -8.2680   16.1010   -6.7880 C   0  0  0  0  0
   -7.1400   15.8180   -6.0340 C   0  0  0  0  0
   -7.2610   15.5480   -4.6770 C   0  0  0  0  0
   -8.5110   15.5830   -4.0740 C   0  0  0  0  0
   -9.6500   15.8580   -4.8300 C   0  0  0  0  0
   -9.5250   16.1250   -6.1910 C   0  0  0  0  0
   -8.6110   15.2710   -2.5100 S   0  0  0  0  0
   -9.9040   14.7120   -2.2320 O   0  0  0  0  0
   -7.5390   14.3820   -2.1810 O   0  0  0  0  0
   -8.4390   16.5670   -1.5710 N   0  0  0  0  0
   -7.2400   17.3720   -1.8690 C   0  0  0  0  0
   -6.7330   18.0570   -0.5970 C   0  0  0  0  0
   -6.0740   17.0800    0.3710 C   0  0  0  0  0
   -5.7300   19.1680   -0.9050 C   0  0  0  0  0
   -9.6900   17.3380   -1.5520 C   0  0  0  0  0
  -10.1370   17.4200   -0.1010 C   0  0  0  0  0
  -11.2110   18.3570    0.0170 O   0  0  0  0  0
  -10.5460   16.0490    0.4360 C   0  0  0  0  0
  -10.6740   16.1600    1.8750 N   0  0  0  0  0
   -9.9400   15.4960    2.7530 C   0  0  0  0  0
   -9.0530   14.7040    2.4690 O   0  0  0  0  0
  -10.3230   15.7450    4.1330 O   0  0  0  0  0
   -9.6380   14.9890    5.1210 C   0  0  0  0  0
   -9.2420   15.9870    6.1890 C   0  0  0  0  0
  -10.4790   16.2380    6.8460 O   0  0  0  0  0
  -11.2960   15.0530    6.8020 C   0  0  0  0  0
  -12.6240   15.2760    6.2910 O   0  0  0  0  0
  -12.9250   14.4300    5.1860 C   0  0  0  0  0
  -11.7370   13.4980    5.0000 C   0  0  0  0  0
  -10.6240   14.0930    5.8430 C   0  0  0  0  0
  -11.8590   15.5470   -0.1650 C   0  0  0  0  0
  -13.4160   14.1780    1.2660 C   0  0  0  0  0
  -13.8180   12.9810    1.8520 C   0  0  0  0  0
  -13.0830   11.8220    1.6350 C   0  0  0  0  0
  -11.9530   11.8740    0.8180 C   0  0  0  0  0
  -11.5530   13.0700    0.2320 C   0  0  0  0  0
  -12.2790   14.2330    0.4610 C   0  0  0  0  0
   -7.2038   16.3293   -8.5418 H   0  0  0  0  0
   -8.9496   16.5608   -8.6812 H   0  0  0  0  0
   -6.1576   15.8073   -6.5062 H   0  0  0  0  0
   -6.3764   15.3091   -4.0867 H   0  0  0  0  0
  -10.6326   15.8639   -4.3583 H   0  0  0  0  0
  -10.4090   16.3521   -6.7869 H   0  0  0  0  0
   -7.4956   18.1331   -2.6063 H   0  0  0  0  0
   -6.4591   16.7183   -2.2576 H   0  0  0  0  0
   -7.6221   18.4808   -0.1302 H   0  0  0  0  0
   -6.7965   16.3186    0.6649 H   0  0  0  0  0
   -5.2226   16.6056   -0.1170 H   0  0  0  0  0
   -5.7335   17.6199    1.2546 H   0  0  0  0  0
   -4.8727   18.7465   -1.4298 H   0  0  0  0  0
   -6.2062   19.9222   -1.5314 H   0  0  0  0  0
   -5.3982   19.6249    0.0273 H   0  0  0  0  0
  -10.4513   16.8545   -2.1642 H   0  0  0  0  0
   -9.5361   18.3345   -1.9659 H   0  0  0  0  0
   -9.2967   17.7632    0.5025 H   0  0  0  0  0
  -11.4913   18.4069    0.9338 H   0  0  0  0  0
   -9.7821   15.3235    0.1565 H   0  0  0  0  0
  -11.3827   16.7974    2.2381 H   0  0  0  0  0
   -8.8222   14.4273    4.6661 H   0  0  0  0  0
   -8.7821   16.8882    5.7834 H   0  0  0  0  0
   -8.4693   15.6119    6.8600 H   0  0  0  0  0
  -11.3911   14.6861    7.8240 H   0  0  0  0  0
  -13.0964   15.0196    4.2854 H   0  0  0  0  0
  -13.8352   13.8605    5.3740 H   0  0  0  0  0
  -11.4484   13.4209    3.9517 H   0  0  0  0  0
  -11.9738   12.4801    5.3096 H   0  0  0  0  0
  -10.0842   13.2387    6.2516 H   0  0  0  0  0
  -11.7165   15.3937   -1.2347 H   0  0  0  0  0
  -12.6354   16.2879    0.0258 H   0  0  0  0  0
  -13.9974   15.0837    1.4387 H   0  0  0  0  0
  -14.7083   12.9530    2.4803 H   0  0  0  0  0
  -13.3857   10.8827    2.0978 H   0  0  0  0  0
  -11.3770   10.9665    0.6370 H   0  0  0  0  0
  -10.6702   13.0955   -0.4069 H   0  0  0  0  0
  2  1  1  0  0  0
  3  2  4  0  0  0
  7  2  4  0  0  0
  4  3  4  0  0  0
  5  4  4  0  0  0
  5  6  4  0  0  0
  8  5  1  0  0  0
  6  7  4  0  0  0
  8  9  2  0  0  0
  8 10  2  0  0  0
 11  8  1  0  0  0
 11 12  1  0  0  0
 16 11  1  0  0  0
 12 13  1  0  0  0
 13 14  1  0  0  0
 13 15  1  0  0  0
 17 16  1  0  0  0
 17 18  1  0  0  0
 19 17  1  0  0  0
 19 20  1  0  0  0
 32 19  1  0  0  0
 20 21  1  0  0  0
 21 22  2  0  0  0
 21 23  1  0  0  0
 23 24  1  0  0  0
 24 25  1  0  0  0
 24 31  1  0  0  0
 25 26  1  0  0  0
 27 26  1  0  0  0
 27 28  1  0  0  0
 31 27  1  0  0  0
 29 28  1  0  0  0
 30 29  1  0  0  0
 31 30  1  0  0  0
 38 32  1  0  0  0
 33 34  4  0  0  0
 33 38  4  0  0  0
 34 35  4  0  0  0
 35 36  4  0  0  0
 36 37  4  0  0  0
 37 38  4  0  0  0
  1 39  1  0  0  0
  1 40  1  0  0  0
  3 41  1  0  0  0
  4 42  1  0  0  0
  6 43  1  0  0  0
  7 44  1  0  0  0
 12 45  1  0  0  0
 12 46  1  0  0  0
 13 47  1  0  0  0
 14 48  1  0  0  0
 14 49  1  0  0  0
 14 50  1  0  0  0
 15 51  1  0  0  0
 15 52  1  0  0  0
 15 53  1  0  0  0
 16 54  1  0  0  0
 16 55  1  0  0  0
 17 56  1  0  0  0
 18 57  1  0  0  0
 19 58  1  0  0  0
 20 59  1  0  0  0
 24 60  1  0  0  0
 25 61  1  0  0  0
 25 62  1  0  0  0
 27 63  1  0  0  0
 29 64  1  0  0  0
 29 65  1  0  0  0
 30 66  1  0  0  0
 30 67  1  0  0  0
 31 68  1  0  0  0
 32 69  1  0  0  0
 32 70  1  0  0  0
 33 71  1  0  0  0
 34 72  1  0  0  0
 35 73  1  0  0  0
 36 74  1  0  0  0
 37 75  1  0  0  0
M  END
$$$$
