4x2s_ligand
  -I-interpret- 

 17 16  0  0  0  0  0  0  0  0999 V2000
   29.6850  -75.1250  -17.4380 N   0  3  0  0  0
   31.1130  -75.3630  -17.2750 C   0  0  0  0  0
   31.4240  -75.8540  -15.8550 C   0  0  0  0  0
   32.1110  -76.8590  -15.6570 O   0  0  0  0  0
   31.8940  -74.0860  -17.5910 C   0  0  0  0  0
   31.8990  -73.7630  -19.0640 C   0  0  0  0  0
   32.4370  -74.5760  -19.8430 O   0  0  0  0  0
   31.3590  -72.7020  -19.4420 O   0  0  0  0  0
   30.9860  -75.2690  -14.8630 O   0  0  0  0  0
   29.1724  -75.9809  -17.2255 H   0  0  0  0  0
   29.3903  -74.3840  -16.8021 H   0  0  0  0  0
   29.4960  -74.8441  -18.4002 H   0  0  0  0  0
   31.4199  -76.1423  -17.9726 H   0  0  0  0  0
   32.3921  -77.2241  -16.4992 H   0  0  0  0  0
   32.9266  -74.2361  -17.2757 H   0  0  0  0  0
   31.4143  -73.2595  -17.0667 H   0  0  0  0  0
   31.0118  -72.2320  -18.6804 H   0  0  0  0  0
  1  2  1  0  0  0
  2  3  1  0  0  0
  2  5  1  0  0  0
  3  4  1  0  0  0
  3  9  2  0  0  0
  5  6  1  0  0  0
  6  7  2  0  0  0
  6  8  1  0  0  0
  1 10  1  0  0  0
  1 11  1  0  0  0
  1 12  1  0  0  0
  2 13  1  0  0  0
  4 14  1  0  0  0
  5 15  1  0  0  0
  5 16  1  0  0  0
  8 17  1  0  0  0
M  END
$$$$
