4m5n_ligand
  -I-interpret- 

 14 15  0  0  0  0  0  0  0  0999 V2000
   44.5010  -15.6910   -8.3400 C   0  0  0  0  0
   43.4460  -16.0060   -7.5430 C   0  0  0  0  0
   42.1390  -16.3300   -8.1340 N   0  0  0  0  0
   41.9830  -16.2990   -9.5570 C   0  0  0  0  0
   43.0730  -15.9640  -10.3950 N   0  0  0  0  0
   44.3240  -15.6640   -9.8340 C   0  0  0  0  0
   45.5720  -15.4430   -7.5280 N   0  0  0  0  0
   45.1740  -15.6130   -6.2350 C   0  0  0  0  0
   43.8540  -15.9560   -6.2390 N   0  0  0  0  0
   45.4010  -15.3370  -10.7090 N   0  0  0  0  0
   40.5210  -16.6420  -10.2270 S   0  0  0  0  0
   41.3503  -16.5747   -7.5353 H   0  0  0  0  0
   45.8017  -15.4952   -5.3517 H   0  0  0  0  0
   45.2526  -15.3249  -11.7181 H   0  0  0  0  0
  1  2  4  0  0  0
  1  6  1  0  0  0
  1  7  4  0  0  0
  2  3  1  0  0  0
  2  9  4  0  0  0
  3  4  1  0  0  0
  4  5  1  0  0  0
  4 11  2  0  0  0
  5  6  4  0  0  0
  6 10  2  0  0  0
  7  8  4  0  0  0
  8  9  4  0  0  0
  3 12  1  0  0  0
  8 13  1  0  0  0
 10 14  1  0  0  0
M  END
$$$$
