4db7_ligand
  -I-interpret- 

 27 28  0  0  0  0  0  0  0  0999 V2000
  -14.2740   28.5950    9.4070 O   0  0  0  0  0
  -13.1090   28.1590    9.7350 C   0  0  0  0  0
  -12.1650   29.0210    9.8450 O   0  0  0  0  0
  -12.7590   26.6870    9.5810 C   0  0  0  0  0
  -12.0800   26.3060    8.2930 C   0  0  0  0  0
  -12.9500   25.7920    7.1560 C   0  0  0  0  0
  -13.4960   26.6180    6.1350 C   0  0  0  0  0
  -13.2260   27.9720    6.1200 O   0  0  0  0  0
  -14.3710   25.9900    5.1530 C   0  0  0  0  0
  -14.9930   26.6730    4.0930 C   0  0  0  0  0
  -14.7480   28.0100    3.9190 O   0  0  0  0  0
  -13.2850   24.4970    7.1560 N   0  0  0  0  0
  -14.1050   23.9170    6.2660 N   0  0  0  0  0
  -14.6830   24.6070    5.2790 C   0  0  0  0  0
  -15.4970   23.9780    4.3800 N   0  0  0  0  0
  -16.0200   24.6750    3.3550 C   0  0  0  0  0
  -16.8770   23.9900    2.4510 N   0  0  0  0  0
  -15.8270   26.0160    3.2330 N   0  0  0  0  0
  -14.8879   27.8586    9.3580 H   0  0  0  0  0
  -13.7029   26.1423    9.6040 H   0  0  0  0  0
  -12.0560   26.4526   10.3804 H   0  0  0  0  0
  -11.4169   25.4793    8.5478 H   0  0  0  0  0
  -11.6280   27.2251    7.9201 H   0  0  0  0  0
  -13.6685   28.3771    5.3705 H   0  0  0  0  0
  -17.0785   22.9999    2.5903 H   0  0  0  0  0
  -17.2904   24.4886    1.6630 H   0  0  0  0  0
  -16.3069   26.5332    2.4964 H   0  0  0  0  0
  1  2  1  0  0  0
  2  3  2  0  0  0
  2  4  1  0  0  0
  4  5  1  0  0  0
  5  6  1  0  0  0
  6  7  4  0  0  0
  6 12  4  0  0  0
  7  8  1  0  0  0
  7  9  4  0  0  0
  9 10  1  0  0  0
  9 14  4  0  0  0
 10 11  2  0  0  0
 10 18  1  0  0  0
 12 13  4  0  0  0
 13 14  4  0  0  0
 14 15  1  0  0  0
 15 16  2  0  0  0
 16 17  1  0  0  0
 16 18  1  0  0  0
  1 19  1  0  0  0
  4 20  1  0  0  0
  4 21  1  0  0  0
  5 22  1  0  0  0
  5 23  1  0  0  0
  8 24  1  0  0  0
 17 25  1  0  0  0
 17 26  1  0  0  0
 18 27  1  0  0  0
M  END
$$$$
