5c87_ligand
  -I-interpret- 

 18 19  0  0  0  0  0  0  0  0999 V2000
    7.9260  -11.3340    3.7080 C   0  0  0  0  0
    6.6690  -10.7760    3.5010 C   0  0  0  0  0
    5.7510  -11.4340    2.6930 C   0  0  0  0  0
    6.0820  -12.6460    2.0910 C   0  0  0  0  0
    7.3390  -13.2060    2.2920 C   0  0  0  0  0
    8.2580  -12.5450    3.1070 C   0  0  0  0  0
    9.5150  -13.1010    3.3210 C   0  0  0  0  0
    9.8370  -14.3120    2.7150 C   0  0  0  0  0
    8.8960  -14.9650    1.9050 N   0  0  0  0  0
    7.6880  -14.4270    1.7050 C   0  0  0  0  0
    6.7680  -15.0560    0.9140 O   0  0  0  0  0
    8.6514  -10.8230    4.3410 H   0  0  0  0  0
    6.4060   -9.8279    3.9701 H   0  0  0  0  0
    4.7650  -10.9993    2.5287 H   0  0  0  0  0
    5.3539  -13.1567    1.4608 H   0  0  0  0  0
   10.2405  -12.5935    3.9568 H   0  0  0  0  0
   10.8215  -14.7535    2.8700 H   0  0  0  0  0
    9.1343  -15.8545    1.4664 H   0  0  0  0  0
  1  2  4  0  0  0
  1  6  4  0  0  0
  2  3  4  0  0  0
  3  4  4  0  0  0
  4  5  4  0  0  0
  5  6  4  0  0  0
  5 10  1  0  0  0
  6  7  1  0  0  0
  7  8  2  0  0  0
  8  9  1  0  0  0
  9 10  1  0  0  0
 10 11  2  0  0  0
  1 12  1  0  0  0
  2 13  1  0  0  0
  3 14  1  0  0  0
  4 15  1  0  0  0
  7 16  1  0  0  0
  8 17  1  0  0  0
  9 18  1  0  0  0
M  END
$$$$
