1mau_ligand
  -I-interpret- 

 47 49  0  0  0  0  0  0  0  0999 V2000
   48.2340   21.6840   35.6150 P   0  0  0  0  0
   48.0940   22.3270   36.9440 O   0  0  0  0  0
   47.8940   20.2540   35.7350 O   0  0  0  0  0
   47.3930   22.3760   34.6200 O   0  0  0  0  0
   50.7020   23.0750   34.8690 P   0  0  0  0  0
   50.2880   24.3730   35.4560 O   0  0  0  0  0
   50.8460   23.2570   33.4260 O   0  0  0  0  0
   49.7580   21.8320   35.1470 O   0  0  0  0  0
   52.6450   22.2360   36.9410 P   0  0  0  0  0
   51.5640   22.5940   37.8690 O   0  0  0  0  0
   53.1090   20.8330   36.9420 O   0  0  0  0  0
   52.1400   22.6420   35.4620 O   0  0  0  0  0
   53.8540   23.1790   37.2220 O   0  0  0  0  0
   55.2470   22.7790   36.9580 C   0  0  0  0  0
   56.0970   23.9690   36.8190 C   0  0  0  0  0
   55.7680   24.7410   35.6510 O   0  0  0  0  0
   56.1640   25.0010   37.9700 C   0  0  0  0  0
   57.4990   25.4720   38.1430 O   0  0  0  0  0
   55.2440   26.0540   37.3770 C   0  0  0  0  0
   55.2300   27.3350   37.9540 O   0  0  0  0  0
   55.7140   26.0930   35.9170 C   0  0  0  0  0
   54.6580   26.6480   34.9860 N   0  0  0  0  0
   53.3480   26.2050   34.8590 C   0  0  0  0  0
   52.6410   26.9170   33.9390 N   0  0  0  0  0
   53.5520   27.8320   33.4740 C   0  0  0  0  0
   53.4070   28.8750   32.4820 C   0  0  0  0  0
   52.2910   29.1220   31.8120 N   0  0  0  0  0
   54.5430   29.6430   32.2360 N   0  0  0  0  0
   55.7790   29.4540   32.8870 C   0  0  0  0  0
   55.9000   28.4530   33.8420 N   0  0  0  0  0
   54.8050   27.6710   34.1150 C   0  0  0  0  0
   48.3141   23.2587   36.8723 H   0  0  0  0  0
   47.6477   23.3005   34.5749 H   0  0  0  0  0
   50.1874   24.2758   36.4058 H   0  0  0  0  0
   53.8123   20.7293   36.2969 H   0  0  0  0  0
   55.2844   22.2031   36.0333 H   0  0  0  0  0
   55.6096   22.1760   37.7905 H   0  0  0  0  0
   57.0655   23.4700   36.7856 H   0  0  0  0  0
   55.8825   24.6513   38.9633 H   0  0  0  0  0
   57.5216   26.1102   38.8598 H   0  0  0  0  0
   54.2052   25.7732   37.5503 H   0  0  0  0  0
   54.6074   27.8913   37.4803 H   0  0  0  0  0
   56.6159   26.6903   35.7829 H   0  0  0  0  0
   52.9313   25.3775   35.4333 H   0  0  0  0  0
   51.4585   28.5578   31.9822 H   0  0  0  0  0
   52.2644   29.8764   31.1260 H   0  0  0  0  0
   56.6317   30.0876   32.6431 H   0  0  0  0  0
  1  2  1  0  0  0
  1  3  2  0  0  0
  1  4  1  0  0  0
  8  1  1  0  0  0
  5  6  1  0  0  0
  5  7  2  0  0  0
  5  8  1  0  0  0
 12  5  1  0  0  0
  9 10  2  0  0  0
  9 11  1  0  0  0
  9 12  1  0  0  0
  9 13  1  0  0  0
 13 14  1  0  0  0
 14 15  1  0  0  0
 15 16  1  0  0  0
 15 17  1  0  0  0
 16 21  1  0  0  0
 17 18  1  0  0  0
 17 19  1  0  0  0
 19 20  1  0  0  0
 19 21  1  0  0  0
 21 22  1  0  0  0
 22 23  4  0  0  0
 22 31  4  0  0  0
 23 24  4  0  0  0
 24 25  4  0  0  0
 25 26  4  0  0  0
 25 31  4  0  0  0
 26 27  1  0  0  0
 26 28  4  0  0  0
 28 29  4  0  0  0
 29 30  4  0  0  0
 30 31  4  0  0  0
  2 32  1  0  0  0
  4 33  1  0  0  0
  6 34  1  0  0  0
 11 35  1  0  0  0
 14 36  1  0  0  0
 14 37  1  0  0  0
 15 38  1  0  0  0
 17 39  1  0  0  0
 18 40  1  0  0  0
 19 41  1  0  0  0
 20 42  1  0  0  0
 21 43  1  0  0  0
 23 44  1  0  0  0
 27 45  1  0  0  0
 27 46  1  0  0  0
 29 47  1  0  0  0
M  END
$$$$
