### 
### Created by X-TOOL on Mon Sep 10 21:12:50 2018
### 

@<TRIPOS>MOLECULE
1mau_ligand
   43    45     1     0     0
SMALL
GAST_HUCK


@<TRIPOS>ATOM
      1 PG         48.2340   21.6840   35.6150 P.3       1 ATP         0.1879
      2 O1G        48.0940   22.3270   36.9440 O.co2     1 ATP        -0.6091
      3 O2G        47.8940   20.2540   35.7350 O.co2     1 ATP        -0.6091
      4 O3G        47.3930   22.3760   34.6200 O.co2     1 ATP        -0.6091
      5 PB         50.7020   23.0750   34.8690 P.3       1 ATP         0.3553
      6 O1B        50.2880   24.3730   35.4560 O.co2     1 ATP        -0.5652
      7 O2B        50.8460   23.2570   33.4260 O.co2     1 ATP        -0.5652
      8 O3B        49.7580   21.8320   35.1470 O.3       1 ATP        -0.1546
      9 PA         52.6450   22.2360   36.9410 P.3       1 ATP         0.3266
     10 O1A        51.5640   22.5940   37.8690 O.co2     1 ATP        -0.5692
     11 O2A        53.1090   20.8330   36.9420 O.co2     1 ATP        -0.5692
     12 O3A        52.1400   22.6420   35.4620 O.3       1 ATP        -0.1171
     13 O5         53.8540   23.1790   37.2220 O.3       1 ATP        -0.2441
     14 C5         55.2470   22.7790   36.9580 C.3       1 ATP         0.1131
     15 C4         56.0970   23.9690   36.8190 C.3       1 ATP         0.1189
     16 O4         55.7680   24.7410   35.6510 O.3       1 ATP        -0.3364
     17 C3         56.1640   25.0010   37.9700 C.3       1 ATP         0.1149
     18 O3         57.4990   25.4720   38.1430 O.3       1 ATP        -0.3864
     19 C2         55.2440   26.0540   37.3770 C.3       1 ATP         0.1385
     20 O2         55.2300   27.3350   37.9540 O.3       1 ATP        -0.3836
     21 C1         55.7140   26.0930   35.9170 C.3       1 ATP         0.2010
     22 N9         54.6580   26.6480   34.9860 N.pl3     1 ATP        -0.1919
     23 C8         53.3480   26.2050   34.8590 C.2       1 ATP         0.1123
     24 N7         52.6410   26.9170   33.9390 N.2       1 ATP        -0.2958
     25 C5         53.5520   27.8320   33.4740 C.ar      1 ATP         0.1045
     26 C6         53.4070   28.8750   32.4820 C.ar      1 ATP         0.1298
     27 N6         52.2910   29.1220   31.8120 N.pl3     1 ATP        -0.3152
     28 N1         54.5430   29.6430   32.2360 N.ar      1 ATP        -0.2698
     29 C2         55.7790   29.4540   32.8870 C.ar      1 ATP         0.0533
     30 N3         55.9000   28.4530   33.8420 N.ar      1 ATP        -0.2714
     31 C4         54.8050   27.6710   34.1150 C.ar      1 ATP         0.1613
     32 H1         55.2871   22.1929   36.0280 H         1 ATP         0.0648
     33 H2         55.6140   22.1657   37.7941 H         1 ATP         0.0648
     34 H3         57.1173   23.5782   36.6912 H         1 ATP         0.0651
     35 H4         55.7818   24.6019   38.9211 H         1 ATP         0.0648
     36 H5         58.0674   24.7399   38.3513 H         1 ATP         0.2100
     37 H6         54.2112   25.6786   37.4257 H         1 ATP         0.0676
     38 H7         54.6139   27.8855   37.4852 H         1 ATP         0.2101
     39 H8         56.6748   26.6144   35.7947 H         1 ATP         0.0996
     40 H9         52.9317   25.3783   35.4327 H         1 ATP         0.1349
     41 H10        52.2641   29.8838   31.1193 H         1 ATP         0.1820
     42 H11        51.4503   28.5523   31.9839 H         1 ATP         0.1820
     43 H12        56.6271   30.0841   32.6444 H         1 ATP         0.0996
@<TRIPOS>BOND
     1    1    2 ar 
     2    1    3 ar 
     3    1    4 ar 
     4    8    1 1  
     5    5    6 ar 
     6    5    7 ar 
     7    5    8 1  
     8   12    5 1  
     9    9   10 ar 
    10    9   11 ar 
    11    9   12 1  
    12    9   13 1  
    13   13   14 1  
    14   14   15 1  
    15   15   16 1  
    16   15   17 1  
    17   16   21 1  
    18   17   18 1  
    19   17   19 1  
    20   19   20 1  
    21   19   21 1  
    22   21   22 1  
    23   22   23 1  
    24   22   31 1  
    25   23   24 2  
    26   24   25 1  
    27   25   26 ar 
    28   25   31 ar 
    29   26   27 1  
    30   26   28 ar 
    31   28   29 ar 
    32   29   30 ar 
    33   30   31 ar 
    34   14   32 1  
    35   14   33 1  
    36   15   34 1  
    37   17   35 1  
    38   18   36 1  
    39   19   37 1  
    40   20   38 1  
    41   21   39 1  
    42   23   40 1  
    43   27   41 1  
    44   27   42 1  
    45   29   43 1  
@<TRIPOS>SUBSTRUCTURE
     1 ATP         1

