5meh_ligand
  -I-interpret- 

 25 25  0  0  0  0  0  0  0  0999 V2000
   23.9160   18.7610   48.2190 C   0  0  0  0  0
   22.9400   18.3750   47.2130 O   0  0  0  0  0
   24.8790   17.5790   48.5260 C   0  0  0  0  0
   25.8010   17.9680   49.5630 O   0  0  0  0  0
   25.6510   17.1700   47.2250 C   0  0  0  0  0
   26.8700   16.4720   47.6150 O   0  0  0  0  0
   26.0190   18.3670   46.2900 C   0  0  0  0  0
   26.0600   19.5920   47.1740 N   0  3  0  0  0
   24.7070   20.0280   47.7690 C   0  0  0  0  0
   25.0150   20.9900   48.9200 C   0  0  0  0  0
   25.8550   22.0490   48.4340 O   0  0  0  0  0
   23.3830   19.0109   49.1364 H   0  0  0  0  0
   22.4664   17.5949   47.5110 H   0  0  0  0  0
   24.3049   16.7189   48.8705 H   0  0  0  0  0
   25.3100   18.2145   50.3502 H   0  0  0  0  0
   24.9802   16.5350   46.6464 H   0  0  0  0  0
   26.6462   15.7362   48.1895 H   0  0  0  0  0
   25.2867   18.4822   45.4909 H   0  0  0  0  0
   26.9784   18.2030   45.7993 H   0  0  0  0  0
   26.3806   20.3624   46.5873 H   0  0  0  0  0
   26.6627   19.3599   47.9635 H   0  0  0  0  0
   24.0749   20.5440   47.0463 H   0  0  0  0  0
   25.5259   20.4539   49.7198 H   0  0  0  0  0
   24.0859   21.4073   49.3083 H   0  0  0  0  0
   26.0513   22.6553   49.1520 H   0  0  0  0  0
  1  2  1  0  0  0
  1  3  1  0  0  0
  1  9  1  0  0  0
  3  4  1  0  0  0
  3  5  1  0  0  0
  5  6  1  0  0  0
  5  7  1  0  0  0
  7  8  1  0  0  0
  8  9  1  0  0  0
  9 10  1  0  0  0
 10 11  1  0  0  0
  1 12  1  0  0  0
  2 13  1  0  0  0
  3 14  1  0  0  0
  4 15  1  0  0  0
  5 16  1  0  0  0
  6 17  1  0  0  0
  7 18  1  0  0  0
  7 19  1  0  0  0
  8 20  1  0  0  0
  8 21  1  0  0  0
  9 22  1  0  0  0
 10 23  1  0  0  0
 10 24  1  0  0  0
 11 25  1  0  0  0
M  END
$$$$
