3kme_ligand
  -I-interpret- 

 48 50  0  0  0  0  0  0  0  0999 V2000
   49.2760   35.4100   39.1660 C   0  0  0  0  0
   48.7360   35.0380   37.9410 N   0  0  0  0  0
   48.2600   35.2390   40.3900 C   0  0  0  0  0
   48.3490   33.7850   40.7930 C   0  0  0  0  0
   49.5420   35.1190   36.7300 C   0  0  0  0  0
   47.3090   33.2400   41.8350 C   0  0  0  0  0
   50.5350   33.9550   36.7310 C   0  0  0  0  0
   47.6880   33.1160   43.1780 N   0  0  0  0  0
   49.4690   31.3240   44.7290 S   0  0  0  0  0
   47.9650   31.9000   45.3960 C   0  0  0  0  0
   50.4620   35.8550   39.3350 O   0  0  0  0  0
   51.8490   34.2020   36.0000 C   0  0  0  0  0
   50.1490   30.8580   46.2890 C   0  0  0  0  0
   46.1730   32.9870   41.4160 O   0  0  0  0  0
   48.0000   31.7150   46.8420 C   0  0  0  0  0
   49.2260   31.1520   47.3310 C   0  0  0  0  0
   48.7700   36.0450   41.4540 O   0  0  0  0  0
   46.9200   32.5270   44.4000 C   0  0  0  0  0
   49.7710   33.5310   41.0610 O   0  0  0  0  0
   47.3620   34.5670   37.6500 C   0  0  0  0  0
   52.8070   33.1540   36.2370 C   0  0  0  0  0
   48.5090   35.0740   35.5790 C   0  0  0  0  0
   50.2030   32.6480   37.2170 C   0  0  0  0  0
   47.2950   34.3110   36.1440 C   0  0  0  0  0
   51.1680   31.5930   37.2190 C   0  0  0  0  0
   52.4790   31.8550   36.7250 C   0  0  0  0  0
   47.2353   35.5228   40.1499 H   0  0  0  0  0
   47.9997   33.1589   39.9720 H   0  0  0  0  0
   50.1504   36.0185   36.6364 H   0  0  0  0  0
   48.6206   33.4696   43.3915 H   0  0  0  0  0
   52.0412   35.0711   35.3708 H   0  0  0  0  0
   51.1323   30.4104   46.4333 H   0  0  0  0  0
   47.1681   31.9810   47.4941 H   0  0  0  0  0
   49.4282   30.9694   48.3864 H   0  0  0  0  0
   48.7171   36.9709   41.2062 H   0  0  0  0  0
   46.2213   31.7606   44.0646 H   0  0  0  0  0
   46.3580   33.3158   44.9001 H   0  0  0  0  0
   50.3011   33.9111   40.3566 H   0  0  0  0  0
   46.6245   35.3112   37.9507 H   0  0  0  0  0
   47.1363   33.6588   38.2088 H   0  0  0  0  0
   53.8553   33.3682   36.0291 H   0  0  0  0  0
   48.9157   34.5798   34.6967 H   0  0  0  0  0
   48.2331   36.0761   35.2508 H   0  0  0  0  0
   49.1977   32.4551   37.5914 H   0  0  0  0  0
   46.3553   34.6518   35.7094 H   0  0  0  0  0
   47.3284   33.2481   35.9047 H   0  0  0  0  0
   50.9051   30.6034   37.5926 H   0  0  0  0  0
   53.2291   31.0642   36.7203 H   0  0  0  0  0
  2  1  1  0  0  0
  1  3  1  0  0  0
  1 11  2  0  0  0
  5  2  1  0  0  0
  2 20  1  0  0  0
  3  4  1  0  0  0
  3 17  1  0  0  0
  4  6  1  0  0  0
  4 19  1  0  0  0
  7  5  1  0  0  0
  5 22  1  0  0  0
  6  8  1  0  0  0
  6 14  2  0  0  0
 12  7  4  0  0  0
  7 23  4  0  0  0
  8 18  1  0  0  0
 10  9  4  0  0  0
  9 13  4  0  0  0
 10 15  4  0  0  0
 18 10  1  0  0  0
 21 12  4  0  0  0
 16 13  4  0  0  0
 15 16  4  0  0  0
 20 24  1  0  0  0
 26 21  4  0  0  0
 22 24  1  0  0  0
 23 25  4  0  0  0
 25 26  4  0  0  0
  3 27  1  0  0  0
  4 28  1  0  0  0
  5 29  1  0  0  0
  8 30  1  0  0  0
 12 31  1  0  0  0
 13 32  1  0  0  0
 15 33  1  0  0  0
 16 34  1  0  0  0
 17 35  1  0  0  0
 18 36  1  0  0  0
 18 37  1  0  0  0
 19 38  1  0  0  0
 20 39  1  0  0  0
 20 40  1  0  0  0
 21 41  1  0  0  0
 22 42  1  0  0  0
 22 43  1  0  0  0
 23 44  1  0  0  0
 24 45  1  0  0  0
 24 46  1  0  0  0
 25 47  1  0  0  0
 26 48  1  0  0  0
M  END
$$$$
