3zmj_ligand
  -I-interpret- 

 37 37  0  0  0  0  0  0  0  0999 V2000
  -12.2380   -9.1800   49.8770 O   0  0  0  0  0
  -12.6550   -8.0420   50.1590 C   0  0  0  0  0
  -11.8200   -7.1110   50.9760 C   0  0  0  0  0
  -10.4030   -7.2390   50.5270 C   0  0  0  0  0
  -10.4020   -7.0590   49.0980 N   0  0  0  0  0
   -9.2250   -7.5900   48.4370 C   0  0  0  0  0
   -9.4450   -8.7210   47.6400 O   0  0  0  0  0
   -8.9950   -8.5590   46.3700 C   0  0  0  0  0
   -8.3710   -6.8310   48.0070 O   0  0  0  0  0
   -9.5950   -6.1990   51.2350 C   0  0  0  0  0
   -8.3950   -5.7120   50.7460 C   0  0  0  0  0
   -7.6630   -4.7450   51.4350 C   0  0  0  0  0
   -8.1530   -4.2550   52.6490 C   0  0  0  0  0
   -9.3460   -4.7270   53.1570 C   0  0  0  0  0
  -10.0630   -5.6940   52.4630 C   0  0  0  0  0
   -8.9090   -9.9470   45.7150 C   0  0  0  0  0
   -8.6810   -9.6470   44.3310 C   0  0  0  0  0
  -10.2080  -10.6250   45.9550 C   0  0  0  0  0
  -13.6360   -7.7224   49.8075 H   0  0  0  0  0
  -11.9022   -7.3640   52.0330 H   0  0  0  0  0
  -12.1638   -6.0852   50.8431 H   0  0  0  0  0
   -9.9653   -8.2096   50.7602 H   0  0  0  0  0
  -11.1613   -6.5991   48.5956 H   0  0  0  0  0
   -8.0138   -8.0843   46.3761 H   0  0  0  0  0
   -9.6757   -7.9193   45.8083 H   0  0  0  0  0
   -8.0127   -6.0936   49.7992 H   0  0  0  0  0
   -6.7201   -4.3758   51.0316 H   0  0  0  0  0
   -7.5911   -3.4979   53.1959 H   0  0  0  0  0
   -9.7260   -4.3412   54.1029 H   0  0  0  0  0
  -11.0008   -6.0667   52.8751 H   0  0  0  0  0
   -8.1304  -10.6082   46.0954 H   0  0  0  0  0
   -9.5125   -9.0561   43.9469 H   0  0  0  0  0
   -7.7547   -9.0812   44.2310 H   0  0  0  0  0
   -8.6032  -10.5765   43.7671 H   0  0  0  0  0
  -10.3762  -10.7158   47.0281 H   0  0  0  0  0
  -11.0107  -10.0381   45.5085 H   0  0  0  0  0
  -10.1874  -11.6171   45.5039 H   0  0  0  0  0
  1  2  2  0  0  0
  2  3  1  0  0  0
  3  4  1  0  0  0
  4  5  1  0  0  0
  4 10  1  0  0  0
  5  6  1  0  0  0
  6  7  1  0  0  0
  6  9  2  0  0  0
  7  8  1  0  0  0
  8 16  1  0  0  0
 10 11  4  0  0  0
 10 15  4  0  0  0
 11 12  4  0  0  0
 12 13  4  0  0  0
 13 14  4  0  0  0
 14 15  4  0  0  0
 16 17  1  0  0  0
 16 18  1  0  0  0
  2 19  1  0  0  0
  3 20  1  0  0  0
  3 21  1  0  0  0
  4 22  1  0  0  0
  5 23  1  0  0  0
  8 24  1  0  0  0
  8 25  1  0  0  0
 11 26  1  0  0  0
 12 27  1  0  0  0
 13 28  1  0  0  0
 14 29  1  0  0  0
 15 30  1  0  0  0
 16 31  1  0  0  0
 17 32  1  0  0  0
 17 33  1  0  0  0
 17 34  1  0  0  0
 18 35  1  0  0  0
 18 36  1  0  0  0
 18 37  1  0  0  0
M  END
$$$$
