5n1x_ligand
  -I-interpret- 

 31 33  0  0  0  0  0  0  0  0999 V2000
  -11.9820   16.2270    1.6980 C   0  0  0  0  0
  -10.2430   17.4000    0.2530 C   0  0  0  0  0
  -10.0460   18.6450    0.9420 C   0  0  0  0  0
   -7.9780   17.8070   -2.4100 C   0  0  0  0  0
   -8.9600   20.9080    1.1750 C   0  0  0  0  0
   -9.6730   21.2330    2.3260 C   0  0  0  0  0
   -9.4730   22.4580    2.9410 C   0  0  0  0  0
   -8.5520   23.3320    2.3860 C   0  0  0  0  0
   -8.0550   21.8620    0.7010 C   0  0  0  0  0
  -13.4040   16.2850    1.2690 C   0  0  0  0  0
  -11.0690   16.3350    0.5400 N   0  0  0  0  0
   -9.4740   17.2580   -0.8810 N   0  0  0  0  0
   -9.4830   16.2010   -1.7360 N   0  0  0  0  0
   -8.5480   16.5680   -2.6760 C   0  0  0  0  0
   -8.5860   18.2570   -1.2540 C   0  0  0  0  0
   -8.4150   19.4040   -0.6120 N   0  0  0  0  0
   -9.1450   19.6060    0.4810 C   0  0  0  0  0
   -7.8440   23.0530    1.2830 N   0  0  0  0  0
  -11.8063   15.2711    2.1915 H   0  0  0  0  0
  -11.7880   17.0607    2.3728 H   0  0  0  0  0
  -10.6157   18.8446    1.8496 H   0  0  0  0  0
   -7.2109   18.3176   -2.9922 H   0  0  0  0  0
  -10.3882   20.5239    2.7429 H   0  0  0  0  0
  -10.0269   22.7280    3.8401 H   0  0  0  0  0
   -8.3955   24.2954    2.8713 H   0  0  0  0  0
   -7.4851   21.6240   -0.1972 H   0  0  0  0  0
  -13.5917   17.2330    0.7648 H   0  0  0  0  0
  -13.6098   15.4614    0.5853 H   0  0  0  0  0
  -14.0496   16.2030    2.1434 H   0  0  0  0  0
  -11.0487   15.5470   -0.1073 H   0  0  0  0  0
   -8.2830   15.9534   -3.5363 H   0  0  0  0  0
  1 10  1  0  0  0
 11  1  1  0  0  0
  2  3  4  0  0  0
  2 11  1  0  0  0
 12  2  4  0  0  0
  3 17  4  0  0  0
  4 14  4  0  0  0
 15  4  4  0  0  0
  5  6  4  0  0  0
  5  9  4  0  0  0
 17  5  1  0  0  0
  6  7  4  0  0  0
  7  8  4  0  0  0
 18  8  4  0  0  0
  9 18  4  0  0  0
 12 13  4  0  0  0
 12 15  4  0  0  0
 13 14  4  0  0  0
 15 16  4  0  0  0
 16 17  4  0  0  0
  1 19  1  0  0  0
  1 20  1  0  0  0
  3 21  1  0  0  0
  4 22  1  0  0  0
  6 23  1  0  0  0
  7 24  1  0  0  0
  8 25  1  0  0  0
  9 26  1  0  0  0
 10 27  1  0  0  0
 10 28  1  0  0  0
 10 29  1  0  0  0
 11 30  1  0  0  0
 14 31  1  0  0  0
M  END
$$$$
