3qsb_ligand
  -I-interpret- 

 59 61  0  0  0  0  0  0  0  0999 V2000
   50.4550    8.2090   43.8450 C   0  0  0  0  0
   49.5510    7.3670   44.3680 F   0  0  0  0  0
   50.7110    9.4000   44.5190 C   0  0  0  0  0
   51.6430   10.2900   43.9530 C   0  0  0  0  0
   52.3340    9.9810   42.7820 C   0  0  0  0  0
   52.0140    8.7780   42.0800 C   0  0  0  0  0
   51.0790    7.9170   42.6170 C   0  0  0  0  0
   53.2660   10.8910   42.2780 C   0  0  0  0  0
   53.4980   12.1260   42.9320 C   0  0  0  0  0
   54.4070   13.0430   42.3870 C   0  0  0  0  0
   55.1410   12.7630   41.2400 C   0  0  0  0  0
   54.9090   11.5510   40.5880 C   0  0  0  0  0
   53.9690   10.6240   41.1120 C   0  0  0  0  0
   56.1600   13.7540   40.6840 C   0  0  0  0  0
   57.4210   13.7230   41.4180 O   0  0  0  0  0
   58.1890   14.8600   41.3690 N   0  0  0  0  0
   58.7630   15.3080   42.4050 C   0  0  0  0  0
   58.6470   14.6530   43.7710 C   0  0  0  0  0
   57.2810   14.7900   44.4230 C   0  0  0  0  0
   56.4650   15.6300   44.0210 O   0  0  0  0  0
   57.0520   13.9240   45.6450 C   0  0  0  0  0
   57.6800   12.4990   45.5550 C   0  0  0  0  0
   59.1720   12.6450   45.3700 C   0  0  0  0  0
   59.4410   13.4150   44.0900 C   0  0  0  0  0
   60.4190   13.1410   43.4290 O   0  0  0  0  0
   55.6470   13.7970   46.1280 C   0  0  0  0  0
   54.5470   13.6580   46.5480 N   0  0  0  0  0
   57.3820   11.7960   46.8740 C   0  0  0  0  0
   57.1400   11.6230   44.3940 C   0  0  0  0  0
   59.5060   16.6200   42.2990 C   0  0  0  0  0
   60.8690   16.6040   41.6300 C   0  0  0  0  0
   61.4430   18.0040   41.7420 C   0  0  0  0  0
   50.2056    9.6358   45.4555 H   0  0  0  0  0
   51.8294   11.2457   44.4429 H   0  0  0  0  0
   52.5017    8.5439   41.1337 H   0  0  0  0  0
   50.8208    7.0013   42.0851 H   0  0  0  0  0
   52.9711   12.3624   43.8564 H   0  0  0  0  0
   54.5428   14.0066   42.8781 H   0  0  0  0  0
   55.4516   11.3148   39.6726 H   0  0  0  0  0
   53.7965    9.6841   40.5876 H   0  0  0  0  0
   55.7409   14.7561   40.7743 H   0  0  0  0  0
   56.3650   13.4827   39.6484 H   0  0  0  0  0
   59.2971   15.3175   44.3401 H   0  0  0  0  0
   57.5875   14.5128   46.3897 H   0  0  0  0  0
   59.6319   11.6587   45.3080 H   0  0  0  0  0
   59.5955   13.1836   46.2177 H   0  0  0  0  0
   57.8250   12.3615   47.6938 H   0  0  0  0  0
   56.3030   11.7336   47.0153 H   0  0  0  0  0
   57.8056   10.7919   46.8529 H   0  0  0  0  0
   56.0651   11.4867   44.5130 H   0  0  0  0  0
   57.3419   12.1170   43.4436 H   0  0  0  0  0
   57.6349   10.6520   44.4126 H   0  0  0  0  0
   59.6877   16.9372   43.3259 H   0  0  0  0  0
   58.8817   17.2604   41.6759 H   0  0  0  0  0
   60.7789   16.3096   40.5844 H   0  0  0  0  0
   61.5251   15.8812   42.1149 H   0  0  0  0  0
   60.7788   18.7087   41.2416 H   0  0  0  0  0
   61.5356   18.2742   42.7939 H   0  0  0  0  0
   62.4254   18.0313   41.2707 H   0  0  0  0  0
  1  2  1  0  0  0
  1  3  4  0  0  0
  1  7  4  0  0  0
  3  4  4  0  0  0
  4  5  4  0  0  0
  5  6  4  0  0  0
  5  8  1  0  0  0
  6  7  4  0  0  0
  8  9  4  0  0  0
  8 13  4  0  0  0
  9 10  4  0  0  0
 10 11  4  0  0  0
 11 12  4  0  0  0
 11 14  1  0  0  0
 12 13  4  0  0  0
 14 15  1  0  0  0
 15 16  1  0  0  0
 16 17  2  0  0  0
 17 18  1  0  0  0
 17 30  1  0  0  0
 18 19  1  0  0  0
 18 24  1  0  0  0
 19 20  2  0  0  0
 19 21  1  0  0  0
 21 22  1  0  0  0
 21 26  1  0  0  0
 22 23  1  0  0  0
 22 28  1  0  0  0
 22 29  1  0  0  0
 23 24  1  0  0  0
 24 25  2  0  0  0
 26 27  3  0  0  0
 30 31  1  0  0  0
 31 32  1  0  0  0
  3 33  1  0  0  0
  4 34  1  0  0  0
  6 35  1  0  0  0
  7 36  1  0  0  0
  9 37  1  0  0  0
 10 38  1  0  0  0
 12 39  1  0  0  0
 13 40  1  0  0  0
 14 41  1  0  0  0
 14 42  1  0  0  0
 18 43  1  0  0  0
 21 44  1  0  0  0
 23 45  1  0  0  0
 23 46  1  0  0  0
 28 47  1  0  0  0
 28 48  1  0  0  0
 28 49  1  0  0  0
 29 50  1  0  0  0
 29 51  1  0  0  0
 29 52  1  0  0  0
 30 53  1  0  0  0
 30 54  1  0  0  0
 31 55  1  0  0  0
 31 56  1  0  0  0
 32 57  1  0  0  0
 32 58  1  0  0  0
 32 59  1  0  0  0
M  END
$$$$
