1sfi_ligand
  -I-interpret- 

210215  0  0  0  0  0  0  0  0999 V2000
    5.3590   45.3880   12.1820 N   0  0  0  0  0
    5.1710   43.9580   11.9730 C   0  0  0  0  0
    6.4200   43.2370   11.4750 C   0  0  0  0  0
    6.3500   42.0360   11.1990 O   0  0  0  0  0
    7.5370   43.9420   11.3230 N   0  0  0  0  0
    8.7720   43.2630   10.9270 C   0  0  0  0  0
    9.2970   42.4930   12.1540 C   0  0  0  0  0
    9.1860   43.0120   13.2520 O   0  0  0  0  0
    9.8810   44.2270   10.5360 C   0  0  0  0  0
    9.7170   44.8670    9.1610 C   0  0  0  0  0
   10.8450   45.8500    8.9050 C   0  0  0  0  0
   11.2440   46.5370   10.1310 N   0  0  0  0  0
   12.1300   47.5080   10.2370 C   0  0  0  0  0
   12.7300   47.9660    9.1310 N   0  0  0  0  0
   12.4080   48.0220   11.4200 N   0  0  0  0  0
    9.8510   41.3090   11.8910 N   0  0  0  0  0
   10.4660   40.5490   12.9800 C   0  0  0  0  0
   11.7190   39.8530   12.4180 C   0  0  0  0  0
   11.7250   39.3980   11.2680 O   0  0  0  0  0
    9.5920   39.4730   13.6090 C   0  0  0  0  0
    8.0980   39.8990   14.5170 S   0  0  0  0  0
   12.7480   39.7760   13.2840 N   0  0  0  0  0
   13.9520   38.9960   12.9620 C   0  0  0  0  0
   13.5320   37.5330   13.1090 C   0  0  0  0  0
   12.5250   37.2260   13.7630 O   0  0  0  0  0
   15.1070   39.2340   13.9650 C   0  0  0  0  0
   14.6820   38.6400   15.2200 O   0  0  0  0  0
   15.4890   40.6880   14.1540 C   0  0  0  0  0
   14.3170   36.5600   12.6060 N   0  0  0  0  0
   13.8510   35.1720   12.6650 C   0  0  0  0  0
   14.5620   34.3640   13.7500 C   0  0  0  0  0
   15.0160   33.2530   13.4810 O   0  0  0  0  0
   13.9380   34.5330   11.2350 C   0  0  0  0  0
   12.8450   35.1560   10.3360 C   0  0  0  0  0
   12.9950   34.8270    8.8540 C   0  0  0  0  0
   11.9000   35.5060    8.0020 C   0  0  0  0  0
   11.9840   35.1210    6.5450 N   0  3  0  0  0
   14.9380   34.9960   14.8600 N   0  0  0  0  0
   15.6540   34.2950   15.9250 C   0  0  0  0  0
   14.6650   33.6760   16.8950 C   0  0  0  0  0
   13.4740   34.0070   16.7830 O   0  0  0  0  0
   16.4960   35.3720   16.6680 C   0  0  0  0  0
   15.6800   36.5330   16.9470 O   0  0  0  0  0
   15.1170   32.8910   17.8700 N   0  0  0  0  0
   14.1830   32.4960   18.9640 C   0  0  0  0  0
   14.6920   33.2030   20.2130 C   0  0  0  0  0
   15.8270   32.8960   20.6190 O   0  0  0  0  0
   14.2160   30.9680   19.1710 C   0  0  0  0  0
   13.5350   30.2410   18.0110 C   0  0  0  0  0
   13.5540   30.6100   20.5140 C   0  0  0  0  0
   13.8030   28.7420   17.9720 C   0  0  0  0  0
   13.9500   34.0880   20.8820 N   0  0  0  0  0
   12.6810   34.5970   20.3860 C   0  0  0  0  0
   12.8820   35.7260   19.3900 C   0  0  0  0  0
   14.0020   36.2270   19.2110 O   0  0  0  0  0
   12.0580   35.1850   21.6490 C   0  0  0  0  0
   13.2230   35.6560   22.4730 C   0  0  0  0  0
   14.4170   34.8110   22.0980 C   0  0  0  0  0
   11.8770   36.0190   18.5540 N   0  0  0  0  0
   12.0100   37.0610   17.5480 C   0  0  0  0  0
   12.1760   38.4510   18.1310 C   0  0  0  0  0
   11.6240   38.7640   19.2020 O   0  0  0  0  0
   10.6760   37.0390   16.8020 C   0  0  0  0  0
    9.6960   36.3710   17.7020 C   0  0  0  0  0
   10.5280   35.4280   18.5680 C   0  0  0  0  0
   12.8690   39.3100   17.4070 N   0  0  0  0  0
   12.9810   40.7140   17.7520 C   0  0  0  0  0
   12.0220   41.4080   16.7650 C   0  0  0  0  0
   12.2540   41.2970   15.5580 O   0  0  0  0  0
   14.4110   41.2400   17.6480 C   0  0  0  0  0
   15.3120   40.4370   18.5930 C   0  0  0  0  0
   14.4030   42.7170   18.0600 C   0  0  0  0  0
   16.7800   40.3430   18.2760 C   0  0  0  0  0
   10.9760   42.0550   17.2920 N   0  0  0  0  0
    9.9760   42.6350   16.3920 C   0  0  0  0  0
    9.6770   44.0860   16.6440 C   0  0  0  0  0
   10.3210   44.7650   17.4590 O   0  0  0  0  0
    8.6650   41.9570   16.5780 C   0  0  0  0  0
    8.6110   40.1870   16.4810 S   0  0  0  0  0
    9.2230   44.7970   15.5740 N   0  0  0  0  0
    8.9590   46.2370   15.4660 C   0  0  0  0  0
    7.5310   46.6340   15.2370 C   0  0  0  0  0
    6.8160   45.7000   14.9330 O   0  0  0  0  0
    9.8840   46.6810   14.3210 C   0  0  0  0  0
   11.3240   46.3130   14.4790 C   0  0  0  0  0
   12.1960   47.0850   15.1450 C   0  0  0  0  0
   11.9000   45.1360   14.0200 C   0  0  0  0  0
   13.4930   46.8850   15.4020 C   0  0  0  0  0
   13.2350   44.8250   14.2100 C   0  0  0  0  0
   13.9980   45.6890   14.8810 C   0  0  0  0  0
    7.1490   47.8730   15.4220 N   0  0  0  0  0
    5.7680   48.2960   15.2880 C   0  0  0  0  0
    5.1060   48.1150   13.9450 C   0  0  0  0  0
    3.8710   48.0460   13.9080 O   0  0  0  0  0
    5.7970   49.7590   15.7230 C   0  0  0  0  0
    7.0690   49.9360   16.4670 C   0  0  0  0  0
    8.0480   48.9720   15.8350 C   0  0  0  0  0
    5.8620   47.9380   12.8670 N   0  0  0  0  0
    5.2610   47.7390   11.5470 C   0  0  0  0  0
    5.0080   46.2660   11.2410 C   0  0  0  0  0
    4.5570   45.9240   10.1390 O   0  0  0  0  0
    6.1590   48.3320   10.4600 C   0  0  0  0  0
    7.5720   47.7710   10.4660 C   0  0  0  0  0
    7.8870   46.8050   11.1900 O   0  0  0  0  0
    8.3750   48.3800    9.7120 O   0  0  0  0  0
    5.7633   45.7211   13.0572 H   0  0  0  0  0
    4.4023   43.8401   11.2093 H   0  0  0  0  0
    4.9068   43.5214   12.9362 H   0  0  0  0  0
    7.5334   44.9496   11.4813 H   0  0  0  0  0
    8.5328   42.6312   10.0716 H   0  0  0  0  0
   10.8060   43.6510   10.5087 H   0  0  0  0  0
    9.8682   45.0368   11.2655 H   0  0  0  0  0
    8.7654   45.3973    9.1245 H   0  0  0  0  0
    9.7415   44.0882    8.3988 H   0  0  0  0  0
   10.4983   46.5948    8.1887 H   0  0  0  0  0
   11.7039   45.2984    8.5228 H   0  0  0  0  0
   10.7909   46.2346   10.9934 H   0  0  0  0  0
   13.4118   48.7218    9.1964 H   0  0  0  0  0
   12.5052   47.5591    8.2231 H   0  0  0  0  0
   11.9375   47.6683   12.2531 H   0  0  0  0  0
    9.8462   40.9371   10.9412 H   0  0  0  0  0
   10.6705   41.2735   13.7683 H   0  0  0  0  0
   10.2361   39.0180   14.3615 H   0  0  0  0  0
    9.2271   38.8995   12.7569 H   0  0  0  0  0
   12.6910   40.2663   14.1766 H   0  0  0  0  0
   14.3095   39.2763   11.9712 H   0  0  0  0  0
   16.0145   38.7762   13.5714 H   0  0  0  0  0
   15.3690   38.7620   15.8793 H   0  0  0  0  0
   15.8079   41.1056   13.1990 H   0  0  0  0  0
   14.6277   41.2433   14.5254 H   0  0  0  0  0
   16.3052   40.7574   14.8731 H   0  0  0  0  0
   15.2209   36.7860   12.1909 H   0  0  0  0  0
   12.8038   35.1580   12.9670 H   0  0  0  0  0
   13.7860   33.4559   11.3045 H   0  0  0  0  0
   14.9209   34.7269   10.8056 H   0  0  0  0  0
   12.9241   36.2386   10.4355 H   0  0  0  0  0
   11.8883   34.7477   10.6617 H   0  0  0  0  0
   12.9042   33.7477    8.7317 H   0  0  0  0  0
   13.9657   35.1921    8.5185 H   0  0  0  0  0
   12.0368   36.5850    8.0743 H   0  0  0  0  0
   10.9299   35.1842    8.3806 H   0  0  0  0  0
   11.2432   35.5931    6.0266 H   0  0  0  0  0
   12.8918   35.3996    6.1727 H   0  0  0  0  0
   11.8735   34.1110    6.4545 H   0  0  0  0  0
   14.7227   35.9870   14.9694 H   0  0  0  0  0
   16.2795   33.4994   15.5202 H   0  0  0  0  0
   17.3359   35.6671   16.0390 H   0  0  0  0  0
   16.8610   34.9564   17.6072 H   0  0  0  0  0
   16.2079   37.1911   17.4051 H   0  0  0  0  0
   16.0837   32.5656   17.8692 H   0  0  0  0  0
   13.1538   32.7703   18.7323 H   0  0  0  0  0
   15.2553   30.6404   19.1948 H   0  0  0  0  0
   13.9326   30.6634   17.0882 H   0  0  0  0  0
   12.4601   30.3729   18.1348 H   0  0  0  0  0
   14.0954   31.0963   21.3255 H   0  0  0  0  0
   12.5190   30.9518   20.5099 H   0  0  0  0  0
   13.5806   29.5294   20.6541 H   0  0  0  0  0
   14.8747   28.5682   17.8749 H   0  0  0  0  0
   13.4416   28.2855   18.8935 H   0  0  0  0  0
   13.2839   28.3034   17.1198 H   0  0  0  0  0
   12.0935   33.8303   19.8810 H   0  0  0  0  0
   11.4561   34.4497   22.1830 H   0  0  0  0  0
   11.3699   35.9986   21.4194 H   0  0  0  0  0
   13.0034   35.5544   23.5358 H   0  0  0  0  0
   13.4258   36.7092   22.2786 H   0  0  0  0  0
   15.3134   35.4043   21.9175 H   0  0  0  0  0
   14.7241   34.1368   22.8975 H   0  0  0  0  0
   12.8939   36.8688   16.9398 H   0  0  0  0  0
   10.7668   36.5015   15.8581 H   0  0  0  0  0
   10.3515   38.0498   16.5551 H   0  0  0  0  0
    8.9337   35.8329   17.1386 H   0  0  0  0  0
    9.1469   37.0932   18.3061 H   0  0  0  0  0
   10.1290   35.3384   19.5784 H   0  0  0  0  0
   10.5226   34.4071   18.1862 H   0  0  0  0  0
   13.3453   38.9724   16.5706 H   0  0  0  0  0
   12.7204   40.9049   18.7930 H   0  0  0  0  0
   14.7886   41.1387   16.6305 H   0  0  0  0  0
   14.9421   39.4131   18.5386 H   0  0  0  0  0
   15.2592   40.9580   19.5490 H   0  0  0  0  0
   13.7462   43.2754   17.3930 H   0  0  0  0  0
   14.0422   42.8051   19.0848 H   0  0  0  0  0
   15.4149   43.1168   17.9941 H   0  0  0  0  0
   16.9105   39.8749   17.3003 H   0  0  0  0  0
   17.2120   41.3436   18.2610 H   0  0  0  0  0
   17.2772   39.7426   19.0379 H   0  0  0  0  0
   10.8765   42.1429   18.3033 H   0  0  0  0  0
   10.4108   42.5105   15.4003 H   0  0  0  0  0
    8.0421   42.3079   15.7552 H   0  0  0  0  0
    8.3605   42.1972   17.5967 H   0  0  0  0  0
    9.0413   44.2529   14.7306 H   0  0  0  0  0
    9.1561   46.7307   16.4176 H   0  0  0  0  0
    9.8428   47.7699   14.2927 H   0  0  0  0  0
    9.5308   46.1753   13.4223 H   0  0  0  0  0
   11.7852   48.0160   15.5357 H   0  0  0  0  0
   11.2715   44.4239   13.4852 H   0  0  0  0  0
   14.1021   47.5907   15.9668 H   0  0  0  0  0
   13.6528   43.8965   13.8208 H   0  0  0  0  0
   15.0523   45.4549   15.0286 H   0  0  0  0  0
    5.1372   47.6479   15.8963 H   0  0  0  0  0
    4.9366   50.0041   16.3457 H   0  0  0  0  0
    5.7439   50.4285   14.8645 H   0  0  0  0  0
    6.9401   49.7329   17.5301 H   0  0  0  0  0
    7.4264   50.9639   16.4058 H   0  0  0  0  0
    8.6181   49.4037   15.0124 H   0  0  0  0  0
    8.8461   48.6556   16.5066 H   0  0  0  0  0
    6.8777   47.9408   12.9606 H   0  0  0  0  0
    4.2985   48.2504   11.5581 H   0  0  0  0  0
    6.2318   49.4038   10.6445 H   0  0  0  0  0
    5.7131   48.0850    9.4966 H   0  0  0  0  0
    7.9105   49.0843    9.2539 H   0  0  0  0  0
  1  2  1  0  0  0
  1100  1  0  0  0
  2  3  1  0  0  0
  3  4  2  0  0  0
  3  5  1  0  0  0
  5  6  1  0  0  0
  6  7  1  0  0  0
  6  9  1  0  0  0
  7  8  2  0  0  0
  7 16  1  0  0  0
  9 10  1  0  0  0
 10 11  1  0  0  0
 11 12  1  0  0  0
 12 13  1  0  0  0
 13 14  1  0  0  0
 13 15  2  0  0  0
 16 17  1  0  0  0
 17 18  1  0  0  0
 17 20  1  0  0  0
 18 19  2  0  0  0
 18 22  1  0  0  0
 20 21  1  0  0  0
 21 79  1  0  0  0
 22 23  1  0  0  0
 23 24  1  0  0  0
 23 26  1  0  0  0
 24 25  2  0  0  0
 24 29  1  0  0  0
 26 27  1  0  0  0
 26 28  1  0  0  0
 29 30  1  0  0  0
 30 31  1  0  0  0
 30 33  1  0  0  0
 31 32  2  0  0  0
 31 38  1  0  0  0
 33 34  1  0  0  0
 34 35  1  0  0  0
 35 36  1  0  0  0
 36 37  1  0  0  0
 38 39  1  0  0  0
 39 40  1  0  0  0
 39 42  1  0  0  0
 40 41  2  0  0  0
 40 44  1  0  0  0
 42 43  1  0  0  0
 44 45  1  0  0  0
 45 46  1  0  0  0
 45 48  1  0  0  0
 46 47  2  0  0  0
 46 52  1  0  0  0
 48 49  1  0  0  0
 48 50  1  0  0  0
 49 51  1  0  0  0
 52 53  1  0  0  0
 52 58  1  0  0  0
 53 54  1  0  0  0
 53 56  1  0  0  0
 54 55  2  0  0  0
 54 59  1  0  0  0
 56 57  1  0  0  0
 57 58  1  0  0  0
 59 60  1  0  0  0
 59 65  1  0  0  0
 60 61  1  0  0  0
 60 63  1  0  0  0
 61 62  2  0  0  0
 61 66  1  0  0  0
 63 64  1  0  0  0
 64 65  1  0  0  0
 66 67  1  0  0  0
 67 68  1  0  0  0
 67 70  1  0  0  0
 68 69  2  0  0  0
 68 74  1  0  0  0
 70 71  1  0  0  0
 70 72  1  0  0  0
 71 73  1  0  0  0
 74 75  1  0  0  0
 75 76  1  0  0  0
 75 78  1  0  0  0
 76 77  2  0  0  0
 76 80  1  0  0  0
 78 79  1  0  0  0
 80 81  1  0  0  0
 81 82  1  0  0  0
 81 84  1  0  0  0
 82 83  2  0  0  0
 82 91  1  0  0  0
 84 85  1  0  0  0
 85 86  4  0  0  0
 85 87  4  0  0  0
 86 88  4  0  0  0
 87 89  4  0  0  0
 88 90  4  0  0  0
 89 90  4  0  0  0
 91 92  1  0  0  0
 91 97  1  0  0  0
 92 93  1  0  0  0
 92 95  1  0  0  0
 93 94  2  0  0  0
 93 98  1  0  0  0
 95 96  1  0  0  0
 96 97  1  0  0  0
 98 99  1  0  0  0
 99100  1  0  0  0
 99102  1  0  0  0
100101  2  0  0  0
102103  1  0  0  0
103104  2  0  0  0
103105  1  0  0  0
  1106  1  0  0  0
  2107  1  0  0  0
  2108  1  0  0  0
  5109  1  0  0  0
  6110  1  0  0  0
  9111  1  0  0  0
  9112  1  0  0  0
 10113  1  0  0  0
 10114  1  0  0  0
 11115  1  0  0  0
 11116  1  0  0  0
 12117  1  0  0  0
 14118  1  0  0  0
 14119  1  0  0  0
 15120  1  0  0  0
 16121  1  0  0  0
 17122  1  0  0  0
 20123  1  0  0  0
 20124  1  0  0  0
 22125  1  0  0  0
 23126  1  0  0  0
 26127  1  0  0  0
 27128  1  0  0  0
 28129  1  0  0  0
 28130  1  0  0  0
 28131  1  0  0  0
 29132  1  0  0  0
 30133  1  0  0  0
 33134  1  0  0  0
 33135  1  0  0  0
 34136  1  0  0  0
 34137  1  0  0  0
 35138  1  0  0  0
 35139  1  0  0  0
 36140  1  0  0  0
 36141  1  0  0  0
 37142  1  0  0  0
 37143  1  0  0  0
 37144  1  0  0  0
 38145  1  0  0  0
 39146  1  0  0  0
 42147  1  0  0  0
 42148  1  0  0  0
 43149  1  0  0  0
 44150  1  0  0  0
 45151  1  0  0  0
 48152  1  0  0  0
 49153  1  0  0  0
 49154  1  0  0  0
 50155  1  0  0  0
 50156  1  0  0  0
 50157  1  0  0  0
 51158  1  0  0  0
 51159  1  0  0  0
 51160  1  0  0  0
 53161  1  0  0  0
 56162  1  0  0  0
 56163  1  0  0  0
 57164  1  0  0  0
 57165  1  0  0  0
 58166  1  0  0  0
 58167  1  0  0  0
 60168  1  0  0  0
 63169  1  0  0  0
 63170  1  0  0  0
 64171  1  0  0  0
 64172  1  0  0  0
 65173  1  0  0  0
 65174  1  0  0  0
 66175  1  0  0  0
 67176  1  0  0  0
 70177  1  0  0  0
 71178  1  0  0  0
 71179  1  0  0  0
 72180  1  0  0  0
 72181  1  0  0  0
 72182  1  0  0  0
 73183  1  0  0  0
 73184  1  0  0  0
 73185  1  0  0  0
 74186  1  0  0  0
 75187  1  0  0  0
 78188  1  0  0  0
 78189  1  0  0  0
 80190  1  0  0  0
 81191  1  0  0  0
 84192  1  0  0  0
 84193  1  0  0  0
 86194  1  0  0  0
 87195  1  0  0  0
 88196  1  0  0  0
 89197  1  0  0  0
 90198  1  0  0  0
 92199  1  0  0  0
 95200  1  0  0  0
 95201  1  0  0  0
 96202  1  0  0  0
 96203  1  0  0  0
 97204  1  0  0  0
 97205  1  0  0  0
 98206  1  0  0  0
 99207  1  0  0  0
102208  1  0  0  0
102209  1  0  0  0
105210  1  0  0  0
M  END
$$$$
