### 
### Created by X-TOOL on Mon Sep 10 21:12:46 2018
### 

@<TRIPOS>MOLECULE
1sfi_ligand
  210   215     1     0     0
SMALL
GAST_HUCK


@<TRIPOS>ATOM
      1 N           5.3590   45.3880   12.1820 N.am      1 GLY        -0.2663
      2 CA          5.1710   43.9580   11.9730 C.3       1 GLY         0.1201
      3 C           6.4200   43.2370   11.4750 C.2       1 GLY         0.2007
      4 O           6.3500   42.0360   11.1990 O.2       1 GLY        -0.3947
      5 N           7.5370   43.9420   11.3230 N.am      1 ARG        -0.2640
      6 CA          8.7720   43.2630   10.9270 C.3       1 ARG         0.1311
      7 C           9.2970   42.4930   12.1540 C.2       1 ARG         0.2039
      8 O           9.1860   43.0120   13.2520 O.2       1 ARG        -0.3944
      9 CB          9.8810   44.2270   10.5360 C.3       1 ARG        -0.0092
     10 CG          9.7170   44.8670    9.1610 C.3       1 ARG        -0.0156
     11 CD         10.8450   45.8500    8.9050 C.3       1 ARG         0.0627
     12 NE         11.2440   46.5370   10.1310 N.pl3     1 ARG        -0.2723
     13 CZ         12.1300   47.5080   10.2370 C.cat     1 ARG         0.2882
     14 NH1        12.7300   47.9660    9.1310 N.pl3     1 ARG        -0.2849
     15 NH2        12.4080   48.0220   11.4200 N.pl3     1 ARG        -0.2849
     16 N           9.8510   41.3090   11.8910 N.am      1 CYS        -0.2629
     17 CA         10.4660   40.5490   12.9800 C.3       1 CYS         0.1406
     18 C          11.7190   39.8530   12.4180 C.2       1 CYS         0.2048
     19 O          11.7250   39.3980   11.2680 O.2       1 CYS        -0.3944
     20 CB          9.5920   39.4730   13.6090 C.3       1 CYS         0.0443
     21 SG          8.0980   39.8990   14.5170 S.3       1 CYS        -0.0882
     22 N          12.7480   39.7760   13.2840 N.am      1 THR        -0.2613
     23 CA         13.9520   38.9960   12.9620 C.3       1 THR         0.1565
     24 C          13.5320   37.5330   13.1090 C.2       1 THR         0.2065
     25 O          12.5250   37.2260   13.7630 O.2       1 THR        -0.3943
     26 CB         15.1070   39.2340   13.9650 C.3       1 THR         0.0924
     27 OG1        14.6820   38.6400   15.2200 O.3       1 THR        -0.3874
     28 CG2        15.4890   40.6880   14.1540 C.3       1 THR        -0.0346
     29 N          14.3170   36.5600   12.6060 N.am      1 LYS        -0.2637
     30 CA         13.8510   35.1720   12.6650 C.3       1 LYS         0.1310
     31 C          14.5620   34.3640   13.7500 C.2       1 LYS         0.2040
     32 O          15.0160   33.2530   13.4810 O.2       1 LYS        -0.3944
     33 CB         13.9380   34.5330   11.2350 C.3       1 LYS        -0.0122
     34 CG         12.8450   35.1560   10.3360 C.3       1 LYS        -0.0440
     35 CD         12.9950   34.8270    8.8540 C.3       1 LYS        -0.0124
     36 CE         11.9000   35.5060    8.0020 C.3       1 LYS        -0.0354
     37 NZ         11.9840   35.1210    6.5450 N.4       1 LYS         0.2185
     38 N          14.9380   34.9960   14.8600 N.am      1 SER        -0.2616
     39 CA         15.6540   34.2950   15.9250 C.3       1 SER         0.1539
     40 C          14.6650   33.6760   16.8950 C.2       1 SER         0.2062
     41 O          13.4740   34.0070   16.7830 O.2       1 SER        -0.3943
     42 CB         16.4960   35.3720   16.6680 C.3       1 SER         0.0843
     43 OG         15.6800   36.5330   16.9470 O.3       1 SER        -0.3903
     44 N          15.1170   32.8910   17.8700 N.am      1 ILE        -0.2634
     45 CA         14.1830   32.4960   18.9640 C.3       1 ILE         0.1337
     46 C          14.6920   33.2030   20.2130 C.2       1 ILE         0.2067
     47 O          15.8270   32.8960   20.6190 O.2       1 ILE        -0.3942
     48 CB         14.2160   30.9680   19.1710 C.3       1 ILE        -0.0037
     49 CG1        13.5350   30.2410   18.0110 C.3       1 ILE        -0.0491
     50 CG2        13.5540   30.6100   20.5140 C.3       1 ILE        -0.0582
     51 CD1        13.8030   28.7420   17.9720 C.3       1 ILE        -0.0648
     52 N          13.9500   34.0880   20.8820 N.am      1 PRO        -0.2498
     53 CA         12.6810   34.5970   20.3860 C.3       1 PRO         0.1340
     54 C          12.8820   35.7260   19.3900 C.2       1 PRO         0.2066
     55 O          14.0020   36.2270   19.2110 O.2       1 PRO        -0.3942
     56 CB         12.0580   35.1850   21.6490 C.3       1 PRO        -0.0104
     57 CG         13.2230   35.6560   22.4730 C.3       1 PRO        -0.0281
     58 CD         14.4170   34.8110   22.0980 C.3       1 PRO         0.0369
     59 N          11.8770   36.0190   18.5540 N.am      1 PRO        -0.2498
     60 CA         12.0100   37.0610   17.5480 C.3       1 PRO         0.1338
     61 C          12.1760   38.4510   18.1310 C.2       1 PRO         0.2041
     62 O          11.6240   38.7640   19.2020 O.2       1 PRO        -0.3944
     63 CB         10.6760   37.0390   16.8020 C.3       1 PRO        -0.0104
     64 CG          9.6960   36.3710   17.7020 C.3       1 PRO        -0.0281
     65 CD         10.5280   35.4280   18.5680 C.3       1 PRO         0.0369
     66 N          12.8690   39.3100   17.4070 N.am      1 ILE        -0.2635
     67 CA         12.9810   40.7140   17.7520 C.3       1 ILE         0.1335
     68 C          12.0220   41.4080   16.7650 C.2       1 ILE         0.2042
     69 O          12.2540   41.2970   15.5580 O.2       1 ILE        -0.3944
     70 CB         14.4110   41.2400   17.6480 C.3       1 ILE        -0.0037
     71 CG1        15.3120   40.4370   18.5930 C.3       1 ILE        -0.0491
     72 CG2        14.4030   42.7170   18.0600 C.3       1 ILE        -0.0582
     73 CD1        16.7800   40.3430   18.2760 C.3       1 ILE        -0.0648
     74 N          10.9760   42.0550   17.2920 N.am      1 CYS        -0.2629
     75 CA          9.9760   42.6350   16.3920 C.3       1 CYS         0.1406
     76 C           9.6770   44.0860   16.6440 C.2       1 CYS         0.2049
     77 O          10.3210   44.7650   17.4590 O.2       1 CYS        -0.3943
     78 CB          8.6650   41.9570   16.5780 C.3       1 CYS         0.0443
     79 SG          8.6110   40.1870   16.4810 S.3       1 CYS        -0.0882
     80 N           9.2230   44.7970   15.5740 N.am      1 PHE        -0.2619
     81 CA          8.9590   46.2370   15.4660 C.3       1 PHE         0.1406
     82 C           7.5310   46.6340   15.2370 C.2       1 PHE         0.2085
     83 O           6.8160   45.7000   14.9330 O.2       1 PHE        -0.3940
     84 CB          9.8840   46.6810   14.3210 C.3       1 PHE         0.0214
     85 CG         11.3240   46.3130   14.4790 C.ar      1 PHE        -0.0386
     86 CD1        12.1960   47.0850   15.1450 C.ar      1 PHE        -0.0601
     87 CD2        11.9000   45.1360   14.0200 C.ar      1 PHE        -0.0601
     88 CE1        13.4930   46.8850   15.4020 C.ar      1 PHE        -0.0686
     89 CE2        13.2350   44.8250   14.2100 C.ar      1 PHE        -0.0686
     90 CZ         13.9980   45.6890   14.8810 C.ar      1 PHE        -0.0687
     91 N           7.1490   47.8730   15.4220 N.am      1 PRO        -0.2497
     92 CA          5.7680   48.2960   15.2880 C.3       1 PRO         0.1338
     93 C           5.1060   48.1150   13.9450 C.2       1 PRO         0.2042
     94 O           3.8710   48.0460   13.9080 O.2       1 PRO        -0.3944
     95 CB          5.7970   49.7590   15.7230 C.3       1 PRO        -0.0104
     96 CG          7.0690   49.9360   16.4670 C.3       1 PRO        -0.0281
     97 CD          8.0480   48.9720   15.8350 C.3       1 PRO         0.0369
     98 N           5.8620   47.9380   12.8670 N.am      1 ASP        -0.2622
     99 CA          5.2610   47.7390   11.5470 C.3       1 ASP         0.1423
    100 C           5.0080   46.2660   11.2410 C.2       1 ASP         0.2054
    101 O           4.5570   45.9240   10.1390 O.2       1 ASP        -0.3943
    102 CB          6.1590   48.3320   10.4600 C.3       1 ASP         0.0406
    103 CG          7.5720   47.7710   10.4660 C.2       1 ASP         0.0393
    104 OD1         7.8870   46.8050   11.1900 O.co2     1 ASP        -0.5688
    105 OD2         8.3750   48.3800    9.7120 O.co2     1 ASP        -0.5688
    106 H1          5.7554   45.7146   13.0400 H         1 GLY         0.1881
    107 H2          4.3714   43.8185   11.2306 H         1 GLY         0.0763
    108 H3          4.8674   43.5052   12.9284 H         1 GLY         0.0763
    109 H4          7.5335   44.9299   11.4782 H         1 ARG         0.1883
    110 H5          8.5623   42.5772   10.0929 H         1 ARG         0.0800
    111 H6         10.8328   43.6757   10.5454 H         1 ARG         0.0313
    112 H7          9.9156   45.0311   11.2858 H         1 ARG         0.0313
    113 H8          8.7549   45.3986    9.1196 H         1 ARG         0.0301
    114 H9          9.7361   44.0826    8.3900 H         1 ARG         0.0301
    115 H10        10.5091   46.5963    8.1701 H         1 ARG         0.0689
    116 H11        11.7111   45.3037    8.5032 H         1 ARG         0.0689
    117 H12        10.7864   46.2317   11.0018 H         1 ARG         0.2642
    118 H13        13.4241   48.7240    9.1980 H         1 ARG         0.2615
    119 H14        12.4974   47.5603    8.2133 H         1 ARG         0.2615
    120 H15        11.9386   47.6596   12.2622 H         1 ARG         0.2615
    121 H16        13.0944   48.7856   11.5013 H         1 ARG         0.2615
    122 H17         9.8463   40.9444   10.9599 H         1 CYS         0.1884
    123 H18        10.7571   41.2581   13.7689 H         1 CYS         0.0808
    124 H19        10.2348   38.9188   14.3088 H         1 CYS         0.0432
    125 H20         9.2804   38.8068   12.7911 H         1 CYS         0.0432
    126 H21        12.6921   40.2566   14.1591 H         1 THR         0.1884
    127 H22        14.2898   39.2190   11.9392 H         1 THR         0.0826
    128 H23        15.9987   38.7037   13.5993 H         1 THR         0.0639
    129 H24        14.5251   37.7118   15.0926 H         1 THR         0.2101
    130 H25        16.3127   40.7593   14.8795 H         1 THR         0.0257
    131 H26        14.6206   41.2495   14.5289 H         1 THR         0.0257
    132 H27        15.8111   41.1107   13.1909 H         1 THR         0.0257
    133 H28        15.2032   36.7816   12.1991 H         1 LYS         0.1883
    134 H29        12.7868   35.1956   12.9424 H         1 LYS         0.0800
    135 H30        13.7811   33.4466   11.3066 H         1 LYS         0.0312
    136 H31        14.9292   34.7326   10.8019 H         1 LYS         0.0312
    137 H32        12.8834   36.2491   10.4527 H         1 LYS         0.0269
    138 H33        11.8664   34.7852   10.6747 H         1 LYS         0.0269
    139 H34        12.9240   33.7372    8.7222 H         1 LYS         0.0317
    140 H35        13.9803   35.1745    8.5100 H         1 LYS         0.0317
    141 H36        12.0125   36.5970    8.0862 H         1 LYS         0.0813
    142 H37        10.9148   35.2079    8.3900 H         1 LYS         0.0813
    143 H38        11.2523   35.5870    6.0316 H         1 LYS         0.1994
    144 H39        11.8749   34.1230    6.4543 H         1 LYS         0.1994
    145 H40        12.8808   35.3959    6.1760 H         1 LYS         0.1994
    146 H41        14.7269   35.9676   14.9673 H         1 SER         0.1884
    147 H42        16.3052   33.5149   15.5038 H         1 SER         0.0823
    148 H43        17.3469   35.6682   16.0370 H         1 SER         0.0606
    149 H44        16.8693   34.9534   17.6143 H         1 SER         0.0606
    150 H45        14.9454   36.2786   17.4930 H         1 SER         0.2097
    151 H46        16.0648   32.5720   17.8692 H         1 ILE         0.1883
    152 H47        13.1569   32.8155   18.7295 H         1 ILE         0.0803
    153 H48        15.2671   30.6458   19.2062 H         1 ILE         0.0345
    154 H49        13.8949   30.6806   17.0691 H         1 ILE         0.0267
    155 H50        12.4493   30.3954   18.0965 H         1 ILE         0.0267
    156 H51        14.0633   31.1462   21.3283 H         1 ILE         0.0235
    157 H52        13.6319   29.5260   20.6838 H         1 ILE         0.0235
    158 H53        12.4938   30.9021   20.4896 H         1 ILE         0.0235
    159 H54        13.2796   28.2982   17.1123 H         1 ILE         0.0230
    160 H55        13.4386   28.2800   18.9014 H         1 ILE         0.0230
    161 H56        14.8843   28.5652   17.8740 H         1 ILE         0.0230
    162 H57        12.0657   33.7985   19.9458 H         1 PRO         0.0802
    163 H58        11.4857   34.4179   22.1913 H         1 PRO         0.0313
    164 H59        11.3963   36.0271   21.3980 H         1 PRO         0.0313
    165 H60        12.9990   35.5353   23.5432 H         1 PRO         0.0287
    166 H61        13.4305   36.7148   22.2589 H         1 PRO         0.0287
    167 H62        15.2908   35.4400   21.8724 H         1 PRO         0.0524
    168 H63        14.6707   34.1062   22.9035 H         1 PRO         0.0524
    169 H64        12.8525   36.8374   16.8771 H         1 PRO         0.0802
    170 H65        10.7754   36.4742   15.8633 H         1 PRO         0.0313
    171 H66        10.3486   38.0653   16.5796 H         1 PRO         0.0313
    172 H67         8.9568   35.8054   17.1158 H         1 PRO         0.0287
    173 H68         9.1780   37.1131   18.3273 H         1 PRO         0.0287
    174 H69        10.1307   35.3873   19.5929 H         1 PRO         0.0524
    175 H70        10.5415   34.4150   18.1394 H         1 PRO         0.0524
    176 H71        13.3359   38.9790   16.5870 H         1 ILE         0.1883
    177 H72        12.6342   40.8726   18.7838 H         1 ILE         0.0803
    178 H73        14.7759   41.1411   16.6150 H         1 ILE         0.0345
    179 H74        14.9194   39.4099   18.6218 H         1 ILE         0.0267
    180 H75        15.2235   40.8915   19.5908 H         1 ILE         0.0267
    181 H76        13.7543   43.2847   17.3767 H         1 ILE         0.0235
    182 H77        15.4265   43.1170   18.0109 H         1 ILE         0.0235
    183 H78        14.0223   42.8089   19.0879 H         1 ILE         0.0235
    184 H79        17.2829   39.7373   19.0442 H         1 ILE         0.0230
    185 H80        17.2172   41.3523   18.2606 H         1 ILE         0.0230
    186 H81        16.9131   39.8706   17.2915 H         1 ILE         0.0230
    187 H82        10.8785   42.1412   18.2835 H         1 CYS         0.1884
    188 H83        10.3284   42.5084   15.3577 H         1 CYS         0.0808
    189 H84         7.9849   42.3461   15.8059 H         1 CYS         0.0432
    190 H85         8.2905   42.2399   17.5728 H         1 CYS         0.0432
    191 H86         9.0448   44.2636   14.7471 H         1 PHE         0.1885
    192 H87         9.2778   46.7222   16.4003 H         1 PHE         0.0823
    193 H88         9.8209   47.7761   14.2393 H         1 PHE         0.0474
    194 H89         9.5169   46.2222   13.3911 H         1 PHE         0.0474
    195 H90        11.7874   48.0108   15.5335 H         1 PHE         0.0557
    196 H91        11.2750   44.4278   13.4881 H         1 PHE         0.0557
    197 H92        14.0988   47.5868   15.9637 H         1 PHE         0.0599
    198 H93        13.6505   43.9016   13.8229 H         1 PHE         0.0599
    199 H94        15.0465   45.4562   15.0278 H         1 PHE         0.0559
    200 H95         5.1674   47.7200   16.0073 H         1 PRO         0.0802
    201 H96         4.9387   49.9819   16.3738 H         1 PRO         0.0313
    202 H97         5.7724   50.4202   14.8443 H         1 PRO         0.0313
    203 H98         6.9277   49.6968   17.5313 H         1 PRO         0.0287
    204 H99         7.4307   50.9701   16.3684 H         1 PRO         0.0287
    205 H100        8.5556   49.4234   14.9698 H         1 PRO         0.0524
    206 H101        8.7985   48.6267   16.5613 H         1 PRO         0.0524
    207 H102        6.8578   47.9407   12.9587 H         1 ASP         0.1884
    208 H103        4.2949   48.2648   11.5303 H         1 ASP         0.0819
    209 H104        6.2161   49.4201   10.6111 H         1 ASP         0.0478
    210 H105        5.7052   48.1211    9.4804 H         1 ASP         0.0478
@<TRIPOS>BOND
     1    1    2 1  
     2    1  100 am 
     3    2    3 1  
     4    3    4 2  
     5    3    5 am 
     6    5    6 1  
     7    6    7 1  
     8    6    9 1  
     9    7    8 2  
    10    7   16 am 
    11    9   10 1  
    12   10   11 1  
    13   11   12 1  
    14   12   13 ar 
    15   13   14 ar 
    16   13   15 ar 
    17   16   17 1  
    18   17   18 1  
    19   17   20 1  
    20   18   19 2  
    21   18   22 am 
    22   20   21 1  
    23   21   79 1  
    24   22   23 1  
    25   23   24 1  
    26   23   26 1  
    27   24   25 2  
    28   24   29 am 
    29   26   27 1  
    30   26   28 1  
    31   29   30 1  
    32   30   31 1  
    33   30   33 1  
    34   31   32 2  
    35   31   38 am 
    36   33   34 1  
    37   34   35 1  
    38   35   36 1  
    39   36   37 1  
    40   38   39 1  
    41   39   40 1  
    42   39   42 1  
    43   40   41 2  
    44   40   44 am 
    45   42   43 1  
    46   44   45 1  
    47   45   46 1  
    48   45   48 1  
    49   46   47 2  
    50   46   52 am 
    51   48   49 1  
    52   48   50 1  
    53   49   51 1  
    54   52   53 1  
    55   52   58 1  
    56   53   54 1  
    57   53   56 1  
    58   54   55 2  
    59   54   59 am 
    60   56   57 1  
    61   57   58 1  
    62   59   60 1  
    63   59   65 1  
    64   60   61 1  
    65   60   63 1  
    66   61   62 2  
    67   61   66 am 
    68   63   64 1  
    69   64   65 1  
    70   66   67 1  
    71   67   68 1  
    72   67   70 1  
    73   68   69 2  
    74   68   74 am 
    75   70   71 1  
    76   70   72 1  
    77   71   73 1  
    78   74   75 1  
    79   75   76 1  
    80   75   78 1  
    81   76   77 2  
    82   76   80 am 
    83   78   79 1  
    84   80   81 1  
    85   81   82 1  
    86   81   84 1  
    87   82   83 2  
    88   82   91 am 
    89   84   85 1  
    90   85   86 ar 
    91   85   87 ar 
    92   86   88 ar 
    93   87   89 ar 
    94   88   90 ar 
    95   89   90 ar 
    96   91   92 1  
    97   91   97 1  
    98   92   93 1  
    99   92   95 1  
   100   93   94 2  
   101   93   98 am 
   102   95   96 1  
   103   96   97 1  
   104   98   99 1  
   105   99  100 1  
   106   99  102 1  
   107  100  101 2  
   108  102  103 1  
   109  103  104 ar 
   110  103  105 ar 
   111    1  106 1  
   112    2  107 1  
   113    2  108 1  
   114    5  109 1  
   115    6  110 1  
   116    9  111 1  
   117    9  112 1  
   118   10  113 1  
   119   10  114 1  
   120   11  115 1  
   121   11  116 1  
   122   12  117 1  
   123   14  118 1  
   124   14  119 1  
   125   15  120 1  
   126   15  121 1  
   127   16  122 1  
   128   17  123 1  
   129   20  124 1  
   130   20  125 1  
   131   22  126 1  
   132   23  127 1  
   133   26  128 1  
   134   27  129 1  
   135   28  130 1  
   136   28  131 1  
   137   28  132 1  
   138   29  133 1  
   139   30  134 1  
   140   33  135 1  
   141   33  136 1  
   142   34  137 1  
   143   34  138 1  
   144   35  139 1  
   145   35  140 1  
   146   36  141 1  
   147   36  142 1  
   148   37  143 1  
   149   37  144 1  
   150   37  145 1  
   151   38  146 1  
   152   39  147 1  
   153   42  148 1  
   154   42  149 1  
   155   43  150 1  
   156   44  151 1  
   157   45  152 1  
   158   48  153 1  
   159   49  154 1  
   160   49  155 1  
   161   50  156 1  
   162   50  157 1  
   163   50  158 1  
   164   51  159 1  
   165   51  160 1  
   166   51  161 1  
   167   53  162 1  
   168   56  163 1  
   169   56  164 1  
   170   57  165 1  
   171   57  166 1  
   172   58  167 1  
   173   58  168 1  
   174   60  169 1  
   175   63  170 1  
   176   63  171 1  
   177   64  172 1  
   178   64  173 1  
   179   65  174 1  
   180   65  175 1  
   181   66  176 1  
   182   67  177 1  
   183   70  178 1  
   184   71  179 1  
   185   71  180 1  
   186   72  181 1  
   187   72  182 1  
   188   72  183 1  
   189   73  184 1  
   190   73  185 1  
   191   73  186 1  
   192   74  187 1  
   193   75  188 1  
   194   78  189 1  
   195   78  190 1  
   196   80  191 1  
   197   81  192 1  
   198   84  193 1  
   199   84  194 1  
   200   86  195 1  
   201   87  196 1  
   202   88  197 1  
   203   89  198 1  
   204   90  199 1  
   205   92  200 1  
   206   95  201 1  
   207   95  202 1  
   208   96  203 1  
   209   96  204 1  
   210   97  205 1  
   211   97  206 1  
   212   98  207 1  
   213   99  208 1  
   214  102  209 1  
   215  102  210 1  
@<TRIPOS>SUBSTRUCTURE
     1 GLY         1

