4r06_ligand
  -I-interpret- 

 58 62  0  0  0  0  0  0  0  0999 V2000
   21.1410   32.0800   20.4700 C   0  0  0  0  0
   21.4230   32.8190   19.3250 C   0  0  0  0  0
   20.7870   32.5370   18.1280 C   0  0  0  0  0
   19.8690   31.5120   18.0850 C   0  0  0  0  0
   19.5920   30.7700   19.2170 C   0  0  0  0  0
   20.2230   31.0630   20.4240 C   0  0  0  0  0
   18.5490   29.6750   19.1200 C   0  0  0  0  0
   18.5270   28.5730   20.1090 C   0  0  0  0  0
   17.1930   28.2750   20.6030 C   0  0  0  0  0
   18.4370   29.2390   17.6910 N   0  0  0  0  0
   19.2210   28.2400   16.9490 C   0  0  0  0  0
   18.7270   28.1610   15.5090 C   0  0  0  0  0
   20.1700   27.6080   17.4370 O   0  0  0  0  0
   19.5560   28.1720   14.3760 C   0  0  0  0  0
   18.9590   28.1570   13.0490 C   0  0  0  0  0
   17.5790   28.1450   12.8990 C   0  0  0  0  0
   16.7540   28.1440   14.0470 C   0  0  0  0  0
   17.3350   28.1640   15.3390 C   0  0  0  0  0
   16.7580   28.1080   11.7750 N   0  0  0  0  0
   15.4610   28.1070   12.1580 C   0  0  0  0  0
   15.4000   28.1220   13.5830 C   0  0  0  0  0
   17.2380   28.1300   10.1950 S   0  0  0  0  0
   16.0410   27.9220    9.4130 O   0  0  0  0  0
   18.2760   27.1180    9.8810 O   0  0  0  0  0
   17.9470   29.8060    9.9910 C   0  0  0  0  0
   19.3770   29.8660    9.9420 C   0  0  0  0  0
   20.0390   31.1280    9.7770 C   0  0  0  0  0
   19.2800   32.2970    9.6830 C   0  0  0  0  0
   17.8070   32.2510    9.7420 C   0  0  0  0  0
   17.1510   31.0230    9.8950 C   0  0  0  0  0
   17.0840   33.4630    9.6380 C   0  0  0  0  0
   15.7220   33.4560    9.6900 C   0  0  0  0  0
   15.0260   32.1990    9.8520 C   0  0  0  0  0
   15.7150   31.0330    9.9510 C   0  0  0  0  0
   21.6511   32.3103   21.4053 H   0  0  0  0  0
   22.1520   33.6280   19.3710 H   0  0  0  0  0
   21.0098   33.1179   17.2330 H   0  0  0  0  0
   19.3566   31.2840   17.1504 H   0  0  0  0  0
   19.9894   30.4902   21.3215 H   0  0  0  0  0
   17.6311   30.1542   19.4603 H   0  0  0  0  0
   19.1339   28.8807   20.9605 H   0  0  0  0  0
   18.9044   27.6777   19.6149 H   0  0  0  0  0
   16.7795   29.1604   21.0859 H   0  0  0  0  0
   16.5549   27.9830   19.7689 H   0  0  0  0  0
   17.2476   27.4588   21.3234 H   0  0  0  0  0
   17.7074   29.7050   17.1517 H   0  0  0  0  0
   20.6399   28.1917   14.4896 H   0  0  0  0  0
   19.5996   28.1552   12.1671 H   0  0  0  0  0
   16.6886   28.1820   16.2164 H   0  0  0  0  0
   14.6021   28.0964   11.4870 H   0  0  0  0  0
   14.4998   28.1176   14.1975 H   0  0  0  0  0
   19.9633   28.9514   10.0302 H   0  0  0  0  0
   21.1268   31.1744    9.7253 H   0  0  0  0  0
   19.7834   33.2565    9.5644 H   0  0  0  0  0
   17.6181   34.4053    9.5159 H   0  0  0  0  0
   15.1632   34.3885    9.6103 H   0  0  0  0  0
   13.9369   32.1872    9.8951 H   0  0  0  0  0
   15.1734   30.0951   10.0742 H   0  0  0  0  0
  1  2  4  0  0  0
  1  6  4  0  0  0
  2  3  4  0  0  0
  3  4  4  0  0  0
  4  5  4  0  0  0
  5  6  4  0  0  0
  5  7  1  0  0  0
  7  8  1  0  0  0
  7 10  1  0  0  0
  8  9  1  0  0  0
 10 11  1  0  0  0
 11 12  1  0  0  0
 11 13  2  0  0  0
 12 14  4  0  0  0
 12 18  4  0  0  0
 14 15  4  0  0  0
 15 16  4  0  0  0
 16 17  4  0  0  0
 16 19  4  0  0  0
 17 18  4  0  0  0
 17 21  4  0  0  0
 19 20  4  0  0  0
 19 22  1  0  0  0
 20 21  4  0  0  0
 22 23  2  0  0  0
 22 24  2  0  0  0
 22 25  1  0  0  0
 25 26  4  0  0  0
 25 30  4  0  0  0
 26 27  4  0  0  0
 27 28  4  0  0  0
 28 29  4  0  0  0
 29 30  4  0  0  0
 29 31  4  0  0  0
 30 34  4  0  0  0
 31 32  4  0  0  0
 32 33  4  0  0  0
 33 34  4  0  0  0
  1 35  1  0  0  0
  2 36  1  0  0  0
  3 37  1  0  0  0
  4 38  1  0  0  0
  6 39  1  0  0  0
  7 40  1  0  0  0
  8 41  1  0  0  0
  8 42  1  0  0  0
  9 43  1  0  0  0
  9 44  1  0  0  0
  9 45  1  0  0  0
 10 46  1  0  0  0
 14 47  1  0  0  0
 15 48  1  0  0  0
 18 49  1  0  0  0
 20 50  1  0  0  0
 21 51  1  0  0  0
 26 52  1  0  0  0
 27 53  1  0  0  0
 28 54  1  0  0  0
 31 55  1  0  0  0
 32 56  1  0  0  0
 33 57  1  0  0  0
 34 58  1  0  0  0
M  END
$$$$
