4qlt_ligand
  -I-interpret- 

 87 91  0  0  0  0  0  0  0  0999 V2000
   11.4490 -138.6240   23.8950 C   0  0  0  0  0
   11.6390 -137.1260   23.9650 C   0  0  0  0  0
   12.1720 -136.5350   25.0060 C   0  0  0  0  0
   12.5740 -137.0060   26.1680 C   0  0  0  0  0
   13.1100 -136.2060   27.1440 C   0  0  0  0  0
   13.2100 -134.8810   26.8690 C   0  0  0  0  0
   12.7620 -134.4500   25.6420 C   0  0  0  0  0
   12.2520 -135.2610   24.7380 C   0  0  0  0  0
   11.7360 -135.0330   23.4790 C   0  0  0  0  0
   11.3460 -136.2560   23.0280 C   0  0  0  0  0
   10.7980 -136.5270   21.8520 C   0  0  0  0  0
   10.5770 -137.6590   21.5300 O   0  0  0  0  0
   10.5450 -135.5210   21.0590 N   0  0  0  0  0
    9.9160 -135.6060   19.7450 C   0  0  0  0  0
    8.8570 -136.6640   19.7040 C   0  0  0  0  0
   10.9210 -135.7580   18.6450 C   0  0  0  0  0
   11.8750 -135.0250   18.6490 O   0  0  0  0  0
   10.6880 -136.6280   17.6800 N   0  0  0  0  0
   11.6060 -136.7770   16.5660 C   0  0  0  0  0
   10.7810 -136.8410   15.3290 C   0  0  0  0  0
    9.6630 -137.2740   15.4030 O   0  0  0  0  0
   12.4820 -138.0190   16.7050 C   0  0  0  0  0
   13.5260 -137.6960   17.7520 C   0  0  0  0  0
   13.2880 -137.7470   19.0300 C   0  0  0  0  0
   14.7470 -137.2860   17.5720 C   0  0  0  0  0
   14.3820 -137.3790   19.6440 N   0  0  0  0  0
   15.2750 -137.0940   18.7440 C   0  0  0  0  0
   15.4310 -137.0760   16.5000 C   0  0  0  0  0
   16.4990 -136.6940   18.9190 C   0  0  0  0  0
   16.7280 -136.6510   16.6140 C   0  0  0  0  0
   17.2820 -136.4570   17.8460 C   0  0  0  0  0
   11.3700 -136.4230   14.2150 N   0  0  0  0  0
   10.7460 -136.3230   12.9070 C   0  0  0  0  0
   11.5710 -137.0480   11.8240 C   0  0  0  0  0
   12.8100 -136.6870   12.0470 O   0  0  0  0  0
   11.4860 -138.6130   11.7460 C   0  0  0  0  0
   10.0890 -139.0910   12.0050 C   0  0  0  0  0
   12.3750 -139.2530   12.7730 C   0  0  0  0  0
   12.4330 -138.4720   13.9440 O   0  0  0  0  0
   10.7590 -134.8150   12.6210 C   0  0  0  0  0
    9.8350 -133.9960   13.2500 C   0  0  0  0  0
    8.8830 -134.4580   14.1140 C   0  0  0  0  0
    8.0100 -133.5790   14.7060 C   0  0  0  0  0
    8.0770 -132.2400   14.4310 C   0  0  0  0  0
    9.0240 -131.7660   13.5640 C   0  0  0  0  0
    9.8950 -132.6500   12.9880 C   0  0  0  0  0
   10.3935 -138.8483   23.7411 H   0  0  0  0  0
   12.0316 -139.0245   23.0653 H   0  0  0  0  0
   11.7854 -139.0756   24.8282 H   0  0  0  0  0
   12.4768 -138.0742   26.3617 H   0  0  0  0  0
   13.4410 -136.6160   28.0982 H   0  0  0  0  0
   13.6300 -134.1837   27.5939 H   0  0  0  0  0
   12.8323 -133.3880   25.4068 H   0  0  0  0  0
   12.4730 -134.5764   22.8184 H   0  0  0  0  0
   10.9037 -134.3297   23.5062 H   0  0  0  0  0
   10.8108 -134.5926   21.3874 H   0  0  0  0  0
    9.4147 -134.6542   19.5690 H   0  0  0  0  0
    9.3028 -137.6316   19.9344 H   0  0  0  0  0
    8.0861 -136.4334   20.4393 H   0  0  0  0  0
    8.4140 -136.6944   18.7086 H   0  0  0  0  0
    9.8481 -137.2056   17.7180 H   0  0  0  0  0
   12.2932 -135.9315   16.5351 H   0  0  0  0  0
   12.9498 -138.2741   15.7541 H   0  0  0  0  0
   11.8879 -138.8836   17.0011 H   0  0  0  0  0
   12.3505 -138.0418   19.5014 H   0  0  0  0  0
   14.9844 -137.2341   15.5183 H   0  0  0  0  0
   16.8906 -136.5509   19.9261 H   0  0  0  0  0
   17.3199 -136.4670   15.7174 H   0  0  0  0  0
   18.3139 -136.1245   17.9585 H   0  0  0  0  0
   12.3495 -136.1470   14.2838 H   0  0  0  0  0
    9.7543 -136.7752   12.8948 H   0  0  0  0  0
   11.1532 -136.7536   10.8613 H   0  0  0  0  0
   13.3851 -137.1058   11.4025 H   0  0  0  0  0
   11.8027 -138.8926   10.7412 H   0  0  0  0  0
    9.7762 -138.7733   12.9997 H   0  0  0  0  0
    9.4171 -138.6671   11.2587 H   0  0  0  0  0
   10.0615 -140.1790   11.9443 H   0  0  0  0  0
   13.3800 -139.3416   12.3605 H   0  0  0  0  0
   11.9704 -140.2333   13.0250 H   0  0  0  0  0
   13.0057 -138.8999   14.5847 H   0  0  0  0  0
   10.5266 -134.7317   11.5593 H   0  0  0  0  0
   11.7274 -134.4717   12.9848 H   0  0  0  0  0
    8.8165 -135.5236   14.3333 H   0  0  0  0  0
    7.2571 -133.9508   15.4010 H   0  0  0  0  0
    7.3762 -131.5511   14.9025 H   0  0  0  0  0
    9.0833 -130.7017   13.3362 H   0  0  0  0  0
   10.6562 -132.2757   12.3034 H   0  0  0  0  0
  1  2  1  0  0  0
  2  3  1  0  0  0
  2 10  2  0  0  0
  3  4  4  0  0  0
  3  8  4  0  0  0
  4  5  4  0  0  0
  5  6  4  0  0  0
  6  7  4  0  0  0
  7  8  4  0  0  0
  8  9  1  0  0  0
  9 10  1  0  0  0
 10 11  1  0  0  0
 11 12  2  0  0  0
 11 13  1  0  0  0
 13 14  1  0  0  0
 14 15  1  0  0  0
 14 16  1  0  0  0
 16 17  2  0  0  0
 16 18  1  0  0  0
 18 19  1  0  0  0
 19 20  1  0  0  0
 19 22  1  0  0  0
 20 21  2  0  0  0
 20 32  1  0  0  0
 22 23  1  0  0  0
 23 24  4  0  0  0
 23 25  4  0  0  0
 24 26  4  0  0  0
 25 27  4  0  0  0
 25 28  4  0  0  0
 26 27  4  0  0  0
 27 29  4  0  0  0
 28 30  4  0  0  0
 29 31  4  0  0  0
 30 31  4  0  0  0
 32 33  1  0  0  0
 33 34  1  0  0  0
 33 40  1  0  0  0
 34 35  1  0  0  0
 34 36  1  0  0  0
 36 37  1  0  0  0
 36 38  1  0  0  0
 38 39  1  0  0  0
 40 41  1  0  0  0
 41 42  4  0  0  0
 41 46  4  0  0  0
 42 43  4  0  0  0
 43 44  4  0  0  0
 44 45  4  0  0  0
 45 46  4  0  0  0
  1 47  1  0  0  0
  1 48  1  0  0  0
  1 49  1  0  0  0
  4 50  1  0  0  0
  5 51  1  0  0  0
  6 52  1  0  0  0
  7 53  1  0  0  0
  9 54  1  0  0  0
  9 55  1  0  0  0
 13 56  1  0  0  0
 14 57  1  0  0  0
 15 58  1  0  0  0
 15 59  1  0  0  0
 15 60  1  0  0  0
 18 61  1  0  0  0
 19 62  1  0  0  0
 22 63  1  0  0  0
 22 64  1  0  0  0
 24 65  1  0  0  0
 28 66  1  0  0  0
 29 67  1  0  0  0
 30 68  1  0  0  0
 31 69  1  0  0  0
 32 70  1  0  0  0
 33 71  1  0  0  0
 34 72  1  0  0  0
 35 73  1  0  0  0
 36 74  1  0  0  0
 37 75  1  0  0  0
 37 76  1  0  0  0
 37 77  1  0  0  0
 38 78  1  0  0  0
 38 79  1  0  0  0
 39 80  1  0  0  0
 40 81  1  0  0  0
 40 82  1  0  0  0
 42 83  1  0  0  0
 43 84  1  0  0  0
 44 85  1  0  0  0
 45 86  1  0  0  0
 46 87  1  0  0  0
M  END
$$$$
