2uzb_ligand
  -I-interpret- 

 37 39  0  0  0  0  0  0  0  0999 V2000
   39.3900   22.0360   -6.6480 O   0  0  0  0  0
   40.3850   21.1280   -6.1480 S   0  0  0  0  0
   40.8560   20.2940   -7.2180 O   0  0  0  0  0
   41.6120   21.9580   -5.5390 N   0  0  0  0  0
   41.4710   23.2550   -4.9520 C   0  0  0  0  0
   39.6620   20.1280   -4.8950 C   0  0  0  0  0
   39.3440   18.7830   -5.0540 C   0  0  0  0  0
   38.7530   18.0840   -4.0050 C   0  0  0  0  0
   38.4680   18.7510   -2.8150 C   0  0  0  0  0
   38.7780   20.0990   -2.6770 C   0  0  0  0  0
   39.3740   20.8010   -3.7150 C   0  0  0  0  0
   37.7900   18.1650   -1.6130 C   0  0  0  0  0
   37.5200   18.9210   -0.5040 O   0  0  0  0  0
   37.2930   16.8850   -1.3980 C   0  0  0  0  0
   36.6990   16.8930   -0.1400 C   0  0  0  0  0
   36.8440   18.1640    0.4110 C   0  0  0  0  0
   36.3720   18.6330    1.7370 C   0  0  0  0  0
   36.5570   19.8860    2.1790 C   0  0  0  0  0
   37.3160   21.1160    1.3590 S   0  0  0  0  0
   37.1460   22.2620    2.5500 C   0  0  0  0  0
   37.5550   23.4630    2.5150 N   0  0  0  0  0
   36.4880   21.6990    3.5590 N   0  0  0  0  0
   36.1580   20.4200    3.4010 C   0  0  0  0  0
   35.5400   19.8280    4.2820 O   0  0  0  0  0
   42.5420   21.5403   -5.5714 H   0  0  0  0  0
   41.0711   23.9465   -5.6936 H   0  0  0  0  0
   40.7894   23.1962   -4.1034 H   0  0  0  0  0
   42.4454   23.6070   -4.6133 H   0  0  0  0  0
   39.5568   18.2783   -5.9964 H   0  0  0  0  0
   38.5156   17.0257   -4.1134 H   0  0  0  0  0
   38.5501   20.6108   -1.7420 H   0  0  0  0  0
   39.6113   21.8593   -3.6063 H   0  0  0  0  0
   37.3563   16.0389   -2.0823 H   0  0  0  0  0
   36.2032   16.0464    0.3349 H   0  0  0  0  0
   35.8504   17.9263    2.3824 H   0  0  0  0  0
   38.0458   23.8108    1.6912 H   0  0  0  0  0
   36.2502   22.2174    4.4046 H   0  0  0  0  0
  1  2  2  0  0  0
  2  3  2  0  0  0
  2  4  1  0  0  0
  2  6  1  0  0  0
  4  5  1  0  0  0
  6  7  4  0  0  0
  6 11  4  0  0  0
  7  8  4  0  0  0
  8  9  4  0  0  0
  9 10  4  0  0  0
  9 12  1  0  0  0
 10 11  4  0  0  0
 12 13  4  0  0  0
 12 14  4  0  0  0
 13 16  4  0  0  0
 14 15  4  0  0  0
 15 16  4  0  0  0
 16 17  1  0  0  0
 17 18  2  0  0  0
 18 19  1  0  0  0
 18 23  1  0  0  0
 19 20  1  0  0  0
 20 21  2  0  0  0
 20 22  1  0  0  0
 22 23  1  0  0  0
 23 24  2  0  0  0
  4 25  1  0  0  0
  5 26  1  0  0  0
  5 27  1  0  0  0
  5 28  1  0  0  0
  7 29  1  0  0  0
  8 30  1  0  0  0
 10 31  1  0  0  0
 11 32  1  0  0  0
 14 33  1  0  0  0
 15 34  1  0  0  0
 17 35  1  0  0  0
 21 36  1  0  0  0
 22 37  1  0  0  0
M  END
$$$$
