### 
### Created by X-TOOL on Mon Sep 10 21:12:56 2018
### 

@<TRIPOS>MOLECULE
2uzb_ligand
   37    39     1     0     0
SMALL
GAST_HUCK


@<TRIPOS>ATOM
      1 O4         39.3900   22.0360   -6.6480 O.2       1 C75        -0.1506
      2 S2         40.3850   21.1280   -6.1480 S.o2      1 C75         0.0669
      3 O3         40.8560   20.2940   -7.2180 O.2       1 C75        -0.1506
      4 N6         41.6120   21.9580   -5.5390 N.am      1 C75        -0.2507
      5 C61        41.4710   23.2550   -4.9520 C.3       1 C75         0.0151
      6 C16        39.6620   20.1280   -4.8950 C.ar      1 C75         0.1057
      7 C15        39.3440   18.7830   -5.0540 C.ar      1 C75        -0.0371
      8 C14        38.7530   18.0840   -4.0050 C.ar      1 C75        -0.0524
      9 C13        38.4680   18.7510   -2.8150 C.ar      1 C75         0.0111
     10 C18        38.7780   20.0990   -2.6770 C.ar      1 C75        -0.0524
     11 C17        39.3740   20.8010   -3.7150 C.ar      1 C75        -0.0371
     12 C4         37.7900   18.1650   -1.6130 C.2       1 C75         0.1233
     13 O2         37.5200   18.9210   -0.5040 O.3       1 C75        -0.2556
     14 C3         37.2930   16.8850   -1.3980 C.2       1 C75        -0.0476
     15 C2         36.6990   16.8930   -0.1400 C.2       1 C75        -0.0490
     16 C1         36.8440   18.1640    0.4110 C.2       1 C75         0.1154
     17 C6         36.3720   18.6330    1.7370 C.2       1 C75         0.0004
     18 C7         36.5570   19.8860    2.1790 C.2       1 C75         0.1223
     19 S1         37.3160   21.1160    1.3590 S.3       1 C75         0.0358
     20 C9         37.1460   22.2620    2.5500 C.2       1 C75         0.1924
     21 N3         37.5550   23.4630    2.5150 N.2       1 C75        -0.3844
     22 N2         36.4880   21.6990    3.5590 N.am      1 C75        -0.1898
     23 C8         36.1580   20.4200    3.4010 C.2       1 C75         0.2531
     24 O1         35.5400   19.8280    4.2820 O.2       1 C75        -0.3719
     25 H1         42.5237   21.5485   -5.5707 H         1 C75         0.1669
     26 H2         42.4538   23.6113   -4.6098 H         1 C75         0.0439
     27 H3         40.7834   23.1970   -4.0954 H         1 C75         0.0439
     28 H4         41.0675   23.9539   -5.6995 H         1 C75         0.0439
     29 H5         39.5556   18.2811   -5.9912 H         1 C75         0.0630
     30 H6         38.5169   17.0315   -4.1128 H         1 C75         0.0604
     31 H7         38.5514   20.6080   -1.7472 H         1 C75         0.0604
     32 H8         39.6100   21.8535   -3.6069 H         1 C75         0.0630
     33 H9         37.3563   16.0397   -2.0817 H         1 C75         0.0417
     34 H10        36.2036   16.0472    0.3345 H         1 C75         0.0414
     35 H11        35.8509   17.9269    2.3818 H         1 C75         0.0610
     36 H12        37.3948   24.0731    3.3013 H         1 C75         0.0547
     37 H13        36.2549   22.2073    4.3881 H         1 C75         0.2436
@<TRIPOS>BOND
     1    1    2 2  
     2    2    3 2  
     3    2    4 am 
     4    2    6 1  
     5    4    5 1  
     6    6    7 ar 
     7    6   11 ar 
     8    7    8 ar 
     9    8    9 ar 
    10    9   10 ar 
    11    9   12 1  
    12   10   11 ar 
    13   12   13 1  
    14   12   14 2  
    15   13   16 1  
    16   14   15 1  
    17   15   16 2  
    18   16   17 1  
    19   17   18 2  
    20   18   19 1  
    21   18   23 1  
    22   19   20 1  
    23   20   21 2  
    24   20   22 1  
    25   22   23 am 
    26   23   24 2  
    27    4   25 1  
    28    5   26 1  
    29    5   27 1  
    30    5   28 1  
    31    7   29 1  
    32    8   30 1  
    33   10   31 1  
    34   11   32 1  
    35   14   33 1  
    36   15   34 1  
    37   17   35 1  
    38   21   36 1  
    39   22   37 1  
@<TRIPOS>SUBSTRUCTURE
     1 C75         1

