### 
### Created by X-TOOL on Mon Sep 10 21:13:27 2018
### 

@<TRIPOS>MOLECULE
5hog_ligand
  210   209     1     0     0
SMALL
GAST_HUCK


@<TRIPOS>ATOM
      1 N          -3.3710   39.7540   -1.4970 N.4       1 SER         0.2396
      2 CA         -2.2180   40.0640   -2.3320 C.3       1 SER         0.0885
      3 C          -2.3950   39.5050   -3.7410 C.2       1 SER         0.2290
      4 O          -2.0780   40.1710   -4.7290 O.2       1 SER        -0.3906
      5 CB         -0.9370   39.5100   -1.7010 C.3       1 SER         0.1041
      6 OG          0.1900   39.7640   -2.5220 O.3       1 SER        -0.3870
      7 N          -2.9060   38.2740   -3.8240 N.am      1 LEU        -0.2609
      8 CA         -3.1020   37.6160   -5.1100 C.3       1 LEU         0.1313
      9 C          -4.3440   38.1030   -5.8440 C.2       1 LEU         0.2039
     10 O          -4.4410   37.9100   -7.0610 O.2       1 LEU        -0.3944
     11 CB         -3.1890   36.0990   -4.9210 C.3       1 LEU        -0.0101
     12 CG         -1.9060   35.3620   -4.5320 C.3       1 LEU        -0.0425
     13 CD1        -2.1650   33.8660   -4.4410 C.3       1 LEU        -0.0625
     14 CD2        -0.7840   35.6570   -5.5160 C.3       1 LEU        -0.0625
     15 N          -5.2980   38.7130   -5.1350 N.am      1 ARG        -0.2637
     16 CA         -6.5460   39.1250   -5.7710 C.3       1 ARG         0.1311
     17 C          -6.3270   40.2870   -6.7350 C.2       1 ARG         0.2040
     18 O          -6.9550   40.3440   -7.7980 O.2       1 ARG        -0.3944
     19 CB         -7.5770   39.4830   -4.7020 C.3       1 ARG        -0.0092
     20 CG         -8.0190   38.2810   -3.8830 C.3       1 ARG        -0.0156
     21 CD         -9.0670   38.6480   -2.8510 C.3       1 ARG         0.0627
     22 NE         -9.4630   37.4860   -2.0610 N.pl3     1 ARG        -0.2723
     23 CZ        -10.2980   37.5320   -1.0290 C.cat     1 ARG         0.2882
     24 NH1       -10.8300   38.6870   -0.6540 N.pl3     1 ARG        -0.2849
     25 NH2       -10.6000   36.4210   -0.3690 N.pl3     1 ARG        -0.2849
     26 N          -5.4440   41.2190   -6.3860 N.am      1 ASN        -0.2616
     27 CA         -5.0860   42.3360   -7.2590 C.3       1 ASN         0.1476
     28 C          -3.6680   42.0990   -7.7680 C.2       1 ASN         0.2063
     29 O          -2.6900   42.3650   -7.0640 O.2       1 ASN        -0.3942
     30 CB         -5.2050   43.6730   -6.5330 C.3       1 ASN         0.0773
     31 CG         -6.6460   44.0630   -6.2610 C.2       1 ASN         0.1780
     32 OD1        -7.5750   43.4770   -6.8170 O.2       1 ASN        -0.3970
     33 ND2        -6.8370   45.0660   -5.4130 N.am      1 ASN        -0.3007
     34 N          -3.5650   41.5990   -8.9980 N.am      1 ILE        -0.2633
     35 CA         -2.2850   41.3600   -9.6500 C.3       1 ILE         0.1335
     36 C          -2.0720   42.2950  -10.8310 C.2       1 ILE         0.2042
     37 O          -1.1650   42.0690  -11.6390 O.2       1 ILE        -0.3944
     38 CB         -2.1410   39.8920  -10.0850 C.3       1 ILE        -0.0037
     39 CG1        -3.3540   39.4600  -10.9140 C.3       1 ILE        -0.0491
     40 CG2        -1.9460   38.9870   -8.8740 C.3       1 ILE        -0.0582
     41 CD1        -3.2230   38.0780  -11.5170 C.3       1 ILE        -0.0648
     42 N          -2.8900   43.3460  -10.9540 N.am      1 ASP        -0.2622
     43 CA         -2.7050   44.3080  -12.0370 C.3       1 ASP         0.1423
     44 C          -1.3380   44.9750  -11.9660 C.2       1 ASP         0.2057
     45 O          -0.8090   45.4150  -12.9930 O.2       1 ASP        -0.3943
     46 CB         -3.8130   45.3610  -12.0080 C.3       1 ASP         0.0406
     47 CG         -5.1660   44.7950  -12.3870 C.2       1 ASP         0.0393
     48 OD1        -5.2100   43.7000  -12.9890 O.co2     1 ASP        -0.5688
     49 OD2        -6.1860   45.4490  -12.0880 O.co2     1 ASP        -0.5688
     50 N          -0.7560   45.0670  -10.7690 N.am      1 ASP        -0.2621
     51 CA          0.6090   45.5660  -10.6560 C.3       1 ASP         0.1423
     52 C           1.5950   44.6400  -11.3570 C.2       1 ASP         0.2056
     53 O           2.6180   45.1010  -11.8740 O.2       1 ASP        -0.3943
     54 CB          0.9850   45.7400   -9.1840 C.3       1 ASP         0.0406
     55 CG          0.7970   44.4670   -8.3770 C.2       1 ASP         0.0393
     56 OD1         0.1760   43.5160   -8.8950 O.co2     1 ASP        -0.5688
     57 OD2         1.2700   44.4190   -7.2230 O.co2     1 ASP        -0.5688
     58 N           1.3100   43.3390  -11.3820 N.am      1 ILE        -0.2634
     59 CA          2.1540   42.3840  -12.0940 C.3       1 ILE         0.1335
     60 C           1.7410   42.2600  -13.5560 C.2       1 ILE         0.2042
     61 O           2.5940   42.1750  -14.4430 O.2       1 ILE        -0.3944
     62 CB          2.1170   41.0140  -11.3860 C.3       1 ILE        -0.0037
     63 CG1         2.6080   41.1340   -9.9440 C.3       1 ILE        -0.0491
     64 CG2         2.9550   39.9940  -12.1420 C.3       1 ILE        -0.0582
     65 CD1         2.5780   39.8240   -9.1850 C.3       1 ILE        -0.0648
     66 N           0.4320   42.2500  -13.8230 N.am      1 LEU        -0.2637
     67 CA         -0.0520   42.0340  -15.1830 C.3       1 LEU         0.1312
     68 C           0.3190   43.1900  -16.1060 C.2       1 LEU         0.2040
     69 O           0.6080   42.9760  -17.2890 O.2       1 LEU        -0.3944
     70 CB         -1.5670   41.8220  -15.1730 C.3       1 LEU        -0.0101
     71 CG         -2.0990   40.6310  -14.3690 C.3       1 LEU        -0.0425
     72 CD1        -3.6220   40.5800  -14.4150 C.3       1 LEU        -0.0625
     73 CD2        -1.4960   39.3220  -14.8610 C.3       1 LEU        -0.0625
     74 N           0.3240   44.4190  -15.5870 N.am      1 ASP        -0.2622
     75 CA          0.6170   45.5780  -16.4190 C.3       1 ASP         0.1423
     76 C           2.1080   45.7700  -16.6640 C.2       1 ASP         0.2057
     77 O           2.4790   46.5670  -17.5330 O.2       1 ASP        -0.3943
     78 CB          0.0310   46.8430  -15.7810 C.3       1 ASP         0.0406
     79 CG         -1.4890   46.8050  -15.6870 C.2       1 ASP         0.0393
     80 OD1        -2.1130   45.9650  -16.3690 O.co2     1 ASP        -0.5688
     81 OD2        -2.0590   47.6170  -14.9270 O.co2     1 ASP        -0.5688
     82 N           2.9640   45.0580  -15.9260 N.am      1 ASP        -0.2621
     83 CA          4.4060   45.1080  -16.1400 C.3       1 ASP         0.1423
     84 C           4.8540   44.3220  -17.3660 C.2       1 ASP         0.2056
     85 O           5.9920   44.4980  -17.8130 O.2       1 ASP        -0.3943
     86 CB          5.1380   44.5820  -14.9020 C.3       1 ASP         0.0406
     87 CG          5.0420   45.5290  -13.7180 C.2       1 ASP         0.0393
     88 OD1         4.2140   46.4630  -13.7670 O.co2     1 ASP        -0.5688
     89 OD2         5.7900   45.3340  -12.7350 O.co2     1 ASP        -0.5688
     90 N           3.9980   43.4460  -17.9010 N.am      1 ILE        -0.2634
     91 CA          4.3940   42.5970  -19.0240 C.3       1 ILE         0.1335
     92 C           4.6970   43.4350  -20.2610 C.2       1 ILE         0.2036
     93 O           5.6060   43.1130  -21.0360 O.2       1 ILE        -0.3944
     94 CB          3.3060   41.5440  -19.3050 C.3       1 ILE        -0.0037
     95 CG1         3.0080   40.7370  -18.0420 C.3       1 ILE        -0.0491
     96 CG2         3.7350   40.6150  -20.4320 C.3       1 ILE        -0.0582
     97 CD1         1.9780   39.6530  -18.2430 C.3       1 ILE        -0.0648
     98 N           3.9450   44.5140  -20.4650 N.am      1 GLU        -0.2694
     99 CA          4.0670   45.3450  -21.6640 C.3       1 GLU         0.0959
    100 C           5.5020   45.8060  -21.9180 C.2       1 GLU         0.0602
    101 O           6.1750   45.3080  -22.8230 O.co2     1 GLU        -0.5666
    102 CB          3.1480   46.5650  -21.5580 C.3       1 GLU        -0.0064
    103 CG          1.6720   46.2310  -21.4110 C.3       1 GLU         0.0038
    104 CD          0.8100   47.4690  -21.2390 C.2       1 GLU         0.0350
    105 OE1         1.3710   48.5830  -21.1630 O.co2     1 GLU        -0.5690
    106 OE2        -0.4290   47.3270  -21.1790 O.co2     1 GLU        -0.5690
    107 OXT         6.0160   46.6850  -21.2230 O.co2     1 GLU        -0.5666
    108 H1         -3.2291   40.1334   -0.5740 H         1 SER         0.2016
    109 H2         -3.4824   38.7541   -1.4357 H         1 SER         0.2016
    110 H3         -4.1992   40.1601   -1.9035 H         1 SER         0.2016
    111 H4         -2.1268   41.1579   -2.4025 H         1 SER         0.1122
    112 H5         -1.0445   38.4237   -1.5654 H         1 SER         0.0640
    113 H6         -0.7831   39.9883   -0.7225 H         1 SER         0.0640
    114 H7          0.9684   39.4107   -2.1076 H         1 SER         0.2099
    115 H8         -3.1599   37.7927   -2.9850 H         1 LEU         0.1884
    116 H9         -2.2273   37.8398   -5.7383 H         1 LEU         0.0800
    117 H10        -3.5419   35.6682   -5.8696 H         1 LEU         0.0315
    118 H11        -3.9315   35.9070   -4.1324 H         1 LEU         0.0315
    119 H12        -1.5925   35.7185   -3.5398 H         1 LEU         0.0298
    120 H13        -1.2352   33.3493   -4.1609 H         1 LEU         0.0232
    121 H14        -2.5117   33.4939   -5.4164 H         1 LEU         0.0232
    122 H15        -2.9353   33.6728   -3.6799 H         1 LEU         0.0232
    123 H16        -0.6152   36.7429   -5.5648 H         1 LEU         0.0232
    124 H17        -1.0628   35.2842   -6.5126 H         1 LEU         0.0232
    125 H18         0.1373   35.1574   -5.1821 H         1 LEU         0.0232
    126 H19        -5.1562   38.8888   -4.1608 H         1 ARG         0.1883
    127 H20        -6.9326   38.2737   -6.3505 H         1 ARG         0.0800
    128 H21        -8.4597   39.9153   -5.1959 H         1 ARG         0.0313
    129 H22        -7.1353   40.2274   -4.0232 H         1 ARG         0.0313
    130 H23        -7.1430   37.8629   -3.3656 H         1 ARG         0.0301
    131 H24        -8.4395   37.5245   -4.5619 H         1 ARG         0.0301
    132 H25        -9.9521   39.0495   -3.3662 H         1 ARG         0.0689
    133 H26        -8.6548   39.4148   -2.1786 H         1 ARG         0.0689
    134 H27        -9.0691   36.5705   -2.3209 H         1 ARG         0.2642
    135 H28       -11.4772   38.7201    0.1466 H         1 ARG         0.2615
    136 H29       -10.5961   39.5512   -1.1632 H         1 ARG         0.2615
    137 H30       -10.1882   35.5222   -0.6580 H         1 ARG         0.2615
    138 H31       -11.2462   36.4575    0.4323 H         1 ARG         0.2615
    139 H32        -5.0068   41.1528   -5.4891 H         1 ASN         0.1885
    140 H33        -5.7735   42.3504   -8.1175 H         1 ASN         0.0826
    141 H34        -4.7399   44.4534   -7.1533 H         1 ASN         0.0551
    142 H35        -4.6723   43.6014   -5.5733 H         1 ASN         0.0551
    143 H36        -7.7655   45.3669   -5.1954 H         1 ASN         0.1814
    144 H37        -6.0524   45.5208   -4.9917 H         1 ASN         0.1814
    145 H38        -4.4036   41.3779   -9.4958 H         1 ILE         0.1883
    146 H39        -1.4951   41.5688   -8.9135 H         1 ILE         0.0803
    147 H40        -1.2465   39.8080  -10.7197 H         1 ILE         0.0345
    148 H41        -3.4903   40.1832  -11.7315 H         1 ILE         0.0267
    149 H42        -4.2405   39.4713  -10.2629 H         1 ILE         0.0267
    150 H43        -1.0690   39.3240   -8.3019 H         1 ILE         0.0235
    151 H44        -1.7881   37.9520   -9.2113 H         1 ILE         0.0235
    152 H45        -2.8401   39.0320   -8.2348 H         1 ILE         0.0235
    153 H46        -4.1293   37.8424  -12.0941 H         1 ILE         0.0230
    154 H47        -3.0974   37.3376  -10.7132 H         1 ILE         0.0230
    155 H48        -2.3472   38.0496  -12.1819 H         1 ILE         0.0230
    156 H49        -3.6345   43.4741  -10.2988 H         1 ASP         0.1884
    157 H50        -2.7701   43.7643  -12.9910 H         1 ASP         0.0819
    158 H51        -3.5557   46.1624  -12.7162 H         1 ASP         0.0478
    159 H52        -3.8774   45.7765  -10.9915 H         1 ASP         0.0478
    160 H53        -1.2570   44.7932   -9.9480 H         1 ASP         0.1884
    161 H54         0.6573   46.5504  -11.1445 H         1 ASP         0.0819
    162 H55         0.3526   46.5285   -8.7500 H         1 ASP         0.0478
    163 H56         2.0410   46.0422   -9.1238 H         1 ASP         0.0478
    164 H57         0.4979   43.0083  -10.9012 H         1 ILE         0.1883
    165 H58         3.1889   42.7557  -12.0660 H         1 ILE         0.0803
    166 H59         1.0747   40.6628  -11.3693 H         1 ILE         0.0345
    167 H60         1.9675   41.8565   -9.4170 H         1 ILE         0.0267
    168 H61         3.6437   41.5044   -9.9584 H         1 ILE         0.0267
    169 H62         2.5922   39.9167  -13.1776 H         1 ILE         0.0235
    170 H63         2.8713   39.0137  -11.6501 H         1 ILE         0.0235
    171 H64         4.0074   40.3140  -12.1451 H         1 ILE         0.0235
    172 H65         2.9431   39.9857   -8.1600 H         1 ILE         0.0230
    173 H66         3.2227   39.0913   -9.6925 H         1 ILE         0.0230
    174 H67         1.5465   39.4434   -9.1510 H         1 ILE         0.0230
    175 H68        -0.2243   42.3922  -13.0820 H         1 LEU         0.1883
    176 H69         0.4225   41.1216  -15.5734 H         1 LEU         0.0800
    177 H70        -1.8900   41.6887  -16.2160 H         1 LEU         0.0315
    178 H71        -2.0264   42.7323  -14.7603 H         1 LEU         0.0315
    179 H72        -1.7964   40.7691  -13.3205 H         1 LEU         0.0298
    180 H73        -3.9778   39.7180  -13.8315 H         1 LEU         0.0232
    181 H74        -3.9541   40.4785  -15.4587 H         1 LEU         0.0232
    182 H75        -4.0330   41.5066  -13.9879 H         1 LEU         0.0232
    183 H76        -0.3986   39.3848  -14.8179 H         1 LEU         0.0232
    184 H77        -1.8123   39.1397  -15.8986 H         1 LEU         0.0232
    185 H78        -1.8414   38.4961  -14.2219 H         1 LEU         0.0232
    186 H79         0.1242   44.5459  -14.6154 H         1 ASP         0.1884
    187 H80         0.1320   45.4234  -17.3941 H         1 ASP         0.0819
    188 H81         0.3242   47.7117  -16.3888 H         1 ASP         0.0478
    189 H82         0.4436   46.9490  -14.7668 H         1 ASP         0.0478
    190 H83         2.6037   44.4703  -15.2016 H         1 ASP         0.1884
    191 H84         4.6874   46.1606  -16.2913 H         1 ASP         0.0819
    192 H85         6.1993   44.4404  -15.1543 H         1 ASP         0.0478
    193 H86         4.6969   43.6157  -14.6164 H         1 ASP         0.0478
    194 H87         3.0733   43.3700  -17.5280 H         1 ILE         0.1883
    195 H88         5.3155   42.0662  -18.7428 H         1 ILE         0.0803
    196 H89         2.3875   42.0653  -19.6126 H         1 ILE         0.0345
    197 H90         2.6397   41.4266  -17.2682 H         1 ILE         0.0267
    198 H91         3.9429   40.2685  -17.7007 H         1 ILE         0.0267
    199 H92         3.9465   41.2070  -21.3347 H         1 ILE         0.0235
    200 H93         2.9276   39.8987  -20.6442 H         1 ILE         0.0235
    201 H94         4.6409   40.0681  -20.1316 H         1 ILE         0.0235
    202 H95         1.8180   39.1189  -17.2948 H         1 ILE         0.0230
    203 H96         2.3341   38.9458  -19.0066 H         1 ILE         0.0230
    204 H97         1.0309   40.1039  -18.5741 H         1 ILE         0.0230
    205 H98         3.2700   44.7670  -19.7719 H         1 GLU         0.1875
    206 H99         3.7468   44.7416  -22.5262 H         1 GLU         0.0727
    207 H100        3.2744   47.1705  -22.4676 H         1 GLU         0.0323
    208 H101        3.4564   47.1524  -20.6806 H         1 GLU         0.0323
    209 H102        1.5424   45.5857  -20.5296 H         1 GLU         0.0432
    210 H103        1.3407   45.6929  -22.3113 H         1 GLU         0.0432
@<TRIPOS>BOND
     1    1    2 1  
     2    2    3 1  
     3    2    5 1  
     4    3    4 2  
     5    3    7 am 
     6    5    6 1  
     7    7    8 1  
     8    8    9 1  
     9    8   11 1  
    10    9   10 2  
    11    9   15 am 
    12   11   12 1  
    13   12   13 1  
    14   12   14 1  
    15   15   16 1  
    16   16   17 1  
    17   16   19 1  
    18   17   18 2  
    19   17   26 am 
    20   19   20 1  
    21   20   21 1  
    22   21   22 1  
    23   22   23 ar 
    24   23   24 ar 
    25   23   25 ar 
    26   26   27 1  
    27   27   28 1  
    28   27   30 1  
    29   28   29 2  
    30   28   34 am 
    31   30   31 1  
    32   31   32 2  
    33   31   33 am 
    34   34   35 1  
    35   35   36 1  
    36   35   38 1  
    37   36   37 2  
    38   36   42 am 
    39   38   39 1  
    40   38   40 1  
    41   39   41 1  
    42   42   43 1  
    43   43   44 1  
    44   43   46 1  
    45   44   45 2  
    46   44   50 am 
    47   46   47 1  
    48   47   48 ar 
    49   47   49 ar 
    50   50   51 1  
    51   51   52 1  
    52   51   54 1  
    53   52   53 2  
    54   52   58 am 
    55   54   55 1  
    56   55   56 ar 
    57   55   57 ar 
    58   58   59 1  
    59   59   60 1  
    60   59   62 1  
    61   60   61 2  
    62   60   66 am 
    63   62   63 1  
    64   62   64 1  
    65   63   65 1  
    66   66   67 1  
    67   67   68 1  
    68   67   70 1  
    69   68   69 2  
    70   68   74 am 
    71   70   71 1  
    72   71   72 1  
    73   71   73 1  
    74   74   75 1  
    75   75   76 1  
    76   75   78 1  
    77   76   77 2  
    78   76   82 am 
    79   78   79 1  
    80   79   80 ar 
    81   79   81 ar 
    82   82   83 1  
    83   83   84 1  
    84   83   86 1  
    85   84   85 2  
    86   84   90 am 
    87   86   87 1  
    88   87   88 ar 
    89   87   89 ar 
    90   90   91 1  
    91   91   92 1  
    92   91   94 1  
    93   92   93 2  
    94   92   98 am 
    95   94   95 1  
    96   94   96 1  
    97   95   97 1  
    98   98   99 1  
    99   99  100 1  
   100   99  102 1  
   101  100  101 ar 
   102  100  107 ar 
   103  102  103 1  
   104  103  104 1  
   105  104  105 ar 
   106  104  106 ar 
   107    1  108 1  
   108    1  109 1  
   109    1  110 1  
   110    2  111 1  
   111    5  112 1  
   112    5  113 1  
   113    6  114 1  
   114    7  115 1  
   115    8  116 1  
   116   11  117 1  
   117   11  118 1  
   118   12  119 1  
   119   13  120 1  
   120   13  121 1  
   121   13  122 1  
   122   14  123 1  
   123   14  124 1  
   124   14  125 1  
   125   15  126 1  
   126   16  127 1  
   127   19  128 1  
   128   19  129 1  
   129   20  130 1  
   130   20  131 1  
   131   21  132 1  
   132   21  133 1  
   133   22  134 1  
   134   24  135 1  
   135   24  136 1  
   136   25  137 1  
   137   25  138 1  
   138   26  139 1  
   139   27  140 1  
   140   30  141 1  
   141   30  142 1  
   142   33  143 1  
   143   33  144 1  
   144   34  145 1  
   145   35  146 1  
   146   38  147 1  
   147   39  148 1  
   148   39  149 1  
   149   40  150 1  
   150   40  151 1  
   151   40  152 1  
   152   41  153 1  
   153   41  154 1  
   154   41  155 1  
   155   42  156 1  
   156   43  157 1  
   157   46  158 1  
   158   46  159 1  
   159   50  160 1  
   160   51  161 1  
   161   54  162 1  
   162   54  163 1  
   163   58  164 1  
   164   59  165 1  
   165   62  166 1  
   166   63  167 1  
   167   63  168 1  
   168   64  169 1  
   169   64  170 1  
   170   64  171 1  
   171   65  172 1  
   172   65  173 1  
   173   65  174 1  
   174   66  175 1  
   175   67  176 1  
   176   70  177 1  
   177   70  178 1  
   178   71  179 1  
   179   72  180 1  
   180   72  181 1  
   181   72  182 1  
   182   73  183 1  
   183   73  184 1  
   184   73  185 1  
   185   74  186 1  
   186   75  187 1  
   187   78  188 1  
   188   78  189 1  
   189   82  190 1  
   190   83  191 1  
   191   86  192 1  
   192   86  193 1  
   193   90  194 1  
   194   91  195 1  
   195   94  196 1  
   196   95  197 1  
   197   95  198 1  
   198   96  199 1  
   199   96  200 1  
   200   96  201 1  
   201   97  202 1  
   202   97  203 1  
   203   97  204 1  
   204   98  205 1  
   205   99  206 1  
   206  102  207 1  
   207  102  208 1  
   208  103  209 1  
   209  103  210 1  
@<TRIPOS>SUBSTRUCTURE
     1 SER         1

