5hog_ligand
  -I-interpret- 

215214  0  0  0  0  0  0  0  0999 V2000
   -3.3710   39.7540   -1.4970 N   0  3  0  0  0
   -2.2180   40.0640   -2.3320 C   0  0  0  0  0
   -2.3950   39.5050   -3.7410 C   0  0  0  0  0
   -2.0780   40.1710   -4.7290 O   0  0  0  0  0
   -0.9370   39.5100   -1.7010 C   0  0  0  0  0
    0.1900   39.7640   -2.5220 O   0  0  0  0  0
   -2.9060   38.2740   -3.8240 N   0  0  0  0  0
   -3.1020   37.6160   -5.1100 C   0  0  0  0  0
   -4.3440   38.1030   -5.8440 C   0  0  0  0  0
   -4.4410   37.9100   -7.0610 O   0  0  0  0  0
   -3.1890   36.0990   -4.9210 C   0  0  0  0  0
   -1.9060   35.3620   -4.5320 C   0  0  0  0  0
   -2.1650   33.8660   -4.4410 C   0  0  0  0  0
   -0.7840   35.6570   -5.5160 C   0  0  0  0  0
   -5.2980   38.7130   -5.1350 N   0  0  0  0  0
   -6.5460   39.1250   -5.7710 C   0  0  0  0  0
   -6.3270   40.2870   -6.7350 C   0  0  0  0  0
   -6.9550   40.3440   -7.7980 O   0  0  0  0  0
   -7.5770   39.4830   -4.7020 C   0  0  0  0  0
   -8.0190   38.2810   -3.8830 C   0  0  0  0  0
   -9.0670   38.6480   -2.8510 C   0  0  0  0  0
   -9.4630   37.4860   -2.0610 N   0  0  0  0  0
  -10.2980   37.5320   -1.0290 C   0  0  0  0  0
  -10.8300   38.6870   -0.6540 N   0  0  0  0  0
  -10.6000   36.4210   -0.3690 N   0  0  0  0  0
   -5.4440   41.2190   -6.3860 N   0  0  0  0  0
   -5.0860   42.3360   -7.2590 C   0  0  0  0  0
   -3.6680   42.0990   -7.7680 C   0  0  0  0  0
   -2.6900   42.3650   -7.0640 O   0  0  0  0  0
   -5.2050   43.6730   -6.5330 C   0  0  0  0  0
   -6.6460   44.0630   -6.2610 C   0  0  0  0  0
   -7.5750   43.4770   -6.8170 O   0  0  0  0  0
   -6.8370   45.0660   -5.4130 N   0  0  0  0  0
   -3.5650   41.5990   -8.9980 N   0  0  0  0  0
   -2.2850   41.3600   -9.6500 C   0  0  0  0  0
   -2.0720   42.2950  -10.8310 C   0  0  0  0  0
   -1.1650   42.0690  -11.6390 O   0  0  0  0  0
   -2.1410   39.8920  -10.0850 C   0  0  0  0  0
   -3.3540   39.4600  -10.9140 C   0  0  0  0  0
   -1.9460   38.9870   -8.8740 C   0  0  0  0  0
   -3.2230   38.0780  -11.5170 C   0  0  0  0  0
   -2.8900   43.3460  -10.9540 N   0  0  0  0  0
   -2.7050   44.3080  -12.0370 C   0  0  0  0  0
   -1.3380   44.9750  -11.9660 C   0  0  0  0  0
   -0.8090   45.4150  -12.9930 O   0  0  0  0  0
   -3.8130   45.3610  -12.0080 C   0  0  0  0  0
   -5.1660   44.7950  -12.3870 C   0  0  0  0  0
   -5.2100   43.7000  -12.9890 O   0  0  0  0  0
   -6.1860   45.4490  -12.0880 O   0  0  0  0  0
   -0.7560   45.0670  -10.7690 N   0  0  0  0  0
    0.6090   45.5660  -10.6560 C   0  0  0  0  0
    1.5950   44.6400  -11.3570 C   0  0  0  0  0
    2.6180   45.1010  -11.8740 O   0  0  0  0  0
    0.9850   45.7400   -9.1840 C   0  0  0  0  0
    0.7970   44.4670   -8.3770 C   0  0  0  0  0
    0.1760   43.5160   -8.8950 O   0  0  0  0  0
    1.2700   44.4190   -7.2230 O   0  0  0  0  0
    1.3100   43.3390  -11.3820 N   0  0  0  0  0
    2.1540   42.3840  -12.0940 C   0  0  0  0  0
    1.7410   42.2600  -13.5560 C   0  0  0  0  0
    2.5940   42.1750  -14.4430 O   0  0  0  0  0
    2.1170   41.0140  -11.3860 C   0  0  0  0  0
    2.6080   41.1340   -9.9440 C   0  0  0  0  0
    2.9550   39.9940  -12.1420 C   0  0  0  0  0
    2.5780   39.8240   -9.1850 C   0  0  0  0  0
    0.4320   42.2500  -13.8230 N   0  0  0  0  0
   -0.0520   42.0340  -15.1830 C   0  0  0  0  0
    0.3190   43.1900  -16.1060 C   0  0  0  0  0
    0.6080   42.9760  -17.2890 O   0  0  0  0  0
   -1.5670   41.8220  -15.1730 C   0  0  0  0  0
   -2.0990   40.6310  -14.3690 C   0  0  0  0  0
   -3.6220   40.5800  -14.4150 C   0  0  0  0  0
   -1.4960   39.3220  -14.8610 C   0  0  0  0  0
    0.3240   44.4190  -15.5870 N   0  0  0  0  0
    0.6170   45.5780  -16.4190 C   0  0  0  0  0
    2.1080   45.7700  -16.6640 C   0  0  0  0  0
    2.4790   46.5670  -17.5330 O   0  0  0  0  0
    0.0310   46.8430  -15.7810 C   0  0  0  0  0
   -1.4890   46.8050  -15.6870 C   0  0  0  0  0
   -2.1130   45.9650  -16.3690 O   0  0  0  0  0
   -2.0590   47.6170  -14.9270 O   0  0  0  0  0
    2.9640   45.0580  -15.9260 N   0  0  0  0  0
    4.4060   45.1080  -16.1400 C   0  0  0  0  0
    4.8540   44.3220  -17.3660 C   0  0  0  0  0
    5.9920   44.4980  -17.8130 O   0  0  0  0  0
    5.1380   44.5820  -14.9020 C   0  0  0  0  0
    5.0420   45.5290  -13.7180 C   0  0  0  0  0
    4.2140   46.4630  -13.7670 O   0  0  0  0  0
    5.7900   45.3340  -12.7350 O   0  0  0  0  0
    3.9980   43.4460  -17.9010 N   0  0  0  0  0
    4.3940   42.5970  -19.0240 C   0  0  0  0  0
    4.6970   43.4350  -20.2610 C   0  0  0  0  0
    5.6060   43.1130  -21.0360 O   0  0  0  0  0
    3.3060   41.5440  -19.3050 C   0  0  0  0  0
    3.0080   40.7370  -18.0420 C   0  0  0  0  0
    3.7350   40.6150  -20.4320 C   0  0  0  0  0
    1.9780   39.6530  -18.2430 C   0  0  0  0  0
    3.9450   44.5140  -20.4650 N   0  0  0  0  0
    4.0670   45.3450  -21.6640 C   0  0  0  0  0
    5.5020   45.8060  -21.9180 C   0  0  0  0  0
    6.1750   45.3080  -22.8230 O   0  0  0  0  0
    3.1480   46.5650  -21.5580 C   0  0  0  0  0
    1.6720   46.2310  -21.4110 C   0  0  0  0  0
    0.8100   47.4690  -21.2390 C   0  0  0  0  0
    1.3710   48.5830  -21.1630 O   0  0  0  0  0
   -0.4290   47.3270  -21.1790 O   0  0  0  0  0
    6.0160   46.6850  -21.2230 O   0  0  0  0  0
   -4.2143   40.1294   -1.9309 H   0  0  0  0  0
   -3.4579   38.7422   -1.4014 H   0  0  0  0  0
   -3.2452   40.1741   -0.5761 H   0  0  0  0  0
   -2.1361   41.1486   -2.4033 H   0  0  0  0  0
   -1.0455   38.4319   -1.5828 H   0  0  0  0  0
   -0.7837   39.9985   -0.7387 H   0  0  0  0  0
    0.9766   39.4069   -2.1032 H   0  0  0  0  0
   -3.1650   37.7831   -2.9683 H   0  0  0  0  0
   -2.2380   37.8730   -5.7229 H   0  0  0  0  0
   -3.4750   35.6978   -5.8933 H   0  0  0  0  0
   -3.8790   35.9454   -4.0913 H   0  0  0  0  0
   -1.5900   35.7206   -3.5524 H   0  0  0  0  0
   -2.9285   33.6760   -3.6866 H   0  0  0  0  0
   -2.5085   33.4985   -5.4080 H   0  0  0  0  0
   -1.2430   33.3552   -4.1634 H   0  0  0  0  0
   -1.0830   35.3344   -6.5133 H   0  0  0  0  0
   -0.5822   36.7281   -5.5245 H   0  0  0  0  0
    0.1142   35.1191   -5.2128 H   0  0  0  0  0
   -5.1533   38.8923   -4.1414 H   0  0  0  0  0
   -6.9245   38.2897   -6.3602 H   0  0  0  0  0
   -8.4558   39.8839   -5.2071 H   0  0  0  0  0
   -7.1169   40.1994   -4.0214 H   0  0  0  0  0
   -7.1480   37.8885   -3.3582 H   0  0  0  0  0
   -8.4533   37.5478   -4.5626 H   0  0  0  0  0
   -9.9459   39.0308   -3.3698 H   0  0  0  0  0
   -8.6460   39.3967   -2.1800 H   0  0  0  0  0
   -9.0729   36.5794   -2.3184 H   0  0  0  0  0
  -10.5984   39.5428   -1.1583 H   0  0  0  0  0
  -11.2399   36.4571    0.4245 H   0  0  0  0  0
  -10.1922   35.5309   -0.6552 H   0  0  0  0  0
   -4.9981   41.1515   -5.4711 H   0  0  0  0  0
   -5.7771   42.3852   -8.1005 H   0  0  0  0  0
   -4.7641   44.4405   -7.1691 H   0  0  0  0  0
   -4.6958   43.5803   -5.5737 H   0  0  0  0  0
   -7.7837   45.3799   -5.1992 H   0  0  0  0  0
   -6.0371   45.5229   -4.9751 H   0  0  0  0  0
   -4.4204   41.3735   -9.5058 H   0  0  0  0  0
   -1.5088   41.5715   -8.9146 H   0  0  0  0  0
   -1.2543   39.7998  -10.7122 H   0  0  0  0  0
   -3.4514   40.1660  -11.7388 H   0  0  0  0  0
   -4.2144   39.4419  -10.2450 H   0  0  0  0  0
   -1.0444   39.2865   -8.3396 H   0  0  0  0  0
   -2.8081   39.0759   -8.2130 H   0  0  0  0  0
   -1.8465   37.9537   -9.2065 H   0  0  0  0  0
   -2.3549   38.0511  -12.1756 H   0  0  0  0  0
   -3.0986   37.3454  -10.7196 H   0  0  0  0  0
   -4.1216   37.8457  -12.0886 H   0  0  0  0  0
   -3.6494   43.4767  -10.2857 H   0  0  0  0  0
   -2.7590   43.7619  -12.9788 H   0  0  0  0  0
   -3.5588   46.1349  -12.7322 H   0  0  0  0  0
   -3.8836   45.7451  -10.9904 H   0  0  0  0  0
   -4.3175   43.3707  -13.1176 H   0  0  0  0  0
   -1.2670   44.7877   -9.9316 H   0  0  0  0  0
    0.6593   46.5367  -11.1492 H   0  0  0  0  0
    0.3337   46.5044   -8.7602 H   0  0  0  0  0
    2.0392   46.0132   -9.1377 H   0  0  0  0  0
   -0.1001   43.7605   -9.7814 H   0  0  0  0  0
    0.4817   43.0017  -10.8916 H   0  0  0  0  0
    3.1791   42.7542  -12.0794 H   0  0  0  0  0
    1.0821   40.6720  -11.3719 H   0  0  0  0  0
    1.9433   41.8269   -9.4281 H   0  0  0  0  0
    3.6445   41.4696   -9.9776 H   0  0  0  0  0
    2.5617   39.8795  -13.1521 H   0  0  0  0  0
    3.9881   40.3383  -12.1899 H   0  0  0  0  0
    2.9136   39.0359  -11.6238 H   0  0  0  0  0
    1.5555   39.4480   -9.1521 H   0  0  0  0  0
    3.2171   39.0989   -9.6889 H   0  0  0  0  0
    2.9399   39.9855   -8.1696 H   0  0  0  0  0
   -0.2374   42.3951  -13.0672 H   0  0  0  0  0
    0.4328   41.1385  -15.5717 H   0  0  0  0  0
   -1.8469   41.6300  -16.2088 H   0  0  0  0  0
   -1.9881   42.7102  -14.7020 H   0  0  0  0  0
   -1.7965   40.7679  -13.3308 H   0  0  0  0  0
   -4.0280   41.4987  -13.9916 H   0  0  0  0  0
   -3.9498   40.4794  -15.4497 H   0  0  0  0  0
   -3.9733   39.7255  -13.8366 H   0  0  0  0  0
   -1.7528   39.1769  -15.9103 H   0  0  0  0  0
   -0.4120   39.3594  -14.7527 H   0  0  0  0  0
   -1.8931   38.4961  -14.2709 H   0  0  0  0  0
    0.1203   44.5485  -14.5960 H   0  0  0  0  0
    0.1531   45.3958  -17.3884 H   0  0  0  0  0
    0.3062   47.6916  -16.4073 H   0  0  0  0  0
    0.4268   46.9209  -14.7684 H   0  0  0  0  0
   -1.4007   48.1697  -14.4995 H   0  0  0  0  0
    2.5965   44.4585  -15.1871 H   0  0  0  0  0
    4.6594   46.1534  -16.3161 H   0  0  0  0  0
    6.1918   44.4717  -15.1578 H   0  0  0  0  0
    4.6741   43.6385  -14.6145 H   0  0  0  0  0
    6.3449   44.5690  -12.9034 H   0  0  0  0  0
    3.0548   43.3685  -17.5205 H   0  0  0  0  0
    5.3110   42.0712  -18.7579 H   0  0  0  0  0
    2.3986   42.0640  -19.6122 H   0  0  0  0  0
    2.6116   41.4292  -17.2992 H   0  0  0  0  0
    3.9360   40.2523  -17.7387 H   0  0  0  0  0
    3.9041   41.1981  -21.3373 H   0  0  0  0  0
    4.6558   40.1045  -20.1497 H   0  0  0  0  0
    2.9512   39.8795  -20.6131 H   0  0  0  0  0
    1.0401   40.1011  -18.5711 H   0  0  0  0  0
    2.3320   38.9530  -18.9998 H   0  0  0  0  0
    1.8204   39.1245  -17.3028 H   0  0  0  0  0
    3.2565   44.7721  -19.7580 H   0  0  0  0  0
    3.7684   44.7241  -22.5087 H   0  0  0  0  0
    5.6540   44.6429  -23.2788 H   0  0  0  0  0
    3.2570   47.1282  -22.4848 H   0  0  0  0  0
    3.4429   47.1097  -20.6611 H   0  0  0  0  0
    1.5541   45.6128  -20.5210 H   0  0  0  0  0
    1.3506   45.7209  -22.3191 H   0  0  0  0  0
    2.3215   48.4667  -21.2312 H   0  0  0  0  0
  1  2  1  0  0  0
  2  3  1  0  0  0
  2  5  1  0  0  0
  3  4  2  0  0  0
  3  7  1  0  0  0
  5  6  1  0  0  0
  7  8  1  0  0  0
  8  9  1  0  0  0
  8 11  1  0  0  0
  9 10  2  0  0  0
  9 15  1  0  0  0
 11 12  1  0  0  0
 12 13  1  0  0  0
 12 14  1  0  0  0
 15 16  1  0  0  0
 16 17  1  0  0  0
 16 19  1  0  0  0
 17 18  2  0  0  0
 17 26  1  0  0  0
 19 20  1  0  0  0
 20 21  1  0  0  0
 21 22  1  0  0  0
 22 23  1  0  0  0
 23 24  2  0  0  0
 23 25  1  0  0  0
 26 27  1  0  0  0
 27 28  1  0  0  0
 27 30  1  0  0  0
 28 29  2  0  0  0
 28 34  1  0  0  0
 30 31  1  0  0  0
 31 32  2  0  0  0
 31 33  1  0  0  0
 34 35  1  0  0  0
 35 36  1  0  0  0
 35 38  1  0  0  0
 36 37  2  0  0  0
 36 42  1  0  0  0
 38 39  1  0  0  0
 38 40  1  0  0  0
 39 41  1  0  0  0
 42 43  1  0  0  0
 43 44  1  0  0  0
 43 46  1  0  0  0
 44 45  2  0  0  0
 44 50  1  0  0  0
 46 47  1  0  0  0
 47 48  1  0  0  0
 47 49  2  0  0  0
 50 51  1  0  0  0
 51 52  1  0  0  0
 51 54  1  0  0  0
 52 53  2  0  0  0
 52 58  1  0  0  0
 54 55  1  0  0  0
 55 56  1  0  0  0
 55 57  2  0  0  0
 58 59  1  0  0  0
 59 60  1  0  0  0
 59 62  1  0  0  0
 60 61  2  0  0  0
 60 66  1  0  0  0
 62 63  1  0  0  0
 62 64  1  0  0  0
 63 65  1  0  0  0
 66 67  1  0  0  0
 67 68  1  0  0  0
 67 70  1  0  0  0
 68 69  2  0  0  0
 68 74  1  0  0  0
 70 71  1  0  0  0
 71 72  1  0  0  0
 71 73  1  0  0  0
 74 75  1  0  0  0
 75 76  1  0  0  0
 75 78  1  0  0  0
 76 77  2  0  0  0
 76 82  1  0  0  0
 78 79  1  0  0  0
 79 80  2  0  0  0
 79 81  1  0  0  0
 82 83  1  0  0  0
 83 84  1  0  0  0
 83 86  1  0  0  0
 84 85  2  0  0  0
 84 90  1  0  0  0
 86 87  1  0  0  0
 87 88  2  0  0  0
 87 89  1  0  0  0
 90 91  1  0  0  0
 91 92  1  0  0  0
 91 94  1  0  0  0
 92 93  2  0  0  0
 92 98  1  0  0  0
 94 95  1  0  0  0
 94 96  1  0  0  0
 95 97  1  0  0  0
 98 99  1  0  0  0
 99100  1  0  0  0
 99102  1  0  0  0
100101  1  0  0  0
100107  2  0  0  0
102103  1  0  0  0
103104  1  0  0  0
104105  1  0  0  0
104106  2  0  0  0
  1108  1  0  0  0
  1109  1  0  0  0
  1110  1  0  0  0
  2111  1  0  0  0
  5112  1  0  0  0
  5113  1  0  0  0
  6114  1  0  0  0
  7115  1  0  0  0
  8116  1  0  0  0
 11117  1  0  0  0
 11118  1  0  0  0
 12119  1  0  0  0
 13120  1  0  0  0
 13121  1  0  0  0
 13122  1  0  0  0
 14123  1  0  0  0
 14124  1  0  0  0
 14125  1  0  0  0
 15126  1  0  0  0
 16127  1  0  0  0
 19128  1  0  0  0
 19129  1  0  0  0
 20130  1  0  0  0
 20131  1  0  0  0
 21132  1  0  0  0
 21133  1  0  0  0
 22134  1  0  0  0
 24135  1  0  0  0
 25136  1  0  0  0
 25137  1  0  0  0
 26138  1  0  0  0
 27139  1  0  0  0
 30140  1  0  0  0
 30141  1  0  0  0
 33142  1  0  0  0
 33143  1  0  0  0
 34144  1  0  0  0
 35145  1  0  0  0
 38146  1  0  0  0
 39147  1  0  0  0
 39148  1  0  0  0
 40149  1  0  0  0
 40150  1  0  0  0
 40151  1  0  0  0
 41152  1  0  0  0
 41153  1  0  0  0
 41154  1  0  0  0
 42155  1  0  0  0
 43156  1  0  0  0
 46157  1  0  0  0
 46158  1  0  0  0
 48159  1  0  0  0
 50160  1  0  0  0
 51161  1  0  0  0
 54162  1  0  0  0
 54163  1  0  0  0
 56164  1  0  0  0
 58165  1  0  0  0
 59166  1  0  0  0
 62167  1  0  0  0
 63168  1  0  0  0
 63169  1  0  0  0
 64170  1  0  0  0
 64171  1  0  0  0
 64172  1  0  0  0
 65173  1  0  0  0
 65174  1  0  0  0
 65175  1  0  0  0
 66176  1  0  0  0
 67177  1  0  0  0
 70178  1  0  0  0
 70179  1  0  0  0
 71180  1  0  0  0
 72181  1  0  0  0
 72182  1  0  0  0
 72183  1  0  0  0
 73184  1  0  0  0
 73185  1  0  0  0
 73186  1  0  0  0
 74187  1  0  0  0
 75188  1  0  0  0
 78189  1  0  0  0
 78190  1  0  0  0
 81191  1  0  0  0
 82192  1  0  0  0
 83193  1  0  0  0
 86194  1  0  0  0
 86195  1  0  0  0
 89196  1  0  0  0
 90197  1  0  0  0
 91198  1  0  0  0
 94199  1  0  0  0
 95200  1  0  0  0
 95201  1  0  0  0
 96202  1  0  0  0
 96203  1  0  0  0
 96204  1  0  0  0
 97205  1  0  0  0
 97206  1  0  0  0
 97207  1  0  0  0
 98208  1  0  0  0
 99209  1  0  0  0
101210  1  0  0  0
102211  1  0  0  0
102212  1  0  0  0
103213  1  0  0  0
103214  1  0  0  0
105215  1  0  0  0
M  END
$$$$
