4iur_ligand
  -I-interpret- 

146145  0  0  0  0  0  0  0  0999 V2000
  -20.1460  -12.4340  -14.3950 N   0  3  0  0  0
  -21.4910  -12.1560  -13.9140 C   0  0  0  0  0
  -21.4930  -11.1370  -12.8120 C   0  0  0  0  0
  -20.5560  -11.0480  -12.0520 O   0  0  0  0  0
  -22.1280  -13.3850  -13.3230 C   0  0  0  0  0
  -21.4310  -13.7310  -12.1300 O   0  0  0  0  0
  -22.0650  -14.5280  -14.2990 C   0  0  0  0  0
  -22.5730  -10.3840  -12.7090 N   0  0  0  0  0
  -22.6890   -9.3660  -11.6880 C   0  0  0  0  0
  -23.0890   -9.9360  -10.3410 C   0  0  0  0  0
  -23.5900  -11.0460  -10.2460 O   0  0  0  0  0
  -23.7370   -8.3450  -12.0940 C   0  0  0  0  0
  -23.6010   -7.7790  -13.4600 C   0  0  0  0  0
  -24.4020   -6.5080  -13.5480 C   0  0  0  0  0
  -24.3140   -5.8700  -14.9010 C   0  0  0  0  0
  -25.1350   -4.6560  -14.9630 N   0  3  0  0  0
  -22.8890   -9.1440   -9.3000 N   0  0  0  0  0
  -23.3530   -9.4970   -7.9730 C   0  0  0  0  0
  -24.8580   -9.5270   -7.9460 C   0  0  0  0  0
  -25.5040   -8.6800   -8.5290 O   0  0  0  0  0
  -22.9020   -8.4630   -6.9580 C   0  0  0  0  0
  -21.4460   -8.1300   -7.0110 C   0  0  0  0  0
  -20.6570   -8.9750   -6.0750 C   0  0  0  0  0
  -21.1830   -9.4890   -5.0990 O   0  0  0  0  0
  -19.3830   -9.1430   -6.3730 N   0  0  0  0  0
  -25.4220  -10.4880   -7.2420 N   0  0  0  0  0
  -26.8700  -10.5600   -7.1250 C   0  0  0  0  0
  -27.3260   -9.4460   -6.1910 C   0  0  0  0  0
  -27.1010   -9.4930   -4.9840 O   0  0  0  0  0
  -27.3420  -11.9130   -6.5930 C   0  0  0  0  0
  -26.7330  -12.9580   -7.3570 O   0  0  0  0  0
  -28.8580  -12.0310   -6.6990 C   0  0  0  0  0
  -27.9530   -8.4260   -6.7600 N   0  0  0  0  0
  -28.4040   -7.2890   -5.9760 C   0  0  0  0  0
  -29.5900   -7.6910   -5.1150 C   0  0  0  0  0
  -30.3820   -8.5400   -5.5100 O   0  0  0  0  0
  -28.7650   -6.1120   -6.8960 C   0  0  0  0  0
  -29.7600   -6.9800   -4.0100 N   0  0  0  0  0
  -30.8880   -7.1750   -3.1220 C   0  0  0  0  0
  -31.5520   -5.8460   -2.8010 C   0  0  0  0  0
  -30.9300   -4.9530   -2.2770 O   0  0  0  0  0
  -30.4390   -7.8790   -1.8510 C   0  0  0  0  0
  -29.6930   -7.0010   -0.8690 C   0  0  0  0  0
  -29.5620   -7.6590    0.5140 C   0  0  0  0  0
  -28.3910   -7.1770    1.2370 N   0  0  0  0  0
  -28.2740   -5.9610    1.7580 C   0  0  0  0  0
  -29.2620   -5.0820    1.6390 N   0  0  0  0  0
  -27.1630   -5.6230    2.4010 N   0  0  0  0  0
  -32.8260   -5.7190   -3.1400 N   0  0  0  0  0
  -33.5180   -4.4060   -3.0670 C   0  0  0  0  0
  -34.7300   -4.3940   -3.9920 C   0  0  0  0  0
  -34.3260   -4.0800   -5.4250 C   0  0  0  0  0
  -35.3790   -3.3420   -6.2440 C   0  0  0  0  0
  -35.3230   -3.8500   -7.6760 C   0  0  0  0  0
  -36.2730   -3.1740   -8.5520 N   0  3  0  0  0
  -33.9060   -4.0130   -1.6840 C   0  0  0  0  0
  -34.2420   -4.8430   -0.8620 O   0  0  0  0  0
  -36.2810   -1.7540   -8.2460 C   0  0  0  0  0
  -37.6120   -3.7350   -8.3760 C   0  0  0  0  0
  -35.8640   -3.3840   -9.9330 C   0  0  0  0  0
  -33.8520   -2.7200   -1.4150 N   0  0  0  0  0
  -34.2470   -2.2090   -0.1230 C   0  0  0  0  0
  -35.0710   -3.2610    0.5850 C   0  0  0  0  0
  -36.2859   -3.0524    0.8461 O   0  0  0  0  0
  -35.0690   -0.9350   -0.2820 C   0  0  0  0  0
  -34.9480   -0.0800    0.8290 O   0  0  0  0  0
  -34.5388   -4.3540    0.9162 O   0  0  0  0  0
  -19.7441  -11.5829  -14.7881 H   0  0  0  0  0
  -19.5686  -12.7570  -13.6187 H   0  0  0  0  0
  -20.1859  -13.1562  -15.1142 H   0  0  0  0  0
  -22.0379  -11.7963  -14.7856 H   0  0  0  0  0
  -23.1751  -13.1807  -13.0993 H   0  0  0  0  0
  -21.4746  -12.9982  -11.5113 H   0  0  0  0  0
  -21.0235  -14.7426  -14.5384 H   0  0  0  0  0
  -22.5260  -15.4098  -13.8541 H   0  0  0  0  0
  -22.6000  -14.2568  -15.2092 H   0  0  0  0  0
  -23.3424  -10.5234  -13.3640 H   0  0  0  0  0
  -21.7049   -8.9073  -11.5923 H   0  0  0  0  0
  -23.6314   -7.5077  -11.4042 H   0  0  0  0  0
  -24.6948   -8.8649  -12.0725 H   0  0  0  0  0
  -23.9700   -8.4966  -14.1928 H   0  0  0  0  0
  -22.5520   -7.5665  -13.6662 H   0  0  0  0  0
  -24.0013   -5.8055  -12.8172 H   0  0  0  0  0
  -25.4468   -6.7540  -13.3584 H   0  0  0  0  0
  -24.6783   -6.5774  -15.6460 H   0  0  0  0  0
  -23.2756   -5.6006  -15.0941 H   0  0  0  0  0
  -25.0579   -4.2419  -15.8920 H   0  0  0  0  0
  -26.1087   -4.8955  -14.7760 H   0  0  0  0  0
  -24.8073   -3.9893  -14.2640 H   0  0  0  0  0
  -22.3952   -8.2617   -9.4350 H   0  0  0  0  0
  -22.9399  -10.4749   -7.7258 H   0  0  0  0  0
  -23.0960   -8.8818   -5.9706 H   0  0  0  0  0
  -23.4459   -7.5443   -7.1777 H   0  0  0  0  0
  -21.3205   -7.0865   -6.7222 H   0  0  0  0  0
  -21.0877   -8.3115   -8.0243 H   0  0  0  0  0
  -18.7921   -9.7229   -5.7773 H   0  0  0  0  0
  -18.9888   -8.6930   -7.1992 H   0  0  0  0  0
  -24.8401  -11.1847   -6.7769 H   0  0  0  0  0
  -27.3064  -10.4423   -8.1169 H   0  0  0  0  0
  -27.0555  -11.9981   -5.5448 H   0  0  0  0  0
  -27.0278  -13.8091   -7.0249 H   0  0  0  0  0
  -29.3246  -11.2383   -6.1142 H   0  0  0  0  0
  -29.1563  -11.9376   -7.7432 H   0  0  0  0  0
  -29.1734  -13.0012   -6.3151 H   0  0  0  0  0
  -28.1218   -8.4396   -7.7658 H   0  0  0  0  0
  -27.5954   -6.9663   -5.3202 H   0  0  0  0  0
  -27.8869   -5.8203   -7.4722 H   0  0  0  0  0
  -29.5626   -6.4143   -7.5747 H   0  0  0  0  0
  -29.1006   -5.2695   -6.2913 H   0  0  0  0  0
  -29.0693   -6.2671   -3.7752 H   0  0  0  0  0
  -31.6230   -7.8051   -3.6228 H   0  0  0  0  0
  -29.7528   -8.6702   -2.1529 H   0  0  0  0  0
  -31.3406   -8.2246   -1.3452 H   0  0  0  0  0
  -30.2518   -6.0725   -0.7515 H   0  0  0  0  0
  -28.6900   -6.8307   -1.2601 H   0  0  0  0  0
  -29.4571   -8.7346    0.3721 H   0  0  0  0  0
  -30.4493   -7.4103    1.0962 H   0  0  0  0  0
  -27.6065   -7.8189    1.3506 H   0  0  0  0  0
  -29.1662   -4.1495    2.0412 H   0  0  0  0  0
  -30.1168   -5.3392    1.1454 H   0  0  0  0  0
  -26.4025   -6.2964    2.4937 H   0  0  0  0  0
  -33.3427   -6.5391   -3.4576 H   0  0  0  0  0
  -32.7977   -3.6588   -3.4003 H   0  0  0  0  0
  -35.4216   -3.6244   -3.6491 H   0  0  0  0  0
  -35.1943   -5.3799   -3.9697 H   0  0  0  0  0
  -34.1548   -5.0357   -5.9204 H   0  0  0  0  0
  -33.4549   -3.4270   -5.3706 H   0  0  0  0  0
  -35.1821   -2.2701   -6.2223 H   0  0  0  0  0
  -36.3689   -3.5220   -5.8246 H   0  0  0  0  0
  -35.5752   -4.9104   -7.6645 H   0  0  0  0  0
  -34.3207   -3.6591   -8.0593 H   0  0  0  0  0
  -36.5752   -1.6093   -7.2065 H   0  0  0  0  0
  -35.2833   -1.3442   -8.4030 H   0  0  0  0  0
  -36.9905   -1.2467   -8.8997 H   0  0  0  0  0
  -37.5946   -4.7971   -8.6204 H   0  0  0  0  0
  -37.9261   -3.6043   -7.3404 H   0  0  0  0  0
  -38.3099   -3.2203   -9.0364 H   0  0  0  0  0
  -34.8653   -2.9733  -10.0813 H   0  0  0  0  0
  -35.8548   -4.4523  -10.1494 H   0  0  0  0  0
  -36.5667   -2.8831  -10.5989 H   0  0  0  0  0
  -33.5258   -2.0720   -2.1320 H   0  0  0  0  0
  -33.3564   -1.9742    0.4599 H   0  0  0  0  0
  -36.5347   -2.1805    0.5307 H   0  0  0  0  0
  -36.1171   -1.2183   -0.3784 H   0  0  0  0  0
  -34.7024   -0.4031   -1.1599 H   0  0  0  0  0
  -35.4801    0.7061    0.6858 H   0  0  0  0  0
  1  2  1  0  0  0
  2  3  1  0  0  0
  2  5  1  0  0  0
  3  4  2  0  0  0
  3  8  1  0  0  0
  5  6  1  0  0  0
  5  7  1  0  0  0
  8  9  1  0  0  0
  9 10  1  0  0  0
  9 12  1  0  0  0
 10 11  2  0  0  0
 10 17  1  0  0  0
 12 13  1  0  0  0
 13 14  1  0  0  0
 14 15  1  0  0  0
 15 16  1  0  0  0
 17 18  1  0  0  0
 18 19  1  0  0  0
 18 21  1  0  0  0
 19 20  2  0  0  0
 19 26  1  0  0  0
 21 22  1  0  0  0
 22 23  1  0  0  0
 23 24  2  0  0  0
 23 25  1  0  0  0
 26 27  1  0  0  0
 27 28  1  0  0  0
 27 30  1  0  0  0
 28 29  2  0  0  0
 28 33  1  0  0  0
 30 31  1  0  0  0
 30 32  1  0  0  0
 33 34  1  0  0  0
 34 35  1  0  0  0
 34 37  1  0  0  0
 35 36  2  0  0  0
 35 38  1  0  0  0
 38 39  1  0  0  0
 39 40  1  0  0  0
 39 42  1  0  0  0
 40 41  2  0  0  0
 40 49  1  0  0  0
 42 43  1  0  0  0
 43 44  1  0  0  0
 44 45  1  0  0  0
 45 46  1  0  0  0
 46 47  1  0  0  0
 46 48  2  0  0  0
 49 50  1  0  0  0
 50 51  1  0  0  0
 50 56  1  0  0  0
 51 52  1  0  0  0
 52 53  1  0  0  0
 53 54  1  0  0  0
 54 55  1  0  0  0
 55 58  1  0  0  0
 55 59  1  0  0  0
 55 60  1  0  0  0
 56 57  2  0  0  0
 56 61  1  0  0  0
 61 62  1  0  0  0
 62 63  1  0  0  0
 62 65  1  0  0  0
 63 64  1  0  0  0
 65 66  1  0  0  0
 63 67  2  0  0  0
  1 68  1  0  0  0
  1 69  1  0  0  0
  1 70  1  0  0  0
  2 71  1  0  0  0
  5 72  1  0  0  0
  6 73  1  0  0  0
  7 74  1  0  0  0
  7 75  1  0  0  0
  7 76  1  0  0  0
  8 77  1  0  0  0
  9 78  1  0  0  0
 12 79  1  0  0  0
 12 80  1  0  0  0
 13 81  1  0  0  0
 13 82  1  0  0  0
 14 83  1  0  0  0
 14 84  1  0  0  0
 15 85  1  0  0  0
 15 86  1  0  0  0
 16 87  1  0  0  0
 16 88  1  0  0  0
 16 89  1  0  0  0
 17 90  1  0  0  0
 18 91  1  0  0  0
 21 92  1  0  0  0
 21 93  1  0  0  0
 22 94  1  0  0  0
 22 95  1  0  0  0
 25 96  1  0  0  0
 25 97  1  0  0  0
 26 98  1  0  0  0
 27 99  1  0  0  0
 30100  1  0  0  0
 31101  1  0  0  0
 32102  1  0  0  0
 32103  1  0  0  0
 32104  1  0  0  0
 33105  1  0  0  0
 34106  1  0  0  0
 37107  1  0  0  0
 37108  1  0  0  0
 37109  1  0  0  0
 38110  1  0  0  0
 39111  1  0  0  0
 42112  1  0  0  0
 42113  1  0  0  0
 43114  1  0  0  0
 43115  1  0  0  0
 44116  1  0  0  0
 44117  1  0  0  0
 45118  1  0  0  0
 47119  1  0  0  0
 47120  1  0  0  0
 48121  1  0  0  0
 49122  1  0  0  0
 50123  1  0  0  0
 51124  1  0  0  0
 51125  1  0  0  0
 52126  1  0  0  0
 52127  1  0  0  0
 53128  1  0  0  0
 53129  1  0  0  0
 54130  1  0  0  0
 54131  1  0  0  0
 58132  1  0  0  0
 58133  1  0  0  0
 58134  1  0  0  0
 59135  1  0  0  0
 59136  1  0  0  0
 59137  1  0  0  0
 60138  1  0  0  0
 60139  1  0  0  0
 60140  1  0  0  0
 61141  1  0  0  0
 62142  1  0  0  0
 64143  1  0  0  0
 65144  1  0  0  0
 65145  1  0  0  0
 66146  1  0  0  0
M  END
$$$$
