### 
### Created by X-TOOL on Mon Sep 10 21:13:15 2018
### 

@<TRIPOS>MOLECULE
4iur_ligand
  146   145     1     0     0
SMALL
GAST_HUCK


@<TRIPOS>ATOM
      1 N         -20.1460  -12.4340  -14.3950 N.4       1 THR         0.2398
      2 CA        -21.4910  -12.1560  -13.9140 C.3       1 THR         0.0910
      3 C         -21.4930  -11.1370  -12.8120 C.2       1 THR         0.2293
      4 O         -20.5560  -11.0480  -12.0520 O.2       1 THR        -0.3906
      5 CB        -22.1280  -13.3850  -13.3230 C.3       1 THR         0.1120
      6 OG1       -21.4310  -13.7310  -12.1300 O.3       1 THR        -0.3840
      7 CG2       -22.0650  -14.5280  -14.2990 C.3       1 THR        -0.0314
      8 N         -22.5730  -10.3840  -12.7090 N.am      1 LYS        -0.2609
      9 CA        -22.6890   -9.3660  -11.6880 C.3       1 LYS         0.1311
     10 C         -23.0890   -9.9360  -10.3410 C.2       1 LYS         0.2039
     11 O         -23.5900  -11.0460  -10.2460 O.2       1 LYS        -0.3944
     12 CB        -23.7370   -8.3450  -12.0940 C.3       1 LYS        -0.0122
     13 CG        -23.6010   -7.7790  -13.4600 C.3       1 LYS        -0.0440
     14 CD        -24.4020   -6.5080  -13.5480 C.3       1 LYS        -0.0124
     15 CE        -24.3140   -5.8700  -14.9010 C.3       1 LYS        -0.0354
     16 NZ        -25.1350   -4.6560  -14.9630 N.4       1 LYS         0.2185
     17 N         -22.8890   -9.1440   -9.3000 N.am      1 GLN        -0.2636
     18 CA        -23.3530   -9.4970   -7.9730 C.3       1 GLN         0.1330
     19 C         -24.8580   -9.5270   -7.9460 C.2       1 GLN         0.2041
     20 O         -25.5040   -8.6800   -8.5290 O.2       1 GLN        -0.3944
     21 CB        -22.9020   -8.4630   -6.9580 C.3       1 GLN         0.0045
     22 CG        -21.4460   -8.1300   -7.0110 C.3       1 GLN         0.0412
     23 CD        -20.6570   -8.9750   -6.0750 C.2       1 GLN         0.1737
     24 OE1       -21.1830   -9.4890   -5.0990 O.2       1 GLN        -0.3973
     25 NE2       -19.3830   -9.1430   -6.3730 N.am      1 GLN        -0.3009
     26 N         -25.4220  -10.4880   -7.2420 N.am      1 THR        -0.2613
     27 CA        -26.8700  -10.5600   -7.1250 C.3       1 THR         0.1565
     28 C         -27.3260   -9.4460   -6.1910 C.2       1 THR         0.2065
     29 O         -27.1010   -9.4930   -4.9840 O.2       1 THR        -0.3943
     30 CB        -27.3420  -11.9130   -6.5930 C.3       1 THR         0.0924
     31 OG1       -26.7330  -12.9580   -7.3570 O.3       1 THR        -0.3874
     32 CG2       -28.8580  -12.0310   -6.6990 C.3       1 THR        -0.0346
     33 N         -27.9530   -8.4260   -6.7600 N.am      1 ALA        -0.2639
     34 CA        -28.4040   -7.2890   -5.9760 C.3       1 ALA         0.1282
     35 C         -29.5900   -7.6910   -5.1150 C.2       1 ALA         0.2036
     36 O         -30.3820   -8.5400   -5.5100 O.2       1 ALA        -0.3944
     37 CB        -28.7650   -6.1120   -6.8960 C.3       1 ALA        -0.0244
     38 N         -29.7600   -6.9800   -4.0100 N.am      1 ARG        -0.2637
     39 CA        -30.8880   -7.1750   -3.1220 C.3       1 ARG         0.1311
     40 C         -31.5520   -5.8460   -2.8010 C.2       1 ARG         0.2039
     41 O         -30.9300   -4.9530   -2.2770 O.2       1 ARG        -0.3944
     42 CB        -30.4390   -7.8790   -1.8510 C.3       1 ARG        -0.0092
     43 CG        -29.6930   -7.0010   -0.8690 C.3       1 ARG        -0.0156
     44 CD        -29.5620   -7.6590    0.5140 C.3       1 ARG         0.0627
     45 NE        -28.3910   -7.1770    1.2370 N.pl3     1 ARG        -0.2723
     46 CZ        -28.2740   -5.9610    1.7580 C.cat     1 ARG         0.2882
     47 NH1       -29.2620   -5.0820    1.6390 N.pl3     1 ARG        -0.2849
     48 NH2       -27.1630   -5.6230    2.4010 N.pl3     1 ARG        -0.2849
     49 N         -32.8260   -5.7190   -3.1400 N.am      1 M3L        -0.2637
     50 CA        -33.5180   -4.4060   -3.0670 C.3       1 M3L         0.1309
     51 CB        -34.7300   -4.3940   -3.9920 C.3       1 M3L        -0.0122
     52 CG        -34.3260   -4.0800   -5.4250 C.3       1 M3L        -0.0440
     53 CD        -35.3790   -3.3420   -6.2440 C.3       1 M3L        -0.0123
     54 CE        -35.3230   -3.8500   -7.6760 C.3       1 M3L        -0.0309
     55 NZ        -36.2730   -3.1740   -8.5520 N.4       1 M3L         0.2369
     56 C         -33.9060   -4.0130   -1.6840 C.2       1 M3L         0.2034
     57 O         -34.2420   -4.8430   -0.8620 O.2       1 M3L        -0.3944
     58 CM1       -36.2810   -1.7540   -8.2460 C.3       1 M3L        -0.0418
     59 CM2       -37.6120   -3.7350   -8.3760 C.3       1 M3L        -0.0418
     60 CM3       -35.8640   -3.3840   -9.9330 C.3       1 M3L        -0.0418
     61 N         -33.8520   -2.7200   -1.4150 N.am      1 SER        -0.2672
     62 CA        -34.2470   -2.2090   -0.1230 C.3       1 SER         0.1173
     63 C         -35.0710   -3.2610    0.5850 C.2       1 SER         0.0623
     64 O         -36.2859   -3.0524    0.8461 O.co2     1 SER        -0.5665
     65 CB        -35.0690   -0.9350   -0.2820 C.3       1 SER         0.0789
     66 OG        -34.9480   -0.0800    0.8290 O.3       1 SER        -0.3910
     67 O         -34.5388   -4.3540    0.9162 O.co2     1 SER        -0.5665
     68 H1        -19.7478  -11.5935  -14.7837 H         1 THR         0.2016
     69 H2        -20.1842  -13.1476  -15.1059 H         1 THR         0.2016
     70 H3        -19.5744  -12.7533  -13.6286 H         1 THR         0.2016
     71 H4        -22.0956  -11.7915  -14.7575 H         1 THR         0.1125
     72 H5        -23.1804  -13.1717  -13.0845 H         1 THR         0.0674
     73 H6        -21.4844  -13.0105  -11.5131 H         1 THR         0.2102
     74 H7        -22.5339  -15.4174  -13.8528 H         1 THR         0.0258
     75 H8        -21.0142  -14.7485  -14.5381 H         1 THR         0.0258
     76 H9        -22.6009  -14.2540  -15.2197 H         1 THR         0.0258
     77 H10       -23.3273  -10.5206  -13.3511 H         1 LYS         0.1884
     78 H11       -21.7149   -8.8656  -11.5850 H         1 LYS         0.0800
     79 H12       -23.6893   -7.5111  -11.3782 H         1 LYS         0.0312
     80 H13       -24.7223   -8.8296  -12.0273 H         1 LYS         0.0312
     81 H14       -23.9768   -8.5031  -14.1979 H         1 LYS         0.0269
     82 H15       -22.5423   -7.5622  -13.6652 H         1 LYS         0.0269
     83 H16       -24.0227   -5.7987  -12.7977 H         1 LYS         0.0317
     84 H17       -25.4560   -6.7391  -13.3343 H         1 LYS         0.0317
     85 H18       -24.6689   -6.5836  -15.6592 H         1 LYS         0.0813
     86 H19       -23.2661   -5.6067  -15.1073 H         1 LYS         0.0813
     87 H20       -25.0595   -4.2459  -15.8807 H         1 LYS         0.1994
     88 H21       -24.8121   -3.9963  -14.2726 H         1 LYS         0.1994
     89 H22       -26.0975   -4.8915  -14.7784 H         1 LYS         0.1994
     90 H23       -22.4049   -8.2790   -9.4323 H         1 GLN         0.1883
     91 H24       -22.9540  -10.4850   -7.7000 H         1 GLN         0.0801
     92 H25       -23.1291   -8.8477   -5.9528 H         1 GLN         0.0337
     93 H26       -23.4716   -7.5386   -7.1342 H         1 GLN         0.0337
     94 H27       -21.3113   -7.0731   -6.7377 H         1 GLN         0.0504
     95 H28       -21.0793   -8.2936   -8.0351 H         1 GLN         0.0504
     96 H29       -18.8006   -9.7008   -5.7818 H         1 GLN         0.1814
     97 H30       -18.9997   -8.7125   -7.1901 H         1 GLN         0.1814
     98 H31       -24.8515  -11.1711   -6.7860 H         1 THR         0.1884
     99 H32       -27.3137  -10.4038   -8.1193 H         1 THR         0.0826
    100 H33       -27.0451  -12.0100   -5.5383 H         1 THR         0.0639
    101 H34       -27.0247  -13.8003   -7.0284 H         1 THR         0.2101
    102 H35       -29.1775  -13.0098   -6.3119 H         1 THR         0.0257
    103 H36       -29.1604  -11.9369   -7.7524 H         1 THR         0.0257
    104 H37       -29.3302  -11.2316   -6.1092 H         1 THR         0.0257
    105 H38       -28.1185   -8.4394   -7.7461 H         1 ALA         0.1883
    106 H39       -27.5844   -6.9726   -5.3141 H         1 ALA         0.0797
    107 H40       -29.1039   -5.2611   -6.2869 H         1 ALA         0.0277
    108 H41       -29.5699   -6.4158   -7.5814 H         1 ALA         0.0277
    109 H42       -27.8796   -5.8166   -7.4781 H         1 ALA         0.0277
    110 H43       -29.0829   -6.2811   -3.7798 H         1 ARG         0.1883
    111 H44       -31.6244   -7.8145   -3.6306 H         1 ARG         0.0800
    112 H45       -29.7788   -8.7115   -2.1358 H         1 ARG         0.0313
    113 H46       -31.3320   -8.2755   -1.3457 H         1 ARG         0.0313
    114 H47       -30.2364   -6.0509   -0.7593 H         1 ARG         0.0301
    115 H48       -28.6856   -6.8037   -1.2643 H         1 ARG         0.0301
    116 H49       -29.4757   -8.7478    0.3831 H         1 ARG         0.0689
    117 H50       -30.4624   -7.4307    1.1031 H         1 ARG         0.0689
    118 H51       -27.5988   -7.8252    1.3517 H         1 ARG         0.2642
    119 H52       -29.1653   -4.1404    2.0452 H         1 ARG         0.2615
    120 H53       -30.1251   -5.3417    1.1405 H         1 ARG         0.2615
    121 H54       -26.3951   -6.3030    2.4947 H         1 ARG         0.2615
    122 H55       -27.0689   -4.6807    2.8062 H         1 ARG         0.2615
    123 H56       -33.3325   -6.5230   -3.4514 H         1 M3L         0.1883
    124 H57       -32.8112   -3.6463   -3.4319 H         1 M3L         0.0800
    125 H58       -35.4396   -3.6291   -3.6436 H         1 M3L         0.0312
    126 H59       -35.2127   -5.3820   -3.9637 H         1 M3L         0.0312
    127 H60       -34.1029   -5.0300   -5.9327 H         1 M3L         0.0269
    128 H61       -33.4191   -3.4582   -5.3955 H         1 M3L         0.0269
    129 H62       -35.1727   -2.2617   -6.2257 H         1 M3L         0.0317
    130 H63       -36.3769   -3.5320   -5.8221 H         1 M3L         0.0317
    131 H64       -35.5490   -4.9265   -7.6763 H         1 M3L         0.0815
    132 H65       -34.3077   -3.6883   -8.0670 H         1 M3L         0.0815
    133 H66       -36.9967   -1.2409   -8.9052 H         1 M3L         0.0778
    134 H67       -35.2746   -1.3391   -8.4041 H         1 M3L         0.0778
    135 H68       -36.5778   -1.6066   -7.1971 H         1 M3L         0.0778
    136 H69       -37.5930   -4.8096   -8.6104 H         1 M3L         0.0778
    137 H70       -38.3149   -3.2249   -9.0510 H         1 M3L         0.0778
    138 H71       -37.9352   -3.5927   -7.3342 H         1 M3L         0.0778
    139 H72       -34.8572   -2.9677  -10.0845 H         1 M3L         0.0778
    140 H73       -36.5738   -2.8811  -10.6062 H         1 M3L         0.0778
    141 H74       -35.8518   -4.4619  -10.1520 H         1 M3L         0.0778
    142 H75       -33.5322   -2.0847   -2.1180 H         1 SER         0.1876
    143 H76       -33.3481   -1.9864    0.4706 H         1 SER         0.0749
    144 H77       -36.1272   -1.2095   -0.4036 H         1 SER         0.0599
    145 H78       -34.7234   -0.4005   -1.1791 H         1 SER         0.0599
    146 H79       -35.4745    0.6979    0.6873 H         1 SER         0.2096
@<TRIPOS>BOND
     1    1    2 1  
     2    2    3 1  
     3    2    5 1  
     4    3    4 2  
     5    3    8 am 
     6    5    6 1  
     7    5    7 1  
     8    8    9 1  
     9    9   10 1  
    10    9   12 1  
    11   10   11 2  
    12   10   17 am 
    13   12   13 1  
    14   13   14 1  
    15   14   15 1  
    16   15   16 1  
    17   17   18 1  
    18   18   19 1  
    19   18   21 1  
    20   19   20 2  
    21   19   26 am 
    22   21   22 1  
    23   22   23 1  
    24   23   24 2  
    25   23   25 am 
    26   26   27 1  
    27   27   28 1  
    28   27   30 1  
    29   28   29 2  
    30   28   33 am 
    31   30   31 1  
    32   30   32 1  
    33   33   34 1  
    34   34   35 1  
    35   34   37 1  
    36   35   36 2  
    37   35   38 am 
    38   38   39 1  
    39   39   40 1  
    40   39   42 1  
    41   40   41 2  
    42   40   49 am 
    43   42   43 1  
    44   43   44 1  
    45   44   45 1  
    46   45   46 ar 
    47   46   47 ar 
    48   46   48 ar 
    49   49   50 1  
    50   50   51 1  
    51   50   56 1  
    52   51   52 1  
    53   52   53 1  
    54   53   54 1  
    55   54   55 1  
    56   55   58 1  
    57   55   59 1  
    58   55   60 1  
    59   56   57 2  
    60   56   61 am 
    61   61   62 1  
    62   62   63 1  
    63   62   65 1  
    64   63   64 ar 
    65   65   66 1  
    66   63   67 ar 
    67    1   68 1  
    68    1   69 1  
    69    1   70 1  
    70    2   71 1  
    71    5   72 1  
    72    6   73 1  
    73    7   74 1  
    74    7   75 1  
    75    7   76 1  
    76    8   77 1  
    77    9   78 1  
    78   12   79 1  
    79   12   80 1  
    80   13   81 1  
    81   13   82 1  
    82   14   83 1  
    83   14   84 1  
    84   15   85 1  
    85   15   86 1  
    86   16   87 1  
    87   16   88 1  
    88   16   89 1  
    89   17   90 1  
    90   18   91 1  
    91   21   92 1  
    92   21   93 1  
    93   22   94 1  
    94   22   95 1  
    95   25   96 1  
    96   25   97 1  
    97   26   98 1  
    98   27   99 1  
    99   30  100 1  
   100   31  101 1  
   101   32  102 1  
   102   32  103 1  
   103   32  104 1  
   104   33  105 1  
   105   34  106 1  
   106   37  107 1  
   107   37  108 1  
   108   37  109 1  
   109   38  110 1  
   110   39  111 1  
   111   42  112 1  
   112   42  113 1  
   113   43  114 1  
   114   43  115 1  
   115   44  116 1  
   116   44  117 1  
   117   45  118 1  
   118   47  119 1  
   119   47  120 1  
   120   48  121 1  
   121   48  122 1  
   122   49  123 1  
   123   50  124 1  
   124   51  125 1  
   125   51  126 1  
   126   52  127 1  
   127   52  128 1  
   128   53  129 1  
   129   53  130 1  
   130   54  131 1  
   131   54  132 1  
   132   58  133 1  
   133   58  134 1  
   134   58  135 1  
   135   59  136 1  
   136   59  137 1  
   137   59  138 1  
   138   60  139 1  
   139   60  140 1  
   140   60  141 1  
   141   61  142 1  
   142   62  143 1  
   143   65  144 1  
   144   65  145 1  
   145   66  146 1  
@<TRIPOS>SUBSTRUCTURE
     1 THR         1

