4i0z_ligand
  -I-interpret- 

 53 56  0  0  0  0  0  0  0  0999 V2000
    9.6970  -11.8940    4.2690 Cl  0  0  0  0  0
   10.0760  -13.2970    5.2830 C   0  0  0  0  0
   11.0310  -13.1180    6.3260 C   0  0  0  0  0
   11.2370  -14.1990    7.1450 C   0  0  0  0  0
   10.5660  -15.3790    6.8830 C   0  0  0  0  0
    9.5960  -15.5200    5.8520 C   0  0  0  0  0
    9.3590  -14.4640    4.9890 C   0  0  0  0  0
   12.2140  -14.1390    8.2860 C   0  0  0  0  0
   11.6850  -14.9340    9.4720 C   0  0  0  0  0
   11.4390  -16.2990    8.9650 N   0  0  0  0  0
   10.9000  -16.5170    7.7940 C   0  0  0  0  0
   10.6340  -17.7530    7.3220 N   0  0  0  0  0
   10.9150  -18.9600    8.1250 C   0  0  0  0  0
    9.5850  -19.4920    8.7820 C   0  0  0  0  0
   12.8240  -14.9370   10.5270 C   0  0  0  0  0
   10.3870  -14.2890   10.0350 C   0  0  0  0  0
   11.3690  -20.0000    7.1650 C   0  0  0  0  0
   11.2760  -19.7740    5.8020 N   0  0  0  0  0
   11.5740  -20.7400    4.9000 C   0  0  0  0  0
   11.8780  -22.0330    5.3250 C   0  0  0  0  0
   11.9510  -22.2580    6.7810 C   0  0  0  0  0
   11.6830  -21.2180    7.6350 N   0  0  0  0  0
   12.2140  -23.3860    7.1930 O   0  0  0  0  0
    9.1100  -18.5280    9.8990 C   0  0  0  0  0
    9.8100  -18.5650   11.1120 C   0  0  0  0  0
    9.5350  -17.7190   12.2230 C   0  0  0  0  0
    8.4270  -16.8150   12.0660 C   0  0  0  0  0
    7.7080  -16.7850   10.8450 C   0  0  0  0  0
    8.0220  -17.6240    9.7250 C   0  0  0  0  0
   12.1430  -22.9960    4.4930 C   0  0  0  0  0
   12.3580  -23.8810    3.7430 N   0  0  0  0  0
   11.5656  -12.1783    6.4645 H   0  0  0  0  0
    9.0433  -16.4530    5.7424 H   0  0  0  0  0
    8.6695  -14.5348    4.1478 H   0  0  0  0  0
   12.3507  -13.0998    8.5850 H   0  0  0  0  0
   13.1644  -14.5656    7.9653 H   0  0  0  0  0
   10.2303  -17.8556    6.3909 H   0  0  0  0  0
   11.6473  -18.7390    8.9015 H   0  0  0  0  0
    9.7722  -20.4739    9.2167 H   0  0  0  0  0
    8.8120  -19.5560    8.0162 H   0  0  0  0  0
   13.7107  -15.4067   10.1012 H   0  0  0  0  0
   13.0562  -13.9109   10.8120 H   0  0  0  0  0
   12.5020  -15.4955   11.4059 H   0  0  0  0  0
   10.6005  -13.2710   10.3610 H   0  0  0  0  0
    9.6248  -14.2701    9.2560 H   0  0  0  0  0
   10.0290  -14.8753   10.8813 H   0  0  0  0  0
   11.5762  -20.5051    3.8356 H   0  0  0  0  0
   11.2819  -22.6030    4.6123 H   0  0  0  0  0
   10.6184  -19.2893   11.2114 H   0  0  0  0  0
   10.1278  -17.7539   13.1371 H   0  0  0  0  0
    8.1410  -16.1544   12.8845 H   0  0  0  0  0
    6.8742  -16.0891   10.7525 H   0  0  0  0  0
    7.4598  -17.5731    8.7926 H   0  0  0  0  0
  1  2  1  0  0  0
  2  3  4  0  0  0
  2  7  4  0  0  0
  3  4  4  0  0  0
  4  5  4  0  0  0
  4  8  1  0  0  0
  5  6  4  0  0  0
  5 11  1  0  0  0
  6  7  4  0  0  0
  8  9  1  0  0  0
  9 10  1  0  0  0
  9 15  1  0  0  0
  9 16  1  0  0  0
 10 11  2  0  0  0
 11 12  1  0  0  0
 12 13  1  0  0  0
 13 14  1  0  0  0
 13 17  1  0  0  0
 14 24  1  0  0  0
 17 18  1  0  0  0
 17 22  2  0  0  0
 18 19  2  0  0  0
 19 20  1  0  0  0
 20 21  1  0  0  0
 20 30  1  0  0  0
 21 22  1  0  0  0
 21 23  2  0  0  0
 24 25  4  0  0  0
 24 29  4  0  0  0
 25 26  4  0  0  0
 26 27  4  0  0  0
 27 28  4  0  0  0
 28 29  4  0  0  0
 30 31  3  0  0  0
  3 32  1  0  0  0
  6 33  1  0  0  0
  7 34  1  0  0  0
  8 35  1  0  0  0
  8 36  1  0  0  0
 12 37  1  0  0  0
 13 38  1  0  0  0
 14 39  1  0  0  0
 14 40  1  0  0  0
 15 41  1  0  0  0
 15 42  1  0  0  0
 15 43  1  0  0  0
 16 44  1  0  0  0
 16 45  1  0  0  0
 16 46  1  0  0  0
 19 47  1  0  0  0
 20 48  1  0  0  0
 25 49  1  0  0  0
 26 50  1  0  0  0
 27 51  1  0  0  0
 28 52  1  0  0  0
 29 53  1  0  0  0
M  END
$$$$
