### 
### Created by X-TOOL on Fri Nov  2 11:03:59 2018
### 

@<TRIPOS>MOLECULE
5tyi_ligand
  137   140     1     0     0
SMALL
GAST_HUCK


@<TRIPOS>ATOM
      1 N          22.3310    7.5750  -25.9930 N.am      1 LYS        -0.2649
      2 CA         22.4280    7.7610  -24.5480 C.3       1 LYS         0.1309
      3 C          23.1880    9.0190  -24.1740 C.2       1 LYS         0.2040
      4 O          23.9930    9.5260  -24.9570 O.2       1 LYS        -0.3944
      5 CB         23.1080    6.5600  -23.8920 C.3       1 LYS        -0.0123
      6 CG         22.5380    5.2240  -24.3040 C.3       1 LYS        -0.0470
      7 CD         23.0370    4.1120  -23.3700 C.3       1 LYS        -0.0325
      8 CE         22.1050    2.8970  -23.4300 C.3       1 LYS         0.0309
      9 NZ         20.7880    3.1870  -22.7720 N.am      1 LYS        -0.2870
     10 N          22.9270    9.5060  -22.9620 N.am      1 LYS        -0.2619
     11 CA         23.6220   10.6560  -22.3960 C.3       1 LYS         0.1404
     12 C          24.0180   10.3560  -20.9310 C.2       1 LYS         0.2059
     13 O          23.2310    9.7840  -20.1730 O.2       1 LYS        -0.3942
     14 CB         22.7410   11.9050  -22.4730 C.3       1 LYS         0.0214
     15 CG         22.0730   12.0890  -23.8100 C.ar      1 LYS        -0.0386
     16 CD1        22.6430   12.9040  -24.7850 C.ar      1 LYS        -0.0601
     17 CD2        20.8820   11.4420  -24.0910 C.ar      1 LYS        -0.0601
     18 CE1        22.0370   13.0670  -26.0190 C.ar      1 LYS        -0.0686
     19 CE2        20.2660   11.5880  -25.3320 C.ar      1 LYS        -0.0686
     20 CZ         20.8500   12.4030  -26.2930 C.ar      1 LYS        -0.0687
     21 N          25.2330   10.7430  -20.5400 N.am      1 LYS        -0.2639
     22 CA         25.7640   10.3730  -19.2340 C.3       1 LYS         0.1282
     23 C          24.9270   10.9300  -18.0880 C.2       1 LYS         0.2034
     24 O          24.7710   12.1390  -17.9390 O.2       1 LYS        -0.3944
     25 CB         27.2200   10.8440  -19.0910 C.3       1 LYS        -0.0244
     26 N          24.3720   10.0360  -17.2870 N.am      1 LYS        -0.2664
     27 CA         23.6770   10.4490  -16.0790 C.3       1 LYS         0.1201
     28 C          22.1660   10.6030  -16.2030 C.2       1 LYS         0.2009
     29 O          21.5050   11.1050  -15.2940 O.2       1 LYS        -0.3947
     30 C02        20.7580   10.0650  -18.5080 C.3       1 LYS         0.1408
     31 C03        19.8120   11.2220  -18.6800 C.3       1 LYS         0.0227
     32 C04        20.2080   12.6150  -18.2350 C.ar      1 LYS        -0.0357
     33 C05        21.3790   13.2450  -18.6540 C.ar      1 LYS        -0.0564
     34 C06        21.6400   14.5320  -18.2040 C.ar      1 LYS        -0.0542
     35 C07        20.7520   15.1870  -17.3550 C.ar      1 LYS         0.0032
     36 C08        20.9860   16.5930  -16.8770 C.2       1 LYS         0.0584
     37 C11        19.5850   14.5540  -16.9470 C.ar      1 LYS        -0.0542
     38 C12        19.3270   13.2760  -17.3950 C.ar      1 LYS        -0.0564
     39 C13        20.0590    8.7210  -18.5390 C.2       1 LYS         0.2061
     40 N01        21.5850   10.1800  -17.3010 N.am      1 LYS        -0.2621
     41 O09        20.5530   16.8830  -15.7270 O.co2     1 LYS        -0.5625
     42 O10        21.5090   17.4460  -17.6340 O.co2     1 LYS        -0.5625
     43 O14        20.6100    7.6700  -18.7560 O.2       1 LYS        -0.3942
     44 N          18.7270    8.7230  -18.6080 N.am      1 LYS        -0.2620
     45 CA         18.0630    7.4510  -18.9110 C.3       1 LYS         0.1423
     46 C          17.5700    7.3150  -20.3570 C.2       1 LYS         0.2057
     47 O          16.9430    6.3020  -20.6980 O.2       1 LYS        -0.3943
     48 CB         16.8930    7.2410  -17.9580 C.3       1 LYS         0.0406
     49 CG         17.3510    7.0750  -16.5170 C.2       1 LYS         0.0393
     50 OD1        18.3420    6.3490  -16.3140 O.co2     1 LYS        -0.5688
     51 OD2        16.7470    7.6740  -15.6040 O.co2     1 LYS        -0.5688
     52 N          17.8440    8.3120  -21.1970 N.am      1 LYS        -0.2615
     53 CA         17.4940    8.2180  -22.6200 C.3       1 LYS         0.1476
     54 C          18.0630    6.9470  -23.2390 C.2       1 LYS         0.2063
     55 O          19.2350    6.6450  -23.0540 O.2       1 LYS        -0.3942
     56 CB         18.0200    9.4180  -23.4130 C.3       1 LYS         0.0773
     57 CG         17.6820   10.7480  -22.7700 C.2       1 LYS         0.1780
     58 OD1        17.9110   10.9490  -21.5920 O.2       1 LYS        -0.3970
     59 ND2        17.1320   11.6700  -23.5620 N.am      1 LYS        -0.3007
     60 N          17.2340    6.2030  -23.9560 N.am      1 LYS        -0.2634
     61 CA         17.7220    5.1050  -24.7780 C.3       1 LYS         0.1330
     62 C          17.0970    5.1910  -26.1490 C.2       1 LYS         0.2041
     63 O          15.9190    5.5220  -26.2710 O.2       1 LYS        -0.3944
     64 CB         17.4190    3.7510  -24.1270 C.3       1 LYS         0.0045
     65 CG         18.4650    3.3460  -23.0910 C.3       1 LYS         0.0414
     66 CD         19.8550    3.3300  -23.6830 C.2       1 LYS         0.1762
     67 OE2        20.0170    2.7610  -24.7790 O.2       1 LYS        -0.3971
     68 O10        20.2330    8.2020  -26.0180 O.2       1 LYS        -0.3960
     69 N01        18.1000    5.7230  -26.8280 N.am      1 LYS        -0.2629
     70 C02        17.4000    6.4550  -27.9260 C.3       1 LYS         0.1397
     71 C03        17.0050    5.4470  -29.1810 C.2       1 LYS         0.2000
     72 O04        16.0060    5.6830  -29.8740 O.2       1 LYS        -0.3947
     73 N05        17.7480    4.3670  -29.3660 N.am      1 LYS        -0.2989
     74 C06        18.1490    7.8470  -28.2520 C.3       1 LYS         0.0363
     75 S07        19.8160    7.9140  -29.0140 S.3       1 LYS        -0.1344
     76 C08        21.0960    7.0750  -27.9790 C.3       1 LYS         0.0836
     77 C09        21.1910    7.8190  -26.6350 C.2       1 LYS         0.1882
     78 H1         23.1299    7.2608  -26.5059 H         1 LYS         0.1883
     79 H2         21.4061    7.8455  -24.1497 H         1 LYS         0.0800
     80 H3         23.0036    6.6578  -22.8014 H         1 LYS         0.0312
     81 H4         24.1743    6.5778  -24.1614 H         1 LYS         0.0312
     82 H5         22.8522    4.9990  -25.3339 H         1 LYS         0.0268
     83 H6         21.4399    5.2696  -24.2573 H         1 LYS         0.0268
     84 H7         23.0677    4.4931  -22.3386 H         1 LYS         0.0285
     85 H8         24.0479    3.8074  -23.6787 H         1 LYS         0.0285
     86 H9         22.5845    2.0518  -22.9147 H         1 LYS         0.0520
     87 H10        21.9288    2.6322  -24.4830 H         1 LYS         0.0520
     88 H11        20.6430    3.2604  -21.7853 H         1 LYS         0.1850
     89 H12        22.2194    9.0609  -22.4132 H         1 LYS         0.1885
     90 H13        24.5373   10.8374  -22.9785 H         1 LYS         0.0823
     91 H14        23.3684   12.7862  -22.2734 H         1 LYS         0.0474
     92 H15        21.9604   11.8283  -21.7018 H         1 LYS         0.0474
     93 H16        23.5740   13.4178  -24.5747 H         1 LYS         0.0557
     94 H17        20.4229   10.8140  -23.3361 H         1 LYS         0.0557
     95 H18        22.4873   13.7097  -26.7668 H         1 LYS         0.0599
     96 H19        19.3383   11.0696  -25.5458 H         1 LYS         0.0599
     97 H20        20.3765   12.5208  -27.2610 H         1 LYS         0.0559
     98 H21        25.7915   11.2987  -21.1559 H         1 LYS         0.1883
     99 H22        25.7475    9.2754  -19.1632 H         1 LYS         0.0797
    100 H23        27.6029   10.5562  -18.1007 H         1 LYS         0.0277
    101 H24        27.2636   11.9380  -19.1972 H         1 LYS         0.0277
    102 H25        27.8356   10.3749  -19.8726 H         1 LYS         0.0277
    103 H26        24.4312    9.0642  -17.5151 H         1 LYS         0.1881
    104 H27        24.0906   11.4192  -15.7666 H         1 LYS         0.0763
    105 H28        23.8769    9.6976  -15.3010 H         1 LYS         0.0763
    106 H29        21.4417   10.0909  -19.3693 H         1 LYS         0.0824
    107 H30        18.8959   10.9641  -18.1284 H         1 LYS         0.0480
    108 H31        19.5868   11.2872  -19.7547 H         1 LYS         0.0480
    109 H32        22.0716   12.7401  -19.3177 H         1 LYS         0.0565
    110 H33        22.5479   15.0341  -18.5180 H         1 LYS         0.0634
    111 H34        18.8879   15.0570  -16.2866 H         1 LYS         0.0634
    112 H35        18.4159   12.7781  -17.0835 H         1 LYS         0.0565
    113 H36        22.0279    9.2850  -17.3535 H         1 LYS         0.1885
    114 H37        18.2010    9.5603  -18.4588 H         1 LYS         0.1884
    115 H38        18.7974    6.6504  -18.7384 H         1 LYS         0.0819
    116 H39        16.3455    6.3368  -18.2624 H         1 LYS         0.0478
    117 H40        16.2247    8.1125  -18.0195 H         1 LYS         0.0478
    118 H41        18.2944    9.1361  -20.8536 H         1 LYS         0.1885
    119 H42        16.3974    8.1937  -22.7030 H         1 LYS         0.0826
    120 H43        17.5781    9.3934  -24.4200 H         1 LYS         0.0551
    121 H44        19.1141    9.3344  -23.4905 H         1 LYS         0.0551
    122 H45        16.8882   12.5663  -23.1915 H         1 LYS         0.1814
    123 H46        16.9635   11.4648  -24.5261 H         1 LYS         0.1814
    124 H47        16.2538    6.3994  -23.9322 H         1 LYS         0.1883
    125 H48        18.8128    5.2023  -24.8816 H         1 LYS         0.0801
    126 H49        17.3868    2.9823  -24.9131 H         1 LYS         0.0337
    127 H50        16.4385    3.8105  -23.6319 H         1 LYS         0.0337
    128 H51        18.2251    2.3403  -22.7154 H         1 LYS         0.0505
    129 H52        18.4397    4.0642  -22.2582 H         1 LYS         0.0505
    130 H53        19.0816    5.6527  -26.6505 H         1 LYS         0.1884
    131 H54        16.4284    6.7595  -27.5097 H         1 LYS         0.0808
    132 H55        17.5375    3.7374  -30.1139 H         1 LYS         0.1815
    133 H56        18.5197    4.1808  -28.7579 H         1 LYS         0.1815
    134 H57        18.2291    8.3824  -27.2944 H         1 LYS         0.0426
    135 H58        17.4817    8.4020  -28.9278 H         1 LYS         0.0426
    136 H59        22.0687    7.1066  -28.4916 H         1 LYS         0.0616
    137 H60        20.8068    6.0280  -27.8053 H         1 LYS         0.0616
@<TRIPOS>BOND
     1    2    1 1  
     2    1   77 am 
     3    3    2 1  
     4    2    5 1  
     5    3    4 2  
     6   10    3 am 
     7    5    6 1  
     8    6    7 1  
     9    7    8 1  
    10    8    9 1  
    11    9   66 am 
    12   11   10 1  
    13   12   11 1  
    14   11   14 1  
    15   12   13 2  
    16   21   12 am 
    17   14   15 1  
    18   15   16 ar 
    19   15   17 ar 
    20   16   18 ar 
    21   17   19 ar 
    22   18   20 ar 
    23   19   20 ar 
    24   22   21 1  
    25   23   22 1  
    26   22   25 1  
    27   23   24 2  
    28   26   23 am 
    29   27   26 1  
    30   28   27 1  
    31   28   29 2  
    32   40   28 am 
    33   30   31 1  
    34   30   39 1  
    35   30   40 1  
    36   31   32 1  
    37   32   33 ar 
    38   32   38 ar 
    39   33   34 ar 
    40   34   35 ar 
    41   35   36 1  
    42   35   37 ar 
    43   36   41 ar 
    44   36   42 ar 
    45   37   38 ar 
    46   39   43 2  
    47   39   44 am 
    48   44   45 1  
    49   45   46 1  
    50   45   48 1  
    51   46   47 2  
    52   46   52 am 
    53   48   49 1  
    54   49   50 ar 
    55   49   51 ar 
    56   52   53 1  
    57   53   54 1  
    58   53   56 1  
    59   54   55 2  
    60   54   60 am 
    61   56   57 1  
    62   57   58 2  
    63   57   59 am 
    64   60   61 1  
    65   61   62 1  
    66   61   64 1  
    67   62   63 2  
    68   62   69 am 
    69   64   65 1  
    70   65   66 1  
    71   66   67 2  
    72   77   68 2  
    73   69   70 1  
    74   70   71 1  
    75   70   74 1  
    76   71   72 2  
    77   71   73 am 
    78   74   75 1  
    79   75   76 1  
    80   76   77 1  
    81    1   78 1  
    82    2   79 1  
    83    5   80 1  
    84    5   81 1  
    85    6   82 1  
    86    6   83 1  
    87    7   84 1  
    88    7   85 1  
    89    8   86 1  
    90    8   87 1  
    91    9   88 1  
    92   10   89 1  
    93   11   90 1  
    94   14   91 1  
    95   14   92 1  
    96   16   93 1  
    97   17   94 1  
    98   18   95 1  
    99   19   96 1  
   100   20   97 1  
   101   21   98 1  
   102   22   99 1  
   103   25  100 1  
   104   25  101 1  
   105   25  102 1  
   106   26  103 1  
   107   27  104 1  
   108   27  105 1  
   109   30  106 1  
   110   31  107 1  
   111   31  108 1  
   112   33  109 1  
   113   34  110 1  
   114   37  111 1  
   115   38  112 1  
   116   40  113 1  
   117   44  114 1  
   118   45  115 1  
   119   48  116 1  
   120   48  117 1  
   121   52  118 1  
   122   53  119 1  
   123   56  120 1  
   124   56  121 1  
   125   59  122 1  
   126   59  123 1  
   127   60  124 1  
   128   61  125 1  
   129   64  126 1  
   130   64  127 1  
   131   65  128 1  
   132   65  129 1  
   133   69  130 1  
   134   70  131 1  
   135   73  132 1  
   136   73  133 1  
   137   74  134 1  
   138   74  135 1  
   139   76  136 1  
   140   76  137 1  
@<TRIPOS>SUBSTRUCTURE
     1 LYS         1

