5tyi_ligand
  -I-interpret- 

139142  0  0  0  0  0  0  0  0999 V2000
   22.3310    7.5750  -25.9930 N   0  0  0  0  0
   22.4280    7.7610  -24.5480 C   0  0  0  0  0
   23.1880    9.0190  -24.1740 C   0  0  0  0  0
   23.9930    9.5260  -24.9570 O   0  0  0  0  0
   23.1080    6.5600  -23.8920 C   0  0  0  0  0
   22.5380    5.2240  -24.3040 C   0  0  0  0  0
   23.0370    4.1120  -23.3700 C   0  0  0  0  0
   22.1050    2.8970  -23.4300 C   0  0  0  0  0
   20.7880    3.1870  -22.7720 N   0  0  0  0  0
   22.9270    9.5060  -22.9620 N   0  0  0  0  0
   23.6220   10.6560  -22.3960 C   0  0  0  0  0
   24.0180   10.3560  -20.9310 C   0  0  0  0  0
   23.2310    9.7840  -20.1730 O   0  0  0  0  0
   22.7410   11.9050  -22.4730 C   0  0  0  0  0
   22.0730   12.0890  -23.8100 C   0  0  0  0  0
   22.6430   12.9040  -24.7850 C   0  0  0  0  0
   20.8820   11.4420  -24.0910 C   0  0  0  0  0
   22.0370   13.0670  -26.0190 C   0  0  0  0  0
   20.2660   11.5880  -25.3320 C   0  0  0  0  0
   20.8500   12.4030  -26.2930 C   0  0  0  0  0
   25.2330   10.7430  -20.5400 N   0  0  0  0  0
   25.7640   10.3730  -19.2340 C   0  0  0  0  0
   24.9270   10.9300  -18.0880 C   0  0  0  0  0
   24.7710   12.1390  -17.9390 O   0  0  0  0  0
   27.2200   10.8440  -19.0910 C   0  0  0  0  0
   24.3720   10.0360  -17.2870 N   0  0  0  0  0
   23.6770   10.4490  -16.0790 C   0  0  0  0  0
   22.1660   10.6030  -16.2030 C   0  0  0  0  0
   21.5050   11.1050  -15.2940 O   0  0  0  0  0
   20.7580   10.0650  -18.5080 C   0  0  0  0  0
   19.8120   11.2220  -18.6800 C   0  0  0  0  0
   20.2080   12.6150  -18.2350 C   0  0  0  0  0
   21.3790   13.2450  -18.6540 C   0  0  0  0  0
   21.6400   14.5320  -18.2040 C   0  0  0  0  0
   20.7520   15.1870  -17.3550 C   0  0  0  0  0
   20.9860   16.5930  -16.8770 C   0  0  0  0  0
   19.5850   14.5540  -16.9470 C   0  0  0  0  0
   19.3270   13.2760  -17.3950 C   0  0  0  0  0
   20.0590    8.7210  -18.5390 C   0  0  0  0  0
   21.5850   10.1800  -17.3010 N   0  0  0  0  0
   20.5530   16.8830  -15.7270 O   0  0  0  0  0
   21.5090   17.4460  -17.6340 O   0  0  0  0  0
   20.6100    7.6700  -18.7560 O   0  0  0  0  0
   18.7270    8.7230  -18.6080 N   0  0  0  0  0
   18.0630    7.4510  -18.9110 C   0  0  0  0  0
   17.5700    7.3150  -20.3570 C   0  0  0  0  0
   16.9430    6.3020  -20.6980 O   0  0  0  0  0
   16.8930    7.2410  -17.9580 C   0  0  0  0  0
   17.3510    7.0750  -16.5170 C   0  0  0  0  0
   18.3420    6.3490  -16.3140 O   0  0  0  0  0
   16.7470    7.6740  -15.6040 O   0  0  0  0  0
   17.8440    8.3120  -21.1970 N   0  0  0  0  0
   17.4940    8.2180  -22.6200 C   0  0  0  0  0
   18.0630    6.9470  -23.2390 C   0  0  0  0  0
   19.2350    6.6450  -23.0540 O   0  0  0  0  0
   18.0200    9.4180  -23.4130 C   0  0  0  0  0
   17.6820   10.7480  -22.7700 C   0  0  0  0  0
   17.9110   10.9490  -21.5920 O   0  0  0  0  0
   17.1320   11.6700  -23.5620 N   0  0  0  0  0
   17.2340    6.2030  -23.9560 N   0  0  0  0  0
   17.7220    5.1050  -24.7780 C   0  0  0  0  0
   17.0970    5.1910  -26.1490 C   0  0  0  0  0
   15.9190    5.5220  -26.2710 O   0  0  0  0  0
   17.4190    3.7510  -24.1270 C   0  0  0  0  0
   18.4650    3.3460  -23.0910 C   0  0  0  0  0
   19.8550    3.3300  -23.6830 C   0  0  0  0  0
   20.0170    2.7610  -24.7790 O   0  0  0  0  0
   20.2330    8.2020  -26.0180 O   0  0  0  0  0
   18.1000    5.7230  -26.8280 N   0  0  0  0  0
   17.4000    6.4550  -27.9260 C   0  0  0  0  0
   17.0050    5.4470  -29.1810 C   0  0  0  0  0
   16.0060    5.6830  -29.8740 O   0  0  0  0  0
   17.7480    4.3670  -29.3660 N   0  0  0  0  0
   18.1490    7.8470  -28.2520 C   0  0  0  0  0
   19.8160    7.9140  -29.0140 S   0  0  0  0  0
   21.0960    7.0750  -27.9790 C   0  0  0  0  0
   21.1910    7.8190  -26.6350 C   0  0  0  0  0
   23.1459    7.2545  -26.5161 H   0  0  0  0  0
   21.4054    7.8584  -24.1833 H   0  0  0  0  0
   22.9597    6.6547  -22.8163 H   0  0  0  0  0
   24.1528    6.5731  -24.2023 H   0  0  0  0  0
   22.8598    5.0014  -25.3214 H   0  0  0  0  0
   21.4505    5.2714  -24.2471 H   0  0  0  0  0
   23.0564    4.4916  -22.3484 H   0  0  0  0  0
   24.0347    3.8072  -23.6859 H   0  0  0  0  0
   22.5804    2.0688  -22.9046 H   0  0  0  0  0
   21.9234    2.6504  -24.4761 H   0  0  0  0  0
   20.6401    3.2618  -21.7656 H   0  0  0  0  0
   22.2053    9.0520  -22.4022 H   0  0  0  0  0
   24.5267   10.8452  -22.9737 H   0  0  0  0  0
   23.3838   12.7695  -22.3067 H   0  0  0  0  0
   21.9543   11.7969  -21.7264 H   0  0  0  0  0
   23.5792   13.4207  -24.5735 H   0  0  0  0  0
   20.4204   10.8105  -23.3319 H   0  0  0  0  0
   22.4898   13.7132  -26.7710 H   0  0  0  0  0
   19.3332   11.0668  -25.5470 H   0  0  0  0  0
   20.3739   12.5215  -27.2664 H   0  0  0  0  0
   25.8026   11.3099  -21.1682 H   0  0  0  0  0
   25.7241    9.2854  -19.1738 H   0  0  0  0  0
   27.8289   10.3785  -19.8660 H   0  0  0  0  0
   27.2619   11.9281  -19.1965 H   0  0  0  0  0
   27.5982   10.5583  -18.1095 H   0  0  0  0  0
   24.4324    9.0447  -17.5197 H   0  0  0  0  0
   24.0667   11.4338  -15.8211 H   0  0  0  0  0
   23.8470    9.6638  -15.3424 H   0  0  0  0  0
   21.4201   10.1147  -19.3724 H   0  0  0  0  0
   18.9627   10.9697  -18.0451 H   0  0  0  0  0
   19.6910   11.3104  -19.7597 H   0  0  0  0  0
   22.0754   12.7373  -19.3214 H   0  0  0  0  0
   22.5530   15.0369  -18.5198 H   0  0  0  0  0
   18.8841   15.0598  -16.2829 H   0  0  0  0  0
   18.4108   12.7754  -17.0817 H   0  0  0  0  0
   22.0368    9.2671  -17.3545 H   0  0  0  0  0
   20.1938   16.0947  -15.3134 H   0  0  0  0  0
   18.1904    9.5770  -18.4558 H   0  0  0  0  0
   18.8255    6.6834  -18.7785 H   0  0  0  0  0
   16.3712    6.3315  -18.2557 H   0  0  0  0  0
   16.2496    8.1192  -18.0111 H   0  0  0  0  0
   16.0181    8.1740  -15.9785 H   0  0  0  0  0
   18.3034    9.1526  -20.8467 H   0  0  0  0  0
   16.4053    8.2026  -22.6714 H   0  0  0  0  0
   17.5513    9.3966  -24.3969 H   0  0  0  0  0
   19.1061    9.3368  -23.4560 H   0  0  0  0  0
   16.8865   12.5854  -23.1849 H   0  0  0  0  0
   16.9570   11.4595  -24.5446 H   0  0  0  0  0
   16.2342    6.4034  -23.9317 H   0  0  0  0  0
   18.8049    5.1876  -24.8706 H   0  0  0  0  0
   17.4171    2.9955  -24.9127 H   0  0  0  0  0
   16.4587    3.8326  -23.6178 H   0  0  0  0  0
   18.2293    2.3424  -22.7371 H   0  0  0  0  0
   18.4446    4.0721  -22.2783 H   0  0  0  0  0
   19.1012    5.6513  -26.6470 H   0  0  0  0  0
   16.4129    6.7901  -27.6074 H   0  0  0  0  0
   17.5038    3.6991  -30.0972 H   0  0  0  0  0
   18.5646    4.2028  -28.7773 H   0  0  0  0  0
   18.3042    8.2867  -27.2668 H   0  0  0  0  0
   17.5090    8.3076  -29.0046 H   0  0  0  0  0
   22.0602    7.0942  -28.4869 H   0  0  0  0  0
   20.8196    6.0339  -27.8123 H   0  0  0  0  0
  2  1  1  0  0  0
  1 77  1  0  0  0
  3  2  1  0  0  0
  2  5  1  0  0  0
  3  4  2  0  0  0
 10  3  1  0  0  0
  5  6  1  0  0  0
  6  7  1  0  0  0
  7  8  1  0  0  0
  8  9  1  0  0  0
  9 66  1  0  0  0
 11 10  1  0  0  0
 12 11  1  0  0  0
 11 14  1  0  0  0
 12 13  2  0  0  0
 21 12  1  0  0  0
 14 15  1  0  0  0
 15 16  4  0  0  0
 15 17  4  0  0  0
 16 18  4  0  0  0
 17 19  4  0  0  0
 18 20  4  0  0  0
 19 20  4  0  0  0
 22 21  1  0  0  0
 23 22  1  0  0  0
 22 25  1  0  0  0
 23 24  2  0  0  0
 26 23  1  0  0  0
 27 26  1  0  0  0
 28 27  1  0  0  0
 28 29  2  0  0  0
 40 28  1  0  0  0
 30 31  1  0  0  0
 30 39  1  0  0  0
 30 40  1  0  0  0
 31 32  1  0  0  0
 32 33  4  0  0  0
 32 38  4  0  0  0
 33 34  4  0  0  0
 34 35  4  0  0  0
 35 36  1  0  0  0
 35 37  4  0  0  0
 36 41  1  0  0  0
 36 42  2  0  0  0
 37 38  4  0  0  0
 39 43  2  0  0  0
 39 44  1  0  0  0
 44 45  1  0  0  0
 45 46  1  0  0  0
 45 48  1  0  0  0
 46 47  2  0  0  0
 46 52  1  0  0  0
 48 49  1  0  0  0
 49 50  2  0  0  0
 49 51  1  0  0  0
 52 53  1  0  0  0
 53 54  1  0  0  0
 53 56  1  0  0  0
 54 55  2  0  0  0
 54 60  1  0  0  0
 56 57  1  0  0  0
 57 58  2  0  0  0
 57 59  1  0  0  0
 60 61  1  0  0  0
 61 62  1  0  0  0
 61 64  1  0  0  0
 62 63  2  0  0  0
 62 69  1  0  0  0
 64 65  1  0  0  0
 65 66  1  0  0  0
 66 67  2  0  0  0
 77 68  2  0  0  0
 69 70  1  0  0  0
 70 71  1  0  0  0
 70 74  1  0  0  0
 71 72  2  0  0  0
 71 73  1  0  0  0
 74 75  1  0  0  0
 75 76  1  0  0  0
 76 77  1  0  0  0
  1 78  1  0  0  0
  2 79  1  0  0  0
  5 80  1  0  0  0
  5 81  1  0  0  0
  6 82  1  0  0  0
  6 83  1  0  0  0
  7 84  1  0  0  0
  7 85  1  0  0  0
  8 86  1  0  0  0
  8 87  1  0  0  0
  9 88  1  0  0  0
 10 89  1  0  0  0
 11 90  1  0  0  0
 14 91  1  0  0  0
 14 92  1  0  0  0
 16 93  1  0  0  0
 17 94  1  0  0  0
 18 95  1  0  0  0
 19 96  1  0  0  0
 20 97  1  0  0  0
 21 98  1  0  0  0
 22 99  1  0  0  0
 25100  1  0  0  0
 25101  1  0  0  0
 25102  1  0  0  0
 26103  1  0  0  0
 27104  1  0  0  0
 27105  1  0  0  0
 30106  1  0  0  0
 31107  1  0  0  0
 31108  1  0  0  0
 33109  1  0  0  0
 34110  1  0  0  0
 37111  1  0  0  0
 38112  1  0  0  0
 40113  1  0  0  0
 41114  1  0  0  0
 44115  1  0  0  0
 45116  1  0  0  0
 48117  1  0  0  0
 48118  1  0  0  0
 51119  1  0  0  0
 52120  1  0  0  0
 53121  1  0  0  0
 56122  1  0  0  0
 56123  1  0  0  0
 59124  1  0  0  0
 59125  1  0  0  0
 60126  1  0  0  0
 61127  1  0  0  0
 64128  1  0  0  0
 64129  1  0  0  0
 65130  1  0  0  0
 65131  1  0  0  0
 69132  1  0  0  0
 70133  1  0  0  0
 73134  1  0  0  0
 73135  1  0  0  0
 74136  1  0  0  0
 74137  1  0  0  0
 76138  1  0  0  0
 76139  1  0  0  0
M  END
$$$$
