6i41_ligand
  -I-interpret- 

 93 93  0  0  0  0  0  0  0  0999 V2000
  -21.7350   10.0470    2.5920 N   0  3  0  0  0
  -21.7460    8.9070    3.5020 C   0  0  0  0  0
  -21.6410    7.6030    2.7200 C   0  0  0  0  0
  -22.2400    7.4620    1.6550 O   0  0  0  0  0
  -23.0140    8.9120    4.3640 C   0  0  0  0  0
  -20.8660    6.6580    3.2430 N   0  0  0  0  0
  -20.7430    5.3570    2.6120 C   0  0  0  0  0
  -21.9160    4.4670    2.9960 C   0  0  0  0  0
  -22.5240    4.6280    4.0580 O   0  0  0  0  0
  -19.4360    4.6810    3.0210 C   0  0  0  0  0
  -22.2290    3.5180    2.1200 N   0  0  0  0  0
  -23.2480    2.5150    2.3910 C   0  0  0  0  0
  -22.6410    1.1200    2.2830 C   0  0  0  0  0
  -21.5910    0.9210    1.6650 O   0  0  0  0  0
  -24.4350    2.6460    1.4350 C   0  0  0  0  0
  -24.0420    2.4370   -0.0090 C   0  0  0  0  0
  -23.4270    3.3500   -0.6120 O   0  0  0  0  0
  -24.3160    1.3400   -0.5290 O   0  0  0  0  0
  -23.3250    0.1560    2.8940 N   0  0  0  0  0
  -22.9160   -1.2400    2.9070 C   0  0  0  0  0
  -24.0400   -2.0950    2.3420 C   0  0  0  0  0
  -25.2210   -1.7640    2.4810 O   0  0  0  0  0
  -22.5700   -1.7070    4.3280 C   0  0  0  0  0
  -22.1100   -3.0620    4.2930 O   0  0  0  0  0
  -23.8040   -1.6260    5.2490 C   0  0  0  0  0
  -23.6690   -3.2020    1.7010 N   0  0  0  0  0
  -24.6490   -4.1020    1.1050 C   0  0  0  0  0
  -24.8680   -5.3740    1.9140 C   0  0  0  0  0
  -25.5920   -6.2600    1.4570 O   0  0  0  0  0
  -24.2390   -4.4720   -0.3260 C   0  0  0  0  0
  -23.1180   -5.3670   -0.2900 O   0  0  0  0  0
  -23.8590   -3.2290   -1.1090 C   0  0  0  0  0
  -24.2640   -5.4910    3.0960 N   0  0  0  0  0
  -24.3440   -6.7000    3.9000 C   0  0  0  0  0
  -24.8010   -6.3610    5.3150 C   0  0  0  0  0
  -24.3120   -5.3940    5.9100 O   0  0  0  0  0
  -22.9820   -7.4130    3.9460 C   0  0  0  0  0
  -21.9520   -6.4690    4.2690 O   0  0  0  0  0
  -22.6650   -8.0420    2.6010 C   0  0  0  0  0
  -25.7420   -7.1360    5.8800 N   0  0  0  0  0
  -26.2460   -6.8710    7.2340 C   0  0  0  0  0
  -25.2180   -7.1760    8.3210 C   0  0  0  0  0
  -25.1540   -6.4420    9.3090 O   0  0  0  0  0
  -27.4530   -7.8080    7.3470 C   0  0  0  0  0
  -27.1360   -8.9280    6.4230 C   0  0  0  0  0
  -26.4020   -8.3020    5.2660 C   0  0  0  0  0
  -24.4740   -8.1500    8.1870 O   0  0  0  0  0
  -20.8843   10.0235    2.0297 H   0  0  0  0  0
  -22.5498   10.0000    1.9802 H   0  0  0  0  0
  -21.7632   10.9119    3.1320 H   0  0  0  0  0
  -20.8830    8.9884    4.1628 H   0  0  0  0  0
  -23.8888    8.8109    3.7217 H   0  0  0  0  0
  -22.9783    8.0784    5.0654 H   0  0  0  0  0
  -23.0731    9.8503    4.9156 H   0  0  0  0  0
  -20.3497    6.8504    4.1014 H   0  0  0  0  0
  -20.7432    5.5051    1.5321 H   0  0  0  0  0
  -19.4334    4.5203    4.0991 H   0  0  0  0  0
  -19.3485    3.7226    2.5093 H   0  0  0  0  0
  -18.5965    5.3194    2.7455 H   0  0  0  0  0
  -21.7379    3.4917    1.2264 H   0  0  0  0  0
  -23.6180    2.6755    3.4036 H   0  0  0  0  0
  -24.8345    3.6555    1.5317 H   0  0  0  0  0
  -25.1648    1.8806    1.6987 H   0  0  0  0  0
  -23.3233    4.1045   -0.0276 H   0  0  0  0  0
  -24.1846    0.4102    3.3807 H   0  0  0  0  0
  -22.0213   -1.3451    2.2933 H   0  0  0  0  0
  -21.7899   -1.0536    4.7187 H   0  0  0  0  0
  -21.8951   -3.3489    5.1836 H   0  0  0  0  0
  -24.1552   -0.5951    5.2939 H   0  0  0  0  0
  -24.5942   -2.2635    4.8525 H   0  0  0  0  0
  -23.5318   -1.9623    6.2494 H   0  0  0  0  0
  -22.6766   -3.4252    1.6254 H   0  0  0  0  0
  -25.5932   -3.5574    1.0968 H   0  0  0  0  0
  -25.0848   -4.9552   -0.8151 H   0  0  0  0  0
  -22.8642   -5.5964   -1.1870 H   0  0  0  0  0
  -24.7118   -2.5513   -1.1487 H   0  0  0  0  0
  -23.0219   -2.7333   -0.6174 H   0  0  0  0  0
  -23.5713   -3.5127   -2.1214 H   0  0  0  0  0
  -23.7243   -4.7015    3.4507 H   0  0  0  0  0
  -25.0712   -7.3696    3.4407 H   0  0  0  0  0
  -23.0277   -8.1924    4.7066 H   0  0  0  0  0
  -21.1044   -6.9188    4.2964 H   0  0  0  0  0
  -23.4375   -8.7690    2.3502 H   0  0  0  0  0
  -22.6331   -7.2655    1.8367 H   0  0  0  0  0
  -21.6976   -8.5415    2.6539 H   0  0  0  0  0
  -26.4887   -5.8182    7.3785 H   0  0  0  0  0
  -28.3857   -7.3095    7.0829 H   0  0  0  0  0
  -27.6115   -8.1516    8.3692 H   0  0  0  0  0
  -28.0396   -9.4399    6.0920 H   0  0  0  0  0
  -26.5310   -9.6905    6.9135 H   0  0  0  0  0
  -25.6961   -8.9862    4.7952 H   0  0  0  0  0
  -27.0649   -8.0272    4.4456 H   0  0  0  0  0
  -24.6750   -8.5934    7.3596 H   0  0  0  0  0
  1  2  1  0  0  0
  2  3  1  0  0  0
  2  5  1  0  0  0
  3  4  2  0  0  0
  3  6  1  0  0  0
  6  7  1  0  0  0
  7  8  1  0  0  0
  7 10  1  0  0  0
  8  9  2  0  0  0
  8 11  1  0  0  0
 11 12  1  0  0  0
 12 13  1  0  0  0
 12 15  1  0  0  0
 13 14  2  0  0  0
 13 19  1  0  0  0
 15 16  1  0  0  0
 16 17  1  0  0  0
 16 18  2  0  0  0
 19 20  1  0  0  0
 20 21  1  0  0  0
 20 23  1  0  0  0
 21 22  2  0  0  0
 21 26  1  0  0  0
 23 24  1  0  0  0
 23 25  1  0  0  0
 26 27  1  0  0  0
 27 28  1  0  0  0
 27 30  1  0  0  0
 28 29  2  0  0  0
 28 33  1  0  0  0
 30 31  1  0  0  0
 30 32  1  0  0  0
 33 34  1  0  0  0
 34 35  1  0  0  0
 34 37  1  0  0  0
 35 36  2  0  0  0
 35 40  1  0  0  0
 37 38  1  0  0  0
 37 39  1  0  0  0
 40 41  1  0  0  0
 40 46  1  0  0  0
 41 42  1  0  0  0
 41 44  1  0  0  0
 42 43  2  0  0  0
 42 47  1  0  0  0
 44 45  1  0  0  0
 45 46  1  0  0  0
  1 48  1  0  0  0
  1 49  1  0  0  0
  1 50  1  0  0  0
  2 51  1  0  0  0
  5 52  1  0  0  0
  5 53  1  0  0  0
  5 54  1  0  0  0
  6 55  1  0  0  0
  7 56  1  0  0  0
 10 57  1  0  0  0
 10 58  1  0  0  0
 10 59  1  0  0  0
 11 60  1  0  0  0
 12 61  1  0  0  0
 15 62  1  0  0  0
 15 63  1  0  0  0
 17 64  1  0  0  0
 19 65  1  0  0  0
 20 66  1  0  0  0
 23 67  1  0  0  0
 24 68  1  0  0  0
 25 69  1  0  0  0
 25 70  1  0  0  0
 25 71  1  0  0  0
 26 72  1  0  0  0
 27 73  1  0  0  0
 30 74  1  0  0  0
 31 75  1  0  0  0
 32 76  1  0  0  0
 32 77  1  0  0  0
 32 78  1  0  0  0
 33 79  1  0  0  0
 34 80  1  0  0  0
 37 81  1  0  0  0
 38 82  1  0  0  0
 39 83  1  0  0  0
 39 84  1  0  0  0
 39 85  1  0  0  0
 41 86  1  0  0  0
 44 87  1  0  0  0
 44 88  1  0  0  0
 45 89  1  0  0  0
 45 90  1  0  0  0
 46 91  1  0  0  0
 46 92  1  0  0  0
 47 93  1  0  0  0
M  END
$$$$
