4hva_ligand
  -I-interpret- 

 52 54  0  0  0  0  0  0  0  0999 V2000
   -2.2110  -30.3000   21.8190 C   0  0  0  0  0
   -3.0180  -31.4920   21.8500 O   0  0  0  0  0
   -3.7810  -31.7900   20.7550 C   0  0  0  0  0
   -3.5440  -31.2260   19.4790 C   0  0  0  0  0
   -4.3680  -31.5620   18.3940 C   0  0  0  0  0
   -5.3960  -32.5000   18.5740 C   0  0  0  0  0
   -5.6240  -33.0420   19.8500 C   0  0  0  0  0
   -4.8130  -32.7170   20.9250 C   0  0  0  0  0
   -5.0390  -33.2960   22.1370 O   0  0  0  0  0
   -6.0460  -34.3160   22.1540 C   0  0  0  0  0
   -6.3670  -32.8730   17.5400 C   0  0  0  0  0
   -6.5430  -32.3520   16.2880 C   0  0  0  0  0
   -7.7390  -33.0110   15.7340 C   0  0  0  0  0
   -8.1960  -33.8280   16.7220 C   0  0  0  0  0
   -7.3640  -33.7350   17.7740 O   0  0  0  0  0
   -8.3710  -32.8260   14.4020 C   0  0  0  0  0
   -7.8580  -32.0270   13.6250 O   0  0  0  0  0
   -9.4820  -33.5690   14.0860 N   0  0  0  0  0
  -10.2250  -33.4390   12.8240 C   0  0  0  0  0
  -11.6730  -33.1580   13.2180 C   0  0  0  0  0
  -11.8450  -31.7950   13.8380 C   0  0  0  0  0
  -12.1940  -31.7210   15.1820 C   0  0  0  0  0
  -12.3910  -30.5000   15.7860 C   0  0  0  0  0
  -12.2700  -29.3270   15.0680 C   0  0  0  0  0
  -11.9430  -29.3740   13.7150 C   0  0  0  0  0
  -11.7280  -30.6280   13.1090 C   0  0  0  0  0
  -11.8160  -28.1360   12.9830 C   0  0  0  0  0
  -11.7360  -27.1440   12.4110 N   0  0  0  0  0
  -10.2400  -34.6930   11.9010 C   0  0  0  0  0
   -8.9250  -35.2310   11.9210 O   0  0  0  0  0
   -1.5024  -30.3639   20.9932 H   0  0  0  0  0
   -2.8542  -29.4308   21.6812 H   0  0  0  0  0
   -1.6676  -30.2061   22.7592 H   0  0  0  0  0
   -2.7185  -30.5282   19.3384 H   0  0  0  0  0
   -4.2109  -31.0985   17.4200 H   0  0  0  0  0
   -6.4552  -33.7316   19.9969 H   0  0  0  0  0
   -6.9970  -33.8913   21.8327 H   0  0  0  0  0
   -5.7584  -35.1201   21.4766 H   0  0  0  0  0
   -6.1457  -34.7096   23.1656 H   0  0  0  0  0
   -5.9234  -31.6006   15.7984 H   0  0  0  0  0
   -9.0874  -34.4531   16.6692 H   0  0  0  0  0
   -9.8115  -34.2522   14.7680 H   0  0  0  0  0
   -9.7273  -32.6587   12.2482 H   0  0  0  0  0
  -11.9733  -33.9038   13.9540 H   0  0  0  0  0
  -12.2821  -33.1972   12.3149 H   0  0  0  0  0
  -12.3124  -32.6366   15.7614 H   0  0  0  0  0
  -12.6459  -30.4586   16.8450 H   0  0  0  0  0
  -12.4299  -28.3669   15.5586 H   0  0  0  0  0
  -11.4662  -30.6774   12.0521 H   0  0  0  0  0
  -10.5343  -34.4247   10.8864 H   0  0  0  0  0
  -10.9649  -35.4264   12.2542 H   0  0  0  0  0
   -8.8907  -36.0102   11.3612 H   0  0  0  0  0
  1  2  1  0  0  0
  2  3  1  0  0  0
  3  4  4  0  0  0
  3  8  4  0  0  0
  4  5  4  0  0  0
  5  6  4  0  0  0
  6  7  4  0  0  0
  6 11  1  0  0  0
  7  8  4  0  0  0
  8  9  1  0  0  0
  9 10  1  0  0  0
 11 12  4  0  0  0
 11 15  4  0  0  0
 12 13  4  0  0  0
 13 14  4  0  0  0
 13 16  1  0  0  0
 14 15  4  0  0  0
 16 17  2  0  0  0
 16 18  1  0  0  0
 18 19  1  0  0  0
 19 20  1  0  0  0
 19 29  1  0  0  0
 20 21  1  0  0  0
 21 22  4  0  0  0
 21 26  4  0  0  0
 22 23  4  0  0  0
 23 24  4  0  0  0
 24 25  4  0  0  0
 25 26  4  0  0  0
 25 27  1  0  0  0
 27 28  3  0  0  0
 29 30  1  0  0  0
  1 31  1  0  0  0
  1 32  1  0  0  0
  1 33  1  0  0  0
  4 34  1  0  0  0
  5 35  1  0  0  0
  7 36  1  0  0  0
 10 37  1  0  0  0
 10 38  1  0  0  0
 10 39  1  0  0  0
 12 40  1  0  0  0
 14 41  1  0  0  0
 18 42  1  0  0  0
 19 43  1  0  0  0
 20 44  1  0  0  0
 20 45  1  0  0  0
 22 46  1  0  0  0
 23 47  1  0  0  0
 24 48  1  0  0  0
 26 49  1  0  0  0
 29 50  1  0  0  0
 29 51  1  0  0  0
 30 52  1  0  0  0
M  END
$$$$
