### 
### Created by X-TOOL on Mon Sep 10 21:13:25 2018
### 

@<TRIPOS>MOLECULE
4odl_ligand
  267   273     1     0     0
SMALL
GAST_HUCK


@<TRIPOS>ATOM
      1 N          45.7930  -55.9250   61.4140 N.4       1 THR         0.2398
      2 CA         45.3610  -55.5360   60.0810 C.3       1 THR         0.0910
      3 C          46.1860  -54.3660   59.5580 C.2       1 THR         0.2293
      4 O          45.8960  -53.2080   59.8770 O.2       1 THR        -0.3906
      5 CB         43.8670  -55.1510   60.0770 C.3       1 THR         0.1120
      6 OG1        43.6810  -53.9400   60.8190 O.3       1 THR        -0.3840
      7 CG2        43.0390  -56.2550   60.7120 C.3       1 THR        -0.0314
      8 N          47.2150  -54.6580   58.7620 N.am      1 ARG        -0.2609
      9 CA         47.5830  -56.0210   58.3740 C.3       1 ARG         0.1312
     10 C          49.0360  -56.3110   58.7470 C.2       1 ARG         0.2040
     11 O          49.8160  -55.3890   58.9850 O.2       1 ARG        -0.3944
     12 CB         47.3840  -56.2300   56.8720 C.3       1 ARG        -0.0092
     13 CG         45.9410  -56.0660   56.4110 C.3       1 ARG        -0.0156
     14 CD         45.8000  -56.2830   54.9150 C.3       1 ARG         0.0627
     15 NE         44.4140  -56.1790   54.4650 N.pl3     1 ARG        -0.2723
     16 CZ         44.0380  -56.3130   53.1970 C.cat     1 ARG         0.2882
     17 NH1        44.9470  -56.5540   52.2620 N.pl3     1 ARG        -0.2849
     18 NH2        42.7590  -56.2060   52.8600 N.pl3     1 ARG        -0.2849
     19 N          49.4040  -57.5880   58.7970 N.am      1 TYR        -0.2621
     20 CA         50.7590  -57.9400   59.1940 C.3       1 TYR         0.1390
     21 C          51.6610  -58.2970   58.0250 C.2       1 TYR         0.2058
     22 O          51.2940  -58.1170   56.8570 O.2       1 TYR        -0.3942
     23 CB         50.7910  -58.9920   60.3140 C.3       1 TYR         0.0163
     24 CG         49.8680  -60.1840   60.1410 C.ar      1 TYR        -0.0493
     25 CD1        50.3130  -61.3490   59.5300 C.ar      1 TYR        -0.0685
     26 CD2        48.5610  -60.1600   60.6230 C.ar      1 TYR        -0.0685
     27 CE1        49.4720  -62.4500   59.3800 C.ar      1 TYR        -0.0398
     28 CE2        47.7150  -61.2600   60.4750 C.ar      1 TYR        -0.0398
     29 CZ         48.1750  -62.4000   59.8540 C.ar      1 TYR         0.0805
     30 OH         47.3300  -63.4860   59.7120 O.3       1 TYR        -0.3376
     31 N          52.8380  -58.8140   58.3420 N.am      1 TRP        -0.2625
     32 CA         53.9510  -58.7160   57.4100 C.3       1 TRP         0.1352
     33 C          54.3440  -60.0380   56.6990 C.2       1 TRP         0.2053
     34 O          54.6050  -60.0220   55.4910 O.2       1 TRP        -0.3942
     35 CB         55.1100  -58.0180   58.1360 C.3       1 TRP         0.0042
     36 CG         56.4610  -58.2900   57.6220 C.2       1 TRP        -0.0418
     37 CD1        57.2940  -59.2860   58.0250 C.2       1 TRP         0.0167
     38 CD2        57.1810  -57.5320   56.6410 C.ar      1 TRP        -0.0214
     39 NE1        58.4830  -59.2110   57.3440 N.pl3     1 TRP        -0.2890
     40 CE2        58.4400  -58.1440   56.4870 C.ar      1 TRP         0.0603
     41 CE3        56.8790  -56.4050   55.8690 C.ar      1 TRP        -0.0747
     42 CZ2        59.3970  -57.6700   55.5960 C.ar      1 TRP        -0.0443
     43 CZ3        57.8330  -55.9360   54.9840 C.ar      1 TRP        -0.0792
     44 CH2        59.0760  -56.5690   54.8550 C.ar      1 TRP        -0.0768
     45 N          54.3690  -61.1500   57.4390 N.am      1 ASN        -0.2615
     46 CA         54.5230  -62.4940   56.8860 C.3       1 ASN         0.1478
     47 C          55.7760  -62.7910   56.0730 C.2       1 ASN         0.2088
     48 O          55.7630  -62.7120   54.8460 O.2       1 ASN        -0.3940
     49 CB         53.2970  -62.9010   56.0670 C.3       1 ASN         0.0773
     50 CG         52.0210  -62.9150   56.8720 C.2       1 ASN         0.1780
     51 OD1        51.9780  -63.4050   57.9980 O.2       1 ASN        -0.3970
     52 ND2        50.9610  -62.3600   56.2880 N.am      1 ASN        -0.3007
     53 N          56.8610  -63.1590   56.7600 N.am      1 PRO        -0.2497
     54 CA         58.0770  -63.5870   56.0680 C.3       1 PRO         0.1338
     55 C          57.8840  -64.9010   55.3030 C.2       1 PRO         0.2041
     56 O          58.7780  -65.2830   54.5500 O.2       1 PRO        -0.3944
     57 CB         59.0780  -63.7830   57.2110 C.3       1 PRO        -0.0104
     58 CG         58.5410  -62.9600   58.3390 C.3       1 PRO        -0.0281
     59 CD         57.0590  -63.0530   58.2150 C.3       1 PRO         0.0369
     60 N          56.7400  -65.5670   55.4710 N.am      1 LYS        -0.2637
     61 CA         56.4760  -66.8330   54.7800 C.3       1 LYS         0.1310
     62 C          56.1930  -66.6460   53.2890 C.2       1 LYS         0.2039
     63 O          55.6690  -67.5420   52.6280 O.2       1 LYS        -0.3944
     64 CB         55.3340  -67.6000   55.4550 C.3       1 LYS        -0.0122
     65 CG         55.6980  -68.1690   56.8180 C.3       1 LYS        -0.0440
     66 CD         54.5250  -68.8950   57.4530 C.3       1 LYS        -0.0124
     67 CE         54.9270  -69.5200   58.7800 C.3       1 LYS        -0.0354
     68 NZ         53.7660  -70.1660   59.4480 N.4       1 LYS         0.2185
     69 N          56.5400  -65.4730   52.7750 N.am      1 MET        -0.2637
     70 CA         56.5340  -65.2030   51.3480 C.3       1 MET         0.1317
     71 C          57.9430  -64.7380   51.0180 C.2       1 MET         0.2039
     72 O          58.9210  -65.4310   51.3000 O.2       1 MET        -0.3944
     73 CB         55.5410  -64.0870   51.0270 C.3       1 MET        -0.0034
     74 CG         54.1480  -64.2880   51.6110 C.3       1 MET        -0.0024
     75 SD         53.2700  -65.6980   50.9100 S.3       1 MET        -0.1639
     76 CE         51.6270  -65.4480   51.5810 C.3       1 MET        -0.0181
     77 N          58.0380  -63.5570   50.4210 N.am      1 LYS        -0.2637
     78 CA         59.2910  -62.8190   50.3700 C.3       1 LYS         0.1312
     79 C          58.9490  -61.3390   50.2740 C.2       1 LYS         0.2064
     80 O          59.0600  -60.7350   49.2060 O.2       1 LYS        -0.3942
     81 CB         60.1680  -63.2620   49.1960 C.3       1 LYS        -0.0122
     82 CG         61.5670  -62.6440   49.2000 C.3       1 LYS        -0.0440
     83 CD         62.6530  -63.7020   49.3390 C.3       1 LYS        -0.0124
     84 CE         64.0420  -63.0750   49.3640 C.3       1 LYS        -0.0354
     85 NZ         64.3570  -62.3440   48.1020 N.4       1 LYS         0.2185
     86 N          58.5100  -60.7530   51.3980 N.am      1 PRO        -0.2498
     87 CA         58.0440  -59.3640   51.4350 C.3       1 PRO         0.1338
     88 C          59.1590  -58.3820   51.1140 C.2       1 PRO         0.2042
     89 O          60.2800  -58.5300   51.6050 O.2       1 PRO        -0.3944
     90 CB         57.6010  -59.1780   52.8920 C.3       1 PRO        -0.0104
     91 CG         57.4340  -60.5490   53.4310 C.3       1 PRO        -0.0281
     92 CD         58.4460  -61.3830   52.7260 C.3       1 PRO         0.0369
     93 N          58.8470  -57.3890   50.2900 N.am      1 PHE        -0.2619
     94 CA         59.8000  -56.3340   49.9830 C.3       1 PHE         0.1404
     95 C          59.1420  -54.9720   50.1480 C.2       1 PHE         0.2060
     96 O          57.9350  -54.8800   50.3680 O.2       1 PHE        -0.3942
     97 CB         60.3610  -56.4970   48.5690 C.3       1 PHE         0.0214
     98 CG         59.3500  -56.2770   47.4850 C.ar      1 PHE        -0.0386
     99 CD1        59.1880  -55.0250   46.9150 C.ar      1 PHE        -0.0601
    100 CD2        58.5640  -57.3220   47.0320 C.ar      1 PHE        -0.0601
    101 CE1        58.2580  -54.8190   45.9190 C.ar      1 PHE        -0.0686
    102 CE2        57.6330  -57.1220   46.0340 C.ar      1 PHE        -0.0686
    103 CZ         57.4800  -55.8690   45.4780 C.ar      1 PHE        -0.0687
    104 N          59.9410  -53.9180   50.0360 N.am      1 ILE        -0.2633
    105 CA         59.4670  -52.5640   50.2840 C.3       1 ILE         0.1335
    106 C          59.9740  -51.5830   49.2310 C.2       1 ILE         0.2043
    107 O          61.1720  -51.5270   48.9500 O.2       1 ILE        -0.3944
    108 CB         59.9170  -52.0720   51.6770 C.3       1 ILE        -0.0037
    109 CG1        59.3130  -52.9460   52.7790 C.3       1 ILE        -0.0491
    110 CG2        59.5380  -50.6150   51.8840 C.3       1 ILE        -0.0582
    111 CD1        59.7250  -52.5460   54.1760 C.3       1 ILE        -0.0648
    112 N          59.0590  -50.8140   48.6490 N.am      1 PHE        -0.2619
    113 CA         59.4380  -49.7360   47.7430 C.3       1 PHE         0.1404
    114 C          58.8760  -48.4100   48.2340 C.2       1 PHE         0.2058
    115 O          57.9440  -48.3900   49.0350 O.2       1 PHE        -0.3942
    116 CB         58.9910  -50.0280   46.3080 C.3       1 PHE         0.0214
    117 CG         57.5210  -50.3050   46.1680 C.ar      1 PHE        -0.0386
    118 CD1        56.6330  -49.2820   45.8770 C.ar      1 PHE        -0.0601
    119 CD2        57.0290  -51.5930   46.3070 C.ar      1 PHE        -0.0601
    120 CE1        55.2840  -49.5360   45.7390 C.ar      1 PHE        -0.0686
    121 CE2        55.6800  -51.8520   46.1710 C.ar      1 PHE        -0.0686
    122 CZ         54.8070  -50.8240   45.8860 C.ar      1 PHE        -0.0687
    123 N          59.4440  -47.3050   47.7600 N.am      1 GLY        -0.2663
    124 CA         59.0930  -45.9960   48.2830 C.3       1 GLY         0.1201
    125 C          58.5260  -45.0070   47.2830 C.2       1 GLY         0.2007
    126 O          58.9510  -43.8500   47.2390 O.2       1 GLY        -0.3947
    127 N          57.5560  -45.4500   46.4900 N.am      1 ALA        -0.2642
    128 CA         56.9300  -44.5830   45.4950 C.3       1 ALA         0.1278
    129 C          55.8360  -43.7200   46.1220 C.2       1 ALA         0.1989
    130 O          55.1700  -42.9480   45.4310 O.2       1 ALA        -0.3947
    131 CB         56.3670  -45.4090   44.3460 C.3       1 ALA        -0.0244
    132 N          55.6620  -43.8540   47.4340 N.am      1 NH2        -0.2990
    133 H1         46.7701  -56.1716   61.3919 H         1 THR         0.2016
    134 H2         45.2533  -56.7178   61.7241 H         1 THR         0.2016
    135 H3         45.6551  -55.1552   62.0499 H         1 THR         0.2016
    136 H4         45.5040  -56.3942   59.4079 H         1 THR         0.1125
    137 H5         43.5353  -54.9989   59.0393 H         1 THR         0.0674
    138 H6         44.1881  -53.2435   60.4186 H         1 THR         0.2102
    139 H7         41.9771  -55.9683   60.7028 H         1 THR         0.0258
    140 H8         43.3682  -56.4093   61.7502 H         1 THR         0.0258
    141 H9         43.1721  -57.1868   60.1428 H         1 THR         0.0258
    142 H10        47.7673  -53.9025   58.4097 H         1 ARG         0.1884
    143 H11        46.9335  -56.7245   58.9154 H         1 ARG         0.0800
    144 H12        47.7153  -57.2475   56.6171 H         1 ARG         0.0313
    145 H13        48.0043  -55.4971   56.3353 H         1 ARG         0.0313
    146 H14        45.6018  -55.0489   56.6569 H         1 ARG         0.0301
    147 H15        45.3131  -56.7994   56.9381 H         1 ARG         0.0301
    148 H16        46.1777  -57.2858   54.6664 H         1 ARG         0.0689
    149 H17        46.3996  -55.5248   54.3900 H         1 ARG         0.0689
    150 H18        43.6870  -55.9912   55.1701 H         1 ARG         0.2642
    151 H19        44.6591  -56.6584   51.2786 H         1 ARG         0.2615
    152 H20        45.9409  -56.6368   52.5192 H         1 ARG         0.2615
    153 H21        42.0498  -56.0189   53.5831 H         1 ARG         0.2615
    154 H22        42.4754  -56.3101   51.8753 H         1 ARG         0.2615
    155 H23        48.7494  -58.3065   58.5617 H         1 TYR         0.1885
    156 H24        51.1875  -57.0255   59.6299 H         1 TYR         0.0821
    157 H25        50.5179  -58.4899   61.2538 H         1 TYR         0.0453
    158 H26        51.8204  -59.3727   60.3874 H         1 TYR         0.0453
    159 H27        51.3318  -61.4028   59.1636 H         1 TYR         0.0530
    160 H28        48.1944  -59.2704   61.1223 H         1 TYR         0.0530
    161 H29        49.8356  -63.3465   58.8910 H         1 TYR         0.0525
    162 H30        46.6981  -61.2173   60.8480 H         1 TYR         0.0525
    163 H31        47.7904  -64.1880   59.2675 H         1 TYR         0.2458
    164 H32        52.9620  -59.2720   59.2223 H         1 TRP         0.1884
    165 H33        53.6272  -58.0394   56.6054 H         1 TRP         0.0815
    166 H34        55.0831  -58.3326   59.1897 H         1 TRP         0.0397
    167 H35        54.9399  -56.9331   58.0728 H         1 TRP         0.0397
    168 H36        57.0528  -60.0343   58.7785 H         1 TRP         0.0795
    169 H37        59.2795  -59.8538   57.4590 H         1 TRP         0.2216
    170 H38        55.9189  -55.9104   55.9623 H         1 TRP         0.0540
    171 H39        60.3606  -58.1559   55.4938 H         1 TRP         0.0541
    172 H40        57.6149  -55.0630   54.3795 H         1 TRP         0.0510
    173 H41        59.7999  -56.1756   54.1505 H         1 TRP         0.0530
    174 H42        54.2768  -61.0572   58.4304 H         1 ASN         0.1885
    175 H43        54.5665  -63.1634   57.7578 H         1 ASN         0.0826
    176 H44        53.4661  -63.9099   55.6627 H         1 ASN         0.0551
    177 H45        53.1788  -62.1885   55.2373 H         1 ASN         0.0551
    178 H46        50.0828  -62.3351   56.7657 H         1 ASN         0.1814
    179 H47        51.0430  -61.9680   55.3717 H         1 ASN         0.1814
    180 H48        58.4200  -62.8086   55.3706 H         1 PRO         0.0802
    181 H49        60.0768  -63.4295   56.9155 H         1 PRO         0.0313
    182 H50        59.1344  -64.8433   57.4984 H         1 PRO         0.0313
    183 H51        58.8716  -61.9150   58.2463 H         1 PRO         0.0287
    184 H52        58.8739  -63.3655   59.3058 H         1 PRO         0.0287
    185 H53        56.6729  -63.9429   58.7336 H         1 PRO         0.0524
    186 H54        56.5703  -62.1533   58.6172 H         1 PRO         0.0524
    187 H55        56.0444  -65.1928   56.0843 H         1 LYS         0.1883
    188 H56        57.3852  -67.4462   54.8655 H         1 LYS         0.0800
    189 H57        55.0400  -68.4326   54.7989 H         1 LYS         0.0312
    190 H58        54.4830  -66.9146   55.5814 H         1 LYS         0.0312
    191 H59        56.0070  -67.3449   57.4778 H         1 LYS         0.0269
    192 H60        56.5325  -68.8756   56.6984 H         1 LYS         0.0269
    193 H61        54.1802  -69.6869   56.7718 H         1 LYS         0.0317
    194 H62        53.7085  -68.1783   57.6253 H         1 LYS         0.0317
    195 H63        55.3280  -68.7354   59.4385 H         1 LYS         0.0813
    196 H64        55.7030  -70.2782   58.5983 H         1 LYS         0.0813
    197 H65        54.0635  -70.5699   60.3223 H         1 LYS         0.1994
    198 H66        53.3956  -70.8899   58.8523 H         1 LYS         0.1994
    199 H67        53.0520  -69.4762   59.6222 H         1 LYS         0.1994
    200 H68        56.8181  -64.7420   53.3982 H         1 MET         0.1883
    201 H69        56.2766  -66.1095   50.7805 H         1 MET         0.0800
    202 H70        55.4471  -64.0157   49.9333 H         1 MET         0.0320
    203 H71        55.9457  -63.1438   51.4226 H         1 MET         0.0320
    204 H72        53.5566  -63.3802   51.4209 H         1 MET         0.0378
    205 H73        54.2443  -64.4424   52.6958 H         1 MET         0.0378
    206 H74        50.9621  -66.2516   51.2315 H         1 MET         0.0340
    207 H75        51.2369  -64.4765   51.2434 H         1 MET         0.0340
    208 H76        51.6736  -65.4626   52.6799 H         1 MET         0.0340
    209 H77        57.2246  -63.1624   49.9935 H         1 LYS         0.1883
    210 H78        59.8482  -62.9987   51.3012 H         1 LYS         0.0800
    211 H79        59.6654  -62.9752   48.2606 H         1 LYS         0.0312
    212 H80        60.2727  -64.3563   49.2354 H         1 LYS         0.0312
    213 H81        61.6437  -61.9423   50.0436 H         1 LYS         0.0269
    214 H82        61.7186  -62.1003   48.2559 H         1 LYS         0.0269
    215 H83        62.5886  -64.3947   48.4870 H         1 LYS         0.0317
    216 H84        62.4942  -64.2568   50.2755 H         1 LYS         0.0317
    217 H85        64.7870  -63.8716   49.5065 H         1 LYS         0.0813
    218 H86        64.0957  -62.3680   50.2049 H         1 LYS         0.0813
    219 H87        65.2818  -61.9480   48.1650 H         1 LYS         0.1994
    220 H88        63.6843  -61.6061   47.9642 H         1 LYS         0.1994
    221 H89        64.3178  -62.9840   47.3242 H         1 LYS         0.1994
    222 H90        57.2060  -59.2130   50.7387 H         1 PRO         0.0802
    223 H91        56.6495  -58.6280   52.9377 H         1 PRO         0.0313
    224 H92        58.3679  -58.6318   53.4607 H         1 PRO         0.0313
    225 H93        56.4195  -60.9213   53.2257 H         1 PRO         0.0287
    226 H94        57.6161  -60.5598   54.5158 H         1 PRO         0.0287
    227 H95        59.4206  -61.3391   53.2340 H         1 PRO         0.0524
    228 H96        58.1171  -62.4302   52.6536 H         1 PRO         0.0524
    229 H97        57.9388  -57.3659   49.8721 H         1 PHE         0.1885
    230 H98        60.6358  -56.4043   50.6947 H         1 PHE         0.0823
    231 H99        60.7584  -57.5179   48.4697 H         1 PHE         0.0474
    232 H100       61.1765  -55.7713   48.4342 H         1 PHE         0.0474
    233 H101       59.7997  -54.1977   47.2563 H         1 PHE         0.0557
    234 H102       58.6812  -58.3084   47.4661 H         1 PHE         0.0557
    235 H103       58.1382  -53.8338   45.4831 H         1 PHE         0.0599
    236 H104       57.0227  -57.9481   45.6873 H         1 PHE         0.0599
    237 H105       56.7482  -55.7095   44.6944 H         1 PHE         0.0559
    238 H106       60.8958  -54.0580   49.7738 H         1 ILE         0.1883
    239 H107       58.3676  -52.5749   50.2512 H         1 ILE         0.0803
    240 H108       61.0125  -52.1540   51.7333 H         1 ILE         0.0345
    241 H109       59.6306  -53.9854   52.6091 H         1 ILE         0.0267
    242 H110       58.2171  -52.8815   52.7099 H         1 ILE         0.0267
    243 H111       59.9805  -50.0038   51.0836 H         1 ILE         0.0235
    244 H112       59.9162  -50.2726   52.8585 H         1 ILE         0.0235
    245 H113       58.4429  -50.5139   51.8596 H         1 ILE         0.0235
    246 H114       59.2509  -53.2196   54.9051 H         1 ILE         0.0230
    247 H115       59.4053  -51.5116   54.3706 H         1 ILE         0.0230
    248 H116       60.8188  -52.6155   54.2698 H         1 ILE         0.0230
    249 H117       58.0905  -50.9782   48.8364 H         1 PHE         0.1885
    250 H118       60.5355  -49.6617   47.7447 H         1 PHE         0.0823
    251 H119       59.5442  -50.9071   45.9459 H         1 PHE         0.0474
    252 H120       59.2392  -49.1563   45.6847 H         1 PHE         0.0474
    253 H121       57.0026  -48.2701   45.7563 H         1 PHE         0.0557
    254 H122       57.7114  -52.4065   46.5251 H         1 PHE         0.0557
    255 H123       54.5993  -48.7259   45.5155 H         1 PHE         0.0599
    256 H124       55.3074  -52.8632   46.2882 H         1 PHE         0.0599
    257 H125       53.7476  -51.0261   45.7774 H         1 PHE         0.0559
    258 H126       60.1246  -47.3764   47.0308 H         1 GLY         0.1881
    259 H127       60.0018  -45.5524   48.7157 H         1 GLY         0.0763
    260 H128       58.3430  -46.1406   49.0745 H         1 GLY         0.0763
    261 H129       57.2480  -46.3975   46.5763 H         1 ALA         0.1883
    262 H130       57.7033  -43.9133   45.0906 H         1 ALA         0.0797
    263 H131       55.9004  -44.7401   43.6079 H         1 ALA         0.0277
    264 H132       55.6133  -46.1103   44.7334 H         1 ALA         0.0277
    265 H133       57.1807  -45.9731   43.8668 H         1 ALA         0.0277
    266 H134       54.9613  -43.3163   47.9029 H         1 NH2         0.1815
    267 H135       56.2319  -44.4924   47.9513 H         1 NH2         0.1815
@<TRIPOS>BOND
     1    1    2 1  
     2    2    3 1  
     3    2    5 1  
     4    3    4 2  
     5    3    8 am 
     6    5    6 1  
     7    5    7 1  
     8    8    9 1  
     9    9   10 1  
    10    9   12 1  
    11   10   11 2  
    12   10   19 am 
    13   12   13 1  
    14   13   14 1  
    15   14   15 1  
    16   15   16 ar 
    17   16   17 ar 
    18   16   18 ar 
    19   19   20 1  
    20   20   21 1  
    21   20   23 1  
    22   21   22 2  
    23   21   31 am 
    24   23   24 1  
    25   24   25 ar 
    26   24   26 ar 
    27   25   27 ar 
    28   26   28 ar 
    29   27   29 ar 
    30   28   29 ar 
    31   29   30 1  
    32   31   32 1  
    33   32   33 1  
    34   32   35 1  
    35   33   34 2  
    36   33   45 am 
    37   35   36 1  
    38   36   37 2  
    39   36   38 1  
    40   37   39 1  
    41   38   40 ar 
    42   38   41 ar 
    43   39   40 1  
    44   40   42 ar 
    45   41   43 ar 
    46   42   44 ar 
    47   43   44 ar 
    48   45   46 1  
    49   46   47 1  
    50   46   49 1  
    51   47   48 2  
    52   47   53 am 
    53   49   50 1  
    54   50   51 2  
    55   50   52 am 
    56   53   54 1  
    57   53   59 1  
    58   54   55 1  
    59   54   57 1  
    60   55   56 2  
    61   55   60 am 
    62   57   58 1  
    63   58   59 1  
    64   60   61 1  
    65   61   62 1  
    66   61   64 1  
    67   62   63 2  
    68   62   69 am 
    69   64   65 1  
    70   65   66 1  
    71   66   67 1  
    72   67   68 1  
    73   69   70 1  
    74   70   71 1  
    75   70   73 1  
    76   71   72 2  
    77   71   77 am 
    78   73   74 1  
    79   74   75 1  
    80   75   76 1  
    81   77   78 1  
    82   78   79 1  
    83   78   81 1  
    84   79   80 2  
    85   79   86 am 
    86   81   82 1  
    87   82   83 1  
    88   83   84 1  
    89   84   85 1  
    90   86   87 1  
    91   86   92 1  
    92   87   88 1  
    93   87   90 1  
    94   88   89 2  
    95   88   93 am 
    96   90   91 1  
    97   91   92 1  
    98   93   94 1  
    99   94   95 1  
   100   94   97 1  
   101   95   96 2  
   102   95  104 am 
   103   97   98 1  
   104   98   99 ar 
   105   98  100 ar 
   106   99  101 ar 
   107  100  102 ar 
   108  101  103 ar 
   109  102  103 ar 
   110  104  105 1  
   111  105  106 1  
   112  105  108 1  
   113  106  107 2  
   114  106  112 am 
   115  108  109 1  
   116  108  110 1  
   117  109  111 1  
   118  112  113 1  
   119  113  114 1  
   120  113  116 1  
   121  114  115 2  
   122  114  123 am 
   123  116  117 1  
   124  117  118 ar 
   125  117  119 ar 
   126  118  120 ar 
   127  119  121 ar 
   128  120  122 ar 
   129  121  122 ar 
   130  123  124 1  
   131  124  125 1  
   132  125  126 2  
   133  125  127 am 
   134  127  128 1  
   135  128  129 1  
   136  128  131 1  
   137  129  130 2  
   138  129  132 am 
   139    1  133 1  
   140    1  134 1  
   141    1  135 1  
   142    2  136 1  
   143    5  137 1  
   144    6  138 1  
   145    7  139 1  
   146    7  140 1  
   147    7  141 1  
   148    8  142 1  
   149    9  143 1  
   150   12  144 1  
   151   12  145 1  
   152   13  146 1  
   153   13  147 1  
   154   14  148 1  
   155   14  149 1  
   156   15  150 1  
   157   17  151 1  
   158   17  152 1  
   159   18  153 1  
   160   18  154 1  
   161   19  155 1  
   162   20  156 1  
   163   23  157 1  
   164   23  158 1  
   165   25  159 1  
   166   26  160 1  
   167   27  161 1  
   168   28  162 1  
   169   30  163 1  
   170   31  164 1  
   171   32  165 1  
   172   35  166 1  
   173   35  167 1  
   174   37  168 1  
   175   39  169 1  
   176   41  170 1  
   177   42  171 1  
   178   43  172 1  
   179   44  173 1  
   180   45  174 1  
   181   46  175 1  
   182   49  176 1  
   183   49  177 1  
   184   52  178 1  
   185   52  179 1  
   186   54  180 1  
   187   57  181 1  
   188   57  182 1  
   189   58  183 1  
   190   58  184 1  
   191   59  185 1  
   192   59  186 1  
   193   60  187 1  
   194   61  188 1  
   195   64  189 1  
   196   64  190 1  
   197   65  191 1  
   198   65  192 1  
   199   66  193 1  
   200   66  194 1  
   201   67  195 1  
   202   67  196 1  
   203   68  197 1  
   204   68  198 1  
   205   68  199 1  
   206   69  200 1  
   207   70  201 1  
   208   73  202 1  
   209   73  203 1  
   210   74  204 1  
   211   74  205 1  
   212   76  206 1  
   213   76  207 1  
   214   76  208 1  
   215   77  209 1  
   216   78  210 1  
   217   81  211 1  
   218   81  212 1  
   219   82  213 1  
   220   82  214 1  
   221   83  215 1  
   222   83  216 1  
   223   84  217 1  
   224   84  218 1  
   225   85  219 1  
   226   85  220 1  
   227   85  221 1  
   228   87  222 1  
   229   90  223 1  
   230   90  224 1  
   231   91  225 1  
   232   91  226 1  
   233   92  227 1  
   234   92  228 1  
   235   93  229 1  
   236   94  230 1  
   237   97  231 1  
   238   97  232 1  
   239   99  233 1  
   240  100  234 1  
   241  101  235 1  
   242  102  236 1  
   243  103  237 1  
   244  104  238 1  
   245  105  239 1  
   246  108  240 1  
   247  109  241 1  
   248  109  242 1  
   249  110  243 1  
   250  110  244 1  
   251  110  245 1  
   252  111  246 1  
   253  111  247 1  
   254  111  248 1  
   255  112  249 1  
   256  113  250 1  
   257  116  251 1  
   258  116  252 1  
   259  118  253 1  
   260  119  254 1  
   261  120  255 1  
   262  121  256 1  
   263  122  257 1  
   264  123  258 1  
   265  124  259 1  
   266  124  260 1  
   267  127  261 1  
   268  128  262 1  
   269  131  263 1  
   270  131  264 1  
   271  131  265 1  
   272  132  266 1  
   273  132  267 1  
@<TRIPOS>SUBSTRUCTURE
     1 THR         1

