4odl_ligand
  -I-interpret- 

265271  0  0  0  0  0  0  0  0999 V2000
   45.7930  -55.9250   61.4140 N   0  3  0  0  0
   45.3610  -55.5360   60.0810 C   0  0  0  0  0
   46.1860  -54.3660   59.5580 C   0  0  0  0  0
   45.8960  -53.2080   59.8770 O   0  0  0  0  0
   43.8670  -55.1510   60.0770 C   0  0  0  0  0
   43.6810  -53.9400   60.8190 O   0  0  0  0  0
   43.0390  -56.2550   60.7120 C   0  0  0  0  0
   47.2150  -54.6580   58.7620 N   0  0  0  0  0
   47.5830  -56.0210   58.3740 C   0  0  0  0  0
   49.0360  -56.3110   58.7470 C   0  0  0  0  0
   49.8160  -55.3890   58.9850 O   0  0  0  0  0
   47.3840  -56.2300   56.8720 C   0  0  0  0  0
   45.9410  -56.0660   56.4110 C   0  0  0  0  0
   45.8000  -56.2830   54.9150 C   0  0  0  0  0
   44.4140  -56.1790   54.4650 N   0  0  0  0  0
   44.0380  -56.3130   53.1970 C   0  0  0  0  0
   44.9470  -56.5540   52.2620 N   0  0  0  0  0
   42.7590  -56.2060   52.8600 N   0  0  0  0  0
   49.4040  -57.5880   58.7970 N   0  0  0  0  0
   50.7590  -57.9400   59.1940 C   0  0  0  0  0
   51.6610  -58.2970   58.0250 C   0  0  0  0  0
   51.2940  -58.1170   56.8570 O   0  0  0  0  0
   50.7910  -58.9920   60.3140 C   0  0  0  0  0
   49.8680  -60.1840   60.1410 C   0  0  0  0  0
   50.3130  -61.3490   59.5300 C   0  0  0  0  0
   48.5610  -60.1600   60.6230 C   0  0  0  0  0
   49.4720  -62.4500   59.3800 C   0  0  0  0  0
   47.7150  -61.2600   60.4750 C   0  0  0  0  0
   48.1750  -62.4000   59.8540 C   0  0  0  0  0
   47.3300  -63.4860   59.7120 O   0  0  0  0  0
   52.8380  -58.8140   58.3420 N   0  0  0  0  0
   53.9510  -58.7160   57.4100 C   0  0  0  0  0
   54.3440  -60.0380   56.6990 C   0  0  0  0  0
   54.6050  -60.0220   55.4910 O   0  0  0  0  0
   55.1100  -58.0180   58.1360 C   0  0  0  0  0
   56.4610  -58.2900   57.6220 C   0  0  0  0  0
   57.2940  -59.2860   58.0250 C   0  0  0  0  0
   57.1810  -57.5320   56.6410 C   0  0  0  0  0
   58.4830  -59.2110   57.3440 N   0  0  0  0  0
   58.4400  -58.1440   56.4870 C   0  0  0  0  0
   56.8790  -56.4050   55.8690 C   0  0  0  0  0
   59.3970  -57.6700   55.5960 C   0  0  0  0  0
   57.8330  -55.9360   54.9840 C   0  0  0  0  0
   59.0760  -56.5690   54.8550 C   0  0  0  0  0
   54.3690  -61.1500   57.4390 N   0  0  0  0  0
   54.5230  -62.4940   56.8860 C   0  0  0  0  0
   55.7760  -62.7910   56.0730 C   0  0  0  0  0
   55.7630  -62.7120   54.8460 O   0  0  0  0  0
   53.2970  -62.9010   56.0670 C   0  0  0  0  0
   52.0210  -62.9150   56.8720 C   0  0  0  0  0
   51.9780  -63.4050   57.9980 O   0  0  0  0  0
   50.9610  -62.3600   56.2880 N   0  0  0  0  0
   56.8610  -63.1590   56.7600 N   0  0  0  0  0
   58.0770  -63.5870   56.0680 C   0  0  0  0  0
   57.8840  -64.9010   55.3030 C   0  0  0  0  0
   58.7780  -65.2830   54.5500 O   0  0  0  0  0
   59.0780  -63.7830   57.2110 C   0  0  0  0  0
   58.5410  -62.9600   58.3390 C   0  0  0  0  0
   57.0590  -63.0530   58.2150 C   0  0  0  0  0
   56.7400  -65.5670   55.4710 N   0  0  0  0  0
   56.4760  -66.8330   54.7800 C   0  0  0  0  0
   56.1930  -66.6460   53.2890 C   0  0  0  0  0
   55.6690  -67.5420   52.6280 O   0  0  0  0  0
   55.3340  -67.6000   55.4550 C   0  0  0  0  0
   55.6980  -68.1690   56.8180 C   0  0  0  0  0
   54.5250  -68.8950   57.4530 C   0  0  0  0  0
   54.9270  -69.5200   58.7800 C   0  0  0  0  0
   53.7660  -70.1660   59.4480 N   0  3  0  0  0
   56.5400  -65.4730   52.7750 N   0  0  0  0  0
   56.5340  -65.2030   51.3480 C   0  0  0  0  0
   57.9430  -64.7380   51.0180 C   0  0  0  0  0
   58.9210  -65.4310   51.3000 O   0  0  0  0  0
   55.5410  -64.0870   51.0270 C   0  0  0  0  0
   54.1480  -64.2880   51.6110 C   0  0  0  0  0
   53.2700  -65.6980   50.9100 S   0  0  0  0  0
   51.6270  -65.4480   51.5810 C   0  0  0  0  0
   58.0380  -63.5570   50.4210 N   0  0  0  0  0
   59.2910  -62.8190   50.3700 C   0  0  0  0  0
   58.9490  -61.3390   50.2740 C   0  0  0  0  0
   59.0600  -60.7350   49.2060 O   0  0  0  0  0
   60.1680  -63.2620   49.1960 C   0  0  0  0  0
   61.5670  -62.6440   49.2000 C   0  0  0  0  0
   62.6530  -63.7020   49.3390 C   0  0  0  0  0
   64.0420  -63.0750   49.3640 C   0  0  0  0  0
   64.3570  -62.3440   48.1020 N   0  3  0  0  0
   58.5100  -60.7530   51.3980 N   0  0  0  0  0
   58.0440  -59.3640   51.4350 C   0  0  0  0  0
   59.1590  -58.3820   51.1140 C   0  0  0  0  0
   60.2800  -58.5300   51.6050 O   0  0  0  0  0
   57.6010  -59.1780   52.8920 C   0  0  0  0  0
   57.4340  -60.5490   53.4310 C   0  0  0  0  0
   58.4460  -61.3830   52.7260 C   0  0  0  0  0
   58.8470  -57.3890   50.2900 N   0  0  0  0  0
   59.8000  -56.3340   49.9830 C   0  0  0  0  0
   59.1420  -54.9720   50.1480 C   0  0  0  0  0
   57.9350  -54.8800   50.3680 O   0  0  0  0  0
   60.3610  -56.4970   48.5690 C   0  0  0  0  0
   59.3500  -56.2770   47.4850 C   0  0  0  0  0
   59.1880  -55.0250   46.9150 C   0  0  0  0  0
   58.5640  -57.3220   47.0320 C   0  0  0  0  0
   58.2580  -54.8190   45.9190 C   0  0  0  0  0
   57.6330  -57.1220   46.0340 C   0  0  0  0  0
   57.4800  -55.8690   45.4780 C   0  0  0  0  0
   59.9410  -53.9180   50.0360 N   0  0  0  0  0
   59.4670  -52.5640   50.2840 C   0  0  0  0  0
   59.9740  -51.5830   49.2310 C   0  0  0  0  0
   61.1720  -51.5270   48.9500 O   0  0  0  0  0
   59.9170  -52.0720   51.6770 C   0  0  0  0  0
   59.3130  -52.9460   52.7790 C   0  0  0  0  0
   59.5380  -50.6150   51.8840 C   0  0  0  0  0
   59.7250  -52.5460   54.1760 C   0  0  0  0  0
   59.0590  -50.8140   48.6490 N   0  0  0  0  0
   59.4380  -49.7360   47.7430 C   0  0  0  0  0
   58.8760  -48.4100   48.2340 C   0  0  0  0  0
   57.9440  -48.3900   49.0350 O   0  0  0  0  0
   58.9910  -50.0280   46.3080 C   0  0  0  0  0
   57.5210  -50.3050   46.1680 C   0  0  0  0  0
   56.6330  -49.2820   45.8770 C   0  0  0  0  0
   57.0290  -51.5930   46.3070 C   0  0  0  0  0
   55.2840  -49.5360   45.7390 C   0  0  0  0  0
   55.6800  -51.8520   46.1710 C   0  0  0  0  0
   54.8070  -50.8240   45.8860 C   0  0  0  0  0
   59.4440  -47.3050   47.7600 N   0  0  0  0  0
   59.0930  -45.9960   48.2830 C   0  0  0  0  0
   58.5260  -45.0070   47.2830 C   0  0  0  0  0
   58.9510  -43.8500   47.2390 O   0  0  0  0  0
   57.5560  -45.4500   46.4900 N   0  0  0  0  0
   56.9300  -44.5830   45.4950 C   0  0  0  0  0
   55.8360  -43.7200   46.1220 C   0  0  0  0  0
   55.1700  -42.9480   45.4310 O   0  0  0  0  0
   56.3670  -45.4090   44.3460 C   0  0  0  0  0
   55.6620  -43.8540   47.4340 N   0  0  0  0  0
   46.7818  -56.1743   61.3904 H   0  0  0  0  0
   45.6530  -55.1453   62.0565 H   0  0  0  0  0
   45.2462  -56.7273   61.7267 H   0  0  0  0  0
   45.5100  -56.3950   59.4268 H   0  0  0  0  0
   43.5446  -55.0072   59.0457 H   0  0  0  0  0
   44.2026  -53.2390   60.4213 H   0  0  0  0  0
   43.3617  -56.4024   61.7426 H   0  0  0  0  0
   41.9863  -55.9726   60.6964 H   0  0  0  0  0
   43.1769  -57.1793   60.1510 H   0  0  0  0  0
   47.7783  -53.8874   58.4026 H   0  0  0  0  0
   46.9334  -56.7104   58.9134 H   0  0  0  0  0
   47.6822  -57.2536   56.6451 H   0  0  0  0  0
   47.9762  -55.4727   56.3583 H   0  0  0  0  0
   45.6205  -55.0501   56.6419 H   0  0  0  0  0
   45.3304  -56.8088   56.9244 H   0  0  0  0  0
   46.1545  -57.2878   54.6852 H   0  0  0  0  0
   46.3783  -55.5116   54.4065 H   0  0  0  0  0
   43.6941  -55.9931   55.1632 H   0  0  0  0  0
   45.9313  -56.6360   52.5167 H   0  0  0  0  0
   42.4782  -56.3091   51.8848 H   0  0  0  0  0
   42.0567  -56.0207   53.5761 H   0  0  0  0  0
   48.7363  -58.3208   58.5570 H   0  0  0  0  0
   51.1845  -57.0293   59.6155 H   0  0  0  0  0
   50.4627  -58.4821   61.2197 H   0  0  0  0  0
   51.8049  -59.3918   60.3269 H   0  0  0  0  0
   51.3374  -61.4031   59.1615 H   0  0  0  0  0
   48.1924  -59.2655   61.1250 H   0  0  0  0  0
   49.8376  -63.3515   58.8883 H   0  0  0  0  0
   46.6925  -61.2170   60.8500 H   0  0  0  0  0
   46.4750  -63.2771   60.0954 H   0  0  0  0  0
   52.9645  -59.2811   59.2399 H   0  0  0  0  0
   53.6352  -58.1124   56.5591 H   0  0  0  0  0
   55.0946  -58.3911   59.1601 H   0  0  0  0  0
   54.9470  -56.9479   58.0082 H   0  0  0  0  0
   57.0526  -60.0350   58.7792 H   0  0  0  0  0
   55.9136  -55.9077   55.9628 H   0  0  0  0  0
   60.3659  -58.1586   55.4932 H   0  0  0  0  0
   57.6137  -55.0582   54.3761 H   0  0  0  0  0
   59.8039  -56.1734   54.1466 H   0  0  0  0  0
   54.2750  -61.0553   58.4502 H   0  0  0  0  0
   54.6330  -63.0936   57.7896 H   0  0  0  0  0
   53.4666  -63.9132   55.7000 H   0  0  0  0  0
   53.1755  -62.1687   55.2688 H   0  0  0  0  0
   50.0666  -62.3296   56.7775 H   0  0  0  0  0
   51.0433  -61.9652   55.3511 H   0  0  0  0  0
   58.3939  -62.8639   55.3165 H   0  0  0  0  0
   60.0832  -63.4723   56.9262 H   0  0  0  0  0
   59.1763  -64.8328   57.4872 H   0  0  0  0  0
   58.8863  -61.9275   58.2850 H   0  0  0  0  0
   58.8886  -63.3248   59.3056 H   0  0  0  0  0
   56.6389  -63.8961   58.7635 H   0  0  0  0  0
   56.5416  -62.1995   58.6531 H   0  0  0  0  0
   56.0305  -65.1854   56.0966 H   0  0  0  0  0
   57.3890  -67.4234   54.8571 H   0  0  0  0  0
   55.0806  -68.4406   54.8090 H   0  0  0  0  0
   54.5143  -66.8973   55.6045 H   0  0  0  0  0
   55.9856  -67.3439   57.4697 H   0  0  0  0  0
   56.5132  -68.8807   56.6872 H   0  0  0  0  0
   54.1958  -69.6857   56.7788 H   0  0  0  0  0
   53.7242  -68.1775   57.6320 H   0  0  0  0  0
   55.3086  -68.7341   59.4318 H   0  0  0  0  0
   55.6845  -70.2803   58.5896 H   0  0  0  0  0
   54.0681  -70.5743   60.3325 H   0  0  0  0  0
   53.0442  -69.4670   59.6237 H   0  0  0  0  0
   53.3921  -70.8982   58.8443 H   0  0  0  0  0
   56.8237  -64.7274   53.4106 H   0  0  0  0  0
   56.2432  -66.0825   50.7736 H   0  0  0  0  0
   55.4304  -64.0624   49.9429 H   0  0  0  0  0
   55.9397  -63.1716   51.4643 H   0  0  0  0  0
   53.5661  -63.3945   51.3847 H   0  0  0  0  0
   54.2643  -64.4728   52.6789 H   0  0  0  0  0
   51.6745  -65.4626   52.6699 H   0  0  0  0  0
   51.2417  -64.4851   51.2458 H   0  0  0  0  0
   50.9691  -66.2448   51.2340 H   0  0  0  0  0
   57.2083  -63.1546   49.9850 H   0  0  0  0  0
   59.8721  -63.0182   51.2704 H   0  0  0  0  0
   59.6728  -62.9375   48.2808 H   0  0  0  0  0
   60.2906  -64.3424   49.2724 H   0  0  0  0  0
   61.6391  -61.9657   50.0501 H   0  0  0  0  0
   61.7144  -62.1245   48.2532 H   0  0  0  0  0
   62.5924  -64.3741   48.4830 H   0  0  0  0  0
   62.4977  -64.2357   50.2766 H   0  0  0  0  0
   64.7721  -63.8757   49.4819 H   0  0  0  0  0
   64.0751  -62.3599   50.1860 H   0  0  0  0  0
   65.2930  -61.9438   48.1669 H   0  0  0  0  0
   64.3170  -62.9926   47.3158 H   0  0  0  0  0
   63.6756  -61.5977   47.9637 H   0  0  0  0  0
   57.2595  -59.1783   50.7014 H   0  0  0  0  0
   56.6755  -58.6061   52.9590 H   0  0  0  0  0
   58.3346  -58.6097   53.4639 H   0  0  0  0  0
   56.4237  -60.9224   53.2636 H   0  0  0  0  0
   57.5806  -60.5730   54.5108 H   0  0  0  0  0
   59.4098  -61.4052   53.2346 H   0  0  0  0  0
   58.1757  -62.4382   52.6851 H   0  0  0  0  0
   57.9206  -57.3654   49.8638 H   0  0  0  0  0
   60.6333  -56.4071   50.6819 H   0  0  0  0  0
   60.7159  -57.5236   48.4776 H   0  0  0  0  0
   61.1412  -55.7466   48.4415 H   0  0  0  0  0
   59.8031  -54.1932   47.2581 H   0  0  0  0  0
   58.6818  -58.3138   47.4685 H   0  0  0  0  0
   58.1376  -53.8283   45.4807 H   0  0  0  0  0
   57.0193  -57.9526   45.6854 H   0  0  0  0  0
   56.7442  -55.7086   44.6900 H   0  0  0  0  0
   60.9149  -54.0608   49.7685 H   0  0  0  0  0
   58.3786  -52.6001   50.2364 H   0  0  0  0  0
   61.0027  -52.1523   51.7302 H   0  0  0  0  0
   59.6687  -53.9634   52.6160 H   0  0  0  0  0
   58.2299  -52.8397   52.7186 H   0  0  0  0  0
   60.0212  -50.0034   51.1220 H   0  0  0  0  0
   58.4561  -50.5077   51.8057 H   0  0  0  0  0
   59.8658  -50.2925   52.8723 H   0  0  0  0  0
   60.8089  -52.6153   54.2676 H   0  0  0  0  0
   59.4077  -51.5209   54.3675 H   0  0  0  0  0
   59.2547  -53.2141   54.8975 H   0  0  0  0  0
   58.0712  -50.9815   48.8402 H   0  0  0  0  0
   60.5258  -49.6669   47.7350 H   0  0  0  0  0
   59.5204  -50.9229   45.9810 H   0  0  0  0  0
   59.2098  -49.1400   45.7150 H   0  0  0  0  0
   57.0046  -48.2645   45.7557 H   0  0  0  0  0
   57.7152  -52.4110   46.5263 H   0  0  0  0  0
   54.5955  -48.7214   45.5143 H   0  0  0  0  0
   55.3053  -52.8688   46.2889 H   0  0  0  0  0
   53.7417  -51.0272   45.7768 H   0  0  0  0  0
   60.1382  -47.3778   47.0163 H   0  0  0  0  0
   60.0194  -45.5574   48.6538 H   0  0  0  0  0
   58.3108  -46.1633   49.0234 H   0  0  0  0  0
   57.2418  -46.4164   46.5781 H   0  0  0  0  0
   57.6972  -43.9162   45.1014 H   0  0  0  0  0
   57.1742  -45.9675   43.8721 H   0  0  0  0  0
   55.6204  -46.1034   44.7312 H   0  0  0  0  0
   55.9049  -44.7452   43.6153 H   0  0  0  0  0
   54.9500  -43.3026   47.9130 H   0  0  0  0  0
   56.2406  -44.5082   47.9610 H   0  0  0  0  0
  1  2  1  0  0  0
  2  3  1  0  0  0
  2  5  1  0  0  0
  3  4  2  0  0  0
  3  8  1  0  0  0
  5  6  1  0  0  0
  5  7  1  0  0  0
  8  9  1  0  0  0
  9 10  1  0  0  0
  9 12  1  0  0  0
 10 11  2  0  0  0
 10 19  1  0  0  0
 12 13  1  0  0  0
 13 14  1  0  0  0
 14 15  1  0  0  0
 15 16  1  0  0  0
 16 17  2  0  0  0
 16 18  1  0  0  0
 19 20  1  0  0  0
 20 21  1  0  0  0
 20 23  1  0  0  0
 21 22  2  0  0  0
 21 31  1  0  0  0
 23 24  1  0  0  0
 24 25  4  0  0  0
 24 26  4  0  0  0
 25 27  4  0  0  0
 26 28  4  0  0  0
 27 29  4  0  0  0
 28 29  4  0  0  0
 29 30  1  0  0  0
 31 32  1  0  0  0
 32 33  1  0  0  0
 32 35  1  0  0  0
 33 34  2  0  0  0
 33 45  1  0  0  0
 35 36  1  0  0  0
 36 37  4  0  0  0
 36 38  4  0  0  0
 37 39  4  0  0  0
 38 40  4  0  0  0
 38 41  4  0  0  0
 39 40  4  0  0  0
 40 42  4  0  0  0
 41 43  4  0  0  0
 42 44  4  0  0  0
 43 44  4  0  0  0
 45 46  1  0  0  0
 46 47  1  0  0  0
 46 49  1  0  0  0
 47 48  2  0  0  0
 47 53  1  0  0  0
 49 50  1  0  0  0
 50 51  2  0  0  0
 50 52  1  0  0  0
 53 54  1  0  0  0
 53 59  1  0  0  0
 54 55  1  0  0  0
 54 57  1  0  0  0
 55 56  2  0  0  0
 55 60  1  0  0  0
 57 58  1  0  0  0
 58 59  1  0  0  0
 60 61  1  0  0  0
 61 62  1  0  0  0
 61 64  1  0  0  0
 62 63  2  0  0  0
 62 69  1  0  0  0
 64 65  1  0  0  0
 65 66  1  0  0  0
 66 67  1  0  0  0
 67 68  1  0  0  0
 69 70  1  0  0  0
 70 71  1  0  0  0
 70 73  1  0  0  0
 71 72  2  0  0  0
 71 77  1  0  0  0
 73 74  1  0  0  0
 74 75  1  0  0  0
 75 76  1  0  0  0
 77 78  1  0  0  0
 78 79  1  0  0  0
 78 81  1  0  0  0
 79 80  2  0  0  0
 79 86  1  0  0  0
 81 82  1  0  0  0
 82 83  1  0  0  0
 83 84  1  0  0  0
 84 85  1  0  0  0
 86 87  1  0  0  0
 86 92  1  0  0  0
 87 88  1  0  0  0
 87 90  1  0  0  0
 88 89  2  0  0  0
 88 93  1  0  0  0
 90 91  1  0  0  0
 91 92  1  0  0  0
 93 94  1  0  0  0
 94 95  1  0  0  0
 94 97  1  0  0  0
 95 96  2  0  0  0
 95104  1  0  0  0
 97 98  1  0  0  0
 98 99  4  0  0  0
 98100  4  0  0  0
 99101  4  0  0  0
100102  4  0  0  0
101103  4  0  0  0
102103  4  0  0  0
104105  1  0  0  0
105106  1  0  0  0
105108  1  0  0  0
106107  2  0  0  0
106112  1  0  0  0
108109  1  0  0  0
108110  1  0  0  0
109111  1  0  0  0
112113  1  0  0  0
113114  1  0  0  0
113116  1  0  0  0
114115  2  0  0  0
114123  1  0  0  0
116117  1  0  0  0
117118  4  0  0  0
117119  4  0  0  0
118120  4  0  0  0
119121  4  0  0  0
120122  4  0  0  0
121122  4  0  0  0
123124  1  0  0  0
124125  1  0  0  0
125126  2  0  0  0
125127  1  0  0  0
127128  1  0  0  0
128129  1  0  0  0
128131  1  0  0  0
129130  2  0  0  0
129132  1  0  0  0
  1133  1  0  0  0
  1134  1  0  0  0
  1135  1  0  0  0
  2136  1  0  0  0
  5137  1  0  0  0
  6138  1  0  0  0
  7139  1  0  0  0
  7140  1  0  0  0
  7141  1  0  0  0
  8142  1  0  0  0
  9143  1  0  0  0
 12144  1  0  0  0
 12145  1  0  0  0
 13146  1  0  0  0
 13147  1  0  0  0
 14148  1  0  0  0
 14149  1  0  0  0
 15150  1  0  0  0
 17151  1  0  0  0
 18152  1  0  0  0
 18153  1  0  0  0
 19154  1  0  0  0
 20155  1  0  0  0
 23156  1  0  0  0
 23157  1  0  0  0
 25158  1  0  0  0
 26159  1  0  0  0
 27160  1  0  0  0
 28161  1  0  0  0
 30162  1  0  0  0
 31163  1  0  0  0
 32164  1  0  0  0
 35165  1  0  0  0
 35166  1  0  0  0
 37167  1  0  0  0
 41168  1  0  0  0
 42169  1  0  0  0
 43170  1  0  0  0
 44171  1  0  0  0
 45172  1  0  0  0
 46173  1  0  0  0
 49174  1  0  0  0
 49175  1  0  0  0
 52176  1  0  0  0
 52177  1  0  0  0
 54178  1  0  0  0
 57179  1  0  0  0
 57180  1  0  0  0
 58181  1  0  0  0
 58182  1  0  0  0
 59183  1  0  0  0
 59184  1  0  0  0
 60185  1  0  0  0
 61186  1  0  0  0
 64187  1  0  0  0
 64188  1  0  0  0
 65189  1  0  0  0
 65190  1  0  0  0
 66191  1  0  0  0
 66192  1  0  0  0
 67193  1  0  0  0
 67194  1  0  0  0
 68195  1  0  0  0
 68196  1  0  0  0
 68197  1  0  0  0
 69198  1  0  0  0
 70199  1  0  0  0
 73200  1  0  0  0
 73201  1  0  0  0
 74202  1  0  0  0
 74203  1  0  0  0
 76204  1  0  0  0
 76205  1  0  0  0
 76206  1  0  0  0
 77207  1  0  0  0
 78208  1  0  0  0
 81209  1  0  0  0
 81210  1  0  0  0
 82211  1  0  0  0
 82212  1  0  0  0
 83213  1  0  0  0
 83214  1  0  0  0
 84215  1  0  0  0
 84216  1  0  0  0
 85217  1  0  0  0
 85218  1  0  0  0
 85219  1  0  0  0
 87220  1  0  0  0
 90221  1  0  0  0
 90222  1  0  0  0
 91223  1  0  0  0
 91224  1  0  0  0
 92225  1  0  0  0
 92226  1  0  0  0
 93227  1  0  0  0
 94228  1  0  0  0
 97229  1  0  0  0
 97230  1  0  0  0
 99231  1  0  0  0
100232  1  0  0  0
101233  1  0  0  0
102234  1  0  0  0
103235  1  0  0  0
104236  1  0  0  0
105237  1  0  0  0
108238  1  0  0  0
109239  1  0  0  0
109240  1  0  0  0
110241  1  0  0  0
110242  1  0  0  0
110243  1  0  0  0
111244  1  0  0  0
111245  1  0  0  0
111246  1  0  0  0
112247  1  0  0  0
113248  1  0  0  0
116249  1  0  0  0
116250  1  0  0  0
118251  1  0  0  0
119252  1  0  0  0
120253  1  0  0  0
121254  1  0  0  0
122255  1  0  0  0
123256  1  0  0  0
124257  1  0  0  0
124258  1  0  0  0
127259  1  0  0  0
128260  1  0  0  0
131261  1  0  0  0
131262  1  0  0  0
131263  1  0  0  0
132264  1  0  0  0
132265  1  0  0  0
M  END
$$$$
