### 
### Created by X-TOOL on Wed Jan  1 15:39:35 2020
### 

@<TRIPOS>MOLECULE
6hm4_ligand
  132   133     1     0     0
SMALL
GAST_HUCK


@<TRIPOS>ATOM
      1 N         -49.4180   -0.1340  -14.8170 N.4       1 GLY         0.2357
      2 CA        -50.5450    0.5110  -15.4750 C.3       1 GLY         0.0545
      3 C         -50.3610    2.0060  -15.5940 C.2       1 GLY         0.2236
      4 O         -51.3160    2.7600  -15.7150 O.2       1 GLY        -0.3910
      5 N         -49.1080    2.4440  -15.5200 N.am      1 VAL        -0.2610
      6 CA        -48.7370    3.8150  -15.8330 C.3       1 VAL         0.1334
      7 C         -47.4260    3.7600  -16.6000 C.2       1 VAL         0.2042
      8 O         -46.6360    2.8260  -16.4420 O.2       1 VAL        -0.3944
      9 CB        -48.5840    4.7000  -14.5720 C.3       1 VAL        -0.0063
     10 CG1       -49.8900    4.7890  -13.8040 C.3       1 VAL        -0.0584
     11 CG2       -47.4560    4.1610  -13.6770 C.3       1 VAL        -0.0584
     12 N         -47.2020    4.7670  -17.4450 N.am      1 MET        -0.2637
     13 CA        -45.9130    4.8800  -18.1190 C.3       1 MET         0.1317
     14 C         -44.8670    5.4760  -17.1860 C.2       1 MET         0.2040
     15 O         -43.6830    5.1140  -17.2520 O.2       1 MET        -0.3944
     16 CB        -46.0540    5.7330  -19.3740 C.3       1 MET        -0.0034
     17 CG        -44.8400    5.7350  -20.2810 C.3       1 MET        -0.0024
     18 SD        -44.8530    7.1890  -21.3550 S.3       1 MET        -0.1639
     19 CE        -45.6150    6.5080  -22.8170 C.3       1 MET        -0.0181
     20 N         -45.2830    6.4050  -16.3250 N.am      1 THR        -0.2613
     21 CA        -44.3690    7.0800  -15.4150 C.3       1 THR         0.1565
     22 C         -45.0530    7.2630  -14.0730 C.2       1 THR         0.2065
     23 O         -46.2760    7.1540  -13.9550 O.2       1 THR        -0.3943
     24 CB        -43.9220    8.4640  -15.9280 C.3       1 THR         0.0924
     25 OG1       -44.9840    9.4060  -15.7220 O.3       1 THR        -0.3874
     26 CG2       -43.5560    8.4320  -17.4040 C.3       1 THR        -0.0346
     27 N         -44.2460    7.5210  -13.0500 N.am      1 VAL        -0.2634
     28 CA        -44.7440    8.1450  -11.8340 C.3       1 VAL         0.1334
     29 C         -44.2370    9.5840  -11.8520 C.2       1 VAL         0.2066
     30 O         -43.0220    9.8110  -11.7420 O.2       1 VAL        -0.3942
     31 CB        -44.3010    7.4160  -10.5570 C.3       1 VAL        -0.0062
     32 CG1       -44.9340    8.0810   -9.3280 C.3       1 VAL        -0.0584
     33 CG2       -44.6760    5.9400  -10.6110 C.3       1 VAL        -0.0584
     34 N         -45.1060   10.5730  -12.0120 N.am      1 PRO        -0.2498
     35 CA        -44.6310   11.9500  -12.1730 C.3       1 PRO         0.1338
     36 C         -43.9680   12.4810  -10.9160 C.2       1 PRO         0.2042
     37 O         -44.2990   12.0910   -9.7940 O.2       1 PRO        -0.3944
     38 CB        -45.9130   12.7320  -12.4890 C.3       1 PRO        -0.0104
     39 CG        -46.8130   11.7120  -13.1040 C.3       1 PRO        -0.0281
     40 CD        -46.5380   10.4490  -12.3250 C.3       1 PRO         0.0369
     41 N         -43.0040   13.3660  -11.1380 N.am      1 ASN        -0.2616
     42 CA        -42.3210   14.1110  -10.0840 C.3       1 ASN         0.1476
     43 C         -43.3490   14.6070   -9.0770 C.2       1 ASN         0.2063
     44 O         -44.4180   15.0920   -9.4630 O.2       1 ASN        -0.3942
     45 CB        -41.5360   15.2850  -10.7040 C.3       1 ASN         0.0773
     46 CG        -40.5450   15.9140   -9.7440 C.2       1 ASN         0.1780
     47 OD1       -40.0240   15.2600   -8.8370 O.2       1 ASN        -0.3970
     48 ND2       -40.2650   17.1960   -9.9540 N.am      1 ASN        -0.3007
     49 N         -43.0490   14.4320   -7.7950 N.am      1 TPO        -0.2609
     50 CA        -43.9080   14.9110   -6.7200 C.3       1 TPO         0.1613
     51 CB        -43.3200   14.5130   -5.3620 C.3       1 TPO         0.1262
     52 CG2       -44.1730   15.1190   -4.2330 C.3       1 TPO        -0.0298
     53 OG1       -43.3250   13.0910   -5.2650 O.3       1 TPO        -0.2685
     54 P         -41.8070   12.5530   -5.1270 P.3       1 TPO         0.2014
     55 O1P       -41.0340   13.1060   -6.2610 O.co2     1 TPO        -0.5537
     56 O2P       -41.2240   13.0300   -3.7260 O.co2     1 TPO        -0.5537
     57 O3P       -41.9150   10.9640   -5.1030 O.co2     1 TPO        -0.5537
     58 C         -44.0730   16.4330   -6.8010 C.2       1 TPO         0.2088
     59 O         -43.0940   17.1670   -6.7550 O.2       1 TPO        -0.3941
     60 N         -45.3130   16.9060   -6.9490 N.am      1 PRO        -0.2555
     61 CA        -45.5550   18.3530   -7.0650 C.3       1 PRO         0.0972
     62 C         -45.0980   19.1300   -5.8300 C.2       1 PRO         0.0603
     63 O         -45.4870   18.7460   -4.7220 O.co2     1 PRO        -0.5666
     64 CB        -47.0760   18.4430   -7.2280 C.3       1 PRO        -0.0159
     65 CG        -47.4940   17.0860   -7.7270 C.3       1 PRO        -0.0288
     66 CD        -46.5490   16.1170   -7.0680 C.3       1 PRO         0.0362
     67 OXT       -44.3600   20.1070   -5.9950 O.co2     1 PRO        -0.5666
     68 H1        -49.5850   -1.1265  -14.7606 H         1 GLY         0.2012
     69 H2        -49.3112    0.2421  -13.8879 H         1 GLY         0.2012
     70 H3        -48.5775    0.0357  -15.3469 H         1 GLY         0.2012
     71 H4        -51.4562    0.3122  -14.8918 H         1 GLY         0.1061
     72 H5        -50.6555    0.0869  -16.4839 H         1 GLY         0.1061
     73 H6        -48.3921    1.8054  -15.2379 H         1 VAL         0.1884
     74 H7        -49.5157    4.2572  -16.4718 H         1 VAL         0.0802
     75 H8        -48.3100    5.7147  -14.8964 H         1 VAL         0.0343
     76 H9        -49.7505    5.4226  -12.9157 H         1 VAL         0.0234
     77 H10       -50.2005    3.7814  -13.4905 H         1 VAL         0.0234
     78 H11       -50.6656    5.2276  -14.4491 H         1 VAL         0.0234
     79 H12       -46.5226    4.1064  -14.2564 H         1 VAL         0.0234
     80 H13       -47.7226    3.1568  -13.3159 H         1 VAL         0.0234
     81 H14       -47.3157    4.8342  -12.8184 H         1 VAL         0.0234
     82 H15       -47.9173    5.4445  -17.6166 H         1 MET         0.1883
     83 H16       -45.5831    3.8731  -18.4143 H         1 MET         0.0800
     84 H17       -46.2503    6.7696  -19.0629 H         1 MET         0.0320
     85 H18       -46.9111    5.3546  -19.9504 H         1 MET         0.0320
     86 H19       -44.8504    4.8268  -20.9015 H         1 MET         0.0378
     87 H20       -43.9285    5.7481  -19.6654 H         1 MET         0.0378
     88 H21       -45.6968    7.2902  -23.5861 H         1 MET         0.0340
     89 H22       -46.6186    6.1334  -22.5669 H         1 MET         0.0340
     90 H23       -44.9996    5.6805  -23.1997 H         1 MET         0.0340
     91 H24       -46.2534    6.6457  -16.3036 H         1 THR         0.1884
     92 H25       -43.4769    6.4495  -15.2865 H         1 THR         0.0826
     93 H26       -43.0394    8.7835  -15.3546 H         1 THR         0.0639
     94 H27       -45.7550    9.1215  -16.1986 H         1 THR         0.2101
     95 H28       -43.2442    9.4365  -17.7263 H         1 THR         0.0257
     96 H29       -44.4295    8.1131  -17.9916 H         1 THR         0.0257
     97 H30       -42.7295    7.7234  -17.5616 H         1 THR         0.0257
     98 H31       -43.2774    7.2816  -13.1171 H         1 VAL         0.1883
     99 H32       -45.8437    8.1468  -11.8590 H         1 VAL         0.0803
    100 H33       -43.2069    7.4933  -10.4736 H         1 VAL         0.0343
    101 H34       -44.6116    7.5529   -8.4185 H         1 VAL         0.0234
    102 H35       -46.0300    8.0348   -9.4097 H         1 VAL         0.0234
    103 H36       -44.6143    9.1321   -9.2744 H         1 VAL         0.0234
    104 H37       -44.2156    5.4769  -11.4962 H         1 VAL         0.0234
    105 H38       -45.7698    5.8416  -10.6728 H         1 VAL         0.0234
    106 H39       -44.3132    5.4360   -9.7031 H         1 VAL         0.0234
    107 H40       -43.9184   12.0159  -13.0084 H         1 PRO         0.0802
    108 H41       -45.7084   13.5501  -13.1953 H         1 PRO         0.0313
    109 H42       -46.3573   13.1430  -11.5705 H         1 PRO         0.0313
    110 H43       -46.5731   11.5726  -14.1684 H         1 PRO         0.0287
    111 H44       -47.8667   12.0106  -13.0017 H         1 PRO         0.0287
    112 H45       -47.1433   10.4083  -11.4075 H         1 PRO         0.0524
    113 H46       -46.7356    9.5550  -12.9347 H         1 PRO         0.0524
    114 H47       -42.7287   13.5327  -12.0848 H         1 ASN         0.1885
    115 H48       -41.6130   13.4439   -9.5705 H         1 ASN         0.0826
    116 H49       -42.2532   16.0564  -11.0212 H         1 ASN         0.0551
    117 H50       -40.9856   14.9132  -11.5808 H         1 ASN         0.0551
    118 H51       -39.6190   17.6711   -9.3565 H         1 ASN         0.1814
    119 H52       -40.7003   17.6856  -10.7095 H         1 ASN         0.1814
    120 H53       -42.2028   13.9541   -7.5590 H         1 TPO         0.1884
    121 H54       -44.8984   14.4443   -6.8264 H         1 TPO         0.0830
    122 H55       -42.2881   14.8853   -5.2811 H         1 TPO         0.0695
    123 H56       -43.7494   14.8322   -3.2592 H         1 TPO         0.0260
    124 H57       -45.2037   14.7425   -4.3097 H         1 TPO         0.0260
    125 H58       -44.1754   16.2153   -4.3233 H         1 TPO         0.0260
    126 H59       -45.0426   18.7571   -7.9505 H         1 PRO         0.0728
    127 H60       -47.3414   19.2221   -7.9578 H         1 PRO         0.0306
    128 H61       -47.5560   18.6652   -6.2635 H         1 PRO         0.0306
    129 H62       -47.4012   17.0317   -8.8217 H         1 PRO         0.0286
    130 H63       -48.5327   16.8707   -7.4359 H         1 PRO         0.0286
    131 H64       -46.9208   15.8097   -6.0794 H         1 PRO         0.0524
    132 H65       -46.3929   15.2263   -7.6943 H         1 PRO         0.0524
@<TRIPOS>BOND
     1    1    2 1  
     2    2    3 1  
     3    3    4 2  
     4    3    5 am 
     5    5    6 1  
     6    6    7 1  
     7    6    9 1  
     8    7    8 2  
     9    7   12 am 
    10    9   10 1  
    11    9   11 1  
    12   12   13 1  
    13   13   14 1  
    14   13   16 1  
    15   14   15 2  
    16   14   20 am 
    17   16   17 1  
    18   17   18 1  
    19   18   19 1  
    20   20   21 1  
    21   21   22 1  
    22   21   24 1  
    23   22   23 2  
    24   22   27 am 
    25   24   25 1  
    26   24   26 1  
    27   27   28 1  
    28   28   29 1  
    29   28   31 1  
    30   29   30 2  
    31   29   34 am 
    32   31   32 1  
    33   31   33 1  
    34   34   35 1  
    35   34   40 1  
    36   35   36 1  
    37   35   38 1  
    38   36   37 2  
    39   36   41 am 
    40   38   39 1  
    41   39   40 1  
    42   41   42 1  
    43   42   43 1  
    44   42   45 1  
    45   43   44 2  
    46   43   49 am 
    47   45   46 1  
    48   46   47 2  
    49   46   48 am 
    50   49   50 1  
    51   50   51 1  
    52   50   58 1  
    53   51   52 1  
    54   51   53 1  
    55   53   54 1  
    56   54   55 ar 
    57   54   56 ar 
    58   54   57 ar 
    59   58   59 2  
    60   58   60 am 
    61   60   61 1  
    62   60   66 1  
    63   61   62 1  
    64   61   64 1  
    65   62   63 ar 
    66   62   67 ar 
    67   64   65 1  
    68   65   66 1  
    69    1   68 1  
    70    1   69 1  
    71    1   70 1  
    72    2   71 1  
    73    2   72 1  
    74    5   73 1  
    75    6   74 1  
    76    9   75 1  
    77   10   76 1  
    78   10   77 1  
    79   10   78 1  
    80   11   79 1  
    81   11   80 1  
    82   11   81 1  
    83   12   82 1  
    84   13   83 1  
    85   16   84 1  
    86   16   85 1  
    87   17   86 1  
    88   17   87 1  
    89   19   88 1  
    90   19   89 1  
    91   19   90 1  
    92   20   91 1  
    93   21   92 1  
    94   24   93 1  
    95   25   94 1  
    96   26   95 1  
    97   26   96 1  
    98   26   97 1  
    99   27   98 1  
   100   28   99 1  
   101   31  100 1  
   102   32  101 1  
   103   32  102 1  
   104   32  103 1  
   105   33  104 1  
   106   33  105 1  
   107   33  106 1  
   108   35  107 1  
   109   38  108 1  
   110   38  109 1  
   111   39  110 1  
   112   39  111 1  
   113   40  112 1  
   114   40  113 1  
   115   41  114 1  
   116   42  115 1  
   117   45  116 1  
   118   45  117 1  
   119   48  118 1  
   120   48  119 1  
   121   49  120 1  
   122   50  121 1  
   123   51  122 1  
   124   52  123 1  
   125   52  124 1  
   126   52  125 1  
   127   61  126 1  
   128   64  127 1  
   129   64  128 1  
   130   65  129 1  
   131   65  130 1  
   132   66  131 1  
   133   66  132 1  
@<TRIPOS>SUBSTRUCTURE
     1 GLY         1

