6hm4_ligand
  -I-interpret- 

135136  0  0  0  0  0  0  0  0999 V2000
  -49.4180   -0.1340  -14.8170 N   0  3  0  0  0
  -50.5450    0.5110  -15.4750 C   0  0  0  0  0
  -50.3610    2.0060  -15.5940 C   0  0  0  0  0
  -51.3160    2.7600  -15.7150 O   0  0  0  0  0
  -49.1080    2.4440  -15.5200 N   0  0  0  0  0
  -48.7370    3.8150  -15.8330 C   0  0  0  0  0
  -47.4260    3.7600  -16.6000 C   0  0  0  0  0
  -46.6360    2.8260  -16.4420 O   0  0  0  0  0
  -48.5840    4.7000  -14.5720 C   0  0  0  0  0
  -49.8900    4.7890  -13.8040 C   0  0  0  0  0
  -47.4560    4.1610  -13.6770 C   0  0  0  0  0
  -47.2020    4.7670  -17.4450 N   0  0  0  0  0
  -45.9130    4.8800  -18.1190 C   0  0  0  0  0
  -44.8670    5.4760  -17.1860 C   0  0  0  0  0
  -43.6830    5.1140  -17.2520 O   0  0  0  0  0
  -46.0540    5.7330  -19.3740 C   0  0  0  0  0
  -44.8400    5.7350  -20.2810 C   0  0  0  0  0
  -44.8530    7.1890  -21.3550 S   0  0  0  0  0
  -45.6150    6.5080  -22.8170 C   0  0  0  0  0
  -45.2830    6.4050  -16.3250 N   0  0  0  0  0
  -44.3690    7.0800  -15.4150 C   0  0  0  0  0
  -45.0530    7.2630  -14.0730 C   0  0  0  0  0
  -46.2760    7.1540  -13.9550 O   0  0  0  0  0
  -43.9220    8.4640  -15.9280 C   0  0  0  0  0
  -44.9840    9.4060  -15.7220 O   0  0  0  0  0
  -43.5560    8.4320  -17.4040 C   0  0  0  0  0
  -44.2460    7.5210  -13.0500 N   0  0  0  0  0
  -44.7440    8.1450  -11.8340 C   0  0  0  0  0
  -44.2370    9.5840  -11.8520 C   0  0  0  0  0
  -43.0220    9.8110  -11.7420 O   0  0  0  0  0
  -44.3010    7.4160  -10.5570 C   0  0  0  0  0
  -44.9340    8.0810   -9.3280 C   0  0  0  0  0
  -44.6760    5.9400  -10.6110 C   0  0  0  0  0
  -45.1060   10.5730  -12.0120 N   0  0  0  0  0
  -44.6310   11.9500  -12.1730 C   0  0  0  0  0
  -43.9680   12.4810  -10.9160 C   0  0  0  0  0
  -44.2990   12.0910   -9.7940 O   0  0  0  0  0
  -45.9130   12.7320  -12.4890 C   0  0  0  0  0
  -46.8130   11.7120  -13.1040 C   0  0  0  0  0
  -46.5380   10.4490  -12.3250 C   0  0  0  0  0
  -43.0040   13.3660  -11.1380 N   0  0  0  0  0
  -42.3210   14.1110  -10.0840 C   0  0  0  0  0
  -43.3490   14.6070   -9.0770 C   0  0  0  0  0
  -44.4180   15.0920   -9.4630 O   0  0  0  0  0
  -41.5360   15.2850  -10.7040 C   0  0  0  0  0
  -40.5450   15.9140   -9.7440 C   0  0  0  0  0
  -40.0240   15.2600   -8.8370 O   0  0  0  0  0
  -40.2650   17.1960   -9.9540 N   0  0  0  0  0
  -43.0490   14.4320   -7.7950 N   0  0  0  0  0
  -43.9080   14.9110   -6.7200 C   0  0  0  0  0
  -43.3200   14.5130   -5.3620 C   0  0  0  0  0
  -44.1730   15.1190   -4.2330 C   0  0  0  0  0
  -43.3250   13.0910   -5.2650 O   0  0  0  0  0
  -41.8070   12.5530   -5.1270 P   0  0  0  0  0
  -41.0340   13.1060   -6.2610 O   0  0  0  0  0
  -41.2240   13.0300   -3.7260 O   0  0  0  0  0
  -41.9150   10.9640   -5.1030 O   0  0  0  0  0
  -44.0730   16.4330   -6.8010 C   0  0  0  0  0
  -43.0940   17.1670   -6.7550 O   0  0  0  0  0
  -45.3130   16.9060   -6.9490 N   0  0  0  0  0
  -45.5550   18.3530   -7.0650 C   0  0  0  0  0
  -45.0980   19.1300   -5.8300 C   0  0  0  0  0
  -45.4870   18.7460   -4.7220 O   0  0  0  0  0
  -47.0760   18.4430   -7.2280 C   0  0  0  0  0
  -47.4940   17.0860   -7.7270 C   0  0  0  0  0
  -46.5490   16.1170   -7.0680 C   0  0  0  0  0
  -44.3600   20.1070   -5.9950 O   0  0  0  0  0
  -49.5881   -1.1381  -14.7604 H   0  0  0  0  0
  -48.5681    0.0384  -15.3541 H   0  0  0  0  0
  -49.3109    0.2474  -13.8771 H   0  0  0  0  0
  -51.4368    0.3268  -14.8760 H   0  0  0  0  0
  -50.6298    0.0997  -16.4809 H   0  0  0  0  0
  -48.3777    1.7926  -15.2322 H   0  0  0  0  0
  -49.5309    4.2727  -16.4232 H   0  0  0  0  0
  -48.3205    5.7083  -14.8915 H   0  0  0  0  0
  -50.1686    3.7974  -13.4475 H   0  0  0  0  0
  -49.7653    5.4603  -12.9543 H   0  0  0  0  0
  -50.6707    5.1731  -14.4606 H   0  0  0  0  0
  -47.3181    4.8289  -12.8267 H   0  0  0  0  0
  -47.7214    3.1660  -13.3198 H   0  0  0  0  0
  -46.5317    4.1074  -14.2522 H   0  0  0  0  0
  -47.9316    5.4580  -17.6201 H   0  0  0  0  0
  -45.5824    3.8817  -18.4059 H   0  0  0  0  0
  -46.2032    6.7607  -19.0429 H   0  0  0  0  0
  -46.8788    5.3139  -19.9503 H   0  0  0  0  0
  -44.8593    4.8379  -20.8998 H   0  0  0  0  0
  -43.9397    5.7568  -19.6670 H   0  0  0  0  0
  -45.0043    5.6882  -23.1952 H   0  0  0  0  0
  -46.6092    6.1372  -22.5678 H   0  0  0  0  0
  -45.6955    7.2840  -23.5783 H   0  0  0  0  0
  -46.2728    6.6505  -16.3032 H   0  0  0  0  0
  -43.4798    6.4551  -15.3324 H   0  0  0  0  0
  -43.0325    8.7589  -15.3713 H   0  0  0  0  0
  -44.7104   10.2695  -16.0399 H   0  0  0  0  0
  -42.7370    7.7295  -17.5588 H   0  0  0  0  0
  -44.4223    8.1158  -17.9851 H   0  0  0  0  0
  -43.2473    9.4278  -17.7221 H   0  0  0  0  0
  -43.2580    7.2769  -13.1184 H   0  0  0  0  0
  -45.8329    8.1004  -11.8157 H   0  0  0  0  0
  -43.2158    7.4852  -10.4816 H   0  0  0  0  0
  -44.6165    9.1224   -9.2761 H   0  0  0  0  0
  -46.0199    8.0346   -9.4102 H   0  0  0  0  0
  -44.6138    7.5568   -8.4275 H   0  0  0  0  0
  -45.7572    5.8446  -10.7109 H   0  0  0  0  0
  -44.1882    5.4736  -11.4669 H   0  0  0  0  0
  -44.3499    5.4498   -9.6937 H   0  0  0  0  0
  -43.8679   12.0345  -12.9467 H   0  0  0  0  0
  -45.7297   13.5767  -13.1531 H   0  0  0  0  0
  -46.3498   13.1875  -11.6003 H   0  0  0  0  0
  -46.6205   11.5857  -14.1694 H   0  0  0  0  0
  -47.8613   12.0058  -13.0503 H   0  0  0  0  0
  -47.1622   10.3508  -11.4368 H   0  0  0  0  0
  -46.7763    9.5432  -12.8825 H   0  0  0  0  0
  -42.7231   13.5361  -12.1037 H   0  0  0  0  0
  -41.6113   13.4654   -9.5667 H   0  0  0  0  0
  -42.2569   16.0528  -10.9847 H   0  0  0  0  0
  -40.9727   14.8947  -11.5516 H   0  0  0  0  0
  -39.5958   17.6769   -9.3530 H   0  0  0  0  0
  -40.7193   17.6990  -10.7162 H   0  0  0  0  0
  -42.1859   13.9446   -7.5543 H   0  0  0  0  0
  -44.8907   14.4520   -6.8285 H   0  0  0  0  0
  -42.2999   14.8861   -5.2702 H   0  0  0  0  0
  -44.1746   16.2052   -4.3236 H   0  0  0  0  0
  -45.1940   14.7452   -4.3101 H   0  0  0  0  0
  -43.7523   14.8342   -3.2686 H   0  0  0  0  0
  -41.7494   12.6525   -3.0168 H   0  0  0  0  0
  -42.4294   10.6908   -4.3399 H   0  0  0  0  0
  -44.9952   18.7933   -7.8901 H   0  0  0  0  0
  -46.0474   17.9741   -4.8307 H   0  0  0  0  0
  -47.3624   19.2344   -7.9206 H   0  0  0  0  0
  -47.5688   18.6984   -6.2899 H   0  0  0  0  0
  -47.4423   17.0230   -8.8139 H   0  0  0  0  0
  -48.5326   16.8678   -7.4786 H   0  0  0  0  0
  -46.9147   15.7501   -6.1090 H   0  0  0  0  0
  -46.4148   15.1977   -7.6381 H   0  0  0  0  0
  1  2  1  0  0  0
  2  3  1  0  0  0
  3  4  2  0  0  0
  3  5  1  0  0  0
  5  6  1  0  0  0
  6  7  1  0  0  0
  6  9  1  0  0  0
  7  8  2  0  0  0
  7 12  1  0  0  0
  9 10  1  0  0  0
  9 11  1  0  0  0
 12 13  1  0  0  0
 13 14  1  0  0  0
 13 16  1  0  0  0
 14 15  2  0  0  0
 14 20  1  0  0  0
 16 17  1  0  0  0
 17 18  1  0  0  0
 18 19  1  0  0  0
 20 21  1  0  0  0
 21 22  1  0  0  0
 21 24  1  0  0  0
 22 23  2  0  0  0
 22 27  1  0  0  0
 24 25  1  0  0  0
 24 26  1  0  0  0
 27 28  1  0  0  0
 28 29  1  0  0  0
 28 31  1  0  0  0
 29 30  2  0  0  0
 29 34  1  0  0  0
 31 32  1  0  0  0
 31 33  1  0  0  0
 34 35  1  0  0  0
 34 40  1  0  0  0
 35 36  1  0  0  0
 35 38  1  0  0  0
 36 37  2  0  0  0
 36 41  1  0  0  0
 38 39  1  0  0  0
 39 40  1  0  0  0
 41 42  1  0  0  0
 42 43  1  0  0  0
 42 45  1  0  0  0
 43 44  2  0  0  0
 43 49  1  0  0  0
 45 46  1  0  0  0
 46 47  2  0  0  0
 46 48  1  0  0  0
 49 50  1  0  0  0
 50 51  1  0  0  0
 50 58  1  0  0  0
 51 52  1  0  0  0
 51 53  1  0  0  0
 53 54  1  0  0  0
 54 55  2  0  0  0
 54 56  1  0  0  0
 54 57  1  0  0  0
 58 59  2  0  0  0
 58 60  1  0  0  0
 60 61  1  0  0  0
 60 66  1  0  0  0
 61 62  1  0  0  0
 61 64  1  0  0  0
 62 63  1  0  0  0
 62 67  2  0  0  0
 64 65  1  0  0  0
 65 66  1  0  0  0
  1 68  1  0  0  0
  1 69  1  0  0  0
  1 70  1  0  0  0
  2 71  1  0  0  0
  2 72  1  0  0  0
  5 73  1  0  0  0
  6 74  1  0  0  0
  9 75  1  0  0  0
 10 76  1  0  0  0
 10 77  1  0  0  0
 10 78  1  0  0  0
 11 79  1  0  0  0
 11 80  1  0  0  0
 11 81  1  0  0  0
 12 82  1  0  0  0
 13 83  1  0  0  0
 16 84  1  0  0  0
 16 85  1  0  0  0
 17 86  1  0  0  0
 17 87  1  0  0  0
 19 88  1  0  0  0
 19 89  1  0  0  0
 19 90  1  0  0  0
 20 91  1  0  0  0
 21 92  1  0  0  0
 24 93  1  0  0  0
 25 94  1  0  0  0
 26 95  1  0  0  0
 26 96  1  0  0  0
 26 97  1  0  0  0
 27 98  1  0  0  0
 28 99  1  0  0  0
 31100  1  0  0  0
 32101  1  0  0  0
 32102  1  0  0  0
 32103  1  0  0  0
 33104  1  0  0  0
 33105  1  0  0  0
 33106  1  0  0  0
 35107  1  0  0  0
 38108  1  0  0  0
 38109  1  0  0  0
 39110  1  0  0  0
 39111  1  0  0  0
 40112  1  0  0  0
 40113  1  0  0  0
 41114  1  0  0  0
 42115  1  0  0  0
 45116  1  0  0  0
 45117  1  0  0  0
 48118  1  0  0  0
 48119  1  0  0  0
 49120  1  0  0  0
 50121  1  0  0  0
 51122  1  0  0  0
 52123  1  0  0  0
 52124  1  0  0  0
 52125  1  0  0  0
 56126  1  0  0  0
 57127  1  0  0  0
 61128  1  0  0  0
 63129  1  0  0  0
 64130  1  0  0  0
 64131  1  0  0  0
 65132  1  0  0  0
 65133  1  0  0  0
 66134  1  0  0  0
 66135  1  0  0  0
M  END
$$$$
