2ew5_ligand
  -I-interpret- 

 48 49  0  0  0  0  0  0  0  0999 V2000
  -74.4280  -66.8300   56.4590 C   0  0  0  0  0
  -75.5880  -67.6330   56.6460 C   0  0  0  0  0
  -76.8750  -67.0260   56.7000 C   0  0  0  0  0
  -77.0170  -65.6160   56.5700 C   0  0  0  0  0
  -78.4160  -64.9790   56.6230 C   0  0  0  0  0
  -79.2440  -65.5160   55.4410 C   0  0  0  0  0
  -78.9060  -64.8820   54.1500 N   0  0  0  0  0
  -79.5560  -65.3170   53.0320 C   0  0  0  0  0
  -80.3970  -66.2240   53.1270 O   0  0  0  0  0
  -79.2790  -64.7070   51.6880 C   0  0  0  0  0
  -79.8960  -65.1140   50.5320 C   0  0  0  0  0
  -79.7640  -64.4780   49.1260 C   0  0  0  0  0
  -80.7100  -64.7880   48.0900 C   0  0  0  0  0
  -80.6520  -64.1710   46.7990 C   0  0  0  0  0
  -81.6310  -64.5190   45.8150 O   0  0  0  0  0
  -82.7120  -63.7130   45.5380 C   0  0  0  0  0
  -82.9700  -62.6200   46.0790 O   0  0  0  0  0
  -83.6150  -64.2640   44.4840 C   0  0  0  0  0
  -79.6200  -63.2120   46.5170 C   0  0  0  0  0
  -79.5680  -62.5670   45.2400 O   0  0  0  0  0
  -78.7610  -63.0120   44.2500 C   0  0  0  0  0
  -78.0240  -63.9750   44.3370 O   0  0  0  0  0
  -78.8320  -62.2120   42.9880 C   0  0  0  0  0
  -78.6460  -62.8910   47.5440 C   0  0  0  0  0
  -78.7290  -63.5250   48.8430 C   0  0  0  0  0
  -75.8540  -64.8140   56.3860 C   0  0  0  0  0
  -74.5640  -65.4260   56.3300 C   0  0  0  0  0
  -73.4418  -67.2922   56.4154 H   0  0  0  0  0
  -75.4912  -68.7139   56.7480 H   0  0  0  0  0
  -77.7594  -67.6470   56.8422 H   0  0  0  0  0
  -78.3331  -63.8942   56.5562 H   0  0  0  0  0
  -78.9042  -65.2322   57.5641 H   0  0  0  0  0
  -80.2917  -65.2987   55.6488 H   0  0  0  0  0
  -79.0318  -66.5812   55.3489 H   0  0  0  0  0
  -78.2073  -64.1409   54.0961 H   0  0  0  0  0
  -78.5499  -63.8990   51.6277 H   0  0  0  0  0
  -80.5517  -65.9810   50.6121 H   0  0  0  0  0
  -81.4961  -65.5153   48.2930 H   0  0  0  0  0
  -84.6120  -64.4077   44.9004 H   0  0  0  0  0
  -83.6658  -63.5650   43.6492 H   0  0  0  0  0
  -83.2240  -65.2200   44.1358 H   0  0  0  0  0
  -77.8475  -61.8016   42.7636 H   0  0  0  0  0
  -79.1541  -62.8553   42.1692 H   0  0  0  0  0
  -79.5460  -61.3982   43.1149 H   0  0  0  0  0
  -77.8524  -62.1729   47.3374 H   0  0  0  0  0
  -77.9987  -63.2762   49.6130 H   0  0  0  0  0
  -75.9483  -63.7325   56.2878 H   0  0  0  0  0
  -73.6778  -64.8077   56.1869 H   0  0  0  0  0
  1  2  4  0  0  0
  1 27  4  0  0  0
  2  3  4  0  0  0
  3  4  4  0  0  0
  4  5  1  0  0  0
  4 26  4  0  0  0
  5  6  1  0  0  0
  6  7  1  0  0  0
  7  8  1  0  0  0
  8  9  2  0  0  0
  8 10  1  0  0  0
 10 11  2  0  0  0
 11 12  1  0  0  0
 12 13  4  0  0  0
 12 25  4  0  0  0
 13 14  4  0  0  0
 14 15  1  0  0  0
 14 19  4  0  0  0
 15 16  1  0  0  0
 16 17  2  0  0  0
 16 18  1  0  0  0
 19 20  1  0  0  0
 19 24  4  0  0  0
 20 21  1  0  0  0
 21 22  2  0  0  0
 21 23  1  0  0  0
 24 25  4  0  0  0
 26 27  4  0  0  0
  1 28  1  0  0  0
  2 29  1  0  0  0
  3 30  1  0  0  0
  5 31  1  0  0  0
  5 32  1  0  0  0
  6 33  1  0  0  0
  6 34  1  0  0  0
  7 35  1  0  0  0
 10 36  1  0  0  0
 11 37  1  0  0  0
 13 38  1  0  0  0
 18 39  1  0  0  0
 18 40  1  0  0  0
 18 41  1  0  0  0
 23 42  1  0  0  0
 23 43  1  0  0  0
 23 44  1  0  0  0
 24 45  1  0  0  0
 25 46  1  0  0  0
 26 47  1  0  0  0
 27 48  1  0  0  0
M  END
$$$$
