3wti_ligand
  -I-interpret- 

 25 25  0  0  0  0  0  0  0  0999 V2000
   30.4600  -27.5990  -28.5690 N   0  0  0  0  0
   29.3880  -28.2320  -28.0780 C   0  0  0  0  0
   29.0630  -28.0650  -26.7980 N   0  0  0  0  0
   28.7230  -28.9470  -29.0150 N   0  0  0  0  0
   30.8810  -27.7490  -29.9450 C   0  0  0  0  0
   30.3010  -26.6480  -30.7280 C   0  0  0  0  0
   29.8870  -27.3680  -25.8280 C   0  0  0  0  0
   29.8450  -26.7990  -32.3830 S   0  0  0  0  0
   29.3610  -25.1520  -32.3540 C   0  0  0  0  0
   29.5100  -24.5240  -31.2460 N   0  0  0  0  0
   30.0460  -25.3880  -30.3190 C   0  0  0  0  0
   28.7040  -24.4230  -33.7580 Cl  0  0  0  0  0
   27.6340  -29.6420  -28.6770 N   0  0  0  0  0
   27.0730  -30.2550  -29.6040 O   0  0  0  0  0
   27.2040  -29.7060  -27.5100 O   0  0  0  0  0
   31.2351  -27.9963  -28.0381 H   0  0  0  0  0
   28.8666  -28.7902  -27.3004 H   0  0  0  0  0
   29.0620  -29.0210  -26.4425 H   0  0  0  0  0
   29.0538  -28.9550  -29.9799 H   0  0  0  0  0
   30.5404  -28.7070  -30.3378 H   0  0  0  0  0
   31.9688  -27.7202  -30.0084 H   0  0  0  0  0
   30.8519  -27.8684  -25.7465 H   0  0  0  0  0
   30.0365  -26.3384  -26.1532 H   0  0  0  0  0
   29.3894  -27.3755  -24.8583 H   0  0  0  0  0
   30.2555  -25.0682  -29.2982 H   0  0  0  0  0
  1  2  1  0  0  0
  1  5  1  0  0  0
  2  3  1  0  0  0
  2  4  1  0  0  0
  3  7  1  0  0  0
  4 13  1  0  0  0
  5  6  1  0  0  0
  6  8  4  0  0  0
  6 11  4  0  0  0
  8  9  4  0  0  0
  9 10  4  0  0  0
  9 12  1  0  0  0
 10 11  4  0  0  0
 13 14  2  0  0  0
 13 15  2  0  0  0
  1 16  1  0  0  0
  2 17  1  0  0  0
  3 18  1  0  0  0
  4 19  1  0  0  0
  5 20  1  0  0  0
  5 21  1  0  0  0
  7 22  1  0  0  0
  7 23  1  0  0  0
  7 24  1  0  0  0
 11 25  1  0  0  0
M  END
$$$$
