3wz7_ligand
  -I-interpret- 

 65 69  0  0  0  0  0  0  0  0999 V2000
   48.3990   11.3480    9.5180 C   0  0  0  0  0
   47.6000   10.0910    9.2900 C   0  0  0  0  0
   46.1140    9.8570    9.0780 C   0  0  0  0  0
   45.4230   11.2260    9.1230 C   0  0  0  0  0
   46.1520   12.3500    9.8470 C   0  0  0  0  0
   47.5310   12.5670    9.2580 C   0  0  0  0  0
   48.1020    8.5250    9.1960 S   0  0  0  0  0
   46.9390    7.4300    8.9380 C   0  0  0  0  0
   45.7360    8.3750    8.8790 C   0  0  0  0  0
   44.4740    7.5870    8.6410 C   0  0  0  0  0
   43.5650    7.6810    9.4700 O   0  0  0  0  0
   44.3530    6.8830    7.5140 N   0  0  0  0  0
   43.1640    6.1200    7.1480 C   0  0  0  0  0
   42.0900    7.0880    6.6700 C   0  0  0  0  0
   42.4280    8.3610    6.2320 C   0  0  0  0  0
   41.4300    9.2260    5.7870 C   0  0  0  0  0
   40.0950    8.8340    5.7730 C   0  0  0  0  0
   39.7480    7.5580    6.1930 C   0  0  0  0  0
   40.7480    6.6970    6.6360 C   0  0  0  0  0
   47.0460    6.1020    8.8170 N   0  0  0  0  0
   46.7570    5.2450    9.7850 C   0  0  0  0  0
   46.3470    5.5930   10.8780 O   0  0  0  0  0
   46.9490    3.7840    9.4630 C   0  0  0  0  0
   46.1940    2.9600   10.3910 N   0  3  0  0  0
   44.7570    2.8390   10.2330 C   0  0  0  0  0
   44.2070    1.8550   11.2460 C   0  0  0  0  0
   42.7310    1.6870   11.0180 C   0  0  0  0  0
   41.7410    2.6530   11.1860 C   0  0  0  0  0
   40.5160    2.1360   10.8870 N   0  0  0  0  0
   40.6540    0.8410   10.5220 C   0  0  0  0  0
   42.0940    0.5280   10.5990 C   0  0  0  0  0
   42.5780   -0.7410   10.2860 C   0  0  0  0  0
   41.6570   -1.7100    9.9020 C   0  0  0  0  0
   40.2930   -1.4230    9.8230 C   0  0  0  0  0
   39.7760   -0.1590   10.1230 C   0  0  0  0  0
   49.2503   11.3612    8.8373 H   0  0  0  0  0
   48.7486   11.3693   10.5502 H   0  0  0  0  0
   44.4955   11.0714    9.6744 H   0  0  0  0  0
   45.3377   11.5487    8.0854 H   0  0  0  0  0
   46.2580   12.0796   10.8976 H   0  0  0  0  0
   45.5757   13.2688    9.7384 H   0  0  0  0  0
   47.4431   12.7242    8.1830 H   0  0  0  0  0
   47.9880   13.4407    9.7227 H   0  0  0  0  0
   45.1417    6.8778    6.8672 H   0  0  0  0  0
   42.8017    5.5624    8.0117 H   0  0  0  0  0
   43.4070    5.4149    6.3531 H   0  0  0  0  0
   43.4694    8.6827    6.2361 H   0  0  0  0  0
   41.6994   10.2251    5.4446 H   0  0  0  0  0
   39.3249    9.5266    5.4334 H   0  0  0  0  0
   38.7073    7.2344    6.1763 H   0  0  0  0  0
   40.4783    5.6933    6.9645 H   0  0  0  0  0
   47.3697    5.7266    7.9255 H   0  0  0  0  0
   48.0073    3.5370    9.5475 H   0  0  0  0  0
   46.5960    3.5935    8.4495 H   0  0  0  0  0
   46.3176    3.4113   11.2974 H   0  0  0  0  0
   46.5506    2.0152   10.2473 H   0  0  0  0  0
   44.5350    2.4813    9.2276 H   0  0  0  0  0
   44.2949    3.8134   10.3912 H   0  0  0  0  0
   44.3817    2.2308   12.2542 H   0  0  0  0  0
   44.7073    0.8933   11.1318 H   0  0  0  0  0
   41.9210    3.6778   11.5108 H   0  0  0  0  0
   43.6430   -0.9666   10.3403 H   0  0  0  0  0
   42.0070   -2.7130    9.6580 H   0  0  0  0  0
   39.6067   -2.2124    9.5165 H   0  0  0  0  0
   38.7067    0.0376   10.0455 H   0  0  0  0  0
  1  2  1  0  0  0
  1  6  1  0  0  0
  2  3  4  0  0  0
  2  7  4  0  0  0
  3  4  1  0  0  0
  3  9  4  0  0  0
  4  5  1  0  0  0
  5  6  1  0  0  0
  7  8  4  0  0  0
  8  9  4  0  0  0
  8 20  1  0  0  0
  9 10  1  0  0  0
 10 11  2  0  0  0
 10 12  1  0  0  0
 12 13  1  0  0  0
 13 14  1  0  0  0
 14 15  4  0  0  0
 14 19  4  0  0  0
 15 16  4  0  0  0
 16 17  4  0  0  0
 17 18  4  0  0  0
 18 19  4  0  0  0
 20 21  1  0  0  0
 21 22  2  0  0  0
 21 23  1  0  0  0
 23 24  1  0  0  0
 24 25  1  0  0  0
 25 26  1  0  0  0
 26 27  1  0  0  0
 27 28  4  0  0  0
 27 31  4  0  0  0
 28 29  4  0  0  0
 29 30  4  0  0  0
 30 31  4  0  0  0
 30 35  4  0  0  0
 31 32  4  0  0  0
 32 33  4  0  0  0
 33 34  4  0  0  0
 34 35  4  0  0  0
  1 36  1  0  0  0
  1 37  1  0  0  0
  4 38  1  0  0  0
  4 39  1  0  0  0
  5 40  1  0  0  0
  5 41  1  0  0  0
  6 42  1  0  0  0
  6 43  1  0  0  0
 12 44  1  0  0  0
 13 45  1  0  0  0
 13 46  1  0  0  0
 15 47  1  0  0  0
 16 48  1  0  0  0
 17 49  1  0  0  0
 18 50  1  0  0  0
 19 51  1  0  0  0
 20 52  1  0  0  0
 23 53  1  0  0  0
 23 54  1  0  0  0
 24 55  1  0  0  0
 24 56  1  0  0  0
 25 57  1  0  0  0
 25 58  1  0  0  0
 26 59  1  0  0  0
 26 60  1  0  0  0
 28 61  1  0  0  0
 32 62  1  0  0  0
 33 63  1  0  0  0
 34 64  1  0  0  0
 35 65  1  0  0  0
M  END
$$$$
