5a3h_ligand
  -I-interpret- 

 43 44  0  0  0  0  0  0  0  0999 V2000
   62.5070   41.6540   35.0240 C   0  0  0  0  0
   61.0930   42.0430   34.7490 C   0  0  0  0  0
   61.0240   43.5370   34.5370 C   0  0  0  0  0
   61.6800   44.2340   35.7610 C   0  0  0  0  0
   63.1290   43.7630   35.8750 C   0  0  0  0  0
   63.7780   44.3540   37.1730 C   0  0  0  0  0
   60.7000   41.3620   33.5910 F   0  0  0  0  0
   59.6600   43.9120   34.4010 O   0  0  0  0  0
   61.6790   45.6440   35.4850 O   0  0  0  0  0
   63.1550   42.3410   36.0810 O   0  0  0  0  0
   63.0180   43.8560   38.2780 O   0  0  0  0  0
   61.2130   46.3670   36.6410 C   0  0  0  0  0
   61.4640   47.8370   36.2900 C   0  0  0  0  0
   60.9080   48.6850   37.4480 C   0  0  0  0  0
   59.4010   48.4100   37.5040 C   0  0  0  0  0
   59.2350   46.9030   37.8520 C   0  0  0  0  0
   57.7780   46.4790   37.9720 C   0  0  0  0  0
   62.8610   47.9710   36.2240 O   0  0  0  0  0
   61.1050   50.0790   37.0540 O   0  0  0  0  0
   58.9620   49.1990   38.6320 O   0  0  0  0  0
   59.8420   46.1910   36.7650 O   0  0  0  0  0
   57.1650   46.8180   36.7380 O   0  0  0  0  0
   63.0677   41.8913   34.1199 H   0  0  0  0  0
   62.4809   40.6042   35.3162 H   0  0  0  0  0
   60.4347   41.7868   35.5791 H   0  0  0  0  0
   61.5572   43.8368   33.6348 H   0  0  0  0  0
   61.1449   44.0054   36.6827 H   0  0  0  0  0
   63.6505   44.0703   34.9685 H   0  0  0  0  0
   63.7636   45.4437   37.1522 H   0  0  0  0  0
   64.8229   44.0548   37.2548 H   0  0  0  0  0
   59.2816   43.4675   33.6389 H   0  0  0  0  0
   63.3852   44.1967   39.0970 H   0  0  0  0  0
   61.7016   46.0441   37.5603 H   0  0  0  0  0
   60.9954   48.1498   35.3569 H   0  0  0  0  0
   61.3814   48.4681   38.4056 H   0  0  0  0  0
   58.8586   48.6405   36.5871 H   0  0  0  0  0
   59.6927   46.6954   38.8192 H   0  0  0  0  0
   57.2891   46.9832   38.8056 H   0  0  0  0  0
   57.6945   45.4108   38.1723 H   0  0  0  0  0
   63.0843   48.8788   36.0056 H   0  0  0  0  0
   60.7731   50.6559   37.7459 H   0  0  0  0  0
   58.0154   49.0898   38.7484 H   0  0  0  0  0
   56.2382   46.5689   36.7633 H   0  0  0  0  0
  1  2  1  0  0  0
  1 10  1  0  0  0
  2  3  1  0  0  0
  2  7  1  0  0  0
  3  4  1  0  0  0
  3  8  1  0  0  0
  4  5  1  0  0  0
  4  9  1  0  0  0
  5  6  1  0  0  0
  5 10  1  0  0  0
  6 11  1  0  0  0
  9 12  1  0  0  0
 12 13  1  0  0  0
 12 21  1  0  0  0
 13 14  1  0  0  0
 13 18  1  0  0  0
 14 15  1  0  0  0
 14 19  1  0  0  0
 15 16  1  0  0  0
 15 20  1  0  0  0
 16 17  1  0  0  0
 16 21  1  0  0  0
 17 22  1  0  0  0
  1 23  1  0  0  0
  1 24  1  0  0  0
  2 25  1  0  0  0
  3 26  1  0  0  0
  4 27  1  0  0  0
  5 28  1  0  0  0
  6 29  1  0  0  0
  6 30  1  0  0  0
  8 31  1  0  0  0
 11 32  1  0  0  0
 12 33  1  0  0  0
 13 34  1  0  0  0
 14 35  1  0  0  0
 15 36  1  0  0  0
 16 37  1  0  0  0
 17 38  1  0  0  0
 17 39  1  0  0  0
 18 40  1  0  0  0
 19 41  1  0  0  0
 20 42  1  0  0  0
 22 43  1  0  0  0
M  END
$$$$
