3v7s_ligand
  -I-interpret- 

 66 70  0  0  0  0  0  0  0  0999 V2000
   50.9900   24.1150   23.6860 C   0  0  0  0  0
   49.3040   13.6750   25.5380 O   0  0  0  0  0
   55.3370   23.5110   17.8250 O   0  0  0  0  0
   51.6770   25.6000   21.7940 C   0  0  0  0  0
   52.3770   25.8960   20.6160 C   0  0  0  0  0
   52.6490   23.3660   21.7740 C   0  0  0  0  0
   51.0050   18.7090   16.7960 C   0  0  0  0  0
   48.8570   16.1200   19.6070 C   0  0  0  0  0
   48.6830   17.0190   18.3590 C   0  0  0  0  0
   47.5860   16.0780   20.4540 C   0  0  0  0  0
   54.0930   20.5810   17.6640 C   0  0  0  0  0
   53.7180   20.7030   19.1470 C   0  0  0  0  0
   49.5600   16.6450   17.1410 C   0  0  0  0  0
   47.8610   16.6070   21.8570 C   0  0  0  0  0
   52.8840   20.2980   16.7440 C   0  0  0  0  0
   54.6760   21.6220   19.9040 C   0  0  0  0  0
   45.5370   15.9070   25.0820 C   0  0  0  0  0
   52.0670   17.0220   17.5740 N   0  0  0  0  0
   52.8560   17.9660   17.4560 N   0  0  0  0  0
   47.0620   14.0230   25.5220 N   0  0  0  0  0
   48.2920   14.4690   23.6890 N   0  0  0  0  0
   53.9720   25.0200   18.8690 O   0  0  0  0  0
   46.6520   17.1170   24.3010 S   0  0  0  0  0
   48.2790   14.0290   24.9530 C   0  0  0  0  0
   51.8070   24.3420   22.3880 C   0  0  0  0  0
   50.8660   17.4440   17.1670 C   0  0  0  0  0
   54.5730   23.8070   18.7450 C   0  0  0  0  0
   53.2060   24.9440   20.0020 C   0  0  0  0  0
   53.3490   23.6640   20.5680 C   0  0  0  0  0
   46.7110   16.2040   22.7560 C   0  0  0  0  0
   52.2810   18.9720   17.0100 N   0  0  0  0  0
   54.2020   23.0080   19.7510 N   0  0  0  0  0
   46.0630   14.5370   24.5760 C   0  0  0  0  0
   46.9010   14.7640   23.2870 C   0  0  0  0  0
   51.2989   24.8394   24.4396 H   0  0  0  0  0
   49.9286   24.2411   23.4724 H   0  0  0  0  0
   51.1701   23.1054   24.0553 H   0  0  0  0  0
   51.0308   26.3519   22.2469 H   0  0  0  0  0
   52.2756   26.8846   20.1681 H   0  0  0  0  0
   52.7578   22.3829   22.2319 H   0  0  0  0  0
   50.2402   19.3793   16.4037 H   0  0  0  0  0
   49.6626   16.5299   20.2162 H   0  0  0  0  0
   49.0806   15.1070   19.2724 H   0  0  0  0  0
   48.9791   18.0247   18.6574 H   0  0  0  0  0
   47.6464   16.9099   18.0401 H   0  0  0  0  0
   47.2425   15.0460   20.5259 H   0  0  0  0  0
   46.8262   16.7018   19.9832 H   0  0  0  0  0
   54.7814   19.7414   17.5681 H   0  0  0  0  0
   54.5237   21.5336   17.3555 H   0  0  0  0  0
   53.7707   19.7109   19.5953 H   0  0  0  0  0
   52.7157   21.1263   19.2121 H   0  0  0  0  0
   49.0171   16.8771   16.2248 H   0  0  0  0  0
   49.7913   15.5805   17.1804 H   0  0  0  0  0
   47.9526   17.6929   21.8340 H   0  0  0  0  0
   48.7938   16.1894   22.2360 H   0  0  0  0  0
   53.2317   20.3127   15.7110 H   0  0  0  0  0
   52.1275   21.0598   16.9323 H   0  0  0  0  0
   55.6845   21.5245   19.5022 H   0  0  0  0  0
   54.7016   21.3492   20.9590 H   0  0  0  0  0
   44.4929   16.0739   24.8170 H   0  0  0  0  0
   45.5444   15.9780   26.1697 H   0  0  0  0  0
   46.8614   13.7079   26.4711 H   0  0  0  0  0
   49.1198   14.5814   23.1038 H   0  0  0  0  0
   45.8355   16.3653   22.1271 H   0  0  0  0  0
   45.2065   13.8769   24.4392 H   0  0  0  0  0
   46.5959   14.1244   22.4588 H   0  0  0  0  0
 25  1  1  0  0  0
 24  2  2  0  0  0
 27  3  2  0  0  0
  5  4  4  0  0  0
  4 25  4  0  0  0
 28  5  4  0  0  0
 25  6  4  0  0  0
  6 29  4  0  0  0
  7 26  4  0  0  0
 31  7  4  0  0  0
  9  8  1  0  0  0
  8 10  1  0  0  0
 13  9  1  0  0  0
 10 14  1  0  0  0
 12 11  1  0  0  0
 11 15  1  0  0  0
 16 12  1  0  0  0
 26 13  1  0  0  0
 14 30  1  0  0  0
 15 31  1  0  0  0
 32 16  1  0  0  0
 23 17  1  0  0  0
 17 33  1  0  0  0
 19 18  4  0  0  0
 18 26  4  0  0  0
 31 19  4  0  0  0
 20 24  1  0  0  0
 33 20  1  0  0  0
 24 21  1  0  0  0
 21 34  1  0  0  0
 27 22  1  0  0  0
 22 28  1  0  0  0
 30 23  1  0  0  0
 27 32  1  0  0  0
 28 29  4  0  0  0
 29 32  1  0  0  0
 30 34  1  0  0  0
 33 34  1  0  0  0
  1 35  1  0  0  0
  1 36  1  0  0  0
  1 37  1  0  0  0
  4 38  1  0  0  0
  5 39  1  0  0  0
  6 40  1  0  0  0
  7 41  1  0  0  0
  8 42  1  0  0  0
  8 43  1  0  0  0
  9 44  1  0  0  0
  9 45  1  0  0  0
 10 46  1  0  0  0
 10 47  1  0  0  0
 11 48  1  0  0  0
 11 49  1  0  0  0
 12 50  1  0  0  0
 12 51  1  0  0  0
 13 52  1  0  0  0
 13 53  1  0  0  0
 14 54  1  0  0  0
 14 55  1  0  0  0
 15 56  1  0  0  0
 15 57  1  0  0  0
 16 58  1  0  0  0
 16 59  1  0  0  0
 17 60  1  0  0  0
 17 61  1  0  0  0
 20 62  1  0  0  0
 21 63  1  0  0  0
 30 64  1  0  0  0
 33 65  1  0  0  0
 34 66  1  0  0  0
M  END
$$$$
