5qj2_ligand
  -I-interpret- 

 38 41  0  0  0  0  0  0  0  0999 V2000
  -21.6350   15.7380   34.4190 C   0  0  0  0  0
  -20.6340   12.3550   35.8900 C   0  0  0  0  0
  -19.0450   17.1830   33.7280 C   0  0  0  0  0
  -18.0070   11.0430   36.0570 C   0  0  0  0  0
  -20.6550   15.2220   36.7720 C   0  0  0  0  0
  -23.9900   16.5360   28.7740 C   0  0  0  0  0
  -19.4790   13.0270   36.4820 C   0  0  0  0  0
  -20.1630   17.0880   32.7290 C   0  0  0  0  0
  -19.1980   16.5280   35.0550 C   0  0  0  0  0
  -23.9040   15.8390   32.3190 C   0  0  0  0  0
  -22.5780   16.2750   32.0740 C   0  0  0  0  0
  -24.5770   15.8920   31.1230 C   0  0  0  0  0
  -21.4650   16.3700   33.0940 C   0  0  0  0  0
  -20.4900   15.8310   35.4280 C   0  0  0  0  0
  -18.1430   12.3060   36.5700 C   0  0  0  0  0
  -20.5050   11.0110   35.3800 C   0  0  0  0  0
  -16.9160   12.6950   37.0670 N   0  0  0  0  0
  -22.4560   16.5700   30.7620 N   0  0  0  0  0
  -19.2100   10.3360   35.4550 N   0  0  0  0  0
  -16.0380   11.6450   36.8930 N   0  0  0  0  0
  -16.7110   10.6130   36.2830 N   0  0  0  0  0
  -23.6980   16.3350   30.1510 N   0  0  0  0  0
  -21.6120   10.3590   34.7900 N   0  0  0  0  0
  -19.5480   14.3340   37.0230 O   0  0  0  0  0
  -22.5579   15.2161   34.6718 H   0  0  0  0  0
  -21.5934   12.8692   35.8336 H   0  0  0  0  0
  -18.1320   17.7257   33.4833 H   0  0  0  0  0
  -21.5904   14.6638   36.8106 H   0  0  0  0  0
  -20.6780   16.0047   37.5302 H   0  0  0  0  0
  -24.3155   15.5944   28.3317 H   0  0  0  0  0
  -24.7826   17.2779   28.6765 H   0  0  0  0  0
  -23.0950   16.8893   28.2619 H   0  0  0  0  0
  -20.0467   17.5320   31.7404 H   0  0  0  0  0
  -18.3721   16.5499   35.7659 H   0  0  0  0  0
  -24.3134   15.5209   33.2778 H   0  0  0  0  0
  -25.6235   15.6301   30.9666 H   0  0  0  0  0
  -22.5097   10.8385   34.7225 H   0  0  0  0  0
  -21.5130    9.4091   34.4319 H   0  0  0  0  0
 13  1  4  0  0  0
  1 14  4  0  0  0
  7  2  4  0  0  0
  2 16  4  0  0  0
  8  3  4  0  0  0
  3  9  4  0  0  0
 15  4  4  0  0  0
  4 19  4  0  0  0
  4 21  4  0  0  0
 14  5  1  0  0  0
  5 24  1  0  0  0
 22  6  1  0  0  0
  7 15  4  0  0  0
 24  7  1  0  0  0
 13  8  4  0  0  0
 14  9  4  0  0  0
 10 11  4  0  0  0
 12 10  4  0  0  0
 11 13  1  0  0  0
 11 18  4  0  0  0
 12 22  4  0  0  0
 15 17  4  0  0  0
 16 19  4  0  0  0
 16 23  1  0  0  0
 17 20  4  0  0  0
 18 22  4  0  0  0
 20 21  4  0  0  0
  1 25  1  0  0  0
  2 26  1  0  0  0
  3 27  1  0  0  0
  5 28  1  0  0  0
  5 29  1  0  0  0
  6 30  1  0  0  0
  6 31  1  0  0  0
  6 32  1  0  0  0
  8 33  1  0  0  0
  9 34  1  0  0  0
 10 35  1  0  0  0
 12 36  1  0  0  0
 23 37  1  0  0  0
 23 38  1  0  0  0
M  END
$$$$
