1o0n_ligand
  -I-interpret- 

 34 35  0  0  0  0  0  0  0  0999 V2000
   36.4670   -2.1580   11.9650 N   0  0  0  0  0
   35.3090   -2.2720   11.2030 C   0  0  0  0  0
   34.6430   -3.4670   11.3380 N   0  0  0  0  0
   35.0020   -4.5360   12.1370 C   0  0  0  0  0
   36.2080   -4.3460   12.8810 C   0  0  0  0  0
   36.8850   -3.1960   12.7710 C   0  0  0  0  0
   34.8970   -1.3810   10.4690 O   0  0  0  0  0
   34.2850   -5.5360   12.1690 O   0  0  0  0  0
   38.4720    3.3630   13.0140 P   0  0  0  0  0
   37.4380    3.5170   14.1220 O   0  0  0  0  0
   38.3210    4.3830   11.8990 O   0  0  0  0  0
   39.8960    3.2260   13.5350 O   0  0  0  0  0
   39.5890   -1.7090   14.3630 O   0  0  0  0  0
   40.3340   -0.9420   13.3980 C   0  0  0  0  0
   39.3940   -0.2170   12.4600 C   0  0  0  0  0
   38.5950   -1.1950   11.7380 O   0  0  0  0  0
   38.4090    0.7440   13.1230 C   0  0  0  0  0
   38.2390    1.9200   12.3410 O   0  0  0  0  0
   37.1140   -0.0620   13.1650 C   0  0  0  0  0
   35.9550    0.7430   13.1160 O   0  0  0  0  0
   37.2220   -0.8950   11.8900 C   0  0  0  0  0
   33.7908   -3.5767   10.7884 H   0  0  0  0  0
   36.5756   -5.1356   13.5364 H   0  0  0  0  0
   37.8052   -3.0752   13.3426 H   0  0  0  0  0
   37.5869    2.8463   14.7925 H   0  0  0  0  0
   39.9179    2.5683   14.2340 H   0  0  0  0  0
   40.1990   -2.1622   14.9497 H   0  0  0  0  0
   40.9632   -1.6170   12.8178 H   0  0  0  0  0
   40.9458   -0.2089   13.9236 H   0  0  0  0  0
   40.0478    0.3792   11.8235 H   0  0  0  0  0
   38.7408    1.0832   14.1043 H   0  0  0  0  0
   37.0125   -0.6312   14.0890 H   0  0  0  0  0
   35.1761    0.1826   13.1455 H   0  0  0  0  0
   36.8054   -0.3327   11.0544 H   0  0  0  0  0
  1  2  1  0  0  0
  1  6  1  0  0  0
 21  1  1  0  0  0
  2  3  1  0  0  0
  2  7  2  0  0  0
  3  4  1  0  0  0
  5  4  1  0  0  0
  4  8  2  0  0  0
  6  5  2  0  0  0
  9 10  1  0  0  0
  9 11  2  0  0  0
  9 12  1  0  0  0
 18  9  1  0  0  0
 14 13  1  0  0  0
 15 14  1  0  0  0
 15 16  1  0  0  0
 17 15  1  0  0  0
 16 21  1  0  0  0
 17 18  1  0  0  0
 17 19  1  0  0  0
 19 20  1  0  0  0
 19 21  1  0  0  0
  3 22  1  0  0  0
  5 23  1  0  0  0
  6 24  1  0  0  0
 10 25  1  0  0  0
 12 26  1  0  0  0
 13 27  1  0  0  0
 14 28  1  0  0  0
 14 29  1  0  0  0
 15 30  1  0  0  0
 17 31  1  0  0  0
 19 32  1  0  0  0
 20 33  1  0  0  0
 21 34  1  0  0  0
M  END
$$$$
