1pf7_ligand
  -I-interpret- 

 33 35  0  0  0  0  0  0  0  0999 V2000
   50.7250   49.1780   30.2700 O   0  0  0  0  0
   49.9610   48.4690   31.2770 C   0  0  0  0  0
   50.4620   47.0280   31.5790 C   0  0  0  0  0
   50.5330   46.4580   30.2090 N   0  3  0  0  0
   51.9050   46.8660   32.1680 C   0  0  0  0  0
   51.9490   46.0500   33.4030 O   0  0  0  0  0
   52.8020   46.2210   31.0060 C   0  0  0  0  0
   53.4170   44.9330   31.3720 O   0  0  0  0  0
   51.8770   46.0030   29.8050 C   0  0  0  0  0
   52.2990   46.8140   28.4380 C   0  0  0  0  0
   51.4230   47.4420   27.6030 C   0  0  0  0  0
   52.1450   48.0550   26.5000 N   0  0  0  0  0
   53.5140   47.7290   26.7660 C   0  0  0  0  0
   54.6950   48.1150   25.9440 C   0  0  0  0  0
   54.7180   48.7860   24.8860 O   0  0  0  0  0
   55.8760   47.6050   26.5400 N   0  0  0  0  0
   55.9600   46.8450   27.7290 C   0  0  0  0  0
   54.8430   46.5420   28.4090 N   0  0  0  0  0
   53.6470   46.9970   27.9030 C   0  0  0  0  0
   50.3521   50.0537   30.1447 H   0  0  0  0  0
   48.9435   48.3777   30.8969 H   0  0  0  0  0
   50.0528   49.0370   32.2028 H   0  0  0  0  0
   49.8075   46.5831   32.3286 H   0  0  0  0  0
   50.2618   47.1991   29.5628 H   0  0  0  0  0
   49.9237   45.6401   30.1939 H   0  0  0  0  0
   52.2854   47.8406   32.4738 H   0  0  0  0  0
   51.4035   46.4620   34.0770 H   0  0  0  0  0
   53.6279   46.9009   30.7969 H   0  0  0  0  0
   53.9991   45.0601   32.1247 H   0  0  0  0  0
   51.9335   44.9446   29.5507 H   0  0  0  0  0
   50.3425   47.4790   27.7417 H   0  0  0  0  0
   56.7543   47.8070   26.0623 H   0  0  0  0  0
   56.9298   46.5057   28.0929 H   0  0  0  0  0
  1  2  1  0  0  0
  2  3  1  0  0  0
  3  4  1  0  0  0
  3  5  1  0  0  0
  4  9  1  0  0  0
  5  6  1  0  0  0
  5  7  1  0  0  0
  7  8  1  0  0  0
  7  9  1  0  0  0
  9 10  1  0  0  0
 10 11  4  0  0  0
 10 19  4  0  0  0
 11 12  4  0  0  0
 12 13  4  0  0  0
 13 14  1  0  0  0
 13 19  4  0  0  0
 14 15  2  0  0  0
 14 16  1  0  0  0
 16 17  1  0  0  0
 17 18  2  0  0  0
 18 19  1  0  0  0
  1 20  1  0  0  0
  2 21  1  0  0  0
  2 22  1  0  0  0
  3 23  1  0  0  0
  4 24  1  0  0  0
  4 25  1  0  0  0
  5 26  1  0  0  0
  6 27  1  0  0  0
  7 28  1  0  0  0
  8 29  1  0  0  0
  9 30  1  0  0  0
 11 31  1  0  0  0
 16 32  1  0  0  0
 17 33  1  0  0  0
M  END
$$$$
