4utx_ligand
  -I-interpret- 

139140  0  0  0  0  0  0  0  0999 V2000
  -32.9580  -26.0870   12.4620 C   0  0  0  0  0
  -32.6130  -27.2470   12.2790 O   0  0  0  0  0
  -33.8540  -25.7830   13.5000 C   0  0  0  0  0
  -34.9930  -24.9740   13.2880 C   0  0  0  0  0
  -35.8970  -24.7100   14.3080 C   0  0  0  0  0
  -35.6470  -25.2840   15.5470 C   0  0  0  0  0
  -34.5320  -26.1050   15.7640 C   0  0  0  0  0
  -33.6310  -26.3560   14.7430 C   0  0  0  0  0
  -32.5830  -25.1030   11.6290 N   0  0  0  0  0
  -31.6720  -25.3540   10.4720 C   0  0  0  0  0
  -31.9680  -24.2080    9.5530 C   0  0  0  0  0
  -33.0620  -23.6040    9.5560 O   0  0  0  0  0
  -30.9660  -23.8850    8.7650 N   0  0  0  0  0
  -31.0400  -22.7460    7.8820 C   0  0  0  0  0
  -31.8930  -23.0830    6.6360 C   0  0  0  0  0
  -31.5280  -23.9360    5.8190 O   0  0  0  0  0
  -29.6230  -22.3340    7.4510 C   0  0  0  0  0
  -29.6820  -21.1350    6.5160 C   0  0  0  0  0
  -28.7380  -22.0720    8.6670 C   0  0  0  0  0
  -33.0420  -22.4270    6.4950 N   0  0  0  0  0
  -33.7710  -22.4840    5.2280 C   0  0  0  0  0
  -32.8440  -21.9350    4.1380 C   0  0  0  0  0
  -32.0750  -21.0180    4.3880 O   0  0  0  0  0
  -35.0710  -21.6610    5.2720 C   0  0  0  0  0
  -36.2890  -22.2070    6.0400 C   0  0  0  0  0
  -37.5630  -21.5620    5.5060 C   0  0  0  0  0
  -36.4040  -23.7210    5.9480 C   0  0  0  0  0
  -32.9020  -22.5150    2.9410 N   0  0  0  0  0
  -32.0030  -22.1440    1.8680 C   0  0  0  0  0
  -32.5890  -20.8920    1.2170 C   0  0  0  0  0
  -33.8030  -20.7340    1.1090 O   0  0  0  0  0
  -31.6890  -23.3240    0.9750 C   0  0  0  0  0
  -32.5320  -23.3250   -0.2620 C   0  0  0  0  0
  -31.6880  -24.1610   -1.2420 C   0  0  0  0  0
  -32.4020  -23.9250   -2.5360 C   0  0  0  0  0
  -31.8070  -24.8530   -3.4940 N   0  3  0  0  0
  -31.6960  -19.9850    0.8440 N   0  0  0  0  0
  -32.0360  -18.5900    0.4870 C   0  0  0  0  0
  -32.8630  -17.8070    1.5460 C   0  0  0  0  0
  -33.4180  -16.7240    1.2820 O   0  0  0  0  0
  -32.5970  -18.5380   -0.9390 C   0  0  0  0  0
  -31.4420  -18.7040   -1.9190 C   0  0  0  0  0
  -31.8590  -18.9900   -3.3360 C   0  0  0  0  0
  -32.9290  -18.4730   -3.7310 O   0  0  0  0  0
  -31.1020  -19.7160   -4.0510 O   0  0  0  0  0
  -32.8310  -18.3450    2.7640 N   0  0  0  0  0
  -33.5020  -17.8040    3.9190 C   0  0  0  0  0
  -35.0070  -17.9680    3.8180 C   0  0  0  0  0
  -35.7550  -17.1200    4.3290 O   0  0  0  0  0
  -33.1060  -16.3400    4.1220 C   0  0  0  0  0
  -31.5970  -16.1140    4.3000 C   0  0  0  0  0
  -30.8890  -16.7840    5.2940 C   0  0  0  0  0
  -30.8990  -15.2030    3.5130 C   0  0  0  0  0
  -29.5340  -16.5720    5.4760 C   0  0  0  0  0
  -29.5550  -14.9780    3.6980 C   0  0  0  0  0
  -28.8710  -15.6720    4.6740 C   0  0  0  0  0
  -27.5140  -15.4890    4.8810 O   0  0  0  0  0
  -35.4530  -19.0580    3.1800 N   0  0  0  0  0
  -36.8810  -19.2720    2.8920 C   0  0  0  0  0
  -37.4270  -18.4110    1.7520 C   0  0  0  0  0
  -38.3880  -18.7940    1.1150 O   0  0  0  0  0
  -36.7720  -17.2920    1.4530 N   0  0  0  0  0
  -37.3680  -16.1400    0.7200 C   0  0  0  0  0
  -38.1780  -16.5440   -0.4970 C   0  0  0  0  0
  -37.5850  -16.9110   -1.5010 O   0  0  0  0  0
  -36.2570  -15.0910    0.3140 C   0  0  0  0  0
  -36.5270  -14.4080   -1.0350 C   0  0  0  0  0
  -36.0530  -14.0660    1.4390 C   0  0  0  0  0
  -39.4371  -16.5022   -0.4736 O   0  0  0  0  0
  -35.1659  -24.5471   12.3001 H   0  0  0  0  0
  -36.7688  -24.0769   14.1425 H   0  0  0  0  0
  -36.3343  -25.0916   16.3708 H   0  0  0  0  0
  -34.3726  -26.5502   16.7461 H   0  0  0  0  0
  -32.7625  -26.9922   14.9131 H   0  0  0  0  0
  -32.9299  -24.1575   11.7907 H   0  0  0  0  0
  -31.8412  -26.3241   10.0046 H   0  0  0  0  0
  -30.6228  -25.4007   10.7636 H   0  0  0  0  0
  -30.1181  -24.4518    8.7782 H   0  0  0  0  0
  -31.5119  -21.9188    8.4123 H   0  0  0  0  0
  -29.1694  -23.1579    6.9001 H   0  0  0  0  0
  -30.2622  -21.3946    5.6305 H   0  0  0  0  0
  -30.1554  -20.2982    7.0297 H   0  0  0  0  0
  -28.6706  -20.8563    6.2204 H   0  0  0  0  0
  -29.1708  -21.2689    9.2635 H   0  0  0  0  0
  -28.6721  -22.9784    9.2689 H   0  0  0  0  0
  -27.7414  -21.7823    8.3338 H   0  0  0  0  0
  -33.4156  -21.8828    7.2726 H   0  0  0  0  0
  -34.0574  -23.5159    5.0248 H   0  0  0  0  0
  -35.3997  -21.6077    4.2341 H   0  0  0  0  0
  -34.8007  -20.7450    5.7974 H   0  0  0  0  0
  -36.1499  -21.9554    7.0914 H   0  0  0  0  0
  -37.5051  -20.4817    5.6392 H   0  0  0  0  0
  -37.6693  -21.7936    4.4462 H   0  0  0  0  0
  -38.4222  -21.9512    6.0522 H   0  0  0  0  0
  -36.5064  -24.0135    4.9030 H   0  0  0  0  0
  -35.5084  -24.1783    6.3685 H   0  0  0  0  0
  -37.2793  -24.0522    6.5068 H   0  0  0  0  0
  -33.5991  -23.2409    2.7751 H   0  0  0  0  0
  -31.0053  -21.8725    2.2129 H   0  0  0  0  0
  -31.8952  -24.2387    1.5308 H   0  0  0  0  0
  -30.6427  -23.2588    0.6765 H   0  0  0  0  0
  -32.7471  -22.3226   -0.6322 H   0  0  0  0  0
  -33.5281  -23.7364   -0.0988 H   0  0  0  0  0
  -31.6212  -25.2140   -0.9686 H   0  0  0  0  0
  -30.6374  -23.8715   -1.2666 H   0  0  0  0  0
  -32.2941  -22.8916   -2.8656 H   0  0  0  0  0
  -33.4740  -24.0939   -2.4338 H   0  0  0  0  0
  -32.2571  -24.7374   -4.4020 H   0  0  0  0  0
  -30.8096  -24.6577   -3.5802 H   0  0  0  0  0
  -31.9403  -25.8098   -3.1665 H   0  0  0  0  0
  -30.7164  -20.2660    0.8007 H   0  0  0  0  0
  -31.1043  -18.0244    0.4979 H   0  0  0  0  0
  -33.0947  -17.5832   -1.1086 H   0  0  0  0  0
  -33.3243  -19.3371   -1.0822 H   0  0  0  0  0
  -30.8580  -19.5598   -1.5804 H   0  0  0  0  0
  -30.8977  -17.7597   -1.9320 H   0  0  0  0  0
  -30.3445  -19.9952   -3.5316 H   0  0  0  0  0
  -32.2924  -19.2022    2.8883 H   0  0  0  0  0
  -33.1831  -18.3681    4.7955 H   0  0  0  0  0
  -33.5920  -15.9994    5.0363 H   0  0  0  0  0
  -33.4086  -15.7980    3.2260 H   0  0  0  0  0
  -31.4119  -17.4886    5.9408 H   0  0  0  0  0
  -31.4289  -14.6560    2.7332 H   0  0  0  0  0
  -28.9941  -17.1156    6.2513 H   0  0  0  0  0
  -29.0316  -14.2529    3.0748 H   0  0  0  0  0
  -27.1811  -14.8391    4.2577 H   0  0  0  0  0
  -34.7798  -19.7645    2.8833 H   0  0  0  0  0
  -37.4342  -19.0026    3.7917 H   0  0  0  0  0
  -36.9958  -20.3135    2.5916 H   0  0  0  0  0
  -35.7975  -17.2180    1.7449 H   0  0  0  0  0
  -38.0669  -15.6778    1.4171 H   0  0  0  0  0
  -35.3306  -15.6485    0.1759 H   0  0  0  0  0
  -36.5688  -15.1623   -1.8208 H   0  0  0  0  0
  -37.4779  -13.8772   -0.9882 H   0  0  0  0  0
  -35.7253  -13.7015   -1.2500 H   0  0  0  0  0
  -36.9894  -13.5393    1.6231 H   0  0  0  0  0
  -35.7404  -14.5821    2.3467 H   0  0  0  0  0
  -35.2849  -13.3515    1.1429 H   0  0  0  0  0
  -39.7300  -16.1934    0.3869 H   0  0  0  0  0
  1  2  2  0  0  0
  1  3  1  0  0  0
  1  9  1  0  0  0
  3  4  4  0  0  0
  3  8  4  0  0  0
  4  5  4  0  0  0
  5  6  4  0  0  0
  6  7  4  0  0  0
  7  8  4  0  0  0
  9 10  1  0  0  0
 10 11  1  0  0  0
 11 12  2  0  0  0
 11 13  1  0  0  0
 13 14  1  0  0  0
 14 15  1  0  0  0
 14 17  1  0  0  0
 15 16  2  0  0  0
 15 20  1  0  0  0
 17 18  1  0  0  0
 17 19  1  0  0  0
 20 21  1  0  0  0
 21 22  1  0  0  0
 21 24  1  0  0  0
 22 23  2  0  0  0
 22 28  1  0  0  0
 24 25  1  0  0  0
 25 26  1  0  0  0
 25 27  1  0  0  0
 28 29  1  0  0  0
 29 30  1  0  0  0
 29 32  1  0  0  0
 30 31  2  0  0  0
 30 37  1  0  0  0
 32 33  1  0  0  0
 33 34  1  0  0  0
 34 35  1  0  0  0
 35 36  1  0  0  0
 37 38  1  0  0  0
 38 39  1  0  0  0
 38 41  1  0  0  0
 39 40  2  0  0  0
 39 46  1  0  0  0
 41 42  1  0  0  0
 42 43  1  0  0  0
 43 44  2  0  0  0
 43 45  1  0  0  0
 46 47  1  0  0  0
 47 48  1  0  0  0
 47 50  1  0  0  0
 48 49  2  0  0  0
 48 58  1  0  0  0
 50 51  1  0  0  0
 51 52  4  0  0  0
 51 53  4  0  0  0
 52 54  4  0  0  0
 53 55  4  0  0  0
 54 56  4  0  0  0
 55 56  4  0  0  0
 56 57  1  0  0  0
 58 59  1  0  0  0
 59 60  1  0  0  0
 60 61  2  0  0  0
 60 62  1  0  0  0
 62 63  1  0  0  0
 63 64  1  0  0  0
 63 66  1  0  0  0
 64 65  2  0  0  0
 66 67  1  0  0  0
 66 68  1  0  0  0
 64 69  1  0  0  0
  4 70  1  0  0  0
  5 71  1  0  0  0
  6 72  1  0  0  0
  7 73  1  0  0  0
  8 74  1  0  0  0
  9 75  1  0  0  0
 10 76  1  0  0  0
 10 77  1  0  0  0
 13 78  1  0  0  0
 14 79  1  0  0  0
 17 80  1  0  0  0
 18 81  1  0  0  0
 18 82  1  0  0  0
 18 83  1  0  0  0
 19 84  1  0  0  0
 19 85  1  0  0  0
 19 86  1  0  0  0
 20 87  1  0  0  0
 21 88  1  0  0  0
 24 89  1  0  0  0
 24 90  1  0  0  0
 25 91  1  0  0  0
 26 92  1  0  0  0
 26 93  1  0  0  0
 26 94  1  0  0  0
 27 95  1  0  0  0
 27 96  1  0  0  0
 27 97  1  0  0  0
 28 98  1  0  0  0
 29 99  1  0  0  0
 32100  1  0  0  0
 32101  1  0  0  0
 33102  1  0  0  0
 33103  1  0  0  0
 34104  1  0  0  0
 34105  1  0  0  0
 35106  1  0  0  0
 35107  1  0  0  0
 36108  1  0  0  0
 36109  1  0  0  0
 36110  1  0  0  0
 37111  1  0  0  0
 38112  1  0  0  0
 41113  1  0  0  0
 41114  1  0  0  0
 42115  1  0  0  0
 42116  1  0  0  0
 45117  1  0  0  0
 46118  1  0  0  0
 47119  1  0  0  0
 50120  1  0  0  0
 50121  1  0  0  0
 52122  1  0  0  0
 53123  1  0  0  0
 54124  1  0  0  0
 55125  1  0  0  0
 57126  1  0  0  0
 58127  1  0  0  0
 59128  1  0  0  0
 59129  1  0  0  0
 62130  1  0  0  0
 63131  1  0  0  0
 66132  1  0  0  0
 67133  1  0  0  0
 67134  1  0  0  0
 67135  1  0  0  0
 68136  1  0  0  0
 68137  1  0  0  0
 68138  1  0  0  0
 69139  1  0  0  0
M  END
$$$$
