### 
### Created by X-TOOL on Mon Sep 10 21:13:18 2018
### 

@<TRIPOS>MOLECULE
4utx_ligand
  137   138     1     0     0
SMALL
GAST_HUCK


@<TRIPOS>ATOM
      1 C         -32.9580  -26.0870   12.4620 C.2       1 BEZ         0.2070
      2 O1        -32.6130  -27.2470   12.2790 O.2       1 BEZ        -0.3845
      3 C1        -33.8540  -25.7830   13.5000 C.ar      1 BEZ         0.0500
      4 C2        -34.9930  -24.9740   13.2880 C.ar      1 BEZ        -0.0419
      5 C3        -35.8970  -24.7100   14.3080 C.ar      1 BEZ        -0.0562
      6 C4        -35.6470  -25.2840   15.5470 C.ar      1 BEZ        -0.0575
      7 C5        -34.5320  -26.1050   15.7640 C.ar      1 BEZ        -0.0562
      8 C6        -33.6310  -26.3560   14.7430 C.ar      1 BEZ        -0.0419
      9 N         -32.5830  -25.1030   11.6290 N.am      1 GLY        -0.2676
     10 CA        -31.6720  -25.3540   10.4720 C.3       1 GLY         0.1197
     11 C         -31.9680  -24.2080    9.5530 C.2       1 GLY         0.2007
     12 O         -33.0620  -23.6040    9.5560 O.2       1 GLY        -0.3947
     13 N         -30.9660  -23.8850    8.7650 N.am      1 VAL        -0.2637
     14 CA        -31.0400  -22.7460    7.8820 C.3       1 VAL         0.1332
     15 C         -31.8930  -23.0830    6.6360 C.2       1 VAL         0.2041
     16 O         -31.5280  -23.9360    5.8190 O.2       1 VAL        -0.3944
     17 CB        -29.6230  -22.3340    7.4510 C.3       1 VAL        -0.0063
     18 CG1       -29.6820  -21.1350    6.5160 C.3       1 VAL        -0.0584
     19 CG2       -28.7380  -22.0720    8.6670 C.3       1 VAL        -0.0584
     20 N         -33.0420  -22.4270    6.4950 N.am      1 LEU        -0.2637
     21 CA        -33.7710  -22.4840    5.2280 C.3       1 LEU         0.1312
     22 C         -32.8440  -21.9350    4.1380 C.2       1 LEU         0.2039
     23 O         -32.0750  -21.0180    4.3880 O.2       1 LEU        -0.3944
     24 CB        -35.0710  -21.6610    5.2720 C.3       1 LEU        -0.0101
     25 CG        -36.2890  -22.2070    6.0400 C.3       1 LEU        -0.0425
     26 CD1       -37.5630  -21.5620    5.5060 C.3       1 LEU        -0.0625
     27 CD2       -36.4040  -23.7210    5.9480 C.3       1 LEU        -0.0625
     28 N         -32.9020  -22.5150    2.9410 N.am      1 LYS        -0.2637
     29 CA        -32.0030  -22.1440    1.8680 C.3       1 LYS         0.1310
     30 C         -32.5890  -20.8920    1.2170 C.2       1 LYS         0.2039
     31 O         -33.8030  -20.7340    1.1090 O.2       1 LYS        -0.3944
     32 CB        -31.6890  -23.3240    0.9750 C.3       1 LYS        -0.0122
     33 CG        -32.5320  -23.3250   -0.2620 C.3       1 LYS        -0.0440
     34 CD        -31.6880  -24.1610   -1.2420 C.3       1 LYS        -0.0124
     35 CE        -32.4020  -23.9250   -2.5360 C.3       1 LYS        -0.0354
     36 NZ        -31.8070  -24.8530   -3.4940 N.4       1 LYS         0.2185
     37 N         -31.6960  -19.9850    0.8440 N.am      1 GLU        -0.2636
     38 CA        -32.0360  -18.5900    0.4870 C.3       1 GLU         0.1325
     39 C         -32.8630  -17.8070    1.5460 C.2       1 GLU         0.2041
     40 O         -33.4180  -16.7240    1.2820 O.2       1 GLU        -0.3944
     41 CB        -32.5970  -18.5380   -0.9390 C.3       1 GLU        -0.0008
     42 CG        -31.4420  -18.7040   -1.9190 C.3       1 GLU         0.0044
     43 CD        -31.8590  -18.9900   -3.3360 C.2       1 GLU         0.0350
     44 OE1       -32.9290  -18.4730   -3.7310 O.co2     1 GLU        -0.5690
     45 OE2       -31.1020  -19.7160   -4.0510 O.co2     1 GLU        -0.5690
     46 N         -32.8310  -18.3450    2.7640 N.am      1 TYR        -0.2621
     47 CA        -33.5020  -17.8040    3.9190 C.3       1 TYR         0.1390
     48 C         -35.0070  -17.9680    3.8180 C.2       1 TYR         0.2055
     49 O         -35.7550  -17.1200    4.3290 O.2       1 TYR        -0.3942
     50 CB        -33.1060  -16.3400    4.1220 C.3       1 TYR         0.0163
     51 CG        -31.5970  -16.1140    4.3000 C.ar      1 TYR        -0.0493
     52 CD1       -30.8890  -16.7840    5.2940 C.ar      1 TYR        -0.0685
     53 CD2       -30.8990  -15.2030    3.5130 C.ar      1 TYR        -0.0685
     54 CE1       -29.5340  -16.5720    5.4760 C.ar      1 TYR        -0.0398
     55 CE2       -29.5550  -14.9780    3.6980 C.ar      1 TYR        -0.0398
     56 CZ        -28.8710  -15.6720    4.6740 C.ar      1 TYR         0.0805
     57 OH        -27.5140  -15.4890    4.8810 O.3       1 TYR        -0.3376
     58 N         -35.4530  -19.0580    3.1800 N.am      1 GLY        -0.2663
     59 CA        -36.8810  -19.2720    2.8920 C.3       1 GLY         0.1201
     60 C         -37.4270  -18.4110    1.7520 C.2       1 GLY         0.2003
     61 O         -38.3880  -18.7940    1.1150 O.2       1 GLY        -0.3947
     62 N         -36.7720  -17.2920    1.4530 N.am      1 VAL        -0.2670
     63 CA        -37.3680  -16.1400    0.7200 C.3       1 VAL         0.1248
     64 C         -38.1780  -16.5440   -0.4970 C.2       1 VAL         0.2152
     65 O         -37.5850  -16.9110   -1.5010 O.co2     1 VAL        -0.4120
     66 CB        -36.2570  -15.0910    0.3140 C.3       1 VAL        -0.0094
     67 CG1       -36.5270  -14.4080   -1.0350 C.3       1 VAL        -0.0589
     68 CG2       -36.0530  -14.0660    1.4390 C.3       1 VAL        -0.0589
     69 H         -35.1650  -24.5494   12.3055 H         1 BEZ         0.0669
     70 H         -36.7640  -24.0804   14.1434 H         1 BEZ         0.0629
     71 H         -36.3305  -25.0927   16.3663 H         1 BEZ         0.0653
     72 H         -34.3735  -26.5478   16.7407 H         1 BEZ         0.0629
     73 H         -32.7672  -26.9887   14.9122 H         1 BEZ         0.0669
     74 H         -32.9231  -24.1761   11.7876 H         1 GLY         0.1874
     75 H         -31.9010  -26.3160    9.9903 H         1 GLY         0.0763
     76 H         -30.6187  -25.3442   10.7891 H         1 GLY         0.0763
     77 H         -30.1347  -24.4407    8.7779 H         1 VAL         0.1883
     78 H         -31.5094  -21.9083    8.4186 H         1 VAL         0.0802
     79 H         -29.1812  -23.1724    6.8926 H         1 VAL         0.0343
     80 H         -28.6618  -20.8527    6.2169 H         1 VAL         0.0234
     81 H         -30.1595  -20.2898    7.0332 H         1 VAL         0.0234
     82 H         -30.2673  -21.3957    5.6219 H         1 VAL         0.0234
     83 H         -28.7265  -22.9637    9.3111 H         1 VAL         0.0234
     84 H         -29.1357  -21.2164    9.2325 H         1 VAL         0.0234
     85 H         -27.7141  -21.8473    8.3337 H         1 VAL         0.0234
     86 H         -33.4083  -21.8935    7.2574 H         1 LEU         0.1883
     87 H         -34.0241  -23.5308    5.0041 H         1 LEU         0.0800
     88 H         -35.3905  -21.5118    4.2301 H         1 LEU         0.0315
     89 H         -34.8192  -20.6890    5.7211 H         1 LEU         0.0315
     90 H         -36.1746  -21.9364    7.1000 H         1 LEU         0.0298
     91 H         -38.4309  -21.9540    6.0565 H         1 LEU         0.0232
     92 H         -37.6715  -21.7950    4.4365 H         1 LEU         0.0232
     93 H         -37.5059  -20.4717    5.6398 H         1 LEU         0.0232
     94 H         -35.4833  -24.1828    6.3340 H         1 LEU         0.0232
     95 H         -36.5490  -24.0146    4.8979 H         1 LEU         0.0232
     96 H         -37.2628  -24.0605    6.5456 H         1 LEU         0.0232
     97 H         -33.5854  -23.2267    2.7783 H         1 LYS         0.1883
     98 H         -31.0440  -21.8462    2.3171 H         1 LYS         0.0800
     99 H         -31.8756  -24.2530    1.5337 H         1 LYS         0.0312
    100 H         -30.6293  -23.2779    0.6836 H         1 LYS         0.0312
    101 H         -32.6837  -22.3033   -0.6401 H         1 LYS         0.0269
    102 H         -33.5085  -23.7963   -0.0768 H         1 LYS         0.0269
    103 H         -31.6949  -25.2265   -0.9689 H         1 LYS         0.0317
    104 H         -30.6497  -23.8003   -1.2855 H         1 LYS         0.0317
    105 H         -32.2583  -22.8865   -2.8689 H         1 LYS         0.0813
    106 H         -33.4771  -24.1284   -2.4229 H         1 LYS         0.0813
    107 H         -32.2511  -24.7396   -4.3918 H         1 LYS         0.1994
    108 H         -31.9381  -25.7989   -3.1714 H         1 LYS         0.1994
    109 H         -30.8212  -24.6609   -3.5801 H         1 LYS         0.1994
    110 H         -30.7356  -20.2605    0.8015 H         1 GLU         0.1883
    111 H         -31.0742  -18.0580    0.4437 H         1 GLU         0.0801
    112 H         -33.0911  -17.5699   -1.1084 H         1 GLU         0.0330
    113 H         -33.3243  -19.3508   -1.0816 H         1 GLU         0.0330
    114 H         -30.8141  -19.5376   -1.5713 H         1 GLU         0.0433
    115 H         -30.8530  -17.7750   -1.9156 H         1 GLU         0.0433
    116 H         -32.3030  -19.1854    2.8859 H         1 TYR         0.1885
    117 H         -33.1650  -18.3694    4.8003 H         1 TYR         0.0821
    118 H         -33.6190  -15.9653    5.0200 H         1 TYR         0.0453
    119 H         -33.4391  -15.7677    3.2437 H         1 TYR         0.0453
    120 H         -31.4090  -17.4847    5.9372 H         1 TYR         0.0530
    121 H         -31.4260  -14.6590    2.7375 H         1 TYR         0.0530
    122 H         -28.9971  -17.1126    6.2471 H         1 TYR         0.0525
    123 H         -29.0345  -14.2569    3.0782 H         1 TYR         0.0525
    124 H         -27.2245  -16.0503    5.5907 H         1 TYR         0.2458
    125 H         -34.7930  -19.7507    2.8891 H         1 GLY         0.1881
    126 H         -37.4545  -19.0430    3.8023 H         1 GLY         0.0763
    127 H         -37.0242  -20.3293    2.6246 H         1 GLY         0.0763
    128 H         -35.8166  -17.2195    1.7392 H         1 VAL         0.1876
    129 H         -38.0583  -15.6407    1.4158 H         1 VAL         0.0754
    130 O2        -39.4371  -16.5022   -0.4736 O.co2     1 VAL        -0.4120
    131 H         -35.3147  -15.6477    0.2037 H         1 VAL         0.0336
    132 H         -35.7185  -13.6947   -1.2531 H         1 VAL         0.0234
    133 H         -37.4864  -13.8719   -0.9891 H         1 VAL         0.0234
    134 H         -36.5694  -15.1682   -1.8289 H         1 VAL         0.0234
    135 H         -35.8629  -14.5934    2.3854 H         1 VAL         0.0234
    136 H         -36.9567  -13.4469    1.5393 H         1 VAL         0.0234
    137 H         -35.1932  -13.4235    1.1982 H         1 VAL         0.0234
@<TRIPOS>BOND
     1    1    2 2  
     2    1    3 1  
     3    1    9 am 
     4    3    4 ar 
     5    3    8 ar 
     6    4    5 ar 
     7    5    6 ar 
     8    6    7 ar 
     9    7    8 ar 
    10    9   10 1  
    11   10   11 1  
    12   11   12 2  
    13   11   13 am 
    14   13   14 1  
    15   14   15 1  
    16   14   17 1  
    17   15   16 2  
    18   15   20 am 
    19   17   18 1  
    20   17   19 1  
    21   20   21 1  
    22   21   22 1  
    23   21   24 1  
    24   22   23 2  
    25   22   28 am 
    26   24   25 1  
    27   25   26 1  
    28   25   27 1  
    29   28   29 1  
    30   29   30 1  
    31   29   32 1  
    32   30   31 2  
    33   30   37 am 
    34   32   33 1  
    35   33   34 1  
    36   34   35 1  
    37   35   36 1  
    38   37   38 1  
    39   38   39 1  
    40   38   41 1  
    41   39   40 2  
    42   39   46 am 
    43   41   42 1  
    44   42   43 1  
    45   43   44 ar 
    46   43   45 ar 
    47   46   47 1  
    48   47   48 1  
    49   47   50 1  
    50   48   49 2  
    51   48   58 am 
    52   50   51 1  
    53   51   52 ar 
    54   51   53 ar 
    55   52   54 ar 
    56   53   55 ar 
    57   54   56 ar 
    58   55   56 ar 
    59   56   57 1  
    60   58   59 1  
    61   59   60 1  
    62   60   61 2  
    63   60   62 am 
    64   62   63 1  
    65   63   64 1  
    66   63   66 1  
    67   64   65 ar 
    68   66   67 1  
    69   66   68 1  
    70    4   69 1  
    71    5   70 1  
    72    6   71 1  
    73    7   72 1  
    74    8   73 1  
    75    9   74 1  
    76   10   75 1  
    77   10   76 1  
    78   13   77 1  
    79   14   78 1  
    80   17   79 1  
    81   18   80 1  
    82   18   81 1  
    83   18   82 1  
    84   19   83 1  
    85   19   84 1  
    86   19   85 1  
    87   20   86 1  
    88   21   87 1  
    89   24   88 1  
    90   24   89 1  
    91   25   90 1  
    92   26   91 1  
    93   26   92 1  
    94   26   93 1  
    95   27   94 1  
    96   27   95 1  
    97   27   96 1  
    98   28   97 1  
    99   29   98 1  
   100   32   99 1  
   101   32  100 1  
   102   33  101 1  
   103   33  102 1  
   104   34  103 1  
   105   34  104 1  
   106   35  105 1  
   107   35  106 1  
   108   36  107 1  
   109   36  108 1  
   110   36  109 1  
   111   37  110 1  
   112   38  111 1  
   113   41  112 1  
   114   41  113 1  
   115   42  114 1  
   116   42  115 1  
   117   46  116 1  
   118   47  117 1  
   119   50  118 1  
   120   50  119 1  
   121   52  120 1  
   122   53  121 1  
   123   54  122 1  
   124   55  123 1  
   125   57  124 1  
   126   58  125 1  
   127   59  126 1  
   128   59  127 1  
   129   62  128 1  
   130   63  129 1  
   131   64  130 ar 
   132   66  131 1  
   133   67  132 1  
   134   67  133 1  
   135   67  134 1  
   136   68  135 1  
   137   68  136 1  
   138   68  137 1  
@<TRIPOS>SUBSTRUCTURE
     1 BEZ         1

