6gqm_ligand
  -I-interpret- 

 61 64  0  0  0  0  0  0  0  0999 V2000
   28.2260  103.7790   12.3340 C   0  0  0  0  0
   28.2840  102.7610   13.4620 C   0  0  0  0  0
   28.7640  103.2220   11.0140 C   0  0  0  0  0
   36.9090   96.4960    9.9000 N   0  0  0  0  0
   32.7950   98.6430    8.2970 C   0  0  0  0  0
   34.0940   98.5750    7.8180 C   0  0  0  0  0
   34.8600   97.4500    8.0420 C   0  0  0  0  0
   34.3400   96.3740    8.7590 C   0  0  0  0  0
   33.0400   96.4420    9.2520 C   0  0  0  0  0
   32.2720   97.5700    9.0230 C   0  0  0  0  0
   36.3630   95.3040    9.6210 C   0  0  0  0  0
   37.0040   94.0640   10.0100 C   0  0  0  0  0
   38.2450   94.2300   10.6980 C   0  0  0  0  0
   38.9630   93.0900   11.1280 C   0  0  0  0  0
   36.5720   92.7330    9.7960 C   0  0  0  0  0
   40.3530   90.7940   11.9630 C   0  0  0  0  0
   40.7420   89.4560   12.4880 C   0  0  0  0  0
   40.1870   87.9140   14.1960 C   0  0  0  0  0
   35.4060   92.5430    9.1450 F   0  0  0  0  0
   37.2550   91.6360   10.2120 C   0  0  0  0  0
   38.4580   91.8310   10.8800 C   0  0  0  0  0
   39.0950   90.6780   11.2680 O   0  0  0  0  0
   39.7870   89.0570   13.4540 O   0  0  0  0  0
   38.7850   95.4650   10.9640 N   0  0  0  0  0
   38.0770   96.4910   10.5510 C   0  0  0  0  0
   35.1730   95.2680    8.9590 N   0  0  0  0  0
   32.1090   99.8470    8.0250 N   0  0  0  0  0
   31.4520  100.5800    8.9580 C   0  0  0  0  0
   31.2580  100.1890   10.1070 O   0  0  0  0  0
   30.9220  101.9200    8.4740 C   0  0  0  0  0
   29.9020  102.4380    9.3740 N   0  0  0  0  0
   30.0170  102.8430   10.6490 C   0  0  0  0  0
   28.6340  102.5530    8.9540 N   0  0  0  0  0
   27.9410  103.0330    9.9580 N   0  0  0  0  0
   28.9770  105.0180   12.7220 C   0  0  0  0  0
   27.1763  104.0235   12.1713 H   0  0  0  0  0
   29.3236  102.5026   13.6634 H   0  0  0  0  0
   27.8341  103.1878   14.3584 H   0  0  0  0  0
   27.7357  101.8654   13.1699 H   0  0  0  0  0
   34.5119   99.4142    7.2619 H   0  0  0  0  0
   35.8782   97.4023    7.6559 H   0  0  0  0  0
   32.6272   95.6070    9.8182 H   0  0  0  0  0
   31.2546   97.6217    9.4107 H   0  0  0  0  0
   39.9112   93.2060   11.6530 H   0  0  0  0  0
   41.1192   91.1570   11.2780 H   0  0  0  0  0
   40.2530   91.4981   12.7890 H   0  0  0  0  0
   41.7313   89.5081   12.9425 H   0  0  0  0  0
   40.7727   88.7317   11.6741 H   0  0  0  0  0
   40.3389   87.0758   13.5159 H   0  0  0  0  0
   41.1173   88.1306   14.7212 H   0  0  0  0  0
   39.4108   87.6614   14.9184 H   0  0  0  0  0
   36.8714   90.6325   10.0277 H   0  0  0  0  0
   38.4989   97.4722   10.7685 H   0  0  0  0  0
   34.8675   94.3707    8.5823 H   0  0  0  0  0
   32.1075  100.1878    7.0636 H   0  0  0  0  0
   30.4790  101.7834    7.4875 H   0  0  0  0  0
   31.7487  102.6295    8.4395 H   0  0  0  0  0
   30.9199  102.8634   11.2592 H   0  0  0  0  0
   30.0337  104.7785   12.8409 H   0  0  0  0  0
   28.8593  105.7715   11.9432 H   0  0  0  0  0
   28.5819  105.4012   13.6628 H   0  0  0  0  0
  1  2  1  0  0  0
  3  1  1  0  0  0
  1 35  1  0  0  0
 32  3  4  0  0  0
  3 34  4  0  0  0
 11  4  4  0  0  0
  4 25  4  0  0  0
  5  6  4  0  0  0
  5 10  4  0  0  0
 27  5  1  0  0  0
  6  7  4  0  0  0
  7  8  4  0  0  0
  9  8  4  0  0  0
  8 26  1  0  0  0
 10  9  4  0  0  0
 11 12  4  0  0  0
 26 11  1  0  0  0
 12 13  4  0  0  0
 12 15  4  0  0  0
 13 14  4  0  0  0
 13 24  4  0  0  0
 14 21  4  0  0  0
 15 19  1  0  0  0
 15 20  4  0  0  0
 16 17  1  0  0  0
 22 16  1  0  0  0
 17 23  1  0  0  0
 23 18  1  0  0  0
 20 21  4  0  0  0
 21 22  1  0  0  0
 25 24  4  0  0  0
 28 27  1  0  0  0
 28 29  2  0  0  0
 30 28  1  0  0  0
 31 30  1  0  0  0
 31 32  4  0  0  0
 31 33  4  0  0  0
 33 34  4  0  0  0
  1 36  1  0  0  0
  2 37  1  0  0  0
  2 38  1  0  0  0
  2 39  1  0  0  0
  6 40  1  0  0  0
  7 41  1  0  0  0
  9 42  1  0  0  0
 10 43  1  0  0  0
 14 44  1  0  0  0
 16 45  1  0  0  0
 16 46  1  0  0  0
 17 47  1  0  0  0
 17 48  1  0  0  0
 18 49  1  0  0  0
 18 50  1  0  0  0
 18 51  1  0  0  0
 20 52  1  0  0  0
 25 53  1  0  0  0
 26 54  1  0  0  0
 27 55  1  0  0  0
 30 56  1  0  0  0
 30 57  1  0  0  0
 32 58  1  0  0  0
 35 59  1  0  0  0
 35 60  1  0  0  0
 35 61  1  0  0  0
M  END
$$$$
