6gzy_ligand
  -I-interpret- 

 38 39  0  0  0  0  0  0  0  0999 V2000
  144.1010  116.9750   40.7470 C   0  0  0  0  0
  144.6760  118.0480   40.5700 O   0  0  0  0  0
  143.1690  117.0350   38.4590 C   0  0  0  0  0
  144.6500  114.9300   44.4550 C   0  0  0  0  0
  146.7240  115.9470   45.0250 C   0  0  0  0  0
  143.2650  115.2720   42.5110 C   0  0  0  0  0
  146.3210  114.9590   46.1250 C   0  0  0  0  0
  144.9810  114.2930   45.7670 C   0  0  0  0  0
  142.2680  118.2920   38.4090 C   0  0  0  0  0
  141.4820  118.5700   39.6820 C   0  0  0  0  0
  141.9220  119.8010   40.4270 C   0  0  0  0  0
  143.8190  120.6010   41.6310 C   0  0  0  0  0
  144.2580  116.2430   42.0660 C   0  0  0  0  0
  145.3800  116.4940   42.8170 C   0  0  0  0  0
  145.5960  115.8320   44.0450 C   0  0  0  0  0
  143.5270  114.6550   43.7270 N   0  0  0  0  0
  143.3550  116.4250   39.7860 N   0  0  0  0  0
  142.2330  114.9880   41.8870 O   0  0  0  0  0
  141.1270  120.5210   41.0560 O   0  0  0  0  0
  143.2500  120.1110   40.3920 O   0  0  0  0  0
  144.1573  117.3541   38.1281 H   0  0  0  0  0
  142.6777  116.2821   37.8427 H   0  0  0  0  0
  147.6940  115.7179   44.5838 H   0  0  0  0  0
  146.8610  116.9625   45.3966 H   0  0  0  0  0
  146.2149  115.4952   47.0680 H   0  0  0  0  0
  147.0898  114.1919   46.2180 H   0  0  0  0  0
  145.0429  113.2061   45.7129 H   0  0  0  0  0
  144.2111  114.4438   46.5237 H   0  0  0  0  0
  141.5372  118.1244   37.6179 H   0  0  0  0  0
  142.9272  119.1460   38.2530 H   0  0  0  0  0
  141.6384  117.7205   40.3468 H   0  0  0  0  0
  140.4438  118.7269   39.3894 H   0  0  0  0  0
  143.3019  121.5123   41.9314 H   0  0  0  0  0
  143.7039  119.8439   42.4066 H   0  0  0  0  0
  144.8778  120.8142   41.4838 H   0  0  0  0  0
  146.1149  117.2153   42.4595 H   0  0  0  0  0
  142.8592  113.9741   44.0886 H   0  0  0  0  0
  142.8908  115.5379   39.9809 H   0  0  0  0  0
  1  2  2  0  0  0
 13  1  1  0  0  0
  1 17  1  0  0  0
  3  9  1  0  0  0
 17  3  1  0  0  0
  4  8  1  0  0  0
  4 15  2  0  0  0
 16  4  1  0  0  0
  5  7  1  0  0  0
 15  5  1  0  0  0
  6 13  1  0  0  0
  6 16  1  0  0  0
  6 18  2  0  0  0
  7  8  1  0  0  0
  9 10  1  0  0  0
 10 11  1  0  0  0
 11 19  2  0  0  0
 11 20  1  0  0  0
 20 12  1  0  0  0
 13 14  2  0  0  0
 14 15  1  0  0  0
  3 21  1  0  0  0
  3 22  1  0  0  0
  5 23  1  0  0  0
  5 24  1  0  0  0
  7 25  1  0  0  0
  7 26  1  0  0  0
  8 27  1  0  0  0
  8 28  1  0  0  0
  9 29  1  0  0  0
  9 30  1  0  0  0
 10 31  1  0  0  0
 10 32  1  0  0  0
 12 33  1  0  0  0
 12 34  1  0  0  0
 12 35  1  0  0  0
 14 36  1  0  0  0
 16 37  1  0  0  0
 17 38  1  0  0  0
M  END
$$$$
