4ms0_ligand
  -I-interpret- 

 14 14  0  0  0  0  0  0  0  0999 V2000
   -5.7460  -30.2280   32.8310 N   0  0  0  0  0
   -5.0960  -29.1490   33.2910 C   0  0  0  0  0
   -5.0930  -28.8550   34.6520 C   0  0  0  0  0
   -4.3760  -27.7160   35.0620 C   0  0  0  0  0
   -4.3510  -27.2720   36.7300 Cl  0  0  0  0  0
   -3.7220  -26.9290   34.1750 N   0  0  0  0  0
   -3.7350  -27.2510   32.8650 C   0  0  0  0  0
   -3.0860  -26.4830   31.9960 N   0  0  0  0  0
   -4.4110  -28.3460   32.4310 N   0  0  0  0  0
   -6.2423  -30.8393   33.4794 H   0  0  0  0  0
   -5.7441  -30.4374   31.8327 H   0  0  0  0  0
   -5.6237  -29.4808   35.3695 H   0  0  0  0  0
   -2.5832  -25.6573   32.3213 H   0  0  0  0  0
   -3.0907  -26.7192   31.0037 H   0  0  0  0  0
  1  2  1  0  0  0
  2  3  4  0  0  0
  2  9  4  0  0  0
  3  4  4  0  0  0
  4  5  1  0  0  0
  4  6  4  0  0  0
  6  7  4  0  0  0
  7  8  1  0  0  0
  7  9  4  0  0  0
  1 10  1  0  0  0
  1 11  1  0  0  0
  3 12  1  0  0  0
  8 13  1  0  0  0
  8 14  1  0  0  0
M  END
$$$$
