5am6_ligand
  -I-interpret- 

 50 54  0  0  0  0  0  0  0  0999 V2000
  220.0510  -10.4830   31.8860 C   0  0  0  0  0
  220.9950   -9.5940   29.8570 C   0  0  0  0  0
  220.6900   -9.4060   28.3760 C   0  0  0  0  0
  218.8860   -7.8770   29.4100 C   0  0  0  0  0
  218.8910   -8.7680   30.6600 C   0  0  0  0  0
  219.1620   -8.0260   26.9900 C   0  0  0  0  0
  217.0880   -7.6070   23.0210 C   0  0  0  0  0
  217.9450   -6.6300   23.3430 N   0  0  0  0  0
  219.3650   -6.2640   25.3490 C   0  0  0  0  0
  219.7080   -6.8140   26.5710 C   0  0  0  0  0
  216.3180   -7.7190   21.7510 C   0  0  0  0  0
  216.6060   -6.7820   20.6290 C   0  0  0  0  0
  216.0000   -6.1170   18.1740 C   0  0  0  0  0
  215.2190   -6.3730   17.0370 C   0  0  0  0  0
  214.2820   -7.4040   17.0320 C   0  0  0  0  0
  215.0160   -9.5510   22.4660 O   0  0  0  0  0
  219.7510   -9.9570   30.5430 N   0  3  0  0  0
  219.5800   -8.4680   28.2540 N   0  0  0  0  0
  218.2310   -8.7290   26.2010 C   0  0  0  0  0
  217.8480   -8.2160   24.9560 C   0  0  0  0  0
  217.0250   -8.5950   23.9450 N   0  0  0  0  0
  218.4520   -6.9250   24.5400 C   0  0  0  0  0
  217.5420   -5.7970   20.7280 N   0  0  0  0  0
  215.8250   -6.9660   19.3770 C   0  0  0  0  0
  216.9150   -5.1280   18.1870 F   0  0  0  0  0
  214.0770   -8.2270   18.1430 C   0  0  0  0  0
  214.8090   -8.0490   19.3190 C   0  0  0  0  0
  214.6160   -8.8510   20.3720 N   0  0  0  0  0
  215.2770   -8.7470   21.5410 C   0  0  0  0  0
  220.5658   -9.7183   32.4677 H   0  0  0  0  0
  219.1206  -10.7554   32.3843 H   0  0  0  0  0
  220.6878  -11.3631   31.7962 H   0  0  0  0  0
  221.3961   -8.6709   30.2754 H   0  0  0  0  0
  221.7369  -10.3818   29.9881 H   0  0  0  0  0
  220.4240  -10.3617   27.9243 H   0  0  0  0  0
  221.5675   -9.0169   27.8595 H   0  0  0  0  0
  219.4093   -6.9558   29.6662 H   0  0  0  0  0
  217.8453   -7.7280   29.1221 H   0  0  0  0  0
  217.8705   -9.1201   30.8106 H   0  0  0  0  0
  219.2783   -8.1681   31.4836 H   0  0  0  0  0
  219.8071   -5.3218   25.0252 H   0  0  0  0  0
  220.4154   -6.2921   27.2155 H   0  0  0  0  0
  215.3469   -5.7576   16.1465 H   0  0  0  0  0
  213.6898   -7.5743   16.1329 H   0  0  0  0  0
  219.2690  -10.6764   30.0039 H   0  0  0  0  0
  217.8103   -9.6689   26.5583 H   0  0  0  0  0
  218.0727   -5.6827   21.5915 H   0  0  0  0  0
  217.7121   -5.1739   19.9386 H   0  0  0  0  0
  213.3328   -9.0217   18.0906 H   0  0  0  0  0
  213.9207   -9.5920   20.2837 H   0  0  0  0  0
 17  1  1  0  0  0
  3  2  1  0  0  0
  2 17  1  0  0  0
 18  3  1  0  0  0
  4  5  1  0  0  0
 18  4  1  0  0  0
  5 17  1  0  0  0
 10  6  4  0  0  0
  6 18  1  0  0  0
  6 19  4  0  0  0
  7  8  4  0  0  0
 11  7  1  0  0  0
  7 21  4  0  0  0
  8 22  4  0  0  0
  9 10  4  0  0  0
 22  9  4  0  0  0
 12 11  2  0  0  0
 11 29  1  0  0  0
 12 23  1  0  0  0
 24 12  1  0  0  0
 13 14  4  0  0  0
 13 24  4  0  0  0
 13 25  1  0  0  0
 14 15  4  0  0  0
 15 26  4  0  0  0
 29 16  2  0  0  0
 19 20  4  0  0  0
 20 21  4  0  0  0
 20 22  4  0  0  0
 24 27  4  0  0  0
 26 27  4  0  0  0
 27 28  1  0  0  0
 28 29  1  0  0  0
  1 30  1  0  0  0
  1 31  1  0  0  0
  1 32  1  0  0  0
  2 33  1  0  0  0
  2 34  1  0  0  0
  3 35  1  0  0  0
  3 36  1  0  0  0
  4 37  1  0  0  0
  4 38  1  0  0  0
  5 39  1  0  0  0
  5 40  1  0  0  0
  9 41  1  0  0  0
 10 42  1  0  0  0
 14 43  1  0  0  0
 15 44  1  0  0  0
 17 45  1  0  0  0
 19 46  1  0  0  0
 23 47  1  0  0  0
 23 48  1  0  0  0
 26 49  1  0  0  0
 28 50  1  0  0  0
M  END
$$$$
