5fnu_ligand
  -I-interpret- 

 69 73  0  0  0  0  0  0  0  0999 V2000
   13.4520   65.4580   23.1700 C   0  0  0  0  0
   12.9600   64.2380   23.7230 O   0  0  0  0  0
   13.7260   63.5970   24.6620 C   0  0  0  0  0
   14.9520   64.0460   25.1470 C   0  0  0  0  0
   15.6710   63.3290   26.1080 C   0  0  0  0  0
   15.1270   62.1300   26.5820 C   0  0  0  0  0
   13.8780   61.6680   26.0910 C   0  0  0  0  0
   13.1490   60.5520   26.3870 N   0  0  0  0  0
   12.0390   60.5500   25.6690 N   0  0  0  0  0
   12.0540   61.6740   24.9040 N   0  0  0  0  0
   10.9520   61.9580   23.9940 C   0  0  0  0  0
   13.1890   62.3930   25.1450 C   0  0  0  0  0
   17.0140   63.8090   26.6480 C   0  0  0  0  0
   17.6280   64.9930   25.8910 C   0  0  0  0  0
   17.9150   64.7380   24.4160 C   0  0  0  0  0
   17.5790   65.6320   23.6070 O   0  0  0  0  0
   18.4640   63.6640   24.0880 O   0  0  0  0  0
   16.9510   64.1260   28.1340 C   0  0  0  0  0
   17.9780   63.7460   28.9870 C   0  0  0  0  0
   17.9170   64.0360   30.3400 C   0  0  0  0  0
   16.8240   64.7170   30.8770 C   0  0  0  0  0
   16.7880   65.0180   32.3540 C   0  0  0  0  0
   15.7810   65.1070   30.0280 C   0  0  0  0  0
   14.5700   65.8470   30.5480 C   0  0  0  0  0
   13.6780   64.9920   31.3600 N   0  0  0  0  0
   13.1040   63.8030   30.6760 C   0  0  0  0  0
   11.9360   64.1380   29.7490 C   0  0  0  0  0
   11.5120   62.9310   28.9150 C   0  0  0  0  0
   10.7960   64.5740   30.5070 O   0  0  0  0  0
   10.6850   65.9340   30.7830 C   0  0  0  0  0
    9.6990   66.6530   30.1200 C   0  0  0  0  0
    9.5550   68.0070   30.3660 C   0  0  0  0  0
   10.3870   68.6450   31.2670 C   0  0  0  0  0
   11.3730   67.9340   31.9320 C   0  0  0  0  0
   11.5250   66.5700   31.6910 C   0  0  0  0  0
   12.7790   65.6570   32.5350 S   0  0  0  0  0
   12.1500   64.5980   33.2600 O   0  0  0  0  0
   13.6060   66.5770   33.2570 O   0  0  0  0  0
   15.8660   64.8040   28.6730 C   0  0  0  0  0
   13.5892   66.1878   23.9679 H   0  0  0  0  0
   14.4063   65.2731   22.6769 H   0  0  0  0  0
   12.7349   65.8417   22.4443 H   0  0  0  0  0
   15.3620   64.9817   24.7670 H   0  0  0  0  0
   15.6645   61.5486   27.3311 H   0  0  0  0  0
   10.8639   61.1492   23.2686 H   0  0  0  0  0
   10.0255   62.0408   24.5621 H   0  0  0  0  0
   11.1452   62.8957   23.4729 H   0  0  0  0  0
   17.6786   62.9609   26.4831 H   0  0  0  0  0
   18.5862   65.2059   26.3651 H   0  0  0  0  0
   16.9010   65.8040   25.9338 H   0  0  0  0  0
   17.1777   66.3609   24.0858 H   0  0  0  0  0
   18.8415   63.2138   28.5879 H   0  0  0  0  0
   18.7333   63.7283   30.9936 H   0  0  0  0  0
   16.8246   64.0841   32.9148 H   0  0  0  0  0
   17.6460   65.6360   32.6186 H   0  0  0  0  0
   15.8675   65.5507   32.5926 H   0  0  0  0  0
   14.0008   66.1997   29.6880 H   0  0  0  0  0
   14.9235   66.6582   31.1844 H   0  0  0  0  0
   12.7278   63.1310   31.4474 H   0  0  0  0  0
   13.8924   63.3644   30.0643 H   0  0  0  0  0
   12.2813   64.9325   29.0874 H   0  0  0  0  0
   12.3517   62.6003   28.3038 H   0  0  0  0  0
   11.2033   62.1230   29.5783 H   0  0  0  0  0
   10.6794   63.2112   28.2697 H   0  0  0  0  0
    9.0414   66.1529   29.4090 H   0  0  0  0  0
    8.7818   68.5733   29.8468 H   0  0  0  0  0
   10.2669   69.7119   31.4551 H   0  0  0  0  0
   12.0277   68.4401   32.6414 H   0  0  0  0  0
   15.0541   65.1089   28.0128 H   0  0  0  0  0
  1  2  1  0  0  0
  2  3  1  0  0  0
  3  4  4  0  0  0
  3 12  4  0  0  0
  4  5  4  0  0  0
  5  6  4  0  0  0
  5 13  1  0  0  0
  6  7  4  0  0  0
  7  8  4  0  0  0
  7 12  4  0  0  0
  8  9  4  0  0  0
  9 10  4  0  0  0
 10 11  1  0  0  0
 10 12  4  0  0  0
 13 14  1  0  0  0
 13 18  1  0  0  0
 14 15  1  0  0  0
 15 16  1  0  0  0
 15 17  2  0  0  0
 18 19  4  0  0  0
 18 39  4  0  0  0
 19 20  4  0  0  0
 20 21  4  0  0  0
 21 22  1  0  0  0
 21 23  4  0  0  0
 23 24  1  0  0  0
 23 39  4  0  0  0
 24 25  1  0  0  0
 25 26  1  0  0  0
 25 36  1  0  0  0
 26 27  1  0  0  0
 27 28  1  0  0  0
 27 29  1  0  0  0
 29 30  1  0  0  0
 30 31  4  0  0  0
 30 35  4  0  0  0
 31 32  4  0  0  0
 32 33  4  0  0  0
 33 34  4  0  0  0
 34 35  4  0  0  0
 35 36  1  0  0  0
 36 37  2  0  0  0
 36 38  2  0  0  0
  1 40  1  0  0  0
  1 41  1  0  0  0
  1 42  1  0  0  0
  4 43  1  0  0  0
  6 44  1  0  0  0
 11 45  1  0  0  0
 11 46  1  0  0  0
 11 47  1  0  0  0
 13 48  1  0  0  0
 14 49  1  0  0  0
 14 50  1  0  0  0
 16 51  1  0  0  0
 19 52  1  0  0  0
 20 53  1  0  0  0
 22 54  1  0  0  0
 22 55  1  0  0  0
 22 56  1  0  0  0
 24 57  1  0  0  0
 24 58  1  0  0  0
 26 59  1  0  0  0
 26 60  1  0  0  0
 27 61  1  0  0  0
 28 62  1  0  0  0
 28 63  1  0  0  0
 28 64  1  0  0  0
 31 65  1  0  0  0
 32 66  1  0  0  0
 33 67  1  0  0  0
 34 68  1  0  0  0
 39 69  1  0  0  0
M  END
$$$$
