6cfd_ligand
  -I-interpret- 

107111  0  0  0  0  0  0  0  0999 V2000
   -1.1740  100.9150    3.5270 C   0  0  0  0  0
   -2.4610  103.1930   -0.6740 C   0  0  0  0  0
   -1.5790  102.4130   -0.0120 C   0  0  0  0  0
   -1.8260  105.4360    7.2320 N   0  0  0  0  0
   -0.9440  101.2110    2.1740 N   0  0  0  0  0
   -2.0150  105.5390   -3.6650 C   0  0  0  0  0
    2.7750  103.6060    2.4850 N   0  0  0  0  0
   -2.2490  103.5330   -2.1110 C   0  0  0  0  0
   -3.2910  105.2560   -4.4540 C   0  0  0  0  0
   -1.9880  105.0560   -2.2140 C   0  0  0  0  0
   -1.8820  102.1120    1.4560 C   0  0  0  0  0
   -2.8750  102.5890    1.9850 O   0  0  0  0  0
   -0.4340   99.6710    4.0410 C   0  0  0  0  0
   -1.1550   98.4430    3.5610 C   0  0  0  0  0
   -2.2800   97.9450    4.2120 C   0  0  0  0  0
   -2.9450   96.8220    3.7090 C   0  0  0  0  0
   -4.0360   96.3170    4.2910 F   0  0  0  0  0
   -2.4950   96.1720    2.5760 C   0  0  0  0  0
   -1.3720   96.6860    1.9550 C   0  0  0  0  0
   -0.9550   96.0880    0.8820 F   0  0  0  0  0
   -0.6900   97.8090    2.4010 C   0  0  0  0  0
   -0.6840  102.1410    4.2750 C   0  0  0  0  0
    0.3870  102.1250    4.8680 O   0  0  0  0  0
   -1.5340  103.3530    4.2660 N   0  0  0  0  0
   -1.1100  104.5210    4.9620 C   0  0  0  0  0
   -0.7200  105.6290    4.0080 C   0  0  0  0  0
    0.4750  105.2930    3.2840 O   0  0  0  0  0
    1.8070  105.3370    3.8860 C   0  0  0  0  0
    2.0220  105.7240    5.0130 O   0  0  0  0  0
    2.7510  104.9250    2.9890 C   0  0  0  0  0
    3.0310  105.8690    1.9460 C   0  0  0  0  0
    2.2350  105.1910    0.8550 C   0  0  0  0  0
    2.5990  105.6920   -0.5970 C   0  0  0  0  0
    2.4430  103.7470    1.0370 C   0  0  0  0  0
    2.9970  102.3550    3.1880 C   0  0  0  0  0
    2.9540  101.3050    2.5670 O   0  0  0  0  0
    3.3530  102.3480    4.6440 C   0  0  0  0  0
    4.5840  101.5960    4.9340 C   0  0  0  0  0
    2.6310  103.0000    5.7190 N   0  0  0  0  0
    3.3060  103.7480    6.8020 C   0  0  0  0  0
    4.5120  103.8830    6.7820 O   0  0  0  0  0
    2.4910  104.3840    7.9180 C   0  0  0  0  0
    3.3800  104.5060    9.1270 C   0  0  0  0  0
    3.2610  103.3780   10.1200 C   0  0  0  0  0
    2.9000  102.1200    9.4770 C   0  0  0  0  0
    1.5730  102.2450    8.7660 C   0  0  0  0  0
    1.3630  103.6170    8.2770 N   0  0  0  0  0
   -0.0700  104.0720    8.1970 C   0  0  0  0  0
   -0.9210  103.2520    8.5210 O   0  0  0  0  0
   -0.4650  105.4240    7.7510 C   0  0  0  0  0
   -0.5470  106.3390    8.9300 C   0  0  0  0  0
   -1.9060  106.9450    8.9110 C   0  0  0  0  0
   -2.7670  105.9740    8.2180 C   0  0  0  0  0
   -2.2170  105.0150    5.8800 C   0  0  0  0  0
   -3.3940  105.0770    5.5100 O   0  0  0  0  0
   -2.2296  100.6873    3.6754 H   0  0  0  0  0
   -3.3372  103.5782   -0.1525 H   0  0  0  0  0
   -0.6905  102.0157   -0.5027 H   0  0  0  0  0
   -0.1408  100.8114    1.6887 H   0  0  0  0  0
   -1.9204  106.6241   -3.6235 H   0  0  0  0  0
   -1.2179  105.0002   -4.1772 H   0  0  0  0  0
   -3.1297  103.2633   -2.6939 H   0  0  0  0  0
   -1.3971  102.9791   -2.5055 H   0  0  0  0  0
   -3.4605  104.1800   -4.4946 H   0  0  0  0  0
   -4.1352  105.7398   -3.9628 H   0  0  0  0  0
   -3.1851  105.6468   -5.4660 H   0  0  0  0  0
   -2.7726  105.5764   -1.6646 H   0  0  0  0  0
   -1.0005  105.2634   -1.8018 H   0  0  0  0  0
   -0.4087   99.6812    5.1307 H   0  0  0  0  0
    0.5888   99.6687    3.6643 H   0  0  0  0  0
   -2.6440   98.4318    5.1168 H   0  0  0  0  0
   -3.0045   95.2901    2.1877 H   0  0  0  0  0
    0.1810   98.1866    1.8654 H   0  0  0  0  0
   -2.4211  103.3516    3.7626 H   0  0  0  0  0
   -0.2333  104.2505    5.5504 H   0  0  0  0  0
   -0.5350  106.5357    4.5840 H   0  0  0  0  0
   -1.5305  105.7753    3.2939 H   0  0  0  0  0
    3.5637  104.8812    3.7141 H   0  0  0  0  0
    4.0855  106.0400    1.7295 H   0  0  0  0  0
    2.7634  106.9044    2.1569 H   0  0  0  0  0
    1.1786  105.4450    0.9421 H   0  0  0  0  0
    2.4061  106.7623   -0.6696 H   0  0  0  0  0
    3.6533  105.4973   -0.7935 H   0  0  0  0  0
    1.9880  105.1611   -1.3270 H   0  0  0  0  0
    1.5642  103.1659    0.7575 H   0  0  0  0  0
    3.2335  103.3605    0.3937 H   0  0  0  0  0
    2.4382  102.8609    4.9408 H   0  0  0  0  0
    4.4580  100.5600    4.6194 H   0  0  0  0  0
    5.4174  102.0429    4.3920 H   0  0  0  0  0
    4.7853  101.6300    6.0047 H   0  0  0  0  0
    1.6128  102.9403    5.7289 H   0  0  0  0  0
    2.1329  105.3502    7.5627 H   0  0  0  0  0
    3.0818  105.4164    9.6469 H   0  0  0  0  0
    4.4079  104.4995    8.7643 H   0  0  0  0  0
    2.4775  103.6332   10.8335 H   0  0  0  0  0
    4.2283  103.2475   10.6051 H   0  0  0  0  0
    2.8196  101.3451   10.2393 H   0  0  0  0  0
    3.6681  101.8644    8.7470 H   0  0  0  0  0
    0.7761  101.9983    9.4676 H   0  0  0  0  0
    1.5680  101.5657    7.9136 H   0  0  0  0  0
    0.2696  105.7239    7.0036 H   0  0  0  0  0
    0.2216  107.1100    8.8761 H   0  0  0  0  0
   -0.3800  105.7914    9.8576 H   0  0  0  0  0
   -1.9039  107.9084    8.4012 H   0  0  0  0  0
   -2.2656  107.1449    9.9204 H   0  0  0  0  0
   -3.2047  105.2205    8.8728 H   0  0  0  0  0
   -3.6672  106.4083    7.7832 H   0  0  0  0  0
  1  5  1  0  0  0
  1 13  1  0  0  0
 22  1  1  0  0  0
  3  2  2  0  0  0
  2  8  1  0  0  0
 11  3  1  0  0  0
  4 50  1  0  0  0
  4 53  1  0  0  0
 54  4  1  0  0  0
  5 11  1  0  0  0
  6  9  1  0  0  0
 10  6  1  0  0  0
 30  7  1  0  0  0
  7 34  1  0  0  0
  7 35  1  0  0  0
  8 10  1  0  0  0
 11 12  2  0  0  0
 13 14  1  0  0  0
 14 15  4  0  0  0
 14 21  4  0  0  0
 15 16  4  0  0  0
 16 17  1  0  0  0
 16 18  4  0  0  0
 19 18  4  0  0  0
 19 20  1  0  0  0
 21 19  4  0  0  0
 22 23  2  0  0  0
 24 22  1  0  0  0
 25 24  1  0  0  0
 26 25  1  0  0  0
 25 54  1  0  0  0
 27 26  1  0  0  0
 28 27  1  0  0  0
 28 29  2  0  0  0
 28 30  1  0  0  0
 30 31  1  0  0  0
 31 32  1  0  0  0
 32 33  1  0  0  0
 32 34  1  0  0  0
 35 36  2  0  0  0
 35 37  1  0  0  0
 37 38  1  0  0  0
 37 39  1  0  0  0
 39 40  1  0  0  0
 40 41  2  0  0  0
 40 42  1  0  0  0
 42 43  1  0  0  0
 42 47  1  0  0  0
 43 44  1  0  0  0
 44 45  1  0  0  0
 45 46  1  0  0  0
 46 47  1  0  0  0
 47 48  1  0  0  0
 48 49  2  0  0  0
 48 50  1  0  0  0
 50 51  1  0  0  0
 51 52  1  0  0  0
 52 53  1  0  0  0
 54 55  2  0  0  0
  1 56  1  0  0  0
  2 57  1  0  0  0
  3 58  1  0  0  0
  5 59  1  0  0  0
  6 60  1  0  0  0
  6 61  1  0  0  0
  8 62  1  0  0  0
  8 63  1  0  0  0
  9 64  1  0  0  0
  9 65  1  0  0  0
  9 66  1  0  0  0
 10 67  1  0  0  0
 10 68  1  0  0  0
 13 69  1  0  0  0
 13 70  1  0  0  0
 15 71  1  0  0  0
 18 72  1  0  0  0
 21 73  1  0  0  0
 24 74  1  0  0  0
 25 75  1  0  0  0
 26 76  1  0  0  0
 26 77  1  0  0  0
 30 78  1  0  0  0
 31 79  1  0  0  0
 31 80  1  0  0  0
 32 81  1  0  0  0
 33 82  1  0  0  0
 33 83  1  0  0  0
 33 84  1  0  0  0
 34 85  1  0  0  0
 34 86  1  0  0  0
 37 87  1  0  0  0
 38 88  1  0  0  0
 38 89  1  0  0  0
 38 90  1  0  0  0
 39 91  1  0  0  0
 42 92  1  0  0  0
 43 93  1  0  0  0
 43 94  1  0  0  0
 44 95  1  0  0  0
 44 96  1  0  0  0
 45 97  1  0  0  0
 45 98  1  0  0  0
 46 99  1  0  0  0
 46100  1  0  0  0
 50101  1  0  0  0
 51102  1  0  0  0
 51103  1  0  0  0
 52104  1  0  0  0
 52105  1  0  0  0
 53106  1  0  0  0
 53107  1  0  0  0
M  END
$$$$
