4yb7_ligand
  -I-interpret- 

 47 49  0  0  0  0  0  0  0  0999 V2000
  -13.4090   30.3150  -36.7490 P   0  0  0  0  0
  -14.0480   29.5790  -35.5930 O   0  0  0  0  0
  -11.8710   30.1630  -36.8910 O   0  0  0  0  0
  -14.1530   30.1050  -38.0440 O   0  0  0  0  0
  -14.2390   32.6770  -35.1370 P   0  0  0  0  0
  -15.4490   33.4920  -35.5360 O   0  0  0  0  0
  -14.2400   31.8280  -33.8890 O   0  0  0  0  0
  -13.6560   31.9000  -36.4370 O   0  0  0  0  0
  -12.8440   35.1720  -35.4920 P   0  0  0  0  0
  -14.1320   35.9660  -35.3680 O   0  0  0  0  0
  -12.0950   35.0000  -36.8050 O   0  0  0  0  0
  -13.0260   33.6900  -34.8830 O   0  0  0  0  0
  -11.8140   35.7090  -34.3680 O   0  0  0  0  0
  -10.7190   34.8980  -33.9380 C   0  0  0  0  0
  -10.0140   35.5340  -32.7550 C   0  0  0  0  0
   -9.5850   36.8540  -33.0980 O   0  0  0  0  0
  -10.8660   35.6870  -31.4890 C   0  0  0  0  0
  -10.9540   34.5070  -30.6950 O   0  0  0  0  0
  -10.1180   36.8080  -30.7990 C   0  0  0  0  0
   -8.9880   36.3120  -30.0690 O   0  0  0  0  0
   -9.6110   37.6800  -31.9420 C   0  0  0  0  0
  -10.4590   38.8590  -32.2190 N   0  0  0  0  0
  -11.8040   38.9880  -32.0760 C   0  0  0  0  0
  -12.2030   40.2460  -32.4190 N   0  0  0  0  0
  -11.1120   40.9420  -32.7910 C   0  0  0  0  0
  -10.8100   42.3130  -33.2840 C   0  0  0  0  0
  -11.7880   43.2290  -33.4550 N   0  0  0  0  0
   -9.5200   42.6380  -33.5560 N   0  0  0  0  0
   -8.5180   41.7430  -33.4010 C   0  0  0  0  0
   -8.7310   40.4720  -32.9680 N   0  0  0  0  0
   -9.9720   40.0210  -32.6580 C   0  0  0  0  0
  -13.5425   29.7413  -34.7932 H   0  0  0  0  0
  -11.4561   30.3074  -36.0374 H   0  0  0  0  0
  -15.2616   33.9628  -36.3514 H   0  0  0  0  0
  -11.3116   34.4650  -36.6575 H   0  0  0  0  0
  -10.0096   34.7988  -34.7596 H   0  0  0  0  0
  -11.0996   33.9215  -33.6384 H   0  0  0  0  0
   -9.1960   34.8483  -32.5343 H   0  0  0  0  0
  -11.9188   35.8867  -31.6888 H   0  0  0  0  0
  -11.5004   34.6808  -29.9250 H   0  0  0  0  0
  -10.7571   37.3326  -30.0887 H   0  0  0  0  0
   -8.5361   37.0448  -29.6442 H   0  0  0  0  0
   -8.6324   38.0722  -31.6653 H   0  0  0  0  0
  -12.4710   38.1963  -31.7347 H   0  0  0  0  0
  -12.7562   42.9865  -33.2450 H   0  0  0  0  0
  -11.5582   44.1631  -33.7941 H   0  0  0  0  0
   -7.4990   42.0531  -33.6325 H   0  0  0  0  0
  1  2  1  0  0  0
  1  3  1  0  0  0
  1  4  2  0  0  0
  8  1  1  0  0  0
  5  6  1  0  0  0
  5  7  2  0  0  0
  5  8  1  0  0  0
 12  5  1  0  0  0
  9 10  2  0  0  0
  9 11  1  0  0  0
  9 12  1  0  0  0
  9 13  1  0  0  0
 13 14  1  0  0  0
 14 15  1  0  0  0
 15 16  1  0  0  0
 15 17  1  0  0  0
 16 21  1  0  0  0
 17 18  1  0  0  0
 17 19  1  0  0  0
 19 20  1  0  0  0
 19 21  1  0  0  0
 21 22  1  0  0  0
 22 23  4  0  0  0
 22 31  4  0  0  0
 23 24  4  0  0  0
 24 25  4  0  0  0
 25 26  4  0  0  0
 25 31  4  0  0  0
 26 27  1  0  0  0
 26 28  4  0  0  0
 28 29  4  0  0  0
 29 30  4  0  0  0
 30 31  4  0  0  0
  2 32  1  0  0  0
  3 33  1  0  0  0
  6 34  1  0  0  0
 11 35  1  0  0  0
 14 36  1  0  0  0
 14 37  1  0  0  0
 15 38  1  0  0  0
 17 39  1  0  0  0
 18 40  1  0  0  0
 19 41  1  0  0  0
 20 42  1  0  0  0
 21 43  1  0  0  0
 23 44  1  0  0  0
 27 45  1  0  0  0
 27 46  1  0  0  0
 29 47  1  0  0  0
M  END
$$$$
