4h7q_ligand
  -I-interpret- 

 19 18  0  0  0  0  0  0  0  0999 V2000
   -7.9860  -31.9420   13.3750 C   0  0  0  0  0
   -8.5890  -31.4780   12.3760 O   0  0  0  0  0
   -7.0650  -32.7950   13.2360 O   0  0  0  0  0
   -8.3370  -31.5300   14.7470 C   0  0  0  0  0
   -8.6680  -30.3950   14.9730 O   0  0  0  0  0
   -8.2570  -32.5840   15.8360 C   0  0  0  0  0
   -9.3530  -32.6670   16.9020 C   0  0  0  0  0
   -8.9890  -32.1430   18.2000 C   0  0  0  0  0
  -10.6970  -32.2660   16.4240 C   0  0  0  0  0
   -6.7200  -33.0352   14.0990 H   0  0  0  0  0
   -7.3538  -32.3334   16.3923 H   0  0  0  0  0
   -8.3225  -33.5325   15.3029 H   0  0  0  0  0
   -9.4471  -33.7364   17.0909 H   0  0  0  0  0
   -8.9989  -31.0536   18.1664 H   0  0  0  0  0
   -9.7047  -32.4913   18.9447 H   0  0  0  0  0
   -7.9901  -32.4906   18.4636 H   0  0  0  0  0
  -11.4514  -32.6174   17.1280 H   0  0  0  0  0
  -10.7456  -31.1796   16.3496 H   0  0  0  0  0
  -10.8792  -32.7071   15.4440 H   0  0  0  0  0
  1  2  2  0  0  0
  1  3  1  0  0  0
  1  4  1  0  0  0
  4  5  2  0  0  0
  4  6  1  0  0  0
  6  7  1  0  0  0
  7  8  1  0  0  0
  7  9  1  0  0  0
  3 10  1  0  0  0
  6 11  1  0  0  0
  6 12  1  0  0  0
  7 13  1  0  0  0
  8 14  1  0  0  0
  8 15  1  0  0  0
  8 16  1  0  0  0
  9 17  1  0  0  0
  9 18  1  0  0  0
  9 19  1  0  0  0
M  END
$$$$
