3upf_ligand
  -I-interpret- 

 92 98  0  0  0  0  0  0  0  0999 V2000
   12.6050  -58.4370   43.4830 O   0  0  0  0  0
   13.4030  -59.9900   48.6490 O   0  0  0  0  0
   13.7630  -59.6250   37.0770 O   0  0  0  0  0
   17.3240  -60.5210   56.6350 O   0  0  0  0  0
   19.2250  -60.9310   55.0630 O   0  0  0  0  0
   16.7660  -65.5960   32.3210 O   0  0  0  0  0
   18.4070  -64.3670   33.7720 O   0  0  0  0  0
   13.1100  -62.8960   54.4470 O   0  0  0  0  0
   13.9520  -61.0160   55.8830 O   0  0  0  0  0
   16.1030  -61.0110   31.3040 O   0  0  0  0  0
   14.1170  -62.1880   30.3410 O   0  0  0  0  0
   18.4450  -57.3480   50.7490 O   0  0  0  0  0
   17.1090  -58.8860   49.3140 O   0  0  0  0  0
   13.2580  -61.7930   38.0680 O   0  0  0  0  0
   12.2260  -63.9840   37.4060 O   0  0  0  0  0
   18.7730  -58.6240   55.9180 O   0  0  0  0  0
   17.1090  -66.3270   34.6460 O   0  0  0  0  0
   11.5870  -61.0230   55.0960 O   0  0  0  0  0
   14.1750  -59.6800   30.4500 O   0  0  0  0  0
   16.0790  -56.7650   50.1420 O   0  0  0  0  0
   14.5170  -63.9250   38.4180 O   0  0  0  0  0
   14.6410  -56.0810   46.4680 C   0  0  0  0  0
   10.6810  -59.8910   40.4400 C   0  0  0  0  0
   14.7720  -56.7160   45.2370 C   0  0  0  0  0
   11.6460  -59.6500   41.4180 C   0  0  0  0  0
   14.4110  -56.8350   47.6150 C   0  0  0  0  0
   11.0320  -60.1080   39.1090 C   0  0  0  0  0
   12.9560  -59.6410   51.0810 C   0  0  0  0  0
   12.3080  -60.2260   34.4950 C   0  0  0  0  0
   12.5900  -60.3290   52.2300 C   0  0  0  0  0
   12.8640  -60.1720   33.2220 C   0  0  0  0  0
   14.4350  -58.8570   46.3010 C   0  0  0  0  0
   13.3330  -59.8550   39.7320 C   0  0  0  0  0
   17.3900  -58.9750   52.9470 C   0  0  0  0  0
   15.1940  -63.9790   35.5450 C   0  0  0  0  0
   15.7030  -60.1680   54.1700 C   0  0  0  0  0
   15.2930  -62.9420   33.3840 C   0  0  0  0  0
   14.7950  -58.6920   43.9590 N   0  0  0  0  0
   13.9610  -59.4230   41.9550 N   0  0  0  0  0
   14.5650  -58.4580   49.8400 N   0  0  0  0  0
   12.2000  -61.2010   36.6370 N   0  0  0  0  0
   13.7240  -58.8300   43.1490 C   0  0  0  0  0
   14.0680  -58.9580   48.6940 C   0  0  0  0  0
   12.8060  -60.2930   37.4480 C   0  0  0  0  0
   14.6580  -58.1020   45.1480 C   0  0  0  0  0
   12.9860  -59.6290   41.0620 C   0  0  0  0  0
   14.3160  -58.2230   47.5380 C   0  0  0  0  0
   12.3730  -60.1080   38.7560 C   0  0  0  0  0
   16.9990  -59.6690   54.0900 C   0  0  0  0  0
   15.7480  -63.9210   34.2670 C   0  0  0  0  0
   14.2430  -59.1270   50.9520 C   0  0  0  0  0
   12.7260  -61.1960   35.3990 C   0  0  0  0  0
   13.5100  -60.5010   53.2560 C   0  0  0  0  0
   13.8530  -61.0740   32.8440 C   0  0  0  0  0
   16.4900  -58.7780   51.8990 C   0  0  0  0  0
   14.2000  -63.0780   35.9270 C   0  0  0  0  0
   14.8000  -59.9810   53.1290 C   0  0  0  0  0
   14.2930  -62.0370   33.7610 C   0  0  0  0  0
   15.1860  -59.2840   51.9790 C   0  0  0  0  0
   13.7380  -62.1020   35.0460 C   0  0  0  0  0
   18.1290  -59.9410   55.4710 S   0  0  0  0  0
   17.0590  -65.0960   33.7430 S   0  0  0  0  0
   13.0250  -61.3910   54.7240 S   0  0  0  0  0
   14.5760  -60.9780   31.1620 S   0  0  0  0  0
   17.0440  -57.9050   50.4860 S   0  0  0  0  0
   13.5330  -63.1910   37.5040 S   0  0  0  0  0
   13.4513  -58.7842   36.7342 H   0  0  0  0  0
   15.9208  -66.0511   32.3108 H   0  0  0  0  0
   12.5254  -63.1198   53.7192 H   0  0  0  0  0
   16.3919  -60.2535   31.8181 H   0  0  0  0  0
   19.2802  -58.2543   55.1915 H   0  0  0  0  0
   15.2044  -57.1258   49.9792 H   0  0  0  0  0
   14.7183  -54.9957   46.5339 H   0  0  0  0  0
    9.6286  -59.9100   40.7233 H   0  0  0  0  0
   14.9643  -56.1277   44.3397 H   0  0  0  0  0
   11.3493  -59.4797   42.4529 H   0  0  0  0  0
   14.3046  -56.3370   48.5787 H   0  0  0  0  0
   10.2626  -60.2755   38.3553 H   0  0  0  0  0
   12.2329  -59.5029   50.2771 H   0  0  0  0  0
   11.5426  -59.5062   34.7850 H   0  0  0  0  0
   11.5824  -60.7334   52.3266 H   0  0  0  0  0
   12.5221  -59.4167   32.5144 H   0  0  0  0  0
   14.3539  -59.9420   46.2347 H   0  0  0  0  0
   14.3850  -59.8332   39.4476 H   0  0  0  0  0
   18.4045  -58.5838   52.8710 H   0  0  0  0  0
   15.5401  -64.7340   36.2509 H   0  0  0  0  0
   15.3909  -60.7131   55.0609 H   0  0  0  0  0
   15.7227  -62.8803   32.3842 H   0  0  0  0  0
   15.7075  -59.0382   43.6627 H   0  0  0  0  0
   14.9101  -59.7213   41.7298 H   0  0  0  0  0
   15.1497  -57.6225   49.8592 H   0  0  0  0  0
   11.4385  -61.8121   36.9319 H   0  0  0  0  0
 42  1  2  0  0  0
 43  2  2  0  0  0
 44  3  1  0  0  0
 61  4  2  0  0  0
 61  5  2  0  0  0
 62  6  1  0  0  0
 62  7  2  0  0  0
 63  8  1  0  0  0
 63  9  2  0  0  0
 64 10  1  0  0  0
 64 11  2  0  0  0
 65 12  2  0  0  0
 65 13  2  0  0  0
 44 14  1  0  0  0
 14 66  1  0  0  0
 66 15  2  0  0  0
 61 16  1  0  0  0
 62 17  2  0  0  0
 63 18  2  0  0  0
 64 19  2  0  0  0
 65 20  1  0  0  0
 66 21  2  0  0  0
 22 24  4  0  0  0
 26 22  4  0  0  0
 25 23  4  0  0  0
 23 27  4  0  0  0
 45 24  4  0  0  0
 46 25  4  0  0  0
 47 26  4  0  0  0
 48 27  4  0  0  0
 28 30  4  0  0  0
 51 28  4  0  0  0
 29 31  4  0  0  0
 52 29  4  0  0  0
 30 53  4  0  0  0
 31 54  4  0  0  0
 32 45  4  0  0  0
 47 32  4  0  0  0
 46 33  4  0  0  0
 33 48  4  0  0  0
 34 49  4  0  0  0
 55 34  4  0  0  0
 50 35  4  0  0  0
 35 56  4  0  0  0
 49 36  4  0  0  0
 36 57  4  0  0  0
 37 50  4  0  0  0
 58 37  4  0  0  0
 38 42  1  0  0  0
 45 38  1  0  0  0
 42 39  1  0  0  0
 39 46  1  0  0  0
 40 43  1  0  0  0
 51 40  1  0  0  0
 44 41  1  0  0  0
 41 52  1  0  0  0
 43 47  1  0  0  0
 48 44  1  0  0  0
 49 61  1  0  0  0
 50 62  1  0  0  0
 59 51  4  0  0  0
 52 60  4  0  0  0
 57 53  4  0  0  0
 53 63  1  0  0  0
 54 58  4  0  0  0
 54 64  1  0  0  0
 55 59  4  0  0  0
 55 65  1  0  0  0
 56 60  4  0  0  0
 56 66  1  0  0  0
 57 59  4  0  0  0
 58 60  4  0  0  0
  3 67  1  0  0  0
  6 68  1  0  0  0
  8 69  1  0  0  0
 10 70  1  0  0  0
 16 71  1  0  0  0
 20 72  1  0  0  0
 22 73  1  0  0  0
 23 74  1  0  0  0
 24 75  1  0  0  0
 25 76  1  0  0  0
 26 77  1  0  0  0
 27 78  1  0  0  0
 28 79  1  0  0  0
 29 80  1  0  0  0
 30 81  1  0  0  0
 31 82  1  0  0  0
 32 83  1  0  0  0
 33 84  1  0  0  0
 34 85  1  0  0  0
 35 86  1  0  0  0
 36 87  1  0  0  0
 37 88  1  0  0  0
 38 89  1  0  0  0
 39 90  1  0  0  0
 40 91  1  0  0  0
 41 92  1  0  0  0
M  END
$$$$
