### 
### Created by X-TOOL on Mon Sep 10 21:13:10 2018
### 

@<TRIPOS>MOLECULE
3upf_ligand
   87    93     1     0     0
SMALL
GAST_HUCK


@<TRIPOS>ATOM
      1 OAA        12.6050  -58.4370   43.4830 O.2       1 0BU        -0.3803
      2 OAB        13.4030  -59.9900   48.6490 O.2       1 0BU        -0.3708
      3 OAC        13.7630  -59.6250   37.0770 O.3       1 0BU        -0.3825
      4 OAD        17.3240  -60.5210   56.6350 O.co2     1 0BU        -0.4797
      5 OAE        19.2250  -60.9310   55.0630 O.co2     1 0BU        -0.4797
      6 OAF        16.7660  -65.5960   32.3210 O.co2     1 0BU        -0.4797
      7 OAG        18.4070  -64.3670   33.7720 O.co2     1 0BU        -0.4797
      8 OAH        13.1100  -62.8960   54.4470 O.co2     1 0BU        -0.4823
      9 OAI        13.9520  -61.0160   55.8830 O.co2     1 0BU        -0.4823
     10 OAJ        16.1030  -61.0110   31.3040 O.co2     1 0BU        -0.4820
     11 OAK        14.1170  -62.1880   30.3410 O.co2     1 0BU        -0.4820
     12 OAL        18.4450  -57.3480   50.7490 O.co2     1 0BU        -0.4795
     13 OAM        17.1090  -58.8860   49.3140 O.co2     1 0BU        -0.4795
     14 OAN        13.2580  -61.7930   38.0680 O.3       1 0BU        -0.2152
     15 OAO        12.2260  -63.9840   37.4060 O.2       1 0BU        -0.1423
     16 OAP        18.7730  -58.6240   55.9180 O.co2     1 0BU        -0.4797
     17 OAQ        17.1090  -66.3270   34.6460 O.co2     1 0BU        -0.4797
     18 OAR        11.5870  -61.0230   55.0960 O.co2     1 0BU        -0.4823
     19 OAS        14.1750  -59.6800   30.4500 O.co2     1 0BU        -0.4820
     20 OAT        16.0790  -56.7650   50.1420 O.co2     1 0BU        -0.4795
     21 OAU        14.5170  -63.9250   38.4180 O.2       1 0BU        -0.1423
     22 CAV        14.6410  -56.0810   46.4680 C.ar      1 0BU        -0.0701
     23 CAW        10.6810  -59.8910   40.4400 C.ar      1 0BU        -0.0435
     24 CAX        14.7720  -56.7160   45.2370 C.ar      1 0BU        -0.0372
     25 CAY        11.6460  -59.6500   41.4180 C.ar      1 0BU        -0.0114
     26 CAZ        14.4110  -56.8350   47.6150 C.ar      1 0BU        -0.0570
     27 CBA        11.0320  -60.1080   39.1090 C.ar      1 0BU        -0.0463
     28 CBB        12.9560  -59.6410   51.0810 C.ar      1 0BU        -0.0414
     29 CBC        12.3080  -60.2260   34.4950 C.ar      1 0BU        -0.0447
     30 CBD        12.5900  -60.3290   52.2300 C.ar      1 0BU        -0.0595
     31 CBE        12.8640  -60.1720   33.2220 C.ar      1 0BU        -0.0567
     32 CBF        14.4350  -58.8570   46.3010 C.ar      1 0BU        -0.0213
     33 CBG        13.3330  -59.8550   39.7320 C.ar      1 0BU        -0.0138
     34 CBH        17.3900  -58.9750   52.9470 C.ar      1 0BU        -0.0210
     35 CBI        15.1940  -63.9790   35.5450 C.ar      1 0BU        -0.0148
     36 CBJ        15.7030  -60.1680   54.1700 C.ar      1 0BU        -0.0371
     37 CBK        15.2930  -62.9420   33.3840 C.ar      1 0BU        -0.0360
     38 NBL        14.7950  -58.6920   43.9590 N.am      1 0BU        -0.2135
     39 NBM        13.9610  -59.4230   41.9550 N.am      1 0BU        -0.2085
     40 NBN        14.5650  -58.4580   49.8400 N.am      1 0BU        -0.2275
     41 NBO        12.2000  -61.2010   36.6370 N.pl3     1 0BU        -0.2979
     42 CBP        13.7240  -58.8300   43.1490 C.2       1 0BU         0.3172
     43 CBQ        14.0680  -58.9580   48.6940 C.2       1 0BU         0.2328
     44 CBR        12.8060  -60.2930   37.4480 C.3       1 0BU         0.2712
     45 CBS        14.6580  -58.1020   45.1480 C.ar      1 0BU         0.0725
     46 CBT        12.9860  -59.6290   41.0620 C.ar      1 0BU         0.0959
     47 CBU        14.3160  -58.2230   47.5380 C.ar      1 0BU         0.0433
     48 CBV        12.3730  -60.1080   38.7560 C.ar      1 0BU         0.0170
     49 CBW        16.9990  -59.6690   54.0900 C.ar      1 0BU         0.0494
     50 CBX        15.7480  -63.9210   34.2670 C.ar      1 0BU         0.0504
     51 CBY        14.2430  -59.1270   50.9520 C.ar      1 0BU         0.0826
     52 CBZ        12.7260  -61.1960   35.3990 C.ar      1 0BU         0.0495
     53 CCA        13.5100  -60.5010   53.2560 C.ar      1 0BU         0.0386
     54 CCB        13.8530  -61.0740   32.8440 C.ar      1 0BU         0.0415
     55 CCC        16.4900  -58.7780   51.8990 C.ar      1 0BU         0.0599
     56 CCD        14.2000  -63.0780   35.9270 C.ar      1 0BU         0.1254
     57 CCE        14.8000  -59.9810   53.1290 C.ar      1 0BU        -0.0062
     58 CCF        14.2930  -62.0370   33.7610 C.ar      1 0BU        -0.0039
     59 CCG        15.1860  -59.2840   51.9790 C.ar      1 0BU         0.0350
     60 CCH        13.7380  -62.1020   35.0460 C.ar      1 0BU         0.0359
     61 SCI        18.1290  -59.9410   55.4710 S.o2      1 0BU        -0.1636
     62 SCJ        17.0590  -65.0960   33.7430 S.o2      1 0BU        -0.1634
     63 SCK        13.0250  -61.3910   54.7240 S.o2      1 0BU        -0.1723
     64 SCL        14.5760  -60.9780   31.1620 S.o2      1 0BU        -0.1709
     65 SCM        17.0440  -57.9050   50.4860 S.o2      1 0BU        -0.1625
     66 SCN        13.5330  -63.1910   37.5040 S.o2      1 0BU         0.1086
     67 H          14.3513  -59.4707   37.8198 H         1 0BU         0.2004
     68 H          14.7183  -54.9957   46.5339 H         1 0BU         0.0588
     69 H           9.6286  -59.9100   40.7233 H         1 0BU         0.0664
     70 H          14.9643  -56.1277   44.3397 H         1 0BU         0.0536
     71 H          11.3493  -59.4797   42.4529 H         1 0BU         0.0758
     72 H          14.3046  -56.3370   48.5787 H         1 0BU         0.0538
     73 H          10.2626  -60.2755   38.3553 H         1 0BU         0.0740
     74 H          12.2329  -59.5029   50.2771 H         1 0BU         0.0444
     75 H          11.5426  -59.5062   34.7850 H         1 0BU         0.0464
     76 H          11.5824  -60.7334   52.3266 H         1 0BU         0.0583
     77 H          12.5221  -59.4167   32.5144 H         1 0BU         0.0591
     78 H          14.3539  -59.9420   46.2347 H         1 0BU         0.0551
     79 H          14.3850  -59.8332   39.4476 H         1 0BU         0.0709
     80 H          18.4045  -58.5838   52.8710 H         1 0BU         0.0614
     81 H          15.5401  -64.7340   36.2509 H         1 0BU         0.0623
     82 H          15.3909  -60.7131   55.0609 H         1 0BU         0.0606
     83 H          15.7227  -62.8803   32.3842 H         1 0BU         0.0612
     84 H          15.7075  -59.0382   43.6627 H         1 0BU         0.2262
     85 H          14.9101  -59.7213   41.7298 H         1 0BU         0.2264
     86 H          15.1497  -57.6225   49.8592 H         1 0BU         0.2308
     87 H          11.4385  -61.8121   36.9319 H         1 0BU         0.1724
@<TRIPOS>BOND
     1   42    1 2  
     2   43    2 2  
     3   44    3 1  
     4   61    4 ar 
     5   61    5 ar 
     6   62    6 ar 
     7   62    7 ar 
     8   63    8 ar 
     9   63    9 ar 
    10   64   10 ar 
    11   64   11 ar 
    12   65   12 ar 
    13   65   13 ar 
    14   44   14 1  
    15   14   66 1  
    16   66   15 2  
    17   61   16 ar 
    18   62   17 ar 
    19   63   18 ar 
    20   64   19 ar 
    21   65   20 ar 
    22   66   21 2  
    23   22   24 ar 
    24   26   22 ar 
    25   25   23 ar 
    26   23   27 ar 
    27   45   24 ar 
    28   46   25 ar 
    29   47   26 ar 
    30   48   27 ar 
    31   28   30 ar 
    32   51   28 ar 
    33   29   31 ar 
    34   52   29 ar 
    35   30   53 ar 
    36   31   54 ar 
    37   32   45 ar 
    38   47   32 ar 
    39   46   33 ar 
    40   33   48 ar 
    41   34   49 ar 
    42   55   34 ar 
    43   50   35 ar 
    44   35   56 ar 
    45   49   36 ar 
    46   36   57 ar 
    47   37   50 ar 
    48   58   37 ar 
    49   38   42 am 
    50   45   38 1  
    51   42   39 am 
    52   39   46 1  
    53   40   43 am 
    54   51   40 1  
    55   44   41 1  
    56   41   52 1  
    57   43   47 1  
    58   48   44 1  
    59   49   61 1  
    60   50   62 1  
    61   59   51 ar 
    62   52   60 ar 
    63   57   53 ar 
    64   53   63 1  
    65   54   58 ar 
    66   54   64 1  
    67   55   59 ar 
    68   55   65 1  
    69   56   60 ar 
    70   56   66 1  
    71   57   59 ar 
    72   58   60 ar 
    73    3   67 1  
    74   22   68 1  
    75   23   69 1  
    76   24   70 1  
    77   25   71 1  
    78   26   72 1  
    79   27   73 1  
    80   28   74 1  
    81   29   75 1  
    82   30   76 1  
    83   31   77 1  
    84   32   78 1  
    85   33   79 1  
    86   34   80 1  
    87   35   81 1  
    88   36   82 1  
    89   37   83 1  
    90   38   84 1  
    91   39   85 1  
    92   40   86 1  
    93   41   87 1  
@<TRIPOS>SUBSTRUCTURE
     1 0BU         1

