3qcx_ligand
  -I-interpret- 

 42 45  0  0  0  0  0  0  0  0999 V2000
  -40.6850   16.4550   12.9350 C   0  0  0  0  0
  -41.8750   17.0930   12.6120 C   0  0  0  0  0
  -42.9100   15.0750   11.8780 C   0  0  0  0  0
  -44.3540   18.4770   11.8950 C   0  0  0  0  0
  -40.6150   15.0770   12.7190 C   0  0  0  0  0
  -42.9720   16.4350   12.0800 C   0  0  0  0  0
  -41.7370   14.4430   12.2140 C   0  0  0  0  0
  -44.1880   17.1330   11.6770 C   0  0  0  0  0
  -45.5240   19.0700   11.4710 C   0  0  0  0  0
  -39.6520   14.0240   12.8860 C   0  0  0  0  0
  -46.2580   17.0720   10.6730 C   0  0  0  0  0
  -47.0610   20.9290   11.7300 C   0  0  0  0  0
  -46.9770   22.3920   11.3480 C   0  0  0  0  0
  -44.7440   22.5510   12.1170 C   0  0  0  0  0
  -44.7480   21.1090   12.5730 C   0  0  0  0  0
  -45.2040   21.0400   14.0050 C   0  0  0  0  0
  -45.1440   16.4210   11.0680 N   0  0  0  0  0
  -46.4790   18.3740   10.8450 N   0  0  0  0  0
  -40.1520   12.8400   12.5000 N   0  0  0  0  0
  -41.4040   13.1190   12.0980 N   0  0  0  0  0
  -45.6910   20.4680   11.6540 N   0  0  0  0  0
  -38.3840   14.1870   13.3820 N   0  0  0  0  0
  -47.2810   16.3820   10.0280 N   0  0  0  0  0
  -46.0780   23.0730   12.2250 O   0  0  0  0  0
  -39.8382   17.0081   13.3414 H   0  0  0  0  0
  -41.9500   18.1664   12.7858 H   0  0  0  0  0
  -43.7558   14.5225   11.4687 H   0  0  0  0  0
  -43.5797   19.0619   12.3914 H   0  0  0  0  0
  -47.7231   20.3673   11.0710 H   0  0  0  0  0
  -47.4910   20.7848   12.7212 H   0  0  0  0  0
  -47.9667   22.8417   11.4279 H   0  0  0  0  0
  -46.6127   22.4758   10.3241 H   0  0  0  0  0
  -44.4060   22.6108   11.0824 H   0  0  0  0  0
  -44.0669   23.1344   12.7410 H   0  0  0  0  0
  -43.7724   20.6235   12.5494 H   0  0  0  0  0
  -44.5236   21.6185   14.6299 H   0  0  0  0  0
  -46.2105   21.4507   14.0847 H   0  0  0  0  0
  -45.2071   20.0009   14.3343 H   0  0  0  0  0
  -38.0623   15.1125   13.6654 H   0  0  0  0  0
  -37.7625   13.3827   13.4675 H   0  0  0  0  0
  -47.1897   15.3813    9.8527 H   0  0  0  0  0
  -48.1217   16.8772    9.7308 H   0  0  0  0  0
  2  1  4  0  0  0
  1  5  4  0  0  0
  6  2  4  0  0  0
  6  3  4  0  0  0
  3  7  4  0  0  0
  4  8  4  0  0  0
  9  4  4  0  0  0
  7  5  4  0  0  0
  5 10  4  0  0  0
  8  6  1  0  0  0
  7 20  4  0  0  0
  8 17  4  0  0  0
  9 18  4  0  0  0
 21  9  1  0  0  0
 10 19  4  0  0  0
 10 22  1  0  0  0
 11 17  4  0  0  0
 18 11  4  0  0  0
 11 23  1  0  0  0
 13 12  1  0  0  0
 12 21  1  0  0  0
 24 13  1  0  0  0
 14 15  1  0  0  0
 14 24  1  0  0  0
 15 16  1  0  0  0
 15 21  1  0  0  0
 19 20  4  0  0  0
  1 25  1  0  0  0
  2 26  1  0  0  0
  3 27  1  0  0  0
  4 28  1  0  0  0
 12 29  1  0  0  0
 12 30  1  0  0  0
 13 31  1  0  0  0
 13 32  1  0  0  0
 14 33  1  0  0  0
 14 34  1  0  0  0
 15 35  1  0  0  0
 16 36  1  0  0  0
 16 37  1  0  0  0
 16 38  1  0  0  0
 22 39  1  0  0  0
 22 40  1  0  0  0
 23 41  1  0  0  0
 23 42  1  0  0  0
M  END
$$$$
