5ho8_ligand
  -I-interpret- 

 36 38  0  0  0  0  0  0  0  0999 V2000
   38.0770   15.4610    2.5740 C   0  0  0  0  0
   37.8430   14.0940    2.6810 C   0  0  0  0  0
   42.1100   13.9490    4.1590 C   0  0  0  0  0
   41.6920   15.2130    3.8660 C   0  0  0  0  0
   42.5350   16.4340    3.9680 C   0  0  0  0  0
   42.1380   17.6950    3.4560 C   0  0  0  0  0
   43.0600   18.7520    3.5470 C   0  0  0  0  0
   44.6170   17.3270    4.5640 C   0  0  0  0  0
   42.4320   22.4910    4.0410 C   0  0  0  0  0
   43.2960   23.2680    5.0490 C   0  0  0  0  0
   38.7880   13.2700    3.1060 N   0  0  0  0  0
   39.3170   15.9720    2.9460 C   0  0  0  0  0
   40.3020   15.0820    3.3920 C   0  0  0  0  0
   40.0000   13.7030    3.4570 C   0  0  0  0  0
   41.1120   13.0610    3.9350 N   0  0  0  0  0
   44.2630   18.5310    4.0980 N   0  0  0  0  0
   43.7770   16.2980    4.4850 N   0  0  0  0  0
   45.8860   17.1260    5.0830 N   0  0  0  0  0
   42.7060   20.1550    3.1020 C   0  0  0  0  0
   42.3600   20.9860    4.3550 C   0  0  0  0  0
   37.2969   16.1255    2.2025 H   0  0  0  0  0
   36.8655   13.6947    2.4105 H   0  0  0  0  0
   43.1048   13.6900    4.5216 H   0  0  0  0  0
   41.1546   17.8394    3.0085 H   0  0  0  0  0
   42.8833   22.6057    3.0555 H   0  0  0  0  0
   41.4195   22.8916    4.0899 H   0  0  0  0  0
   42.8762   23.1549    6.0485 H   0  0  0  0  0
   44.3124   22.8745    5.0337 H   0  0  0  0  0
   43.3095   24.3233    4.7765 H   0  0  0  0  0
   39.5172   17.0421    2.8914 H   0  0  0  0  0
   46.5536   17.8967    5.1108 H   0  0  0  0  0
   46.1525   16.2074    5.4372 H   0  0  0  0  0
   41.8537   20.1287    2.4230 H   0  0  0  0  0
   43.5479   20.6044    2.5753 H   0  0  0  0  0
   41.3477   20.7392    4.6750 H   0  0  0  0  0
   43.0769   20.7540    5.1426 H   0  0  0  0  0
  1  2  4  0  0  0
 12  1  4  0  0  0
 11  2  4  0  0  0
  4  3  4  0  0  0
  3 15  4  0  0  0
  5  4  1  0  0  0
  4 13  4  0  0  0
  6  5  4  0  0  0
  5 17  4  0  0  0
  7  6  4  0  0  0
  7 16  4  0  0  0
 19  7  1  0  0  0
 16  8  4  0  0  0
  8 17  4  0  0  0
  8 18  1  0  0  0
  9 10  1  0  0  0
 20  9  1  0  0  0
 14 11  4  0  0  0
 13 12  4  0  0  0
 13 14  4  0  0  0
 14 15  4  0  0  0
 19 20  1  0  0  0
  1 21  1  0  0  0
  2 22  1  0  0  0
  3 23  1  0  0  0
  6 24  1  0  0  0
  9 25  1  0  0  0
  9 26  1  0  0  0
 10 27  1  0  0  0
 10 28  1  0  0  0
 10 29  1  0  0  0
 12 30  1  0  0  0
 18 31  1  0  0  0
 18 32  1  0  0  0
 19 33  1  0  0  0
 19 34  1  0  0  0
 20 35  1  0  0  0
 20 36  1  0  0  0
M  END
$$$$
