6bc9_ligand
  -I-interpret- 

 36 37  0  0  0  0  0  0  0  0999 V2000
   -6.2250    3.6560   15.6850 S   0  0  0  0  0
   -5.3720    2.2700   15.9310 C   0  0  0  0  0
   -4.1190    2.3230   15.3460 C   0  0  0  0  0
   -3.8670    3.5910   14.6840 C   0  0  0  0  0
   -2.6250    3.9970   13.8840 C   0  0  0  0  0
   -2.5060    5.4930   13.6210 C   0  0  0  0  0
   -3.7800    6.0730   12.9960 C   0  0  0  0  0
   -5.1210    6.0290   14.2070 S   0  0  0  0  0
   -5.0240    4.3830   14.8430 C   0  0  0  0  0
   -6.0170    0.8990   16.8440 S   0  0  0  0  0
   -5.3850    1.0150   18.3090 O   0  0  0  0  0
   -7.6180    1.0250   16.7370 O   0  0  0  0  0
   -5.4010   -0.5200   16.1780 N   0  0  0  0  0
   -2.5270    3.1510   12.6990 N   0  3  0  0  0
   -3.5120    7.5010   12.4960 C   0  0  0  0  0
   -6.5410    6.1890   13.4540 O   0  0  0  0  0
   -4.7750    7.0140   15.4420 O   0  0  0  0  0
   -1.3840    3.2310   11.8170 C   0  0  0  0  0
   -1.3770    2.0640   10.8480 C   0  0  0  0  0
   -3.4007    1.5038   15.3784 H   0  0  0  0  0
   -1.7425    3.8151   14.4974 H   0  0  0  0  0
   -1.6834    5.6508   12.9235 H   0  0  0  0  0
   -2.3376    5.9931   14.5748 H   0  0  0  0  0
   -4.0806    5.4721   12.1377 H   0  0  0  0  0
   -4.7573   -1.0990   16.7173 H   0  0  0  0  0
   -5.6716   -0.8004   15.2354 H   0  0  0  0  0
   -3.3092    3.4503   12.1168 H   0  0  0  0  0
   -2.4826    2.2039   13.0751 H   0  0  0  0  0
   -4.4129    7.8949   12.0255 H   0  0  0  0  0
   -3.2345    8.1337   13.3391 H   0  0  0  0  0
   -2.6992    7.4838   11.7700 H   0  0  0  0  0
   -0.4730    3.2001   12.4147 H   0  0  0  0  0
   -1.4384    4.1608   11.2507 H   0  0  0  0  0
   -1.3286    1.1295   11.4070 H   0  0  0  0  0
   -2.2881    2.0844   10.2501 H   0  0  0  0  0
   -0.5093    2.1424   10.1930 H   0  0  0  0  0
  1  2  4  0  0  0
  1  9  4  0  0  0
  2  3  4  0  0  0
  2 10  1  0  0  0
  3  4  4  0  0  0
  4  5  1  0  0  0
  4  9  4  0  0  0
  5  6  1  0  0  0
  5 14  1  0  0  0
  6  7  1  0  0  0
  7  8  1  0  0  0
  7 15  1  0  0  0
  8  9  1  0  0  0
  8 16  2  0  0  0
  8 17  2  0  0  0
 10 11  2  0  0  0
 10 12  2  0  0  0
 10 13  1  0  0  0
 14 18  1  0  0  0
 18 19  1  0  0  0
  3 20  1  0  0  0
  5 21  1  0  0  0
  6 22  1  0  0  0
  6 23  1  0  0  0
  7 24  1  0  0  0
 13 25  1  0  0  0
 13 26  1  0  0  0
 14 27  1  0  0  0
 14 28  1  0  0  0
 15 29  1  0  0  0
 15 30  1  0  0  0
 15 31  1  0  0  0
 18 32  1  0  0  0
 18 33  1  0  0  0
 19 34  1  0  0  0
 19 35  1  0  0  0
 19 36  1  0  0  0
M  END
$$$$
