4e3d_ligand
  -I-interpret- 

 17 17  0  0  0  0  0  0  0  0999 V2000
   15.3500    2.1830   15.9970 O   0  0  0  0  0
   17.5870    1.8570   15.9730 O   0  0  0  0  0
   19.3590    5.9540   13.6850 O   0  0  0  0  0
   14.4120    4.0670   14.8440 O   0  0  0  0  0
   17.0170    6.2110   13.5670 C   0  0  0  0  0
   15.7570    5.7290   13.9080 C   0  0  0  0  0
   18.0000    4.2460   14.5570 C   0  0  0  0  0
   16.5510    2.4600   15.6140 C   0  0  0  0  0
   18.1060    5.4670   13.9090 C   0  0  0  0  0
   15.6430    4.5300   14.5160 C   0  0  0  0  0
   16.7380    3.7470   14.8820 C   0  0  0  0  0
   14.7343    2.7901   15.5800 H   0  0  0  0  0
   20.0083    5.3115   13.9803 H   0  0  0  0  0
   14.4961    3.2089   15.2661 H   0  0  0  0  0
   17.1298    7.1586   13.0403 H   0  0  0  0  0
   14.8667    6.3170   13.6851 H   0  0  0  0  0
   18.8961    3.6798   14.8108 H   0  0  0  0  0
  8  1  1  0  0  0
  8  2  2  0  0  0
  9  3  1  0  0  0
 10  4  1  0  0  0
  5  6  4  0  0  0
  9  5  4  0  0  0
  6 10  4  0  0  0
  7  9  4  0  0  0
 11  7  4  0  0  0
  8 11  1  0  0  0
 10 11  4  0  0  0
  1 12  1  0  0  0
  3 13  1  0  0  0
  4 14  1  0  0  0
  5 15  1  0  0  0
  6 16  1  0  0  0
  7 17  1  0  0  0
M  END
$$$$
