5i0b_ligand
  -I-interpret- 

 32 34  0  0  0  0  0  0  0  0999 V2000
   18.7950    3.9410   11.5200 C   0  0  0  0  0
   18.3970    4.1940   12.9640 C   0  0  0  0  0
   17.1130    5.0180   13.0070 C   0  0  0  0  0
   19.5550    4.9190   13.6720 C   0  0  0  0  0
   19.7960    6.2250   13.5210 N   0  0  0  0  0
   20.8040    6.5230   14.2160 N   0  0  0  0  0
   21.3790    7.8620   14.3100 C   0  0  0  0  0
   21.2560    5.4490   14.8650 C   0  0  0  0  0
   20.4780    4.4140   14.5240 C   0  0  0  0  0
   20.6510    3.1530   15.0290 C   0  0  0  0  0
   19.7400    2.1700   15.1270 N   0  0  0  0  0
   20.3290    1.1100   15.7090 C   0  0  0  0  0
   19.8640   -0.1140   16.0190 C   0  0  0  0  0
   20.6940   -1.0520   16.6370 C   0  0  0  0  0
   20.0920   -2.8620   17.1180 Br  0  0  0  0  0
   22.0050   -0.6760   16.9130 C   0  0  0  0  0
   22.4430    0.5990   16.5710 N   0  0  0  0  0
   21.6000    1.4580   15.9830 C   0  0  0  0  0
   21.7900    2.7140   15.5800 N   0  0  0  0  0
   18.9945    4.8926   11.0274 H   0  0  0  0  0
   19.6920    3.3222   11.4948 H   0  0  0  0  0
   17.9830    3.4272   11.0053 H   0  0  0  0  0
   18.2039    3.2530   13.4791 H   0  0  0  0  0
   16.8292    5.1922   14.0449 H   0  0  0  0  0
   17.2790    5.9733   12.5092 H   0  0  0  0  0
   16.3170    4.4749   12.4976 H   0  0  0  0  0
   21.6920    8.1920   13.3194 H   0  0  0  0  0
   20.6313    8.5502   14.7042 H   0  0  0  0  0
   22.2414    7.8398   14.9763 H   0  0  0  0  0
   22.1044    5.4193   15.5486 H   0  0  0  0  0
   18.8318   -0.3755   15.7861 H   0  0  0  0  0
   22.6857   -1.3776   17.3951 H   0  0  0  0  0
  1  2  1  0  0  0
  2  3  1  0  0  0
  2  4  1  0  0  0
  4  5  4  0  0  0
  4  9  4  0  0  0
  5  6  4  0  0  0
  6  7  1  0  0  0
  6  8  4  0  0  0
  8  9  4  0  0  0
  9 10  1  0  0  0
 10 11  4  0  0  0
 10 19  4  0  0  0
 11 12  4  0  0  0
 12 13  4  0  0  0
 12 18  4  0  0  0
 13 14  4  0  0  0
 14 15  1  0  0  0
 14 16  4  0  0  0
 16 17  4  0  0  0
 17 18  4  0  0  0
 18 19  4  0  0  0
  1 20  1  0  0  0
  1 21  1  0  0  0
  1 22  1  0  0  0
  2 23  1  0  0  0
  3 24  1  0  0  0
  3 25  1  0  0  0
  3 26  1  0  0  0
  7 27  1  0  0  0
  7 28  1  0  0  0
  7 29  1  0  0  0
  8 30  1  0  0  0
 13 31  1  0  0  0
 16 32  1  0  0  0
M  END
$$$$
