5g5z_ligand
  -I-interpret- 

 66 68  0  0  0  0  0  0  0  0999 V2000
  -17.4300  -65.5680  -48.6000 C   0  0  0  0  0
  -17.9780  -66.6820  -51.4600 C   0  0  0  0  0
  -16.8790  -67.8240  -53.8490 C   0  0  0  0  0
  -16.0820  -66.0030  -48.0500 C   0  0  0  0  0
  -19.0620  -66.3480  -50.4160 C   0  0  0  0  0
  -17.7700  -68.6400  -52.9760 C   0  0  0  0  0
  -16.2380  -67.0100  -46.9630 C   0  0  0  0  0
  -20.1580  -67.3480  -49.9380 C   0  0  0  0  0
  -17.5150  -69.9340  -52.9610 C   0  0  0  0  0
  -17.0350  -66.4560  -45.8570 C   0  0  0  0  0
  -21.0510  -66.4410  -49.1300 C   0  0  0  0  0
  -18.9180  -70.5980  -52.7080 C   0  0  0  0  0
  -18.3810  -66.0230  -46.3810 C   0  0  0  0  0
  -20.8660  -65.2410  -49.6680 C   0  0  0  0  0
  -19.7870  -69.7450  -53.6720 C   0  0  0  0  0
  -19.1770  -65.4520  -45.2470 C   0  0  0  0  0
  -21.2320  -64.1840  -48.6820 C   0  0  0  0  0
  -21.2590  -69.6620  -53.2660 C   0  0  0  0  0
  -18.1010  -66.6540  -49.2730 O   0  0  0  0  0
  -17.8280  -68.0890  -51.5950 O   0  0  0  0  0
  -15.5030  -67.9790  -53.5130 O   0  0  0  0  0
  -15.2940  -66.5550  -49.1280 O   0  0  0  0  0
  -19.3070  -65.1680  -50.0340 O   0  0  0  0  0
  -19.2580  -68.5410  -53.6450 O   0  0  0  0  0
  -14.9460  -67.4930  -46.4620 O   0  0  0  0  0
  -19.7430  -68.3900  -49.1700 O   0  0  0  0  0
  -16.5800  -70.3340  -51.9240 O   0  0  0  0  0
  -17.2710  -67.5020  -44.8810 O   0  0  0  0  0
  -22.5080  -66.8010  -49.1890 O   0  0  0  0  0
  -18.9780  -71.8780  -53.1200 O   0  0  0  0  0
  -18.1950  -65.0250  -47.4410 O   0  0  0  0  0
  -20.4520  -63.0250  -48.9340 O   0  0  0  0  0
  -21.7920  -68.6410  -54.0540 O   0  0  0  0  0
  -18.7420  -64.1650  -44.9520 O   0  0  0  0  0
  -17.3265  -64.7997  -49.3663 H   0  0  0  0  0
  -17.0297  -66.2561  -51.1323 H   0  0  0  0  0
  -18.2749  -66.2651  -52.4224 H   0  0  0  0  0
  -17.1435  -66.7750  -53.7158 H   0  0  0  0  0
  -17.0156  -68.1577  -54.8776 H   0  0  0  0  0
  -15.5795  -65.1346  -47.6240 H   0  0  0  0  0
  -16.7618  -67.8641  -47.3922 H   0  0  0  0  0
  -20.6047  -67.8596  -50.7906 H   0  0  0  0  0
  -17.0385  -70.2398  -53.8924 H   0  0  0  0  0
  -16.5017  -65.6145  -45.4148 H   0  0  0  0  0
  -20.7939  -66.5082  -48.0729 H   0  0  0  0  0
  -19.1970  -70.6178  -51.6545 H   0  0  0  0  0
  -18.9177  -66.8737  -46.8010 H   0  0  0  0  0
  -21.4853  -65.0838  -50.5511 H   0  0  0  0  0
  -19.7860  -70.2035  -54.6609 H   0  0  0  0  0
  -19.0459  -66.0823  -44.3674 H   0  0  0  0  0
  -20.2282  -65.4155  -45.5330 H   0  0  0  0  0
  -21.0400  -64.5429  -47.6709 H   0  0  0  0  0
  -22.2904  -63.9423  -48.7789 H   0  0  0  0  0
  -21.3743  -69.4543  -52.2022 H   0  0  0  0  0
  -21.7766  -70.6080  -53.4249 H   0  0  0  0  0
  -14.9688  -67.4375  -54.0986 H   0  0  0  0  0
  -15.1996  -65.8989  -49.8224 H   0  0  0  0  0
  -14.4351  -67.8518  -47.1913 H   0  0  0  0  0
  -19.1752  -68.9632  -49.6902 H   0  0  0  0  0
  -15.7277  -69.9237  -52.0876 H   0  0  0  0  0
  -17.7908  -67.1494  -44.1550 H   0  0  0  0  0
  -23.0111  -66.1830  -48.6537 H   0  0  0  0  0
  -19.8531  -72.2299  -52.9412 H   0  0  0  0  0
  -20.6838  -62.3409  -48.3016 H   0  0  0  0  0
  -22.7237  -68.5333  -53.8490 H   0  0  0  0  0
  -19.2600  -63.8122  -44.2248 H   0  0  0  0  0
  1  4  1  0  0  0
 19  1  1  0  0  0
  1 31  1  0  0  0
  2  5  1  0  0  0
 20  2  1  0  0  0
  6  3  1  0  0  0
  3 21  1  0  0  0
  4  7  1  0  0  0
  4 22  1  0  0  0
  5  8  1  0  0  0
  5 19  1  0  0  0
  5 23  1  0  0  0
  6  9  1  0  0  0
  6 20  1  0  0  0
  6 24  1  0  0  0
  7 10  1  0  0  0
  7 25  1  0  0  0
  8 11  1  0  0  0
  8 26  1  0  0  0
  9 12  1  0  0  0
  9 27  1  0  0  0
 10 13  1  0  0  0
 10 28  1  0  0  0
 11 14  1  0  0  0
 11 29  1  0  0  0
 12 15  1  0  0  0
 12 30  1  0  0  0
 13 16  1  0  0  0
 13 31  1  0  0  0
 14 17  1  0  0  0
 14 23  1  0  0  0
 15 18  1  0  0  0
 15 24  1  0  0  0
 16 34  1  0  0  0
 17 32  1  0  0  0
 18 33  1  0  0  0
  1 35  1  0  0  0
  2 36  1  0  0  0
  2 37  1  0  0  0
  3 38  1  0  0  0
  3 39  1  0  0  0
  4 40  1  0  0  0
  7 41  1  0  0  0
  8 42  1  0  0  0
  9 43  1  0  0  0
 10 44  1  0  0  0
 11 45  1  0  0  0
 12 46  1  0  0  0
 13 47  1  0  0  0
 14 48  1  0  0  0
 15 49  1  0  0  0
 16 50  1  0  0  0
 16 51  1  0  0  0
 17 52  1  0  0  0
 17 53  1  0  0  0
 18 54  1  0  0  0
 18 55  1  0  0  0
 21 56  1  0  0  0
 22 57  1  0  0  0
 25 58  1  0  0  0
 26 59  1  0  0  0
 27 60  1  0  0  0
 28 61  1  0  0  0
 29 62  1  0  0  0
 30 63  1  0  0  0
 32 64  1  0  0  0
 33 65  1  0  0  0
 34 66  1  0  0  0
M  END
$$$$
