4bqy_ligand
  -I-interpret- 

 31 32  0  0  0  0  0  0  0  0999 V2000
  -44.1240  -20.4180    2.9120 C   0  0  0  0  0
  -42.9490  -22.6770    4.4560 Cl  0  0  0  0  0
  -42.8390  -20.2120    3.3770 C   0  0  0  0  0
  -42.1860  -19.0640    3.1220 C   0  0  0  0  0
  -42.8240  -18.0690    2.4050 C   0  0  0  0  0
  -44.1020  -18.2490    1.9370 C   0  0  0  0  0
  -44.7480  -19.4270    2.1880 C   0  0  0  0  0
  -42.1930  -21.1720    4.1020 C   0  0  0  0  0
  -40.9650  -20.9970    4.5890 N   0  0  0  0  0
  -40.2730  -19.8940    4.3620 C   0  0  0  0  0
  -36.0820  -20.1730    4.5620 C   0  0  0  0  0
  -40.9070  -18.9010    3.6070 C   0  0  0  0  0
  -38.9780  -19.8150    4.9250 C   0  0  0  0  0
  -38.6060  -20.5300    5.9540 O   0  0  0  0  0
  -38.1100  -18.9330    4.4310 N   0  0  0  0  0
  -36.7910  -18.8920    4.9250 C   0  0  0  0  0
  -36.0290  -17.7360    4.2870 C   0  0  0  0  0
  -36.5910  -17.0250    3.4350 O   0  0  0  0  0
  -34.8690  -17.5700    4.6760 O   0  0  0  0  0
  -40.2480  -17.7220    3.3270 O   0  0  0  0  0
  -44.6389  -21.3567    3.1166 H   0  0  0  0  0
  -42.3061  -17.1302    2.2089 H   0  0  0  0  0
  -44.5968  -17.4600    1.3707 H   0  0  0  0  0
  -45.7600  -19.5823    1.8140 H   0  0  0  0  0
  -36.6113  -21.0174    5.0035 H   0  0  0  0  0
  -36.0627  -20.2814    3.4776 H   0  0  0  0  0
  -35.0614  -20.1426    4.9436 H   0  0  0  0  0
  -38.4001  -18.2881    3.6959 H   0  0  0  0  0
  -36.8272  -18.7634    6.0068 H   0  0  0  0  0
  -37.4858  -17.3431    3.2942 H   0  0  0  0  0
  -39.3737  -17.7436    3.7229 H   0  0  0  0  0
  3  1  4  0  0  0
  1  7  4  0  0  0
  8  2  1  0  0  0
  4  3  4  0  0  0
  8  3  4  0  0  0
  4  5  4  0  0  0
 12  4  4  0  0  0
  5  6  4  0  0  0
  6  7  4  0  0  0
  9  8  4  0  0  0
 10  9  4  0  0  0
 10 12  4  0  0  0
 13 10  1  0  0  0
 16 11  1  0  0  0
 12 20  1  0  0  0
 13 14  2  0  0  0
 15 13  1  0  0  0
 15 16  1  0  0  0
 16 17  1  0  0  0
 17 18  1  0  0  0
 17 19  2  0  0  0
  1 21  1  0  0  0
  5 22  1  0  0  0
  6 23  1  0  0  0
  7 24  1  0  0  0
 11 25  1  0  0  0
 11 26  1  0  0  0
 11 27  1  0  0  0
 15 28  1  0  0  0
 16 29  1  0  0  0
 18 30  1  0  0  0
 20 31  1  0  0  0
M  END
$$$$
