4cwb_ligand
  -I-interpret- 

 40 43  0  0  0  0  0  0  0  0999 V2000
   49.3740  -16.2940  -24.3440 C   0  0  0  0  0
   49.5910  -15.1830  -23.5650 C   0  0  0  0  0
   48.0980  -16.5490  -24.7740 C   0  0  0  0  0
   48.5420  -14.3590  -23.2230 C   0  0  0  0  0
   47.0540  -15.7230  -24.4330 C   0  0  0  0  0
   45.0030  -13.6530  -24.0900 C   0  0  0  0  0
   46.0160  -13.2210  -22.0010 C   0  0  0  0  0
   43.8780  -12.9740  -23.6720 C   0  0  0  0  0
   44.8980  -12.5540  -21.5740 C   0  0  0  0  0
   47.2570  -14.5980  -23.6490 C   0  0  0  0  0
   46.0960  -13.7960  -23.2660 C   0  0  0  0  0
   43.8150  -12.4270  -22.4140 C   0  0  0  0  0
   42.9660   -7.7650  -20.7360 C   0  0  0  0  0
   44.1610   -7.7540  -21.3740 C   0  0  0  0  0
   42.6840   -8.9000  -22.4900 C   0  0  0  0  0
   42.8470   -7.0360  -19.5050 C   0  0  0  0  0
   45.1880   -6.4850  -19.9270 C   0  0  0  0  0
   42.6040  -11.7390  -21.9330 C   0  0  0  0  0
   41.5260  -11.2600  -22.8510 C   0  0  0  0  0
   42.0260   -8.4920  -21.4310 N   0  0  0  0  0
   45.3020   -7.1510  -21.0400 N   0  0  0  0  0
   43.9870   -8.5100  -22.5010 N   0  0  0  0  0
   44.0420   -6.4130  -19.1770 N   0  0  0  0  0
   46.2120   -5.7790  -19.4080 N   0  0  0  0  0
   41.8450   -6.9520  -18.8260 O   0  0  0  0  0
   42.4360  -11.5760  -20.7470 O   0  0  0  0  0
   42.0550   -9.8560  -23.8120 S   0  0  0  0  0
   50.1967  -16.9563  -24.6134 H   0  0  0  0  0
   50.5978  -14.9530  -23.2163 H   0  0  0  0  0
   47.9078  -17.4225  -25.3976 H   0  0  0  0  0
   48.7367  -13.4898  -22.5947 H   0  0  0  0  0
   46.0492  -15.9564  -24.7850 H   0  0  0  0  0
   45.0271  -14.0841  -25.0908 H   0  0  0  0  0
   46.8699  -13.3040  -21.3287 H   0  0  0  0  0
   43.0291  -12.8703  -24.3478 H   0  0  0  0  0
   44.8663  -12.1253  -20.5723 H   0  0  0  0  0
   40.6691  -10.9602  -22.2477 H   0  0  0  0  0
   41.2732  -12.0694  -23.5358 H   0  0  0  0  0
   46.1597   -7.2048  -21.5893 H   0  0  0  0  0
   46.0855   -5.2613  -18.5383 H   0  0  0  0  0
  2  1  4  0  0  0
  3  1  4  0  0  0
  4  2  4  0  0  0
  5  3  4  0  0  0
 10  4  4  0  0  0
 10  5  4  0  0  0
  8  6  4  0  0  0
  6 11  4  0  0  0
  9  7  4  0  0  0
  7 11  4  0  0  0
 12  8  4  0  0  0
 12  9  4  0  0  0
 11 10  1  0  0  0
 18 12  1  0  0  0
 14 13  4  0  0  0
 13 16  1  0  0  0
 20 13  4  0  0  0
 14 21  1  0  0  0
 22 14  4  0  0  0
 15 20  4  0  0  0
 15 22  4  0  0  0
 27 15  1  0  0  0
 16 23  1  0  0  0
 16 25  2  0  0  0
 21 17  1  0  0  0
 17 23  4  0  0  0
 17 24  2  0  0  0
 19 18  1  0  0  0
 18 26  2  0  0  0
 19 27  1  0  0  0
  1 28  1  0  0  0
  2 29  1  0  0  0
  3 30  1  0  0  0
  4 31  1  0  0  0
  5 32  1  0  0  0
  6 33  1  0  0  0
  7 34  1  0  0  0
  8 35  1  0  0  0
  9 36  1  0  0  0
 19 37  1  0  0  0
 19 38  1  0  0  0
 21 39  1  0  0  0
 24 40  1  0  0  0
M  END
$$$$
