4x6k_ligand
  -I-interpret- 

 30 30  0  0  0  0  0  0  0  0999 V2000
   37.6580   13.6580  -11.5910 C   0  0  0  0  0
   38.0340   13.9870  -13.0030 C   0  0  0  0  0
   37.8870   15.1020  -13.4980 O   0  0  0  0  0
   38.6320   13.0240  -13.6180 N   0  0  0  0  0
   38.9890   13.1480  -14.9670 C   0  0  0  0  0
   40.4780   13.3230  -14.9110 N   0  3  0  0  0
   40.8710   13.4230  -16.3270 C   0  0  0  0  0
   40.6410   12.0600  -17.0220 C   0  0  0  0  0
   41.3330   11.8680  -18.3780 C   0  0  0  0  0
   40.6600   11.3410  -19.3190 O   0  0  0  0  0
   42.5910   12.1800  -18.4560 O   0  0  0  0  0
   39.1060   11.8920  -17.0970 C   0  0  0  0  0
   38.5400   12.9640  -17.7870 O   0  0  0  0  0
   38.6230   11.8690  -15.6520 C   0  0  0  0  0
   37.2220   11.6000  -15.5900 O   0  0  0  0  0
   38.2258   14.2903  -10.9084 H   0  0  0  0  0
   36.5917   13.8345  -11.4498 H   0  0  0  0  0
   37.8838   12.6106  -11.3909 H   0  0  0  0  0
   38.8475   12.1623  -13.1165 H   0  0  0  0  0
   38.5026   13.9635  -15.5022 H   0  0  0  0  0
   40.9428   12.5519  -14.4316 H   0  0  0  0  0
   40.7534   14.1438  -14.3717 H   0  0  0  0  0
   41.9251   13.6923  -16.3939 H   0  0  0  0  0
   40.2698   14.1880  -16.8183 H   0  0  0  0  0
   41.1182   11.2746  -16.4358 H   0  0  0  0  0
   42.8769   12.5625  -17.6232 H   0  0  0  0  0
   38.8211   10.9829  -17.6265 H   0  0  0  0  0
   37.5877   12.8499  -17.8277 H   0  0  0  0  0
   39.1219   11.0587  -15.1204 H   0  0  0  0  0
   36.9395   11.5901  -14.6726 H   0  0  0  0  0
  1  2  1  0  0  0
  2  3  2  0  0  0
  2  4  1  0  0  0
  4  5  1  0  0  0
  5  6  1  0  0  0
  5 14  1  0  0  0
  6  7  1  0  0  0
  7  8  1  0  0  0
  8  9  1  0  0  0
  8 12  1  0  0  0
  9 10  2  0  0  0
  9 11  1  0  0  0
 12 13  1  0  0  0
 12 14  1  0  0  0
 14 15  1  0  0  0
  1 16  1  0  0  0
  1 17  1  0  0  0
  1 18  1  0  0  0
  4 19  1  0  0  0
  5 20  1  0  0  0
  6 21  1  0  0  0
  6 22  1  0  0  0
  7 23  1  0  0  0
  7 24  1  0  0  0
  8 25  1  0  0  0
 11 26  1  0  0  0
 12 27  1  0  0  0
 13 28  1  0  0  0
 14 29  1  0  0  0
 15 30  1  0  0  0
M  END
$$$$
