5a3u_ligand
  -I-interpret- 

 28 30  0  0  0  0  0  0  0  0999 V2000
  -21.2720   25.3900   -1.3770 O   0  0  0  0  0
  -19.7650   31.9570    1.7370 O   0  0  0  0  0
  -21.3650   27.0620   -2.7520 O   0  0  0  0  0
  -19.5040   34.9890    4.6130 C   0  0  0  0  0
  -21.1980   28.8740   -0.6920 C   0  0  0  0  0
  -21.0220   29.7310    0.3900 C   0  0  0  0  0
  -20.1870   34.0610    3.9680 C   0  0  0  0  0
  -20.7850   27.0080    0.7490 C   0  0  0  0  0
  -20.4840   30.7120    4.7280 C   0  0  0  0  0
  -18.6220   34.3320    5.3590 N   0  0  0  0  0
  -20.6120   27.8930    1.8230 N   0  0  0  0  0
  -18.7650   33.1310    5.1770 N   0  0  0  0  0
  -20.7700   29.6930    3.9130 N   0  0  0  0  0
  -21.2480   26.6230   -1.5840 C   0  0  0  0  0
  -21.0790   27.5010   -0.5150 C   0  0  0  0  0
  -20.7260   29.2210    1.6520 C   0  0  0  0  0
  -20.0650   31.7040    3.9590 C   0  0  0  0  0
  -20.1000   31.2820    2.7100 C   0  0  0  0  0
  -19.6700   32.9060    4.3680 N   0  0  0  0  0
  -20.5480   30.0250    2.7050 N   0  0  0  0  0
  -21.3262   28.0211   -2.7375 H   0  0  0  0  0
  -19.6361   36.0690    4.5472 H   0  0  0  0  0
  -21.4289   29.2792   -1.6772 H   0  0  0  0  0
  -21.1163   30.8078    0.2492 H   0  0  0  0  0
  -21.0011   34.2114    3.2589 H   0  0  0  0  0
  -20.6887   25.9338    0.9066 H   0  0  0  0  0
  -20.5775   30.7240    5.8139 H   0  0  0  0  0
  -19.7882   32.6985    4.3090 H   0  0  0  0  0
 14  1  2  0  0  0
 18  2  2  0  0  0
 14  3  1  0  0  0
  7  4  4  0  0  0
 10  4  4  0  0  0
  6  5  4  0  0  0
  5 15  4  0  0  0
 16  6  4  0  0  0
 19  7  4  0  0  0
 11  8  4  0  0  0
  8 15  4  0  0  0
  9 13  2  0  0  0
 17  9  1  0  0  0
 12 10  4  0  0  0
 16 11  4  0  0  0
 19 12  4  0  0  0
 13 20  1  0  0  0
 15 14  1  0  0  0
 20 16  1  0  0  0
 17 18  1  0  0  0
 17 19  1  0  0  0
 18 20  1  0  0  0
  3 21  1  0  0  0
  4 22  1  0  0  0
  5 23  1  0  0  0
  6 24  1  0  0  0
  7 25  1  0  0  0
  8 26  1  0  0  0
  9 27  1  0  0  0
 17 28  1  0  0  0
M  END
$$$$
