3c9e_ligand
  -I-interpret- 

 54 53  0  0  0  0  0  0  0  0999 V2000
   19.4910   61.7640   36.8080 C   0  0  0  0  0
   20.4630   61.0280   37.0480 O   0  0  0  0  0
   18.9600   61.8330   35.6870 O   0  0  0  0  0
   18.9190   62.6090   37.9410 C   0  0  0  0  0
   18.6530   64.0430   37.3850 C   0  0  0  0  0
   19.9040   64.7060   37.1860 O   0  0  0  0  0
   17.8330   64.8930   38.3470 C   0  0  0  0  0
   16.6480   65.1590   38.1140 O   0  0  0  0  0
   18.4740   65.3220   39.4310 N   0  0  0  0  0
   17.8340   66.1510   40.4530 C   0  0  0  0  0
   18.3490   65.7370   41.8330 C   0  0  0  0  0
   17.6990   64.6590   42.6900 C   0  0  0  0  0
   18.0930   64.9190   44.1350 C   0  0  0  0  0
   16.1560   64.6350   42.5600 C   0  0  0  0  0
   18.1220   67.6330   40.2390 C   0  0  0  0  0
   19.2260   68.0020   39.8330 O   0  0  0  0  0
   17.1190   68.4750   40.5130 N   0  0  0  0  0
   17.1770   69.9340   40.3750 C   0  0  0  0  0
   16.5770   70.4500   39.0690 C   0  0  0  0  0
   16.7970   71.9540   38.9270 C   0  0  0  0  0
   15.7690   72.7580   39.7480 C   0  0  0  0  0
   14.8190   73.5120   38.9150 N   0  0  0  0  0
   13.5950   73.0930   38.5570 C   0  0  0  0  0
   13.0400   73.5730   37.4520 N   0  0  0  0  0
   12.9250   72.2050   39.2990 N   0  0  0  0  0
   20.7166   61.1248   37.9688 H   0  0  0  0  0
   19.6231   62.6515   38.7720 H   0  0  0  0  0
   17.9918   62.1691   38.3082 H   0  0  0  0  0
   18.0969   63.9300   36.4544 H   0  0  0  0  0
   20.4447   64.1920   36.5818 H   0  0  0  0  0
   19.4525   65.0622   39.5549 H   0  0  0  0  0
   16.7568   66.0002   40.3823 H   0  0  0  0  0
   18.2030   66.6393   42.4268 H   0  0  0  0  0
   19.3271   65.3113   41.6089 H   0  0  0  0  0
   18.0490   63.6853   42.3473 H   0  0  0  0  0
   19.1782   64.8754   44.2278 H   0  0  0  0  0
   17.7408   65.9062   44.4343 H   0  0  0  0  0
   17.6415   64.1612   44.7753 H   0  0  0  0  0
   15.7513   65.5976   42.8726 H   0  0  0  0  0
   15.8830   64.4445   41.5221 H   0  0  0  0  0
   15.7515   63.8461   43.1941 H   0  0  0  0  0
   16.2437   68.0697   40.8445 H   0  0  0  0  0
   18.2283   70.2215   40.3873 H   0  0  0  0  0
   16.5970   70.3625   41.1924 H   0  0  0  0  0
   15.5054   70.2507   39.0721 H   0  0  0  0  0
   17.0633   69.9438   38.2351 H   0  0  0  0  0
   16.6832   72.2210   37.8763 H   0  0  0  0  0
   17.7946   72.1925   39.2959 H   0  0  0  0  0
   16.3210   73.4784   40.3517 H   0  0  0  0  0
   15.1940   72.0475   40.3418 H   0  0  0  0  0
   15.1151   74.4294   38.5818 H   0  0  0  0  0
   13.5429   74.2540   36.8831 H   0  0  0  0  0
   11.9939   71.9014   39.0139 H   0  0  0  0  0
   13.3450   71.8313   40.1501 H   0  0  0  0  0
  1  2  1  0  0  0
  1  3  2  0  0  0
  1  4  1  0  0  0
  4  5  1  0  0  0
  5  6  1  0  0  0
  5  7  1  0  0  0
  7  8  2  0  0  0
  7  9  1  0  0  0
  9 10  1  0  0  0
 10 11  1  0  0  0
 10 15  1  0  0  0
 11 12  1  0  0  0
 12 13  1  0  0  0
 12 14  1  0  0  0
 15 16  2  0  0  0
 15 17  1  0  0  0
 17 18  1  0  0  0
 18 19  1  0  0  0
 19 20  1  0  0  0
 20 21  1  0  0  0
 21 22  1  0  0  0
 22 23  1  0  0  0
 23 24  2  0  0  0
 23 25  1  0  0  0
  2 26  1  0  0  0
  4 27  1  0  0  0
  4 28  1  0  0  0
  5 29  1  0  0  0
  6 30  1  0  0  0
  9 31  1  0  0  0
 10 32  1  0  0  0
 11 33  1  0  0  0
 11 34  1  0  0  0
 12 35  1  0  0  0
 13 36  1  0  0  0
 13 37  1  0  0  0
 13 38  1  0  0  0
 14 39  1  0  0  0
 14 40  1  0  0  0
 14 41  1  0  0  0
 17 42  1  0  0  0
 18 43  1  0  0  0
 18 44  1  0  0  0
 19 45  1  0  0  0
 19 46  1  0  0  0
 20 47  1  0  0  0
 20 48  1  0  0  0
 21 49  1  0  0  0
 21 50  1  0  0  0
 22 51  1  0  0  0
 24 52  1  0  0  0
 25 53  1  0  0  0
 25 54  1  0  0  0
M  END
$$$$
