5x8i_ligand
  -I-interpret- 

 47 52  0  0  0  0  0  0  0  0999 V2000
  -21.2950   14.5190  -17.7690 F   0  0  0  0  0
  -21.7520   15.7300  -17.6690 C   0  0  0  0  0
  -21.0200   16.6890  -17.0040 C   0  0  0  0  0
  -21.4700   17.9580  -16.8570 C   0  0  0  0  0
  -22.9430   16.0700  -18.2560 C   0  0  0  0  0
  -23.3830   17.3530  -18.1280 C   0  0  0  0  0
  -22.6530   18.2760  -17.4450 C   0  0  0  0  0
  -23.1410   19.6150  -17.3200 C   0  0  0  0  0
  -23.7880   19.8290  -15.9760 C   0  0  0  0  0
  -23.8710   20.2140  -18.4660 N   0  0  0  0  0
  -23.6050   20.4580  -19.7150 C   0  0  0  0  0
  -22.5010   20.2610  -20.5080 C   0  0  0  0  0
  -22.6130   20.7590  -21.8840 C   0  0  0  0  0
  -23.7050   21.3630  -22.3070 N   0  0  0  0  0
  -24.7650   21.5630  -21.5710 C   0  0  0  0  0
  -24.7740   21.1610  -20.2710 C   0  0  0  0  0
  -25.6530   21.2200  -19.3120 N   0  0  0  0  0
  -25.1390   20.6460  -18.1900 N   0  0  0  0  0
  -21.5580   20.6050  -22.7340 C   0  0  0  0  0
  -20.4230   19.9670  -22.3390 C   0  0  0  0  0
  -20.2920   19.5270  -21.0350 C   0  0  0  0  0
  -21.3260   19.6550  -20.1400 C   0  0  0  0  0
  -19.0910   18.7800  -20.6980 C   0  0  0  0  0
  -17.9160   18.9930  -21.3410 C   0  0  0  0  0
  -16.8130   18.2380  -21.0550 C   0  0  0  0  0
  -16.8900   17.2360  -20.1610 C   0  0  0  0  0
  -18.1250   16.9720  -19.4880 C   0  0  0  0  0
  -19.2180   17.7330  -19.7970 C   0  0  0  0  0
  -15.9620   16.4440  -19.7740 O   0  0  0  0  0
  -16.5400   15.6310  -18.8890 C   0  0  0  0  0
  -17.8070   15.9640  -18.7160 N   0  0  0  0  0
  -20.0511   16.4189  -16.5842 H   0  0  0  0  0
  -20.9045   18.6963  -16.2885 H   0  0  0  0  0
  -23.5232   15.3328  -18.8110 H   0  0  0  0  0
  -24.3320   17.6438  -18.5785 H   0  0  0  0  0
  -22.2379   20.2232  -17.3710 H   0  0  0  0  0
  -23.8635   20.8979  -15.7766 H   0  0  0  0  0
  -24.7845   19.3874  -15.9795 H   0  0  0  0  0
  -23.1823   19.3559  -15.2031 H   0  0  0  0  0
  -25.6413   22.0512  -21.9974 H   0  0  0  0  0
  -21.6251   20.9999  -23.7477 H   0  0  0  0  0
  -19.6153   19.8025  -23.0522 H   0  0  0  0  0
  -21.2120   19.2710  -19.1263 H   0  0  0  0  0
  -17.8504   19.7766  -22.0958 H   0  0  0  0  0
  -15.8669   18.4489  -21.5536 H   0  0  0  0  0
  -20.1832   17.5183  -19.3382 H   0  0  0  0  0
  -16.0382   14.8080  -18.3802 H   0  0  0  0  0
  1  2  1  0  0  0
  2  3  4  0  0  0
  2  5  4  0  0  0
  3  4  4  0  0  0
  4  7  4  0  0  0
  5  6  4  0  0  0
  6  7  4  0  0  0
  7  8  1  0  0  0
  8  9  1  0  0  0
  8 10  1  0  0  0
 10 11  4  0  0  0
 10 18  4  0  0  0
 11 12  4  0  0  0
 11 16  4  0  0  0
 12 13  4  0  0  0
 12 22  4  0  0  0
 13 14  4  0  0  0
 13 19  4  0  0  0
 14 15  4  0  0  0
 15 16  4  0  0  0
 16 17  4  0  0  0
 17 18  4  0  0  0
 19 20  4  0  0  0
 20 21  4  0  0  0
 21 22  4  0  0  0
 21 23  1  0  0  0
 23 24  4  0  0  0
 23 28  4  0  0  0
 24 25  4  0  0  0
 25 26  4  0  0  0
 26 27  4  0  0  0
 26 29  4  0  0  0
 27 28  4  0  0  0
 27 31  4  0  0  0
 29 30  4  0  0  0
 30 31  4  0  0  0
  3 32  1  0  0  0
  4 33  1  0  0  0
  5 34  1  0  0  0
  6 35  1  0  0  0
  8 36  1  0  0  0
  9 37  1  0  0  0
  9 38  1  0  0  0
  9 39  1  0  0  0
 15 40  1  0  0  0
 19 41  1  0  0  0
 20 42  1  0  0  0
 22 43  1  0  0  0
 24 44  1  0  0  0
 25 45  1  0  0  0
 28 46  1  0  0  0
 30 47  1  0  0  0
M  END
$$$$
