2p4s_ligand
  -I-interpret- 

 35 37  0  0  0  0  0  0  0  0999 V2000
   40.8270    5.0450  106.3490 O   0  0  0  0  0
   39.8860    4.0540  106.8070 C   0  0  0  0  0
   38.5160    4.5440  106.4060 C   0  0  0  0  0
   38.4480    4.8610  104.8950 C   0  0  0  0  0
   37.4800    3.4770  106.6860 C   0  0  0  0  0
   36.2630    4.1260  107.0600 O   0  0  0  0  0
   37.2610    2.8240  105.3340 C   0  0  0  0  0
   37.3440    3.9900  104.3990 N   0  3  0  0  0
   37.3790    3.5290  103.0030 C   0  0  0  0  0
   38.6840    3.0000  102.4480 C   0  0  0  0  0
   39.6920    3.7860  101.8280 C   0  0  0  0  0
   40.6970    2.9590  101.4280 N   0  0  0  0  0
   40.3910    1.6770  101.7580 C   0  0  0  0  0
   41.0470    0.3570  101.5360 C   0  0  0  0  0
   42.1990    0.2510  100.9440 O   0  0  0  0  0
   40.3700   -0.7130  102.0030 N   0  0  0  0  0
   39.1630   -0.6330  102.6410 C   0  0  0  0  0
   38.5270    0.5340  102.8280 N   0  0  0  0  0
   39.1340    1.6860  102.3850 C   0  0  0  0  0
   41.7169    4.7724  106.5842 H   0  0  0  0  0
   39.9524    3.9234  107.8871 H   0  0  0  0  0
   40.0974    3.0813  106.3629 H   0  0  0  0  0
   38.3197    5.4474  106.9834 H   0  0  0  0  0
   39.3920    4.6649  104.3866 H   0  0  0  0  0
   38.2630    5.9174  104.7002 H   0  0  0  0  0
   37.7787    2.7779  107.4671 H   0  0  0  0  0
   36.3763    4.5481  107.9148 H   0  0  0  0  0
   36.3154    2.2862  105.2658 H   0  0  0  0  0
   37.9889    2.0436  105.1118 H   0  0  0  0  0
   36.5152    4.5844  104.3897 H   0  0  0  0  0
   37.1534    4.4126  102.4060 H   0  0  0  0  0
   36.6907    2.6847  102.9650 H   0  0  0  0  0
   39.6654    4.8675  101.6951 H   0  0  0  0  0
   40.7832   -1.6364  101.8723 H   0  0  0  0  0
   38.7015   -1.5488  103.0104 H   0  0  0  0  0
  1  2  1  0  0  0
  2  3  1  0  0  0
  3  4  1  0  0  0
  3  5  1  0  0  0
  4  8  1  0  0  0
  5  6  1  0  0  0
  5  7  1  0  0  0
  7  8  1  0  0  0
  8  9  1  0  0  0
  9 10  1  0  0  0
 10 11  4  0  0  0
 10 19  4  0  0  0
 11 12  4  0  0  0
 12 13  4  0  0  0
 13 14  1  0  0  0
 13 19  4  0  0  0
 14 15  2  0  0  0
 14 16  1  0  0  0
 16 17  1  0  0  0
 17 18  2  0  0  0
 18 19  1  0  0  0
  1 20  1  0  0  0
  2 21  1  0  0  0
  2 22  1  0  0  0
  3 23  1  0  0  0
  4 24  1  0  0  0
  4 25  1  0  0  0
  5 26  1  0  0  0
  6 27  1  0  0  0
  7 28  1  0  0  0
  7 29  1  0  0  0
  8 30  1  0  0  0
  9 31  1  0  0  0
  9 32  1  0  0  0
 11 33  1  0  0  0
 16 34  1  0  0  0
 17 35  1  0  0  0
M  END
$$$$
