4pg3_ligand
  -I-interpret- 

 41 43  0  0  0  0  0  0  0  0999 V2000
  -45.2090   34.3780   -6.8770 O   0  0  0  0  0
  -45.5640   35.3240   -7.5500 C   0  0  0  0  0
  -44.7760   36.5160   -7.7110 C   0  0  0  0  0
  -45.2550   37.5700   -8.4710 C   0  0  0  0  0
  -44.4880   38.6970   -8.6140 C   0  0  0  0  0
  -43.2500   38.7590   -8.0020 C   0  0  0  0  0
  -42.5200   39.8860   -8.1660 O   0  0  0  0  0
  -42.7680   37.7290   -7.2570 C   0  0  0  0  0
  -43.5200   36.6180   -7.1120 C   0  0  0  0  0
  -43.0080   35.6070   -6.3610 O   0  0  0  0  0
  -46.7960   35.2850   -8.0450 O   0  0  0  0  0
  -47.1410   36.0640   -9.2330 C   0  0  0  0  0
  -46.6070   37.4670   -9.1190 C   0  0  0  0  0
  -48.6380   36.0110   -9.3520 C   0  0  0  0  0
  -49.1850   34.6570   -9.6890 C   0  0  0  0  0
  -48.5590   34.1100  -10.8410 O   0  0  0  0  0
  -48.9050   34.7560  -12.0630 C   0  0  0  0  0
  -48.1370   34.0620  -13.1380 C   0  0  0  0  0
  -50.3910   34.7000  -12.2770 C   0  0  0  0  0
  -51.1240   35.3150  -11.1240 C   0  0  0  0  0
  -50.7020   34.6560   -9.8430 C   0  0  0  0  0
  -44.8513   39.5374   -9.2054 H   0  0  0  0  0
  -41.6889   39.7992   -7.6934 H   0  0  0  0  0
  -41.7886   37.7996   -6.7838 H   0  0  0  0  0
  -42.1410   35.8594   -6.0351 H   0  0  0  0  0
  -46.6878   35.6575  -10.1372 H   0  0  0  0  0
  -46.5041   37.8520  -10.1335 H   0  0  0  0  0
  -47.3039   38.0231   -8.4919 H   0  0  0  0  0
  -48.9180   36.6805  -10.1653 H   0  0  0  0  0
  -49.0460   36.2878   -8.3799 H   0  0  0  0  0
  -48.9508   34.0163   -8.8388 H   0  0  0  0  0
  -48.6482   35.8153  -12.0573 H   0  0  0  0  0
  -47.0696   34.1524  -12.9364 H   0  0  0  0  0
  -48.4160   33.0085  -13.1599 H   0  0  0  0  0
  -48.3664   34.5200  -14.1002 H   0  0  0  0  0
  -50.6921   33.6562  -12.3656 H   0  0  0  0  0
  -50.6348   35.2558  -13.1824 H   0  0  0  0  0
  -52.1962   35.1771  -11.2639 H   0  0  0  0  0
  -50.8915   36.3788  -11.0755 H   0  0  0  0  0
  -51.1344   35.2105   -9.0101 H   0  0  0  0  0
  -51.0476   33.6223   -9.8558 H   0  0  0  0  0
  1  2  2  0  0  0
  2  3  1  0  0  0
  2 11  1  0  0  0
  3  4  4  0  0  0
  3  9  4  0  0  0
  4  5  4  0  0  0
  4 13  1  0  0  0
  5  6  4  0  0  0
  6  7  1  0  0  0
  6  8  4  0  0  0
  8  9  4  0  0  0
  9 10  1  0  0  0
 11 12  1  0  0  0
 12 13  1  0  0  0
 12 14  1  0  0  0
 14 15  1  0  0  0
 15 16  1  0  0  0
 15 21  1  0  0  0
 16 17  1  0  0  0
 17 18  1  0  0  0
 17 19  1  0  0  0
 19 20  1  0  0  0
 20 21  1  0  0  0
  5 22  1  0  0  0
  7 23  1  0  0  0
  8 24  1  0  0  0
 10 25  1  0  0  0
 12 26  1  0  0  0
 13 27  1  0  0  0
 13 28  1  0  0  0
 14 29  1  0  0  0
 14 30  1  0  0  0
 15 31  1  0  0  0
 17 32  1  0  0  0
 18 33  1  0  0  0
 18 34  1  0  0  0
 18 35  1  0  0  0
 19 36  1  0  0  0
 19 37  1  0  0  0
 20 38  1  0  0  0
 20 39  1  0  0  0
 21 40  1  0  0  0
 21 41  1  0  0  0
M  END
$$$$
