1p6d_ligand
  -I-interpret- 

 73 72  0  0  0  0  0  0  0  0999 V2000
   39.4560   20.9880   -6.2230 C   0  0  0  0  0
   40.5620   21.4080   -5.2260 C   0  0  0  0  0
   40.0910   21.2930   -3.7800 C   0  0  0  0  0
   40.8840   22.2780   -2.9190 C   0  0  0  0  0
   40.0390   22.7410   -1.7150 C   0  0  0  0  0
   40.7110   23.4330   -0.5040 C   0  0  0  0  0
   41.9210   23.7450   -0.5470 O   0  0  0  0  0
   39.9680   23.7460    0.7540 O   0  0  0  0  0
   40.4770   24.4210    1.9610 C   0  0  0  0  0
   39.3640   24.7110    3.0000 C   0  0  0  0  0
   38.1130   24.9980    2.3500 O   0  0  0  0  0
   37.7360   26.0540    1.4120 C   0  0  0  0  0
   38.5350   26.9790    1.1490 O   0  0  0  0  0
   36.3140   26.0330    0.8010 C   0  0  0  0  0
   36.2110   26.1580   -0.7230 C   0  0  0  0  0
   36.6370   24.8620   -1.4190 C   0  0  0  0  0
   36.9530   25.1600   -2.8860 C   0  0  0  0  0
   36.7870   23.9150   -3.7850 C   0  0  0  0  0
   39.1040   23.5080    3.8630 C   0  0  0  0  0
   39.1890   23.4250    5.4190 C   0  0  0  0  0
   40.8390   23.0800    6.0040 P   0  0  0  0  0
   41.6920   24.2240    6.1430 O   0  0  0  0  0
   40.9870   22.1960    7.2440 O   0  0  0  0  0
   41.3310   22.0570    4.7520 O   0  0  0  0  0
   42.6670   21.9460    4.1510 C   0  0  0  0  0
   43.0000   20.6480    3.3230 C   0  0  0  0  0
   42.1330   19.8840    2.2640 N   0  3  0  0  0
   41.1940   18.8540    2.8190 C   0  0  0  0  0
   41.2460   20.6820    1.3830 C   0  0  0  0  0
   43.0900   19.1690    1.3280 C   0  0  0  0  0
   39.1733   19.9522   -6.0349 H   0  0  0  0  0
   38.5869   21.6327   -6.0923 H   0  0  0  0  0
   39.8314   21.0842   -7.2418 H   0  0  0  0  0
   40.8229   22.4483   -5.4206 H   0  0  0  0  0
   41.4170   20.7458   -5.3625 H   0  0  0  0  0
   40.2527   20.2769   -3.4201 H   0  0  0  0  0
   39.0277   21.5251   -3.7199 H   0  0  0  0  0
   41.1464   23.1463   -3.5234 H   0  0  0  0  0
   41.7839   21.7842   -2.5522 H   0  0  0  0  0
   39.6291   21.8185   -1.3038 H   0  0  0  0  0
   39.3785   23.5036   -2.1277 H   0  0  0  0  0
   40.9052   25.3754    1.6547 H   0  0  0  0  0
   41.2080   23.7619    2.4294 H   0  0  0  0  0
   39.7130   25.5587    3.5896 H   0  0  0  0  0
   35.8023   26.9057    1.2069 H   0  0  0  0  0
   35.8976   25.0566    1.0488 H   0  0  0  0  0
   36.8720   26.9605   -1.0503 H   0  0  0  0  0
   35.1736   26.3668   -0.9842 H   0  0  0  0  0
   35.8297   24.1321   -1.3594 H   0  0  0  0  0
   37.5224   24.4572   -0.9288 H   0  0  0  0  0
   37.9909   25.4871   -2.9490 H   0  0  0  0  0
   36.2574   25.9238   -3.2337 H   0  0  0  0  0
   37.4634   23.1305   -3.4456 H   0  0  0  0  0
   35.7581   23.5601   -3.7256 H   0  0  0  0  0
   37.0228   24.1788   -4.8160 H   0  0  0  0  0
   39.9219   22.8508    3.5677 H   0  0  0  0  0
   38.0382   23.3509    3.6973 H   0  0  0  0  0
   38.5420   22.6109    5.7457 H   0  0  0  0  0
   38.8874   24.3919    5.8218 H   0  0  0  0  0
   40.4181   21.4275    7.1575 H   0  0  0  0  0
   43.3621   21.9396    4.9906 H   0  0  0  0  0
   42.7327   22.7682    3.4385 H   0  0  0  0  0
   43.0307   19.9077    4.1225 H   0  0  0  0  0
   43.8026   21.0214    2.6870 H   0  0  0  0  0
   41.7644   18.0954    3.3549 H   0  0  0  0  0
   40.4932   19.3337    3.5023 H   0  0  0  0  0
   40.6445   18.3872    2.0016 H   0  0  0  0  0
   40.5292   21.2317    1.9931 H   0  0  0  0  0
   41.8466   21.3840    0.8046 H   0  0  0  0  0
   40.7125   20.0147    0.7061 H   0  0  0  0  0
   43.7337   19.9009    0.8400 H   0  0  0  0  0
   43.7007   18.4699    1.8994 H   0  0  0  0  0
   42.5206   18.6245    0.5747 H   0  0  0  0  0
  1  2  1  0  0  0
  2  3  1  0  0  0
  3  4  1  0  0  0
  4  5  1  0  0  0
  5  6  1  0  0  0
  6  7  2  0  0  0
  6  8  1  0  0  0
  8  9  1  0  0  0
  9 10  1  0  0  0
 10 11  1  0  0  0
 10 19  1  0  0  0
 11 12  1  0  0  0
 12 13  2  0  0  0
 12 14  1  0  0  0
 14 15  1  0  0  0
 15 16  1  0  0  0
 16 17  1  0  0  0
 17 18  1  0  0  0
 19 20  1  0  0  0
 20 21  1  0  0  0
 21 22  2  0  0  0
 21 23  1  0  0  0
 21 24  1  0  0  0
 24 25  1  0  0  0
 25 26  1  0  0  0
 26 27  1  0  0  0
 27 28  1  0  0  0
 27 29  1  0  0  0
 27 30  1  0  0  0
  1 31  1  0  0  0
  1 32  1  0  0  0
  1 33  1  0  0  0
  2 34  1  0  0  0
  2 35  1  0  0  0
  3 36  1  0  0  0
  3 37  1  0  0  0
  4 38  1  0  0  0
  4 39  1  0  0  0
  5 40  1  0  0  0
  5 41  1  0  0  0
  9 42  1  0  0  0
  9 43  1  0  0  0
 10 44  1  0  0  0
 14 45  1  0  0  0
 14 46  1  0  0  0
 15 47  1  0  0  0
 15 48  1  0  0  0
 16 49  1  0  0  0
 16 50  1  0  0  0
 17 51  1  0  0  0
 17 52  1  0  0  0
 18 53  1  0  0  0
 18 54  1  0  0  0
 18 55  1  0  0  0
 19 56  1  0  0  0
 19 57  1  0  0  0
 20 58  1  0  0  0
 20 59  1  0  0  0
 23 60  1  0  0  0
 25 61  1  0  0  0
 25 62  1  0  0  0
 26 63  1  0  0  0
 26 64  1  0  0  0
 28 65  1  0  0  0
 28 66  1  0  0  0
 28 67  1  0  0  0
 29 68  1  0  0  0
 29 69  1  0  0  0
 29 70  1  0  0  0
 30 71  1  0  0  0
 30 72  1  0  0  0
 30 73  1  0  0  0
M  END
$$$$
