### 
### Created by X-TOOL on Mon Sep 10 21:12:49 2018
### 

@<TRIPOS>MOLECULE
1p6d_ligand
   72    71     1     0     0
SMALL
GAST_HUCK


@<TRIPOS>ATOM
      1 C15        39.4560   20.9880   -6.2230 C.3       1 3PC        -0.0653
      2 C14        40.5620   21.4080   -5.2260 C.3       1 3PC        -0.0558
      3 C13        40.0910   21.2930   -3.7800 C.3       1 3PC        -0.0511
      4 C12        40.8840   22.2780   -2.9190 C.3       1 3PC        -0.0348
      5 C11        40.0390   22.7410   -1.7150 C.3       1 3PC         0.0487
      6 C10        40.7110   23.4330   -0.5040 C.2       1 3PC         0.2338
      7 O7         41.9210   23.7450   -0.5470 O.2       1 3PC        -0.3704
      8 O6         39.9680   23.7460    0.7540 O.3       1 3PC        -0.2739
      9 C9         40.4770   24.4210    1.9610 C.3       1 3PC         0.1073
     10 C8         39.3640   24.7110    3.0000 C.3       1 3PC         0.1167
     11 O5         38.1130   24.9980    2.3500 O.3       1 3PC        -0.2708
     12 C16        37.7360   26.0540    1.4120 C.2       1 3PC         0.2341
     13 O8         38.5350   26.9790    1.1490 O.2       1 3PC        -0.3704
     14 C17        36.3140   26.0330    0.8010 C.3       1 3PC         0.0487
     15 C18        36.2110   26.1580   -0.7230 C.3       1 3PC        -0.0348
     16 C19        36.6370   24.8620   -1.4190 C.3       1 3PC        -0.0511
     17 C20        36.9530   25.1600   -2.8860 C.3       1 3PC        -0.0558
     18 C21        36.7870   23.9150   -3.7850 C.3       1 3PC        -0.0653
     19 C7         39.1040   23.5080    3.8630 C.3       1 3PC        -0.0018
     20 C6         39.1890   23.4250    5.4190 C.3       1 3PC         0.0406
     21 P1         40.8390   23.0800    6.0040 P.3       1 3PC         0.1203
     22 O2         41.6920   24.2240    6.1430 O.co2     1 3PC        -0.6203
     23 O3         40.9870   22.1960    7.2440 O.co2     1 3PC        -0.6203
     24 O1         41.3310   22.0570    4.7520 O.3       1 3PC        -0.2748
     25 C5         42.6670   21.9460    4.1510 C.3       1 3PC         0.1216
     26 C4         43.0000   20.6480    3.3230 C.3       1 3PC        -0.0015
     27 N1         42.1330   19.8840    2.2640 N.4       1 3PC         0.2388
     28 C1         41.1940   18.8540    2.8190 C.3       1 3PC        -0.0417
     29 C2         41.2460   20.6820    1.3830 C.3       1 3PC        -0.0417
     30 C3         43.0900   19.1690    1.3280 C.3       1 3PC        -0.0417
     31 H1         39.8337   21.0847   -7.2516 H         1 3PC         0.0230
     32 H2         38.5782   21.6379   -6.0921 H         1 3PC         0.0230
     33 H3         39.1698   19.9428   -6.0342 H         1 3PC         0.0230
     34 H4         40.8453   22.4518   -5.4267 H         1 3PC         0.0263
     35 H5         41.4368   20.7567   -5.3688 H         1 3PC         0.0263
     36 H6         40.2590   20.2681   -3.4176 H         1 3PC         0.0267
     37 H7         39.0188   21.5317   -3.7211 H         1 3PC         0.0267
     38 H8         41.1575   23.1526   -3.5275 H         1 3PC         0.0291
     39 H9         41.7971   21.7859   -2.5530 H         1 3PC         0.0291
     40 H10        39.5298   21.8474   -1.3249 H         1 3PC         0.0518
     41 H11        39.2920   23.4469   -2.1069 H         1 3PC         0.0518
     42 H12        40.9370   25.3747    1.6630 H         1 3PC         0.0643
     43 H13        41.2366   23.7781    2.4296 H         1 3PC         0.0643
     44 H14        39.6699   25.5639    3.6237 H         1 3PC         0.0677
     45 H15        35.7509   26.8689    1.2415 H         1 3PC         0.0518
     46 H16        35.8429   25.0815    1.0887 H         1 3PC         0.0518
     47 H17        36.8638   26.9767   -1.0601 H         1 3PC         0.0291
     48 H18        35.1692   26.3843   -0.9942 H         1 3PC         0.0291
     49 H19        35.8205   24.1272   -1.3604 H         1 3PC         0.0267
     50 H20        37.5320   24.4559   -0.9249 H         1 3PC         0.0267
     51 H21        37.9920   25.5136   -2.9595 H         1 3PC         0.0263
     52 H22        36.2718   25.9469   -3.2420 H         1 3PC         0.0263
     53 H23        37.0247   24.1800   -4.8258 H         1 3PC         0.0230
     54 H24        35.7490   23.5559   -3.7260 H         1 3PC         0.0230
     55 H25        37.4692   23.1225   -3.4435 H         1 3PC         0.0230
     56 H26        39.8075   22.7438    3.5010 H         1 3PC         0.0310
     57 H27        38.0752   23.2037    3.6202 H         1 3PC         0.0310
     58 H28        38.5188   22.6245    5.7654 H         1 3PC         0.0486
     59 H29        38.8605   24.3864    5.8407 H         1 3PC         0.0486
     60 H30        43.3999   22.0092    4.9689 H         1 3PC         0.0677
     61 H31        42.7949   22.8057    3.4768 H         1 3PC         0.0677
     62 H32        43.2209   19.8894    4.0883 H         1 3PC         0.0842
     63 H33        43.9233   20.9028    2.7821 H         1 3PC         0.0842
     64 H34        40.6388   18.3821    1.9949 H         1 3PC         0.0778
     65 H35        40.4862   19.3369    3.5088 H         1 3PC         0.0778
     66 H36        41.7685   18.0877    3.3601 H         1 3PC         0.0778
     67 H37        41.8278   21.4856    0.9079 H         1 3PC         0.0778
     68 H38        40.4342   21.1215    1.9811 H         1 3PC         0.0778
     69 H39        40.8182   20.0308    0.6065 H         1 3PC         0.0778
     70 H40        43.7851   18.5516    1.9159 H         1 3PC         0.0778
     71 H41        43.6590   19.9109    0.7484 H         1 3PC         0.0778
     72 H42        42.5197   18.5262    0.6413 H         1 3PC         0.0778
@<TRIPOS>BOND
     1    1    2 1  
     2    2    3 1  
     3    3    4 1  
     4    4    5 1  
     5    5    6 1  
     6    6    7 2  
     7    6    8 1  
     8    8    9 1  
     9    9   10 1  
    10   10   11 1  
    11   10   19 1  
    12   11   12 1  
    13   12   13 2  
    14   12   14 1  
    15   14   15 1  
    16   15   16 1  
    17   16   17 1  
    18   17   18 1  
    19   19   20 1  
    20   20   21 1  
    21   21   22 ar 
    22   21   23 ar 
    23   21   24 1  
    24   24   25 1  
    25   25   26 1  
    26   26   27 1  
    27   27   28 1  
    28   27   29 1  
    29   27   30 1  
    30    1   31 1  
    31    1   32 1  
    32    1   33 1  
    33    2   34 1  
    34    2   35 1  
    35    3   36 1  
    36    3   37 1  
    37    4   38 1  
    38    4   39 1  
    39    5   40 1  
    40    5   41 1  
    41    9   42 1  
    42    9   43 1  
    43   10   44 1  
    44   14   45 1  
    45   14   46 1  
    46   15   47 1  
    47   15   48 1  
    48   16   49 1  
    49   16   50 1  
    50   17   51 1  
    51   17   52 1  
    52   18   53 1  
    53   18   54 1  
    54   18   55 1  
    55   19   56 1  
    56   19   57 1  
    57   20   58 1  
    58   20   59 1  
    59   25   60 1  
    60   25   61 1  
    61   26   62 1  
    62   26   63 1  
    63   28   64 1  
    64   28   65 1  
    65   28   66 1  
    66   29   67 1  
    67   29   68 1  
    68   29   69 1  
    69   30   70 1  
    70   30   71 1  
    71   30   72 1  
@<TRIPOS>SUBSTRUCTURE
     1 3PC         1

