### 
### Created by X-TOOL on Wed Jan  1 15:39:36 2020
### 

@<TRIPOS>MOLECULE
6hh5_ligand
   57    60     1     0     0
SMALL
GAST_HUCK


@<TRIPOS>ATOM
      1 C3N       -11.2860   -2.2820   10.3890 C.3       1 A3R         0.0238
      2 C2N        -9.8290   -1.8750   10.8630 C.3       1 A3R         0.1000
      3 O2N        -9.3200   -0.7320   10.1860 O.3       1 A3R        -0.3863
      4 C1N        -9.9800   -1.4520   12.3110 C.3       1 A3R        -0.0065
      5 N4N       -11.4040   -1.2010   12.4080 N.4       1 A3R         0.2330
      6 C4N       -11.8160   -1.0170   11.0190 C.3       1 A3R         0.0091
      7 C5N       -13.3300   -0.9240   10.9060 C.3       1 A3R         0.1265
      8 O5N       -13.6820    0.4280   11.0930 O.3       1 A3R        -0.2447
      9 PB        -15.2060    0.6850   11.3560 P.3       1 A3R         0.2973
     10 O2B       -15.4260    0.0450   12.6720 O.co2     1 A3R        -0.6127
     11 O1B       -15.9540    0.2980   10.1170 O.co2     1 A3R        -0.6127
     12 O3A       -15.1180    2.3070   11.6190 O.3       1 A3R        -0.1319
     13 PA        -15.6470    3.5120   10.7810 P.3       1 A3R         0.2972
     14 O1A       -17.1490    3.4490   10.9000 O.co2     1 A3R        -0.6127
     15 O2A       -14.9510    4.6730   11.3120 O.co2     1 A3R        -0.6127
     16 O5'       -15.1790    3.3200    9.2600 O.3       1 A3R        -0.2476
     17 C5'       -13.7570    3.2120    9.0400 C.3       1 A3R         0.1128
     18 C4'       -13.1880    4.3110    8.1330 C.3       1 A3R         0.1189
     19 O4'       -13.8110    4.1590    6.8350 O.3       1 A3R        -0.3364
     20 C3'       -13.5430    5.6960    8.5940 C.3       1 A3R         0.1149
     21 O3'       -12.6890    6.2450    9.6720 O.3       1 A3R        -0.3864
     22 C2'       -13.3930    6.4360    7.2680 C.3       1 A3R         0.1385
     23 O2'       -12.0940    6.6970    7.0080 O.3       1 A3R        -0.3836
     24 C1'       -13.8710    5.4210    6.2160 C.3       1 A3R         0.2010
     25 N9        -15.2900    5.6620    5.9140 N.pl3     1 A3R        -0.1919
     26 C8        -16.3440    4.9210    6.2850 C.2       1 A3R         0.1123
     27 N7        -17.4390    5.5050    5.8030 N.2       1 A3R        -0.2958
     28 C5        -17.0830    6.6240    5.1470 C.ar      1 A3R         0.1045
     29 C4        -15.7340    6.7090    5.2180 C.ar      1 A3R         0.1613
     30 N3        -15.0680    7.7300    4.6430 N.ar      1 A3R        -0.2714
     31 C2        -15.7910    8.7200    3.9600 C.ar      1 A3R         0.0533
     32 N1        -17.1920    8.6040    3.9100 N.ar      1 A3R        -0.2698
     33 C6        -17.7900    7.5660    4.4930 C.ar      1 A3R         0.1298
     34 N6        -19.1250    7.4430    4.4580 N.pl3     1 A3R        -0.3152
     35 H1        -11.6677   -3.2084   10.8430 H         1 A3R         0.0348
     36 H2        -11.4100   -2.3305    9.2971 H         1 A3R         0.0348
     37 H3         -9.1390   -2.7245   10.7524 H         1 A3R         0.0649
     38 H4         -8.4485   -0.5358   10.5093 H         1 A3R         0.2100
     39 H5         -9.3991   -0.5425   12.5238 H         1 A3R         0.0839
     40 H6         -9.6687   -2.2546   12.9958 H         1 A3R         0.0839
     41 H7        -11.5870   -0.3714   12.9505 H         1 A3R         0.2018
     42 H8        -11.8803   -1.9861   12.8236 H         1 A3R         0.2018
     43 H9        -11.3574   -0.1215   10.5743 H         1 A3R         0.0878
     44 H10       -13.8041   -1.5467   11.6789 H         1 A3R         0.0678
     45 H11       -13.6548   -1.2634    9.9114 H         1 A3R         0.0678
     46 H12       -13.5506    2.2367    8.5751 H         1 A3R         0.0648
     47 H13       -13.2495    3.2686   10.0143 H         1 A3R         0.0648
     48 H14       -12.0952    4.2062    8.0643 H         1 A3R         0.0651
     49 H15       -14.5852    5.7282    8.9445 H         1 A3R         0.0648
     50 H16       -11.7883    6.2834    9.3724 H         1 A3R         0.2100
     51 H17       -13.9884    7.3608    7.2540 H         1 A3R         0.0676
     52 H18       -12.0242    7.1570    6.1798 H         1 A3R         0.2101
     53 H19       -13.2541    5.4649    5.3064 H         1 A3R         0.0996
     54 H20       -16.3104    4.0060    6.8746 H         1 A3R         0.1349
     55 H21       -15.2837    9.5514    3.4840 H         1 A3R         0.0996
     56 H22       -19.6943    8.1465    3.9661 H         1 A3R         0.1820
     57 H23       -19.5810    6.6451    4.9230 H         1 A3R         0.1820
@<TRIPOS>BOND
     1    1    2 1  
     2    1    6 1  
     3    2    3 1  
     4    2    4 1  
     5    4    5 1  
     6    5    6 1  
     7    6    7 1  
     8    7    8 1  
     9    8    9 1  
    10    9   10 ar 
    11    9   11 ar 
    12    9   12 1  
    13   12   13 1  
    14   13   14 ar 
    15   13   15 ar 
    16   13   16 1  
    17   16   17 1  
    18   17   18 1  
    19   18   19 1  
    20   18   20 1  
    21   19   24 1  
    22   20   21 1  
    23   20   22 1  
    24   22   23 1  
    25   22   24 1  
    26   24   25 1  
    27   25   26 1  
    28   25   29 1  
    29   26   27 2  
    30   27   28 1  
    31   28   29 ar 
    32   28   33 ar 
    33   29   30 ar 
    34   30   31 ar 
    35   31   32 ar 
    36   32   33 ar 
    37   33   34 1  
    38    1   35 1  
    39    1   36 1  
    40    2   37 1  
    41    3   38 1  
    42    4   39 1  
    43    4   40 1  
    44    5   41 1  
    45    5   42 1  
    46    6   43 1  
    47    7   44 1  
    48    7   45 1  
    49   17   46 1  
    50   17   47 1  
    51   18   48 1  
    52   20   49 1  
    53   21   50 1  
    54   22   51 1  
    55   23   52 1  
    56   24   53 1  
    57   26   54 1  
    58   31   55 1  
    59   34   56 1  
    60   34   57 1  
@<TRIPOS>SUBSTRUCTURE
     1 A3R         1

