6hh5_ligand
  -I-interpret- 

 59 62  0  0  0  0  0  0  0  0999 V2000
  -11.2860   -2.2820   10.3890 C   0  0  0  0  0
   -9.8290   -1.8750   10.8630 C   0  0  0  0  0
   -9.3200   -0.7320   10.1860 O   0  0  0  0  0
   -9.9800   -1.4520   12.3110 C   0  0  0  0  0
  -11.4040   -1.2010   12.4080 N   0  3  0  0  0
  -11.8160   -1.0170   11.0190 C   0  0  0  0  0
  -13.3300   -0.9240   10.9060 C   0  0  0  0  0
  -13.6820    0.4280   11.0930 O   0  0  0  0  0
  -15.2060    0.6850   11.3560 P   0  0  0  0  0
  -15.4260    0.0450   12.6720 O   0  0  0  0  0
  -15.9540    0.2980   10.1170 O   0  0  0  0  0
  -15.1180    2.3070   11.6190 O   0  0  0  0  0
  -15.6470    3.5120   10.7810 P   0  0  0  0  0
  -17.1490    3.4490   10.9000 O   0  0  0  0  0
  -14.9510    4.6730   11.3120 O   0  0  0  0  0
  -15.1790    3.3200    9.2600 O   0  0  0  0  0
  -13.7570    3.2120    9.0400 C   0  0  0  0  0
  -13.1880    4.3110    8.1330 C   0  0  0  0  0
  -13.8110    4.1590    6.8350 O   0  0  0  0  0
  -13.5430    5.6960    8.5940 C   0  0  0  0  0
  -12.6890    6.2450    9.6720 O   0  0  0  0  0
  -13.3930    6.4360    7.2680 C   0  0  0  0  0
  -12.0940    6.6970    7.0080 O   0  0  0  0  0
  -13.8710    5.4210    6.2160 C   0  0  0  0  0
  -15.2900    5.6620    5.9140 N   0  0  0  0  0
  -16.3440    4.9210    6.2850 C   0  0  0  0  0
  -17.4390    5.5050    5.8030 N   0  0  0  0  0
  -17.0830    6.6240    5.1470 C   0  0  0  0  0
  -15.7340    6.7090    5.2180 C   0  0  0  0  0
  -15.0680    7.7300    4.6430 N   0  0  0  0  0
  -15.7910    8.7200    3.9600 C   0  0  0  0  0
  -17.1920    8.6040    3.9100 N   0  0  0  0  0
  -17.7900    7.5660    4.4930 C   0  0  0  0  0
  -19.1250    7.4430    4.4580 N   0  0  0  0  0
  -11.7051   -3.2521   10.6561 H   0  0  0  0  0
  -11.4859   -2.5053    9.3410 H   0  0  0  0  0
   -9.1576   -2.7139   10.6799 H   0  0  0  0  0
   -9.2017   -0.9386    9.2560 H   0  0  0  0  0
   -9.3715   -0.5862   12.5723 H   0  0  0  0  0
   -9.6260   -2.2024   13.0179 H   0  0  0  0  0
  -11.6184   -0.3905   12.9890 H   0  0  0  0  0
  -11.9041   -1.9633   12.8654 H   0  0  0  0  0
  -11.4491   -0.1022   10.5536 H   0  0  0  0  0
  -13.8093   -1.5519   11.6570 H   0  0  0  0  0
  -13.6634   -1.2750    9.9294 H   0  0  0  0  0
  -15.6547    0.8382    9.3820 H   0  0  0  0  0
  -17.4659    2.6316   10.5087 H   0  0  0  0  0
  -13.5750    2.2566    8.5479 H   0  0  0  0  0
  -13.2691    3.3051   10.0102 H   0  0  0  0  0
  -12.1031    4.2057    8.1315 H   0  0  0  0  0
  -14.5192    5.7670    9.0738 H   0  0  0  0  0
  -12.9899    7.1280    9.8987 H   0  0  0  0  0
  -13.9406    7.3784    7.2755 H   0  0  0  0  0
  -12.0235    7.1619    6.1710 H   0  0  0  0  0
  -13.2684    5.4931    5.3106 H   0  0  0  0  0
  -16.3104    4.0052    6.8751 H   0  0  0  0  0
  -15.2809    9.5560    3.4813 H   0  0  0  0  0
  -19.5766    6.6528    4.9185 H   0  0  0  0  0
  -19.6887    8.1396    3.9709 H   0  0  0  0  0
  1  2  1  0  0  0
  1  6  1  0  0  0
  2  3  1  0  0  0
  2  4  1  0  0  0
  4  5  1  0  0  0
  5  6  1  0  0  0
  6  7  1  0  0  0
  7  8  1  0  0  0
  8  9  1  0  0  0
  9 10  2  0  0  0
  9 11  1  0  0  0
  9 12  1  0  0  0
 12 13  1  0  0  0
 13 14  1  0  0  0
 13 15  2  0  0  0
 13 16  1  0  0  0
 16 17  1  0  0  0
 17 18  1  0  0  0
 18 19  1  0  0  0
 18 20  1  0  0  0
 19 24  1  0  0  0
 20 21  1  0  0  0
 20 22  1  0  0  0
 22 23  1  0  0  0
 22 24  1  0  0  0
 24 25  1  0  0  0
 25 26  4  0  0  0
 25 29  4  0  0  0
 26 27  4  0  0  0
 27 28  4  0  0  0
 28 29  4  0  0  0
 28 33  4  0  0  0
 29 30  4  0  0  0
 30 31  4  0  0  0
 31 32  4  0  0  0
 32 33  4  0  0  0
 33 34  1  0  0  0
  1 35  1  0  0  0
  1 36  1  0  0  0
  2 37  1  0  0  0
  3 38  1  0  0  0
  4 39  1  0  0  0
  4 40  1  0  0  0
  5 41  1  0  0  0
  5 42  1  0  0  0
  6 43  1  0  0  0
  7 44  1  0  0  0
  7 45  1  0  0  0
 11 46  1  0  0  0
 14 47  1  0  0  0
 17 48  1  0  0  0
 17 49  1  0  0  0
 18 50  1  0  0  0
 20 51  1  0  0  0
 21 52  1  0  0  0
 22 53  1  0  0  0
 23 54  1  0  0  0
 24 55  1  0  0  0
 26 56  1  0  0  0
 31 57  1  0  0  0
 34 58  1  0  0  0
 34 59  1  0  0  0
M  END
$$$$
