4pnk_ligand
  -I-interpret- 

 42 45  0  0  0  0  0  0  0  0999 V2000
  -25.0300   26.5130   16.3530 C   0  0  0  0  0
  -25.6020   25.3850   16.8590 N   0  0  0  0  0
  -24.8080   24.8380   17.7320 N   0  0  0  0  0
  -23.6920   25.5540   17.8560 C   0  0  0  0  0
  -23.7710   26.6390   17.0150 C   0  0  0  0  0
  -22.6120   25.3810   18.6370 C   0  0  0  0  0
  -21.6170   26.3200   18.5510 C   0  0  0  0  0
  -21.6460   27.4240   17.7110 C   0  0  0  0  0
  -22.7740   27.6100   16.9220 C   0  0  0  0  0
  -20.5930   28.3050   17.7380 N   0  0  0  0  0
  -19.4660   28.2410   18.5380 C   0  0  0  0  0
  -19.1350   27.4000   19.3810 O   0  0  0  0  0
  -18.5080   29.3770   18.4150 C   0  0  0  0  0
  -18.1860   30.1070   19.5490 C   0  0  0  0  0
  -17.3420   31.1490   19.4730 N   0  0  0  0  0
  -16.7820   31.4940   18.3060 C   0  0  0  0  0
  -17.0240   30.8330   17.1650 N   0  0  0  0  0
  -17.8990   29.6760   17.1070 C   0  0  0  0  0
  -18.7900   29.7420   20.8840 C   0  0  0  0  0
  -15.9940   32.4680   18.2660 O   0  0  0  0  0
  -17.1360   28.4250   16.8590 C   0  0  0  0  0
  -17.2500   27.7960   15.6150 C   0  0  0  0  0
  -16.5820   26.6050   15.3720 C   0  0  0  0  0
  -15.8240   26.0400   16.3770 C   0  0  0  0  0
  -15.7040   26.6320   17.6250 C   0  0  0  0  0
  -16.3540   27.8350   17.8720 C   0  0  0  0  0
  -15.1790   24.9160   16.1110 F   0  0  0  0  0
  -25.4468   27.1809   15.5992 H   0  0  0  0  0
  -22.5306   24.5286   19.3115 H   0  0  0  0  0
  -20.7415   26.1903   19.1872 H   0  0  0  0  0
  -22.8750   28.4722   16.2628 H   0  0  0  0  0
  -20.6479   29.0957   17.0959 H   0  0  0  0  0
  -17.1248   31.6840   20.3138 H   0  0  0  0  0
  -16.5771   31.1547   16.3064 H   0  0  0  0  0
  -18.6184   29.9296   16.3283 H   0  0  0  0  0
  -19.8757   29.8175   20.8230 H   0  0  0  0  0
  -18.5095   28.7206   21.1412 H   0  0  0  0  0
  -18.4193   30.4253   21.6481 H   0  0  0  0  0
  -17.8655   28.2430   14.8343 H   0  0  0  0  0
  -16.6550   26.1209   14.3982 H   0  0  0  0  0
  -15.1062   26.1588   18.4040 H   0  0  0  0  0
  -16.2596   28.3196   18.8438 H   0  0  0  0  0
  1  2  4  0  0  0
  1  5  4  0  0  0
  2  3  4  0  0  0
  3  4  4  0  0  0
  4  5  4  0  0  0
  4  6  4  0  0  0
  5  9  4  0  0  0
  6  7  4  0  0  0
  7  8  4  0  0  0
  8  9  4  0  0  0
  8 10  1  0  0  0
 10 11  1  0  0  0
 11 12  2  0  0  0
 11 13  1  0  0  0
 13 14  2  0  0  0
 13 18  1  0  0  0
 14 15  1  0  0  0
 14 19  1  0  0  0
 15 16  1  0  0  0
 16 17  1  0  0  0
 16 20  2  0  0  0
 17 18  1  0  0  0
 18 21  1  0  0  0
 21 22  4  0  0  0
 21 26  4  0  0  0
 22 23  4  0  0  0
 23 24  4  0  0  0
 24 25  4  0  0  0
 24 27  1  0  0  0
 25 26  4  0  0  0
  1 28  1  0  0  0
  6 29  1  0  0  0
  7 30  1  0  0  0
  9 31  1  0  0  0
 10 32  1  0  0  0
 15 33  1  0  0  0
 17 34  1  0  0  0
 18 35  1  0  0  0
 19 36  1  0  0  0
 19 37  1  0  0  0
 19 38  1  0  0  0
 22 39  1  0  0  0
 23 40  1  0  0  0
 25 41  1  0  0  0
 26 42  1  0  0  0
M  END
$$$$
