1nh0_ligand
  -I-interpret- 

 96 98  0  0  0  0  0  0  0  0999 V2000
   13.0880    8.7040   80.5170 O   0  0  0  0  0
   11.9080    9.2090   75.8160 C   0  0  0  0  0
   13.2100    8.7570   76.0400 C   0  0  0  0  0
   13.7400    8.9300   77.3240 C   0  0  0  0  0
   13.0420    9.5440   78.3220 C   0  0  0  0  0
   11.7390   10.0030   78.0820 C   0  0  0  0  0
   11.1510    9.8340   76.8030 C   0  0  0  0  0
   13.5990    8.6600   81.7810 C   0  0  0  0  0
   14.3730    9.5300   82.2220 O   0  0  0  0  0
   12.9710    7.7050   82.5700 N   0  0  0  0  0
   13.5830    7.3080   83.8310 C   0  0  0  0  0
   12.5410    6.8130   84.8010 C   0  0  0  0  0
   11.5350    7.9200   84.9660 C   0  0  0  0  0
   11.7060    8.9100   85.9240 C   0  0  0  0  0
   10.7790    9.9530   86.0970 C   0  0  0  0  0
    9.6590    9.9860   85.2690 C   0  0  0  0  0
    9.4880    9.0210   84.2840 C   0  0  0  0  0
   10.3810    7.9570   84.1700 C   0  0  0  0  0
   13.6560    9.7340   79.7070 C   0  0  0  0  0
   14.7190    6.2690   83.5860 C   0  0  0  0  0
   15.1380    6.3210   82.2440 O   0  0  0  0  0
   15.8900    6.4770   84.4930 C   0  0  0  0  0
   15.9060    6.0990   85.6980 O   0  0  0  0  0
   16.8630    7.1910   83.9510 N   0  0  0  0  0
   18.1340    7.3120   84.6200 C   0  0  0  0  0
   17.9980    8.0900   85.9240 C   0  0  0  0  0
   17.3360    9.1340   85.9790 O   0  0  0  0  0
   19.1510    8.0480   83.6950 C   0  0  0  0  0
   20.4780    8.2600   84.3570 C   0  0  0  0  0
   20.9330    9.5230   84.7390 C   0  0  0  0  0
   21.3010    7.2030   84.6170 C   0  0  0  0  0
   22.1360    9.6690   85.3390 C   0  0  0  0  0
   22.5340    7.3400   85.2330 C   0  0  0  0  0
   22.9720    8.5840   85.6070 C   0  0  0  0  0
   18.6610    7.5990   86.9590 N   0  0  0  0  0
   18.6930    8.3030   88.2350 C   0  0  0  0  0
   20.0310    7.9400   88.9080 C   0  0  0  0  0
   20.4840    6.7740   88.8940 O   0  0  0  0  0
   17.4900    7.9450   89.0960 C   0  0  0  0  0
   17.4860    8.5570   90.4650 C   0  0  0  0  0
   18.2670    7.7910   91.5080 C   0  0  0  0  0
   18.6960    8.4330   92.5250 O   0  0  0  0  0
   18.6130    6.6150   91.2740 O   0  0  0  0  0
   20.5510    8.9150   89.6610 N   0  0  0  0  0
   21.7270    8.7360   90.4970 C   0  0  0  0  0
   21.7420    9.7790   91.6050 C   0  0  0  0  0
   21.1700   10.8500   91.4330 O   0  0  0  0  0
   23.0140    8.8580   89.6680 C   0  0  0  0  0
   23.2020   10.2550   89.0970 C   0  0  0  0  0
   24.4190   10.4340   88.2130 C   0  0  0  0  0
   24.4400   11.4610   87.4520 O   0  0  0  0  0
   25.3210    9.5240   88.2000 O   0  0  0  0  0
   22.4230    9.4880   92.6710 N   0  0  0  0  0
   11.4670    9.0669   74.8294 H   0  0  0  0  0
   13.7910    8.2878   75.2460 H   0  0  0  0  0
   14.7443    8.5616   77.5333 H   0  0  0  0  0
   11.1777   10.4901   78.8794 H   0  0  0  0  0
   10.1385   10.1823   76.5990 H   0  0  0  0  0
   12.0908    7.2861   82.2698 H   0  0  0  0  0
   14.0459    8.1818   84.2896 H   0  0  0  0  0
   12.9949    6.5576   85.7585 H   0  0  0  0  0
   12.0622    5.9087   84.4255 H   0  0  0  0  0
   12.5882    8.8777   86.5634 H   0  0  0  0  0
   10.9328   10.7164   86.8596 H   0  0  0  0  0
    8.9141   10.7718   85.3944 H   0  0  0  0  0
    8.6476    9.0968   83.5940 H   0  0  0  0  0
   10.1823    7.1529   83.4615 H   0  0  0  0  0
   14.7434    9.6656   79.6760 H   0  0  0  0  0
   13.4404   10.7242   80.1085 H   0  0  0  0  0
   14.3077    5.2844   83.8084 H   0  0  0  0  0
   15.8370    5.6783   82.1031 H   0  0  0  0  0
   16.7132    7.6576   83.0564 H   0  0  0  0  0
   18.4906    6.3071   84.8459 H   0  0  0  0  0
   18.7368    9.0261   83.4504 H   0  0  0  0  0
   19.3106    7.4301   82.8113 H   0  0  0  0  0
   20.3129   10.3997   84.5520 H   0  0  0  0  0
   20.9730    6.2049   84.3265 H   0  0  0  0  0
   22.4642   10.6688   85.6232 H   0  0  0  0  0
   23.1533    6.4626   85.4195 H   0  0  0  0  0
   23.9369    8.7206   86.0953 H   0  0  0  0  0
   19.1577    6.7134   86.8621 H   0  0  0  0  0
   18.6298    9.3816   88.0913 H   0  0  0  0  0
   17.5126    6.8641   89.2345 H   0  0  0  0  0
   16.6088    8.3247   88.5789 H   0  0  0  0  0
   16.4485    8.5756   90.7988 H   0  0  0  0  0
   17.9573    9.5356   90.3741 H   0  0  0  0  0
   18.3170    9.3150   92.5285 H   0  0  0  0  0
   20.1002    9.8299   89.6483 H   0  0  0  0  0
   21.6831    7.7375   90.9319 H   0  0  0  0  0
   22.9475    8.1582   88.8350 H   0  0  0  0  0
   23.8592    8.6432   90.3219 H   0  0  0  0  0
   23.3321   10.9249   89.9470 H   0  0  0  0  0
   22.3309   10.4575   88.4739 H   0  0  0  0  0
   25.1046    8.8513   88.8498 H   0  0  0  0  0
   22.5048   10.1692   93.4257 H   0  0  0  0  0
   22.8764    8.5781   92.7540 H   0  0  0  0  0
  1  8  1  0  0  0
 19  1  1  0  0  0
  3  2  4  0  0  0
  2  7  4  0  0  0
  4  3  4  0  0  0
  5  4  4  0  0  0
  5  6  4  0  0  0
  5 19  1  0  0  0
  6  7  4  0  0  0
  8  9  2  0  0  0
  8 10  1  0  0  0
 10 11  1  0  0  0
 11 12  1  0  0  0
 11 20  1  0  0  0
 12 13  1  0  0  0
 13 14  4  0  0  0
 13 18  4  0  0  0
 14 15  4  0  0  0
 15 16  4  0  0  0
 16 17  4  0  0  0
 17 18  4  0  0  0
 20 21  1  0  0  0
 20 22  1  0  0  0
 22 23  2  0  0  0
 22 24  1  0  0  0
 24 25  1  0  0  0
 25 26  1  0  0  0
 25 28  1  0  0  0
 26 27  2  0  0  0
 26 35  1  0  0  0
 28 29  1  0  0  0
 29 30  4  0  0  0
 29 31  4  0  0  0
 30 32  4  0  0  0
 31 33  4  0  0  0
 32 34  4  0  0  0
 33 34  4  0  0  0
 35 36  1  0  0  0
 36 37  1  0  0  0
 36 39  1  0  0  0
 37 38  2  0  0  0
 37 44  1  0  0  0
 39 40  1  0  0  0
 40 41  1  0  0  0
 41 42  1  0  0  0
 41 43  2  0  0  0
 44 45  1  0  0  0
 45 46  1  0  0  0
 45 48  1  0  0  0
 46 47  2  0  0  0
 46 53  1  0  0  0
 48 49  1  0  0  0
 49 50  1  0  0  0
 50 51  2  0  0  0
 50 52  1  0  0  0
  2 54  1  0  0  0
  3 55  1  0  0  0
  4 56  1  0  0  0
  6 57  1  0  0  0
  7 58  1  0  0  0
 10 59  1  0  0  0
 11 60  1  0  0  0
 12 61  1  0  0  0
 12 62  1  0  0  0
 14 63  1  0  0  0
 15 64  1  0  0  0
 16 65  1  0  0  0
 17 66  1  0  0  0
 18 67  1  0  0  0
 19 68  1  0  0  0
 19 69  1  0  0  0
 20 70  1  0  0  0
 21 71  1  0  0  0
 24 72  1  0  0  0
 25 73  1  0  0  0
 28 74  1  0  0  0
 28 75  1  0  0  0
 30 76  1  0  0  0
 31 77  1  0  0  0
 32 78  1  0  0  0
 33 79  1  0  0  0
 34 80  1  0  0  0
 35 81  1  0  0  0
 36 82  1  0  0  0
 39 83  1  0  0  0
 39 84  1  0  0  0
 40 85  1  0  0  0
 40 86  1  0  0  0
 42 87  1  0  0  0
 44 88  1  0  0  0
 45 89  1  0  0  0
 48 90  1  0  0  0
 48 91  1  0  0  0
 49 92  1  0  0  0
 49 93  1  0  0  0
 52 94  1  0  0  0
 53 95  1  0  0  0
 53 96  1  0  0  0
M  END
$$$$
