1zz2_ligand
  -I-interpret- 

 60 63  0  0  0  0  0  0  0  0999 V2000
   28.8390   68.5680   16.5790 C   0  0  0  0  0
   29.9200   68.2440   15.6580 C   0  0  0  0  0
   31.2830   68.7130   15.8980 C   0  0  0  0  0
   31.6020   69.5050   17.0750 C   0  0  0  0  0
   30.5130   69.8080   17.9900 C   0  0  0  0  0
   29.1500   69.3640   17.7550 C   0  0  0  0  0
   28.2970   69.7300   18.5730 O   0  0  0  0  0
   30.7450   70.5210   19.3010 C   0  0  0  0  0
   30.6640   71.9830   19.1740 N   0  3  0  0  0
   31.0760   72.7830   20.3380 C   0  0  0  0  0
   30.8550   74.2580   20.0030 C   0  0  0  0  0
   31.4410   75.1920   21.0460 C   0  0  0  0  0
   32.8760   74.9020   21.2540 N   0  0  0  0  0
   33.1740   73.4960   21.5980 C   0  0  0  0  0
   32.5680   72.5370   20.5820 C   0  0  0  0  0
   33.7600   76.1260   22.1960 S   0  0  0  0  0
   33.7490   77.6910   21.4490 N   0  0  0  0  0
   32.9590   76.2460   23.7240 O   0  0  0  0  0
   35.3710   75.5410   22.3230 O   0  0  0  0  0
   34.1220   77.8400   20.0960 C   0  0  0  0  0
   34.6380   76.7600   19.2660 C   0  0  0  0  0
   35.0160   77.1050   17.9040 C   0  0  0  0  0
   34.8540   78.4650   17.4130 C   0  0  0  0  0
   34.3350   79.5190   18.2630 C   0  0  0  0  0
   33.9700   79.2050   19.6330 C   0  0  0  0  0
   35.5880   76.1750   17.1270 O   0  0  0  0  0
   36.2660   76.4920   16.0170 C   0  0  0  0  0
   35.7110   76.0000   14.7670 C   0  0  0  0  0
   36.4030   76.3570   13.5380 C   0  0  0  0  0
   37.6050   77.1760   13.5750 C   0  0  0  0  0
   38.1480   77.6460   14.8460 C   0  0  0  0  0
   37.4740   77.3050   16.0910 C   0  0  0  0  0
   38.2370   77.5900   12.2920 F   0  0  0  0  0
   27.8225   68.2223   16.3911 H   0  0  0  0  0
   29.7086   67.6414   14.7747 H   0  0  0  0  0
   32.0704   68.4661   15.1859 H   0  0  0  0  0
   32.6161   69.8573   17.2638 H   0  0  0  0  0
   28.7194   70.2416   19.2669 H   0  0  0  0  0
   31.7483   70.2702   19.6453 H   0  0  0  0  0
   29.9692   70.2022   19.9971 H   0  0  0  0  0
   29.6767   72.1940   19.0284 H   0  0  0  0  0
   31.3094   72.2320   18.4244 H   0  0  0  0  0
   30.5034   72.5115   21.2248 H   0  0  0  0  0
   29.7800   74.4340   19.9635 H   0  0  0  0  0
   31.3515   74.4630   19.0546 H   0  0  0  0  0
   30.9108   75.0484   21.9875 H   0  0  0  0  0
   31.3342   76.2202   20.7002 H   0  0  0  0  0
   32.7459   73.2802   22.5769 H   0  0  0  0  0
   34.2556   73.3612   21.6000 H   0  0  0  0  0
   33.0872   72.6863   19.6353 H   0  0  0  0  0
   32.6768   71.5262   20.9751 H   0  0  0  0  0
   33.4711   78.5092   21.9910 H   0  0  0  0  0
   34.7361   75.7433   19.6465 H   0  0  0  0  0
   35.1287   78.6966   16.3839 H   0  0  0  0  0
   34.2205   80.5327   17.8790 H   0  0  0  0  0
   33.5897   79.9795   20.2991 H   0  0  0  0  0
   34.8101   75.3866   14.7509 H   0  0  0  0  0
   36.0172   76.0075   12.5803 H   0  0  0  0  0
   39.0550   78.2502   14.8630 H   0  0  0  0  0
   37.8614   77.6477   17.0505 H   0  0  0  0  0
  1  2  4  0  0  0
  1  6  4  0  0  0
  2  3  4  0  0  0
  3  4  4  0  0  0
  4  5  4  0  0  0
  5  6  4  0  0  0
  5  8  1  0  0  0
  6  7  1  0  0  0
  8  9  1  0  0  0
  9 10  1  0  0  0
 10 11  1  0  0  0
 10 15  1  0  0  0
 11 12  1  0  0  0
 12 13  1  0  0  0
 13 14  1  0  0  0
 13 16  1  0  0  0
 14 15  1  0  0  0
 16 17  1  0  0  0
 16 18  2  0  0  0
 16 19  2  0  0  0
 17 20  1  0  0  0
 20 21  4  0  0  0
 20 25  4  0  0  0
 21 22  4  0  0  0
 22 23  4  0  0  0
 22 26  1  0  0  0
 23 24  4  0  0  0
 24 25  4  0  0  0
 26 27  1  0  0  0
 27 28  4  0  0  0
 27 32  4  0  0  0
 28 29  4  0  0  0
 29 30  4  0  0  0
 30 31  4  0  0  0
 30 33  1  0  0  0
 31 32  4  0  0  0
  1 34  1  0  0  0
  2 35  1  0  0  0
  3 36  1  0  0  0
  4 37  1  0  0  0
  7 38  1  0  0  0
  8 39  1  0  0  0
  8 40  1  0  0  0
  9 41  1  0  0  0
  9 42  1  0  0  0
 10 43  1  0  0  0
 11 44  1  0  0  0
 11 45  1  0  0  0
 12 46  1  0  0  0
 12 47  1  0  0  0
 14 48  1  0  0  0
 14 49  1  0  0  0
 15 50  1  0  0  0
 15 51  1  0  0  0
 17 52  1  0  0  0
 21 53  1  0  0  0
 23 54  1  0  0  0
 24 55  1  0  0  0
 25 56  1  0  0  0
 28 57  1  0  0  0
 29 58  1  0  0  0
 31 59  1  0  0  0
 32 60  1  0  0  0
M  END
$$$$
