4z3v_ligand
  -I-interpret- 

 37 40  0  0  0  0  0  0  0  0999 V2000
  -20.6460   -9.9340    4.1900 C   0  0  0  0  0
  -21.7070   -9.1600    4.9520 C   0  0  0  0  0
  -21.8620   -9.4400    6.2850 C   0  0  0  0  0
  -22.8410   -8.7330    7.0180 C   0  0  0  0  0
  -23.2550   -8.7610    8.3790 C   0  0  0  0  0
  -24.2160   -7.8890    8.5370 N   0  0  0  0  0
  -24.4980   -7.2470    7.3310 N   0  0  0  0  0
  -23.6460   -7.7590    6.3750 C   0  0  0  0  0
  -23.4820   -7.4890    5.0200 C   0  0  0  0  0
  -22.5140   -8.1820    4.3060 C   0  0  0  0  0
  -22.3560   -7.8660    2.8570 C   0  0  0  0  0
  -23.2700   -8.3180    1.9080 C   0  0  0  0  0
  -23.1070   -8.0250    0.5590 C   0  0  0  0  0
  -22.0530   -7.2700    0.0980 C   0  0  0  0  0
  -21.1000   -6.8080    1.0270 C   0  0  0  0  0
  -19.9700   -6.0370    0.6060 C   0  0  0  0  0
  -19.7680   -5.7300   -0.7270 N   0  0  0  0  0
  -19.0790   -5.6450    1.6210 C   0  0  0  0  0
  -19.3080   -5.9820    2.9000 N   0  0  0  0  0
  -20.3360   -6.6590    3.2830 N   0  0  0  0  0
  -21.2470   -7.0990    2.4060 C   0  0  0  0  0
  -17.8430   -4.8890    1.3470 C   0  0  0  0  0
  -16.9070   -4.8410    2.3240 N   0  0  0  0  0
  -17.6450   -4.3560    0.2610 O   0  0  0  0  0
  -19.6702   -9.7483    4.6387 H   0  0  0  0  0
  -20.8718  -10.9993    4.2362 H   0  0  0  0  0
  -20.6370   -9.6080    3.1499 H   0  0  0  0  0
  -21.2417  -10.1937    6.7700 H   0  0  0  0  0
  -22.8409   -9.4012    9.1580 H   0  0  0  0  0
  -24.1051   -6.7435    4.5259 H   0  0  0  0  0
  -24.1267   -8.9109    2.2283 H   0  0  0  0  0
  -23.8368   -8.4051   -0.1559 H   0  0  0  0  0
  -21.9576   -7.0347   -0.9620 H   0  0  0  0  0
  -20.4308   -6.0543   -1.4312 H   0  0  0  0  0
  -18.9561   -5.1792   -1.0061 H   0  0  0  0  0
  -16.0240   -4.3570    2.1610 H   0  0  0  0  0
  -17.0848   -5.2888    3.2230 H   0  0  0  0  0
  1  2  1  0  0  0
  2  3  4  0  0  0
  2 10  4  0  0  0
  3  4  4  0  0  0
  4  5  4  0  0  0
  4  8  4  0  0  0
  5  6  4  0  0  0
  6  7  4  0  0  0
  7  8  4  0  0  0
  8  9  4  0  0  0
  9 10  4  0  0  0
 10 11  1  0  0  0
 11 12  4  0  0  0
 11 21  4  0  0  0
 12 13  4  0  0  0
 13 14  4  0  0  0
 14 15  4  0  0  0
 15 16  4  0  0  0
 15 21  4  0  0  0
 16 17  1  0  0  0
 16 18  4  0  0  0
 18 19  4  0  0  0
 18 22  1  0  0  0
 19 20  4  0  0  0
 20 21  4  0  0  0
 22 23  1  0  0  0
 22 24  2  0  0  0
  1 25  1  0  0  0
  1 26  1  0  0  0
  1 27  1  0  0  0
  3 28  1  0  0  0
  5 29  1  0  0  0
  9 30  1  0  0  0
 12 31  1  0  0  0
 13 32  1  0  0  0
 14 33  1  0  0  0
 17 34  1  0  0  0
 17 35  1  0  0  0
 23 36  1  0  0  0
 23 37  1  0  0  0
M  END
$$$$
