4lgh_ligand
  -I-interpret- 

 46 49  0  0  0  0  0  0  0  0999 V2000
   -8.2320    4.8260   -7.3540 N   0  0  0  0  0
   -8.6440    5.9800   -6.7130 C   0  0  0  0  0
   -7.7540    6.8950   -6.2900 N   0  0  0  0  0
   -6.3990    6.7300   -6.4820 C   0  0  0  0  0
   -5.9420    5.5490   -7.1380 C   0  0  0  0  0
   -6.9140    4.5890   -7.5760 C   0  0  0  0  0
   -3.9620    9.4440   -5.5240 C   0  0  0  0  0
   -6.2690    9.7480   -6.0930 C   0  0  0  0  0
   -2.3520    0.9210  -11.1550 C   0  0  0  0  0
   -2.1450    1.0930   -9.7760 C   0  0  0  0  0
   -4.4910    5.3430  -11.4270 C   0  0  0  0  0
   -4.3000    5.5300  -10.0820 C   0  0  0  0  0
   -2.9840    1.9360  -11.9060 C   0  0  0  0  0
   -4.0520    4.1350  -12.0540 C   0  0  0  0  0
   -3.6480    4.5000   -9.2860 C   0  0  0  0  0
   -4.4710    5.7040   -7.1660 C   0  0  0  0  0
   -3.3990    3.0970  -11.2660 C   0  0  0  0  0
   -5.2960    7.4870   -6.1570 N   0  0  0  0  0
   -5.3080    8.8280   -5.4430 C   0  0  0  0  0
   -5.6970    8.6210   -3.9630 C   0  0  0  0  0
   -4.1470    6.8660   -6.5690 N   0  0  0  0  0
   -6.5500    3.3730   -8.2480 N   0  0  0  0  0
   -3.4410    4.7340   -7.7470 C   0  0  0  0  0
   -3.2010    3.2730   -9.9190 C   0  0  0  0  0
   -2.5420    2.2120   -9.1500 C   0  0  0  0  0
   -9.7078    6.1507   -6.5479 H   0  0  0  0  0
   -3.6943    9.5929   -6.5701 H   0  0  0  0  0
   -3.9721   10.4051   -5.0099 H   0  0  0  0  0
   -3.2334    8.7853   -5.0514 H   0  0  0  0  0
   -5.9781    9.9003   -7.1324 H   0  0  0  0  0
   -7.2683    9.3145   -6.0539 H   0  0  0  0  0
   -6.2656   10.7041   -5.5696 H   0  0  0  0  0
   -2.0247    0.0040  -11.6451 H   0  0  0  0  0
   -1.6540    0.3048   -9.2052 H   0  0  0  0  0
   -4.9786    6.1170  -12.0197 H   0  0  0  0  0
   -4.6370    6.4518   -9.6078 H   0  0  0  0  0
   -3.1446    1.8099  -12.9767 H   0  0  0  0  0
   -4.2060    3.9902  -13.1233 H   0  0  0  0  0
   -6.6884    8.1713   -3.9087 H   0  0  0  0  0
   -4.9712    7.9620   -3.4866 H   0  0  0  0  0
   -5.7050    9.5841   -3.4526 H   0  0  0  0  0
   -7.2734    2.7173   -8.5432 H   0  0  0  0  0
   -5.5681    3.1651   -8.4300 H   0  0  0  0  0
   -2.4501    5.1635   -7.5997 H   0  0  0  0  0
   -3.5542    3.7757   -7.2402 H   0  0  0  0  0
   -2.3761    2.3312   -8.0793 H   0  0  0  0  0
  2  1  4  0  0  0
  6  1  4  0  0  0
  3  2  4  0  0  0
  4  3  4  0  0  0
  4  5  4  0  0  0
 18  4  4  0  0  0
  5  6  4  0  0  0
  5 16  4  0  0  0
  6 22  1  0  0  0
 19  7  1  0  0  0
 19  8  1  0  0  0
  9 10  4  0  0  0
 13  9  4  0  0  0
 10 25  4  0  0  0
 12 11  4  0  0  0
 11 14  4  0  0  0
 15 12  4  0  0  0
 17 13  4  0  0  0
 17 14  4  0  0  0
 23 15  1  0  0  0
 15 24  4  0  0  0
 16 21  4  0  0  0
 16 23  1  0  0  0
 24 17  4  0  0  0
 18 19  1  0  0  0
 18 21  4  0  0  0
 19 20  1  0  0  0
 24 25  4  0  0  0
  2 26  1  0  0  0
  7 27  1  0  0  0
  7 28  1  0  0  0
  7 29  1  0  0  0
  8 30  1  0  0  0
  8 31  1  0  0  0
  8 32  1  0  0  0
  9 33  1  0  0  0
 10 34  1  0  0  0
 11 35  1  0  0  0
 12 36  1  0  0  0
 13 37  1  0  0  0
 14 38  1  0  0  0
 20 39  1  0  0  0
 20 40  1  0  0  0
 20 41  1  0  0  0
 22 42  1  0  0  0
 22 43  1  0  0  0
 23 44  1  0  0  0
 23 45  1  0  0  0
 25 46  1  0  0  0
M  END
$$$$
