5ek9_ligand
  -I-interpret- 

 50 52  0  0  0  0  0  0  0  0999 V2000
    1.5340   23.2050   48.7280 O   0  0  0  0  0
    2.6050   21.1180   51.5110 C   0  0  0  0  0
    1.8220   19.9890   52.1640 C   0  0  0  0  0
    2.6740   19.0830   53.0610 C   0  0  0  0  0
    3.9290   19.7380   53.5040 N   0  0  0  0  0
    1.8790   18.5590   54.2300 C   0  0  0  0  0
    5.0030   18.8970   53.7270 C   0  0  0  0  0
    6.3320   19.4810   54.0890 C   0  0  0  0  0
    3.9600   21.1680   53.6100 C   0  0  0  0  0
    4.5670   21.8380   54.6740 C   0  0  0  0  0
    4.4820   23.2210   54.7570 C   0  0  0  0  0
    3.7890   23.9600   53.7870 C   0  0  0  0  0
    3.2180   23.2850   52.7130 C   0  0  0  0  0
    3.2910   21.8950   52.6100 C   0  0  0  0  0
    2.2570   22.6590   49.5320 C   0  0  0  0  0
    3.6050   22.7030   49.4890 O   0  0  0  0  0
    4.2060   23.6760   48.5660 C   0  0  0  0  0
    5.5870   23.9200   49.0570 C   0  0  0  0  0
    4.1810   23.0550   47.1890 C   0  0  0  0  0
    1.8230   21.9390   50.5890 N   0  0  0  0  0
    4.8780   17.6870   53.6250 O   0  0  0  0  0
    3.6370   25.4280   53.9060 C   0  0  0  0  0
    4.3110   26.0480   54.9310 O   0  0  0  0  0
    4.0640   27.4050   54.7910 C   0  0  0  0  0
    3.2780   27.6290   53.7450 C   0  0  0  0  0
    2.9920   26.3510   53.1570 C   0  0  0  0  0
    3.3583   20.6957   50.8460 H   0  0  0  0  0
    1.4188   19.3680   51.3641 H   0  0  0  0  0
    1.0585   20.4451   52.7942 H   0  0  0  0  0
    2.9693   18.2291   52.4513 H   0  0  0  0  0
    2.4758   17.8276   54.7750 H   0  0  0  0  0
    1.6213   19.3855   54.8922 H   0  0  0  0  0
    0.9672   18.0863   53.8650 H   0  0  0  0  0
    6.6424   19.0992   55.0616 H   0  0  0  0  0
    7.0680   19.2007   53.3354 H   0  0  0  0  0
    6.2504   20.5671   54.1328 H   0  0  0  0  0
    5.1060   21.2767   55.4372 H   0  0  0  0  0
    4.9605   23.7399   55.5876 H   0  0  0  0  0
    2.7038   23.8524   51.9372 H   0  0  0  0  0
    3.6780   24.6283   48.5167 H   0  0  0  0  0
    5.5458   24.3165   50.0715 H   0  0  0  0  0
    6.1432   22.9826   49.0542 H   0  0  0  0  0
    6.0816   24.6393   48.4042 H   0  0  0  0  0
    4.7550   22.1284   47.1992 H   0  0  0  0  0
    3.1500   22.8421   46.9065 H   0  0  0  0  0
    4.6200   23.7480   46.4713 H   0  0  0  0  0
    0.8192   21.9726   50.7668 H   0  0  0  0  0
    4.4598   28.1796   55.4479 H   0  0  0  0  0
    2.9185   28.5980   53.3988 H   0  0  0  0  0
    2.3754   26.1615   52.2784 H   0  0  0  0  0
 15  1  2  0  0  0
  2  3  1  0  0  0
  2 14  1  0  0  0
 20  2  1  0  0  0
  3  4  1  0  0  0
  4  5  1  0  0  0
  4  6  1  0  0  0
  5  7  1  0  0  0
  9  5  1  0  0  0
  7  8  1  0  0  0
  7 21  2  0  0  0
  9 10  4  0  0  0
 14  9  4  0  0  0
 10 11  4  0  0  0
 12 11  4  0  0  0
 13 12  4  0  0  0
 12 22  1  0  0  0
 14 13  4  0  0  0
 15 16  1  0  0  0
 15 20  1  0  0  0
 16 17  1  0  0  0
 17 18  1  0  0  0
 17 19  1  0  0  0
 22 23  4  0  0  0
 22 26  4  0  0  0
 23 24  4  0  0  0
 24 25  4  0  0  0
 25 26  4  0  0  0
  2 27  1  0  0  0
  3 28  1  0  0  0
  3 29  1  0  0  0
  4 30  1  0  0  0
  6 31  1  0  0  0
  6 32  1  0  0  0
  6 33  1  0  0  0
  8 34  1  0  0  0
  8 35  1  0  0  0
  8 36  1  0  0  0
 10 37  1  0  0  0
 11 38  1  0  0  0
 13 39  1  0  0  0
 17 40  1  0  0  0
 18 41  1  0  0  0
 18 42  1  0  0  0
 18 43  1  0  0  0
 19 44  1  0  0  0
 19 45  1  0  0  0
 19 46  1  0  0  0
 20 47  1  0  0  0
 24 48  1  0  0  0
 25 49  1  0  0  0
 26 50  1  0  0  0
M  END
$$$$
