1ypg_ligand
  -I-interpret- 

 65 71  0  0  0  0  0  0  0  0999 V2000
   10.3920  -11.8420   24.2390 N   0  0  0  0  0
   11.1550  -10.8420   23.7920 C   0  0  0  0  0
   12.2240  -10.9460   22.8520 C   0  0  0  0  0
   12.5480  -12.1990   22.3090 C   0  0  0  0  0
   13.5860  -12.3050   21.3830 C   0  0  0  0  0
   14.3110  -11.1800   20.9780 C   0  0  0  0  0
   15.4670  -11.3170   20.0350 C   0  0  0  0  0
   15.3400  -12.5240   19.1570 N   0  3  0  0  0
   14.3840  -12.3600   18.0190 C   0  0  0  0  0
   15.2470  -12.4590   16.7320 C   0  0  0  0  0
   16.6180  -11.9890   17.1840 C   0  0  0  0  0
   16.7240  -12.6920   18.5650 C   0  0  0  0  0
   17.7200  -11.8570   19.4210 C   0  0  0  0  0
   20.3410  -12.8900   19.8910 C   0  0  0  0  0
   18.8290  -12.7630   20.0550 C   0  0  0  0  0
   21.1640  -12.3390   20.3800 C   0  0  0  0  0
   20.8360  -12.0190   18.7640 C   0  0  0  0  0
   18.2280  -13.2680   21.2590 N   0  0  0  0  0
   17.0320  -12.6620   21.5760 C   0  0  0  0  0
   16.4330  -12.7950   22.6740 O   0  0  0  0  0
   16.8800  -11.4280   20.6600 C   0  0  0  0  0
   18.7190  -14.4170   22.0850 C   0  0  0  0  0
   19.6590  -14.0670   23.2310 C   0  0  0  0  0
   21.0380  -14.2840   23.0270 C   0  0  0  0  0
   21.9160  -13.9620   24.0820 C   0  0  0  0  0
   23.3120  -14.1140   24.0690 O   0  0  0  0  0
   23.6860  -13.6450   25.3880 C   0  0  0  0  0
   22.5010  -13.2210   26.1480 O   0  0  0  0  0
   21.4410  -13.4380   25.3020 C   0  0  0  0  0
   20.0810  -13.2230   25.5570 C   0  0  0  0  0
   19.2140  -13.5370   24.4830 C   0  0  0  0  0
   13.9800   -9.9340   21.5300 C   0  0  0  0  0
   12.9500   -9.8170   22.4480 C   0  0  0  0  0
   10.8240   -9.6400   24.3340 N   0  0  0  0  0
    9.6533  -11.6560   24.9173 H   0  0  0  0  0
   11.9906  -13.0861   22.6097 H   0  0  0  0  0
   13.8361  -13.2814   20.9681 H   0  0  0  0  0
   15.3999  -10.3712   19.4973 H   0  0  0  0  0
   14.9901  -13.3077   19.7081 H   0  0  0  0  0
   13.8583  -11.4067   18.0742 H   0  0  0  0  0
   13.6070  -13.1242   18.0378 H   0  0  0  0  0
   14.8483  -11.8568   15.9156 H   0  0  0  0  0
   15.2672  -13.4681   16.3204 H   0  0  0  0  0
   16.7227  -10.9050   17.2290 H   0  0  0  0  0
   17.4233  -12.2423   16.4944 H   0  0  0  0  0
   17.0473  -13.7318   18.5161 H   0  0  0  0  0
   18.1621  -11.0694   18.8108 H   0  0  0  0  0
   20.2646  -13.9619   20.0733 H   0  0  0  0  0
   19.2170  -13.1751   19.1235 H   0  0  0  0  0
   22.0344  -12.5708   20.9938 H   0  0  0  0  0
   21.3186  -11.7711   21.2974 H   0  0  0  0  0
   20.6687  -11.3325   17.9341 H   0  0  0  0  0
   21.1483  -11.8683   17.7306 H   0  0  0  0  0
   17.1285  -10.5196   21.2089 H   0  0  0  0  0
   19.2870  -15.0569   21.4097 H   0  0  0  0  0
   17.8356  -14.8637   22.5412 H   0  0  0  0  0
   21.4119  -14.6869   22.0857 H   0  0  0  0  0
   24.3574  -12.7931   25.2804 H   0  0  0  0  0
   24.1745  -14.4585   25.9244 H   0  0  0  0  0
   19.7171  -12.8423   26.5113 H   0  0  0  0  0
   18.1461  -13.3651   24.6177 H   0  0  0  0  0
   14.5401   -9.0473   21.2329 H   0  0  0  0  0
   12.7017   -8.8389   22.8599 H   0  0  0  0  0
   10.0606   -9.5771   25.0075 H   0  0  0  0  0
   11.3391   -8.8010   24.0671 H   0  0  0  0  0
  1  2  2  0  0  0
  2  3  1  0  0  0
  2 34  1  0  0  0
  3  4  4  0  0  0
  3 33  4  0  0  0
  4  5  4  0  0  0
  5  6  4  0  0  0
  6  7  1  0  0  0
  6 32  4  0  0  0
  7  8  1  0  0  0
  7 21  1  0  0  0
  8  9  1  0  0  0
  8 12  1  0  0  0
  9 10  1  0  0  0
 10 11  1  0  0  0
 11 12  1  0  0  0
 12 13  1  0  0  0
 13 15  1  0  0  0
 13 21  1  0  0  0
 15 14  1  0  0  0
 14 16  1  0  0  0
 14 17  1  0  0  0
 15 18  1  0  0  0
 16 17  1  0  0  0
 18 19  1  0  0  0
 18 22  1  0  0  0
 19 20  2  0  0  0
 19 21  1  0  0  0
 22 23  1  0  0  0
 23 24  4  0  0  0
 23 31  4  0  0  0
 24 25  4  0  0  0
 25 26  1  0  0  0
 25 29  4  0  0  0
 26 27  1  0  0  0
 27 28  1  0  0  0
 28 29  1  0  0  0
 29 30  4  0  0  0
 30 31  4  0  0  0
 32 33  4  0  0  0
  1 35  1  0  0  0
  4 36  1  0  0  0
  5 37  1  0  0  0
  7 38  1  0  0  0
  8 39  1  0  0  0
  9 40  1  0  0  0
  9 41  1  0  0  0
 10 42  1  0  0  0
 10 43  1  0  0  0
 11 44  1  0  0  0
 11 45  1  0  0  0
 12 46  1  0  0  0
 13 47  1  0  0  0
 14 48  1  0  0  0
 15 49  1  0  0  0
 16 50  1  0  0  0
 16 51  1  0  0  0
 17 52  1  0  0  0
 17 53  1  0  0  0
 21 54  1  0  0  0
 22 55  1  0  0  0
 22 56  1  0  0  0
 24 57  1  0  0  0
 27 58  1  0  0  0
 27 59  1  0  0  0
 30 60  1  0  0  0
 31 61  1  0  0  0
 32 62  1  0  0  0
 33 63  1  0  0  0
 34 64  1  0  0  0
 34 65  1  0  0  0
M  END
$$$$
