4j8g_ligand
  -I-interpret- 

172173  0  0  0  0  0  0  0  0999 V2000
  -19.9520   21.5590  -91.5790 N   0  3  0  0  0
  -20.3120   21.4870  -92.9850 C   0  0  0  0  0
  -19.8200   20.1970  -93.6850 C   0  0  0  0  0
  -20.5280   19.6550  -94.5310 O   0  0  0  0  0
  -19.8170   22.7200  -93.6960 C   0  0  0  0  0
  -18.6120   19.7250  -93.3560 N   0  0  0  0  0
  -18.1730   18.3580  -93.7150 C   0  0  0  0  0
  -18.2890   17.4080  -92.4960 C   0  0  0  0  0
  -18.4500   17.8730  -91.3720 O   0  0  0  0  0
  -16.7640   18.3550  -94.2740 C   0  0  0  0  0
  -18.2210   16.0950  -92.7200 N   0  0  0  0  0
  -18.6550   15.0980  -91.7160 C   0  0  0  0  0
  -17.9030   15.1830  -90.3810 C   0  0  0  0  0
  -18.5000   15.1790  -89.2990 O   0  0  0  0  0
  -18.5400   13.6700  -92.2930 C   0  0  0  0  0
  -18.9410   12.6870  -91.3390 O   0  0  0  0  0
  -16.5850   15.2720  -90.4730 N   0  0  0  0  0
  -15.7430   15.3590  -89.2840 C   0  0  0  0  0
  -15.9150   16.6710  -88.4990 C   0  0  0  0  0
  -15.9980   16.6580  -87.2570 O   0  0  0  0  0
  -14.2850   15.1620  -89.6850 C   0  0  0  0  0
  -13.3350   15.3410  -88.5520 C   0  0  0  0  0
  -12.7040   16.5570  -88.3530 C   0  0  0  0  0
  -13.1050   14.3030  -87.6600 C   0  0  0  0  0
  -11.8250   16.7370  -87.2970 C   0  0  0  0  0
  -12.2230   14.4690  -86.5930 C   0  0  0  0  0
  -11.5830   15.6970  -86.4100 C   0  0  0  0  0
  -15.9580   17.8000  -89.2100 N   0  0  0  0  0
  -16.1780   19.1020  -88.5620 C   0  0  0  0  0
  -17.4890   19.0850  -87.8040 C   0  0  0  0  0
  -17.5550   19.4650  -86.6390 O   0  0  0  0  0
  -16.2020   20.2920  -89.5730 C   0  0  0  0  0
  -14.7850   20.7170  -89.9330 C   0  0  0  0  0
  -16.9280   21.4980  -88.9900 C   0  0  0  0  0
  -14.0160   19.6870  -90.7010 C   0  0  0  0  0
  -18.5340   18.6190  -88.4630 N   0  0  0  0  0
  -19.8480   18.5920  -87.8230 C   0  0  0  0  0
  -19.9670   17.6000  -86.6520 C   0  0  0  0  0
  -20.6280   17.8990  -85.6590 O   0  0  0  0  0
  -20.9280   18.2930  -88.8540 C   0  0  0  0  0
  -21.0780   19.3970  -89.8860 C   0  0  0  0  0
  -20.7190   20.5630  -89.5970 O   0  0  0  0  0
  -21.5750   19.0930  -90.9920 O   0  0  0  0  0
  -19.3580   16.4200  -86.7730 N   0  0  0  0  0
  -19.5100   15.3830  -85.7370 C   0  0  0  0  0
  -18.5180   15.5160  -84.5990 C   0  0  0  0  0
  -18.8300   15.2030  -83.4360 O   0  0  0  0  0
  -19.3990   13.9920  -86.3530 C   0  0  0  0  0
  -17.3090   15.9500  -84.9260 N   0  0  0  0  0
  -16.2570   15.9870  -83.9320 C   0  0  0  0  0
  -15.8490   17.3850  -83.4940 C   0  0  0  0  0
  -15.6750   17.6260  -82.3000 O   0  0  0  0  0
  -15.0180   15.2130  -84.4130 C   0  0  0  0  0
  -15.1820   13.7020  -84.4530 C   0  0  0  0  0
  -15.5610   13.0980  -83.0940 C   0  0  0  0  0
  -14.6720   13.5410  -81.9420 C   0  0  0  0  0
  -15.0630   12.7640  -80.7140 N   0  3  0  0  0
  -15.6460   18.3040  -84.4380 N   0  0  0  0  0
  -15.0340   19.5730  -84.0430 C   0  0  0  0  0
  -16.0280   20.4740  -83.3150 C   0  0  0  0  0
  -15.7110   21.0310  -82.2480 O   0  0  0  0  0
  -14.3970   20.3190  -85.2210 C   0  0  0  0  0
  -13.4910   21.4700  -84.7610 C   0  0  0  0  0
  -13.1160   22.4210  -85.8950 C   0  0  0  0  0
  -12.1060   23.4880  -85.4520 C   0  0  0  0  0
  -10.8820   22.9020  -84.8220 N   0  3  0  0  0
  -17.2300   20.5770  -83.8790 N   0  0  0  0  0
  -18.2180   21.5690  -83.4580 C   0  0  0  0  0
  -19.0630   21.2830  -82.2000 C   0  0  0  0  0
  -19.2480   22.1900  -81.4070 O   0  0  0  0  0
  -19.1460   21.9560  -84.6300 C   0  0  0  0  0
  -18.3950   22.5470  -85.8410 C   0  0  0  0  0
  -17.1820   23.8350  -85.4340 S   0  0  0  0  0
  -18.2800   25.2650  -85.4640 C   0  0  0  0  0
  -19.5880   20.0500  -82.0240 N   0  0  0  0  0
  -20.5810   19.9080  -80.9450 C   0  0  0  0  0
  -20.0090   19.9690  -79.5130 C   0  0  0  0  0
  -18.7950   19.8520  -79.3160 O   0  0  0  0  0
  -21.2220   18.5440  -81.2210 C   0  0  0  0  0
  -20.2210   17.7780  -81.9610 C   0  0  0  0  0
  -19.4520   18.8040  -82.8000 C   0  0  0  0  0
  -20.7640   20.1480  -78.5260 O   0  0  0  0  0
  -20.2881   20.7235  -91.1000 H   0  0  0  0  0
  -18.9374   21.6176  -91.4916 H   0  0  0  0  0
  -20.3787   22.3863  -91.1619 H   0  0  0  0  0
  -21.3999   21.4451  -93.0380 H   0  0  0  0  0
  -18.7270   22.7221  -93.7009 H   0  0  0  0  0
  -20.1862   22.7194  -94.7216 H   0  0  0  0  0
  -20.1810   23.6073  -93.1780 H   0  0  0  0  0
  -17.9715   20.3282  -92.8399 H   0  0  0  0  0
  -18.8356   17.9915  -94.4991 H   0  0  0  0  0
  -16.0682   18.6873  -93.5036 H   0  0  0  0  0
  -16.5023   17.3454  -94.5907 H   0  0  0  0  0
  -16.7119   19.0301  -95.1282 H   0  0  0  0  0
  -17.8572   15.7665  -93.6145 H   0  0  0  0  0
  -19.6957   15.3353  -91.4951 H   0  0  0  0  0
  -17.4989   13.4880  -92.5598 H   0  0  0  0  0
  -19.1937   13.5949  -93.1620 H   0  0  0  0  0
  -18.8580   11.8131  -91.7275 H   0  0  0  0  0
  -16.1487   15.2799  -91.3949 H   0  0  0  0  0
  -16.0621   14.5667  -88.6069 H   0  0  0  0  0
  -14.0455   15.9125  -90.4383 H   0  0  0  0  0
  -14.1776   14.1397  -90.0475 H   0  0  0  0  0
  -12.9011   17.3835  -89.0358 H   0  0  0  0  0
  -13.6178   13.3506  -87.7946 H   0  0  0  0  0
  -11.3235   17.6954  -87.1628 H   0  0  0  0  0
  -12.0339   13.6448  -85.9052 H   0  0  0  0  0
  -10.8969   15.8379  -85.5748 H   0  0  0  0  0
  -15.8360   17.7590  -90.2218 H   0  0  0  0  0
  -15.3367   19.2566  -87.8864 H   0  0  0  0  0
  -16.7283   19.9460  -90.4626 H   0  0  0  0  0
  -14.2515   20.8877  -88.9979 H   0  0  0  0  0
  -14.8638   21.6003  -90.5667 H   0  0  0  0  0
  -17.9556   21.2223  -88.7531 H   0  0  0  0  0
  -16.4192   21.8230  -88.0825 H   0  0  0  0  0
  -16.9268   22.3085  -89.7188 H   0  0  0  0  0
  -13.9380   18.7762  -90.1073 H   0  0  0  0  0
  -14.5343   19.4701  -91.6350 H   0  0  0  0  0
  -13.0178   20.0675  -90.9177 H   0  0  0  0  0
  -18.4245   18.2781  -89.4181 H   0  0  0  0  0
  -19.9837   19.5853  -87.3952 H   0  0  0  0  0
  -21.8768   18.1986  -88.3258 H   0  0  0  0  0
  -20.6446   17.3810  -89.3795 H   0  0  0  0  0
  -20.3667   20.5761  -88.7041 H   0  0  0  0  0
  -18.7801   16.2329  -87.5924 H   0  0  0  0  0
  -20.5031   15.5271  -85.3114 H   0  0  0  0  0
  -20.1816   13.8637  -87.1008 H   0  0  0  0  0
  -18.4225   13.8817  -86.8246 H   0  0  0  0  0
  -19.5138   13.2401  -85.5723 H   0  0  0  0  0
  -17.1195   16.2584  -85.8796 H   0  0  0  0  0
  -16.6858   15.5048  -83.0536 H   0  0  0  0  0
  -14.2187   15.4247  -83.7028 H   0  0  0  0  0
  -14.8217   15.5360  -85.4354 H   0  0  0  0  0
  -14.2243   13.2738  -84.7489 H   0  0  0  0  0
  -15.9881   13.4759  -85.1510 H   0  0  0  0  0
  -15.4554   12.0168  -83.1830 H   0  0  0  0  0
  -16.5728   13.4328  -82.8653 H   0  0  0  0  0
  -14.7977   14.6089  -81.7633 H   0  0  0  0  0
  -13.6260   13.3534  -82.1846 H   0  0  0  0  0
  -14.4752   13.0497  -79.9309 H   0  0  0  0  0
  -16.0410   12.9503  -80.4923 H   0  0  0  0  0
  -14.9369   11.7671  -80.8894 H   0  0  0  0  0
  -15.9096   18.1277  -85.4074 H   0  0  0  0  0
  -14.2304   19.3154  -83.3531 H   0  0  0  0  0
  -15.1986   20.7413  -85.8269 H   0  0  0  0  0
  -13.7856   19.6100  -85.7793 H   0  0  0  0  0
  -12.5700   21.0342  -84.3738 H   0  0  0  0  0
  -14.0365   22.0440  -84.0120 H   0  0  0  0  0
  -14.0226   22.9296  -86.2229 H   0  0  0  0  0
  -12.6591   21.8334  -86.6913 H   0  0  0  0  0
  -12.5929   24.1208  -84.7100 H   0  0  0  0  0
  -11.7934   24.0401  -86.3384 H   0  0  0  0  0
  -10.2489   23.6535  -84.5484 H   0  0  0  0  0
  -11.1496   22.3642  -83.9976 H   0  0  0  0  0
  -10.4159   22.2902  -85.4920 H   0  0  0  0  0
  -17.4713   19.9374  -84.6360 H   0  0  0  0  0
  -17.5801   22.3960  -83.1462 H   0  0  0  0  0
  -19.8323   22.7203  -84.2655 H   0  0  0  0  0
  -19.6453   21.0473  -84.9661 H   0  0  0  0  0
  -19.1450   23.0110  -86.4816 H   0  0  0  0  0
  -17.8427   21.7273  -86.3004 H   0  0  0  0  0
  -18.7253   25.3588  -86.4544 H   0  0  0  0  0
  -19.0669   25.1329  -84.7214 H   0  0  0  0  0
  -17.7091   26.1647  -85.2342 H   0  0  0  0  0
  -21.2772   20.7465  -80.9621 H   0  0  0  0  0
  -22.1449   18.6471  -81.7917 H   0  0  0  0  0
  -21.5016   18.0418  -80.2948 H   0  0  0  0  0
  -20.6859   17.0184  -82.5894 H   0  0  0  0  0
  -19.5566   17.2365  -81.2876 H   0  0  0  0  0
  -18.4115   18.5204  -82.9581 H   0  0  0  0  0
  -19.8449   18.8961  -83.8125 H   0  0  0  0  0
  -21.6722   20.2207  -78.8283 H   0  0  0  0  0
  1  2  1  0  0  0
  2  3  1  0  0  0
  2  5  1  0  0  0
  3  4  2  0  0  0
  3  6  1  0  0  0
  6  7  1  0  0  0
  7  8  1  0  0  0
  7 10  1  0  0  0
  8  9  2  0  0  0
  8 11  1  0  0  0
 11 12  1  0  0  0
 12 13  1  0  0  0
 12 15  1  0  0  0
 13 14  2  0  0  0
 13 17  1  0  0  0
 15 16  1  0  0  0
 17 18  1  0  0  0
 18 19  1  0  0  0
 18 21  1  0  0  0
 19 20  2  0  0  0
 19 28  1  0  0  0
 21 22  1  0  0  0
 22 23  4  0  0  0
 22 24  4  0  0  0
 23 25  4  0  0  0
 24 26  4  0  0  0
 25 27  4  0  0  0
 26 27  4  0  0  0
 28 29  1  0  0  0
 29 30  1  0  0  0
 29 32  1  0  0  0
 30 31  2  0  0  0
 30 36  1  0  0  0
 32 33  1  0  0  0
 32 34  1  0  0  0
 33 35  1  0  0  0
 36 37  1  0  0  0
 37 38  1  0  0  0
 37 40  1  0  0  0
 38 39  2  0  0  0
 38 44  1  0  0  0
 40 41  1  0  0  0
 41 42  1  0  0  0
 41 43  2  0  0  0
 44 45  1  0  0  0
 45 46  1  0  0  0
 45 48  1  0  0  0
 46 47  2  0  0  0
 46 49  1  0  0  0
 49 50  1  0  0  0
 50 51  1  0  0  0
 50 53  1  0  0  0
 51 52  2  0  0  0
 51 58  1  0  0  0
 53 54  1  0  0  0
 54 55  1  0  0  0
 55 56  1  0  0  0
 56 57  1  0  0  0
 58 59  1  0  0  0
 59 60  1  0  0  0
 59 62  1  0  0  0
 60 61  2  0  0  0
 60 67  1  0  0  0
 62 63  1  0  0  0
 63 64  1  0  0  0
 64 65  1  0  0  0
 65 66  1  0  0  0
 67 68  1  0  0  0
 68 69  1  0  0  0
 68 71  1  0  0  0
 69 70  2  0  0  0
 69 75  1  0  0  0
 71 72  1  0  0  0
 72 73  1  0  0  0
 73 74  1  0  0  0
 75 76  1  0  0  0
 75 81  1  0  0  0
 76 77  1  0  0  0
 76 79  1  0  0  0
 77 78  2  0  0  0
 77 82  1  0  0  0
 79 80  1  0  0  0
 80 81  1  0  0  0
  1 83  1  0  0  0
  1 84  1  0  0  0
  1 85  1  0  0  0
  2 86  1  0  0  0
  5 87  1  0  0  0
  5 88  1  0  0  0
  5 89  1  0  0  0
  6 90  1  0  0  0
  7 91  1  0  0  0
 10 92  1  0  0  0
 10 93  1  0  0  0
 10 94  1  0  0  0
 11 95  1  0  0  0
 12 96  1  0  0  0
 15 97  1  0  0  0
 15 98  1  0  0  0
 16 99  1  0  0  0
 17100  1  0  0  0
 18101  1  0  0  0
 21102  1  0  0  0
 21103  1  0  0  0
 23104  1  0  0  0
 24105  1  0  0  0
 25106  1  0  0  0
 26107  1  0  0  0
 27108  1  0  0  0
 28109  1  0  0  0
 29110  1  0  0  0
 32111  1  0  0  0
 33112  1  0  0  0
 33113  1  0  0  0
 34114  1  0  0  0
 34115  1  0  0  0
 34116  1  0  0  0
 35117  1  0  0  0
 35118  1  0  0  0
 35119  1  0  0  0
 36120  1  0  0  0
 37121  1  0  0  0
 40122  1  0  0  0
 40123  1  0  0  0
 42124  1  0  0  0
 44125  1  0  0  0
 45126  1  0  0  0
 48127  1  0  0  0
 48128  1  0  0  0
 48129  1  0  0  0
 49130  1  0  0  0
 50131  1  0  0  0
 53132  1  0  0  0
 53133  1  0  0  0
 54134  1  0  0  0
 54135  1  0  0  0
 55136  1  0  0  0
 55137  1  0  0  0
 56138  1  0  0  0
 56139  1  0  0  0
 57140  1  0  0  0
 57141  1  0  0  0
 57142  1  0  0  0
 58143  1  0  0  0
 59144  1  0  0  0
 62145  1  0  0  0
 62146  1  0  0  0
 63147  1  0  0  0
 63148  1  0  0  0
 64149  1  0  0  0
 64150  1  0  0  0
 65151  1  0  0  0
 65152  1  0  0  0
 66153  1  0  0  0
 66154  1  0  0  0
 66155  1  0  0  0
 67156  1  0  0  0
 68157  1  0  0  0
 71158  1  0  0  0
 71159  1  0  0  0
 72160  1  0  0  0
 72161  1  0  0  0
 74162  1  0  0  0
 74163  1  0  0  0
 74164  1  0  0  0
 76165  1  0  0  0
 79166  1  0  0  0
 79167  1  0  0  0
 80168  1  0  0  0
 80169  1  0  0  0
 81170  1  0  0  0
 81171  1  0  0  0
 82172  1  0  0  0
M  END
$$$$
