### 
### Created by X-TOOL on Sun Sep  9 21:52:08 2018
### 

@<TRIPOS>MOLECULE
4j8g_ligand
  170   171     1     0     0
SMALL
GAST_HUCK


@<TRIPOS>ATOM
      1 N         -19.9520   21.5590  -91.5790 N.4       1 NON         0.2377
      2 CA        -20.3120   21.4870  -92.9850 C.3       1 NON         0.0621
      3 C         -19.8200   20.1970  -93.6850 C.2       1 NON         0.2264
      4 O         -20.5280   19.6550  -94.5310 O.2       1 NON        -0.3907
      5 CB        -19.8170   22.7200  -93.6960 C.3       1 NON        -0.0040
      6 N         -18.6120   19.7250  -93.3560 N.am      1 NON        -0.2613
      7 CA        -18.1730   18.3580  -93.7150 C.3       1 NON         0.1283
      8 C         -18.2890   17.4080  -92.4960 C.2       1 NON         0.2037
      9 O         -18.4500   17.8730  -91.3720 O.2       1 NON        -0.3944
     10 CB        -16.7640   18.3550  -94.2740 C.3       1 NON        -0.0244
     11 N         -18.2210   16.0950  -92.7200 N.am      1 NON        -0.2616
     12 CA        -18.6550   15.0980  -91.7160 C.3       1 NON         0.1539
     13 C         -17.9030   15.1830  -90.3810 C.2       1 NON         0.2063
     14 O         -18.5000   15.1790  -89.2990 O.2       1 NON        -0.3943
     15 CB        -18.5400   13.6700  -92.2930 C.3       1 NON         0.0843
     16 OG        -18.9410   12.6870  -91.3390 O.3       1 NON        -0.3903
     17 N         -16.5850   15.2720  -90.4730 N.am      1 NON        -0.2619
     18 CA        -15.7430   15.3590  -89.2840 C.3       1 NON         0.1404
     19 C         -15.9150   16.6710  -88.4990 C.2       1 NON         0.2060
     20 O         -15.9980   16.6580  -87.2570 O.2       1 NON        -0.3942
     21 CB        -14.2850   15.1620  -89.6850 C.3       1 NON         0.0214
     22 CG        -13.3350   15.3410  -88.5520 C.ar      1 NON        -0.0386
     23 CD1       -12.7040   16.5570  -88.3530 C.ar      1 NON        -0.0601
     24 CD2       -13.1050   14.3030  -87.6600 C.ar      1 NON        -0.0601
     25 CE1       -11.8250   16.7370  -87.2970 C.ar      1 NON        -0.0686
     26 CE2       -12.2230   14.4690  -86.5930 C.ar      1 NON        -0.0686
     27 CZ        -11.5830   15.6970  -86.4100 C.ar      1 NON        -0.0687
     28 N         -15.9580   17.8000  -89.2100 N.am      1 NON        -0.2633
     29 CA        -16.1780   19.1020  -88.5620 C.3       1 NON         0.1335
     30 C         -17.4890   19.0850  -87.8040 C.2       1 NON         0.2042
     31 O         -17.5550   19.4650  -86.6390 O.2       1 NON        -0.3944
     32 CB        -16.2020   20.2920  -89.5730 C.3       1 NON        -0.0037
     33 CG1       -14.7850   20.7170  -89.9330 C.3       1 NON        -0.0491
     34 CG2       -16.9280   21.4980  -88.9900 C.3       1 NON        -0.0582
     35 CD1       -14.0160   19.6870  -90.7010 C.3       1 NON        -0.0648
     36 N         -18.5340   18.6190  -88.4630 N.am      1 NON        -0.2622
     37 CA        -19.8480   18.5920  -87.8230 C.3       1 NON         0.1423
     38 C         -19.9670   17.6000  -86.6520 C.2       1 NON         0.2056
     39 O         -20.6280   17.8990  -85.6590 O.2       1 NON        -0.3943
     40 CB        -20.9280   18.2930  -88.8540 C.3       1 NON         0.0406
     41 CG        -21.0780   19.3970  -89.8860 C.2       1 NON         0.0393
     42 OD1       -20.7190   20.5630  -89.5970 O.co2     1 NON        -0.5688
     43 OD2       -21.5750   19.0930  -90.9920 O.co2     1 NON        -0.5688
     44 N         -19.3580   16.4200  -86.7730 N.am      1 NON        -0.2639
     45 CA        -19.5100   15.3830  -85.7370 C.3       1 NON         0.1282
     46 C         -18.5180   15.5160  -84.5990 C.2       1 NON         0.2036
     47 O         -18.8300   15.2030  -83.4360 O.2       1 NON        -0.3944
     48 CB        -19.3990   13.9920  -86.3530 C.3       1 NON        -0.0244
     49 N         -17.3090   15.9500  -84.9260 N.am      1 NON        -0.2637
     50 CA        -16.2570   15.9870  -83.9320 C.3       1 NON         0.1310
     51 C         -15.8490   17.3850  -83.4940 C.2       1 NON         0.2039
     52 O         -15.6750   17.6260  -82.3000 O.2       1 NON        -0.3944
     53 CB        -15.0180   15.2130  -84.4130 C.3       1 NON        -0.0122
     54 CG        -15.1820   13.7020  -84.4530 C.3       1 NON        -0.0440
     55 CD        -15.5610   13.0980  -83.0940 C.3       1 NON        -0.0124
     56 CE        -14.6720   13.5410  -81.9420 C.3       1 NON        -0.0354
     57 NZ        -15.0630   12.7640  -80.7140 N.4       1 NON         0.2185
     58 N         -15.6460   18.3040  -84.4380 N.am      1 NON        -0.2637
     59 CA        -15.0340   19.5730  -84.0430 C.3       1 NON         0.1310
     60 C         -16.0280   20.4740  -83.3150 C.2       1 NON         0.2039
     61 O         -15.7110   21.0310  -82.2480 O.2       1 NON        -0.3944
     62 CB        -14.3970   20.3190  -85.2210 C.3       1 NON        -0.0122
     63 CG        -13.4910   21.4700  -84.7610 C.3       1 NON        -0.0440
     64 CD        -13.1160   22.4210  -85.8950 C.3       1 NON        -0.0124
     65 CE        -12.1060   23.4880  -85.4520 C.3       1 NON        -0.0354
     66 NZ        -10.8820   22.9020  -84.8220 N.4       1 NON         0.2185
     67 N         -17.2300   20.5770  -83.8790 N.am      1 NON        -0.2637
     68 CA        -18.2180   21.5690  -83.4580 C.3       1 NON         0.1319
     69 C         -19.0630   21.2830  -82.2000 C.2       1 NON         0.2059
     70 O         -19.2480   22.1900  -81.4070 O.2       1 NON        -0.3942
     71 CB        -19.1460   21.9560  -84.6300 C.3       1 NON        -0.0034
     72 CG        -18.3950   22.5470  -85.8410 C.3       1 NON        -0.0024
     73 SD        -17.1820   23.8350  -85.4340 S.3       1 NON        -0.1639
     74 CE        -18.2800   25.2650  -85.4640 C.3       1 NON        -0.0181
     75 N         -19.5880   20.0500  -82.0240 N.am      1 NON        -0.2556
     76 CA        -20.5810   19.9080  -80.9450 C.3       1 NON         0.0972
     77 C         -20.0090   19.9690  -79.5130 C.2       1 NON         0.0603
     78 O         -18.7950   19.8520  -79.3160 O.co2     1 NON        -0.5666
     79 CB        -21.2220   18.5440  -81.2210 C.3       1 NON        -0.0159
     80 CG        -20.2210   17.7780  -81.9610 C.3       1 NON        -0.0288
     81 CD        -19.4520   18.8040  -82.8000 C.3       1 NON         0.0362
     82 OXT       -20.7640   20.1480  -78.5260 O.co2     1 NON        -0.5666
     83 H1        -20.3011   22.4193  -91.1864 H         1 NON         0.2015
     84 H2        -18.9486   21.5307  -91.4872 H         1 NON         0.2015
     85 H3        -20.3566   20.7771  -91.0881 H         1 NON         0.2015
     86 H4        -21.4105   21.4846  -93.0423 H         1 NON         0.1095
     87 H5        -20.0902   22.6642  -94.7601 H         1 NON         0.0310
     88 H6        -18.7230   22.7836  -93.6012 H         1 NON         0.0310
     89 H7        -20.2766   23.6123  -93.2458 H         1 NON         0.0310
     90 H8        -17.9841   20.3164  -92.8500 H         1 NON         0.1884
     91 H9        -18.8460   17.9840  -94.5006 H         1 NON         0.0797
     92 H10       -16.4728   17.3253  -94.5288 H         1 NON         0.0277
     93 H11       -16.0699   18.7566  -93.5211 H         1 NON         0.0277
     94 H12       -16.7268   18.9808  -95.1779 H         1 NON         0.0277
     95 H13       -17.8643   15.7729  -93.5970 H         1 NON         0.1884
     96 H14       -19.7166   15.2934  -91.5041 H         1 NON         0.0823
     97 H15       -17.4947   13.4836  -92.5805 H         1 NON         0.0606
     98 H16       -19.1844   13.5902  -93.1809 H         1 NON         0.0606
     99 H17       -18.8589   11.8222  -91.7235 H         1 NON         0.2097
    100 H18       -16.1572   15.2798  -91.3769 H         1 NON         0.1885
    101 H19       -16.0293   14.5357  -88.6130 H         1 NON         0.0823
    102 H20       -14.0362   15.8929  -90.4685 H         1 NON         0.0474
    103 H21       -14.1665   14.1433  -90.0828 H         1 NON         0.0474
    104 H22       -12.9000   17.3789  -89.0320 H         1 NON         0.0557
    105 H23       -13.6150   13.3559  -87.7939 H         1 NON         0.0557
    106 H24       -11.3263   17.6902  -87.1635 H         1 NON         0.0599
    107 H25       -12.0349   13.6493  -85.9090 H         1 NON         0.0599
    108 H26       -10.9007   15.8372  -85.5794 H         1 NON         0.0559
    109 H27       -15.8384   17.7598  -90.2020 H         1 NON         0.1883
    110 H28       -15.3567   19.2710  -87.8500 H         1 NON         0.0803
    111 H29       -16.7237   19.9661  -90.4849 H         1 NON         0.0345
    112 H30       -14.2409   20.9310  -89.0012 H         1 NON         0.0267
    113 H31       -14.8424   21.6310  -90.5423 H         1 NON         0.0267
    114 H32       -17.9561   21.2129  -88.7223 H         1 NON         0.0235
    115 H33       -16.9541   22.3061  -89.7358 H         1 NON         0.0235
    116 H34       -16.3981   21.8457  -88.0910 H         1 NON         0.0235
    117 H35       -13.0084   20.0699  -90.9204 H         1 NON         0.0230
    118 H36       -14.5380   19.4673  -91.6440 H         1 NON         0.0230
    119 H37       -13.9366   18.7673  -90.1029 H         1 NON         0.0230
    120 H38       -18.4266   18.2847  -89.3993 H         1 NON         0.1884
    121 H39       -20.0314   19.5981  -87.4179 H         1 NON         0.0819
    122 H40       -21.8878   18.1677  -88.3314 H         1 NON         0.0478
    123 H41       -20.6688   17.3589  -89.3738 H         1 NON         0.0478
    124 H42       -18.7914   16.2365  -87.5763 H         1 NON         0.1883
    125 H43       -20.5188   15.4894  -85.3115 H         1 NON         0.0797
    126 H44       -19.5148   13.2322  -85.5660 H         1 NON         0.0277
    127 H45       -18.4139   13.8794  -86.8293 H         1 NON         0.0277
    128 H46       -20.1883   13.8612  -87.1078 H         1 NON         0.0277
    129 H47       -17.1232   16.2524  -85.8609 H         1 NON         0.1883
    130 H48       -16.6463   15.4729  -83.0409 H         1 NON         0.0800
    131 H49       -14.1840   15.4482  -83.7354 H         1 NON         0.0312
    132 H50       -14.7734   15.5570  -85.4288 H         1 NON         0.0312
    133 H51       -14.2315   13.2559  -84.7808 H         1 NON         0.0269
    134 H52       -15.9720   13.4553  -85.1776 H         1 NON         0.0269
    135 H53       -15.4998   12.0027  -83.1747 H         1 NON         0.0317
    136 H54       -16.5957   13.3915  -82.8631 H         1 NON         0.0317
    137 H55       -14.8088   14.6171  -81.7598 H         1 NON         0.0813
    138 H56       -13.6185   13.3417  -82.1878 H         1 NON         0.0813
    139 H57       -14.4827   13.0456  -79.9394 H         1 NON         0.1994
    140 H58       -14.9387   11.7786  -80.8861 H         1 NON         0.1994
    141 H59       -16.0294   12.9474  -80.4939 H         1 NON         0.1994
    142 H60       -15.9044   18.1312  -85.3884 H         1 NON         0.1883
    143 H61       -14.2267   19.3335  -83.3353 H         1 NON         0.0800
    144 H62       -15.1974   20.7302  -85.8537 H         1 NON         0.0312
    145 H63       -13.7956   19.6079  -85.8064 H         1 NON         0.0312
    146 H64       -12.5681   21.0438  -84.3409 H         1 NON         0.0269
    147 H65       -14.0180   22.0420  -83.9831 H         1 NON         0.0269
    148 H66       -14.0275   22.9233  -86.2511 H         1 NON         0.0317
    149 H67       -12.6752   21.8361  -86.7157 H         1 NON         0.0317
    150 H68       -12.5932   24.1517  -84.7225 H         1 NON         0.0813
    151 H69       -11.8023   24.0719  -86.3334 H         1 NON         0.0813
    152 H70       -10.2556   23.6438  -84.5512 H         1 NON         0.1994
    153 H71       -10.4205   22.2971  -85.4832 H         1 NON         0.1994
    154 H72       -11.1452   22.3703  -84.0071 H         1 NON         0.1994
    155 H73       -17.4666   19.9499  -84.6211 H         1 NON         0.1883
    156 H74       -17.6306   22.4658  -83.2115 H         1 NON         0.0800
    157 H75       -19.8683   22.7033  -84.2699 H         1 NON         0.0320
    158 H76       -19.6841   21.0552  -84.9600 H         1 NON         0.0320
    159 H77       -19.1385   22.9819  -86.5252 H         1 NON         0.0378
    160 H78       -17.8655   21.7270  -86.3481 H         1 NON         0.0378
    161 H79       -17.7050   26.1737  -85.2322 H         1 NON         0.0340
    162 H80       -19.0747   25.1329  -84.7150 H         1 NON         0.0340
    163 H81       -18.7301   25.3608  -86.4631 H         1 NON         0.0340
    164 H82       -21.3337   20.7045  -81.0399 H         1 NON         0.0728
    165 H83       -22.1348   18.6641  -81.8230 H         1 NON         0.0306
    166 H84       -21.4698   18.0386  -80.2760 H         1 NON         0.0306
    167 H85       -20.7087   17.0379  -82.6124 H         1 NON         0.0286
    168 H86       -19.5409   17.2634  -81.2663 H         1 NON         0.0286
    169 H87       -18.3950   18.5167  -82.9015 H         1 NON         0.0524
    170 H88       -19.9004   18.9112  -83.7987 H         1 NON         0.0524
@<TRIPOS>BOND
     1    1    2 1  
     2    2    3 1  
     3    2    5 1  
     4    3    4 2  
     5    3    6 am 
     6    6    7 1  
     7    7    8 1  
     8    7   10 1  
     9    8    9 2  
    10    8   11 am 
    11   11   12 1  
    12   12   13 1  
    13   12   15 1  
    14   13   14 2  
    15   13   17 am 
    16   15   16 1  
    17   17   18 1  
    18   18   19 1  
    19   18   21 1  
    20   19   20 2  
    21   19   28 am 
    22   21   22 1  
    23   22   23 ar 
    24   22   24 ar 
    25   23   25 ar 
    26   24   26 ar 
    27   25   27 ar 
    28   26   27 ar 
    29   28   29 1  
    30   29   30 1  
    31   29   32 1  
    32   30   31 2  
    33   30   36 am 
    34   32   33 1  
    35   32   34 1  
    36   33   35 1  
    37   36   37 1  
    38   37   38 1  
    39   37   40 1  
    40   38   39 2  
    41   38   44 am 
    42   40   41 1  
    43   41   42 ar 
    44   41   43 ar 
    45   44   45 1  
    46   45   46 1  
    47   45   48 1  
    48   46   47 2  
    49   46   49 am 
    50   49   50 1  
    51   50   51 1  
    52   50   53 1  
    53   51   52 2  
    54   51   58 am 
    55   53   54 1  
    56   54   55 1  
    57   55   56 1  
    58   56   57 1  
    59   58   59 1  
    60   59   60 1  
    61   59   62 1  
    62   60   61 2  
    63   60   67 am 
    64   62   63 1  
    65   63   64 1  
    66   64   65 1  
    67   65   66 1  
    68   67   68 1  
    69   68   69 1  
    70   68   71 1  
    71   69   70 2  
    72   69   75 am 
    73   71   72 1  
    74   72   73 1  
    75   73   74 1  
    76   75   76 1  
    77   75   81 1  
    78   76   77 1  
    79   76   79 1  
    80   77   78 ar 
    81   77   82 ar 
    82   79   80 1  
    83   80   81 1  
    84    1   83 1  
    85    1   84 1  
    86    1   85 1  
    87    2   86 1  
    88    5   87 1  
    89    5   88 1  
    90    5   89 1  
    91    6   90 1  
    92    7   91 1  
    93   10   92 1  
    94   10   93 1  
    95   10   94 1  
    96   11   95 1  
    97   12   96 1  
    98   15   97 1  
    99   15   98 1  
   100   16   99 1  
   101   17  100 1  
   102   18  101 1  
   103   21  102 1  
   104   21  103 1  
   105   23  104 1  
   106   24  105 1  
   107   25  106 1  
   108   26  107 1  
   109   27  108 1  
   110   28  109 1  
   111   29  110 1  
   112   32  111 1  
   113   33  112 1  
   114   33  113 1  
   115   34  114 1  
   116   34  115 1  
   117   34  116 1  
   118   35  117 1  
   119   35  118 1  
   120   35  119 1  
   121   36  120 1  
   122   37  121 1  
   123   40  122 1  
   124   40  123 1  
   125   44  124 1  
   126   45  125 1  
   127   48  126 1  
   128   48  127 1  
   129   48  128 1  
   130   49  129 1  
   131   50  130 1  
   132   53  131 1  
   133   53  132 1  
   134   54  133 1  
   135   54  134 1  
   136   55  135 1  
   137   55  136 1  
   138   56  137 1  
   139   56  138 1  
   140   57  139 1  
   141   57  140 1  
   142   57  141 1  
   143   58  142 1  
   144   59  143 1  
   145   62  144 1  
   146   62  145 1  
   147   63  146 1  
   148   63  147 1  
   149   64  148 1  
   150   64  149 1  
   151   65  150 1  
   152   65  151 1  
   153   66  152 1  
   154   66  153 1  
   155   66  154 1  
   156   67  155 1  
   157   68  156 1  
   158   71  157 1  
   159   71  158 1  
   160   72  159 1  
   161   72  160 1  
   162   74  161 1  
   163   74  162 1  
   164   74  163 1  
   165   76  164 1  
   166   79  165 1  
   167   79  166 1  
   168   80  167 1  
   169   80  168 1  
   170   81  169 1  
   171   81  170 1  
@<TRIPOS>SUBSTRUCTURE
     1 NON         1

