6qqu_ligand
  -I-interpret- 

 24 26  0  0  0  0  0  0  0  0999 V2000
  -23.1680   21.3210  -11.4720 C   0  0  0  0  0
  -25.3330   21.2900  -10.8740 C   0  0  0  0  0
  -19.8650   17.6960  -12.6530 C   0  0  0  0  0
  -17.5430   16.7910  -13.0680 N   0  0  0  0  0
  -18.4950   17.8540  -12.8620 C   0  0  0  0  0
  -18.2200   19.1800  -12.8500 N   0  0  0  0  0
  -19.3810   19.8450  -12.6210 N   0  0  0  0  0
  -20.3890   18.9810  -12.5420 C   0  0  0  0  0
  -21.7920   19.4670  -12.1890 C   0  0  0  0  0
  -22.8660   18.5660  -11.9880 C   0  0  0  0  0
  -24.0990   19.0710  -11.5720 C   0  0  0  0  0
  -24.2390   20.4650  -11.3110 C   0  0  0  0  0
  -23.5740   22.5960  -11.1650 N   0  0  0  0  0
  -24.8650   22.5940  -10.8060 C   0  0  0  0  0
  -21.9010   20.8250  -11.8970 C   0  0  0  0  0
  -20.5290   16.3430  -12.6320 C   0  0  0  0  0
  -20.9760   15.2870  -12.6280 N   0  0  0  0  0
  -26.3428   20.9530  -10.6397 H   0  0  0  0  0
  -17.8551   15.8199  -13.0688 H   0  0  0  0  0
  -16.5574   17.0100  -13.2129 H   0  0  0  0  0
  -22.7322   17.4972  -12.1552 H   0  0  0  0  0
  -24.9507   18.4023  -11.4474 H   0  0  0  0  0
  -25.4473   23.4670  -10.5112 H   0  0  0  0  0
  -21.0419   21.4892  -11.9909 H   0  0  0  0  0
  1 12  4  0  0  0
  1 13  4  0  0  0
 15  1  4  0  0  0
 12  2  4  0  0  0
  2 14  4  0  0  0
  3  5  4  0  0  0
  8  3  4  0  0  0
  3 16  1  0  0  0
  5  4  1  0  0  0
  6  5  4  0  0  0
  7  6  4  0  0  0
  8  7  4  0  0  0
  9  8  1  0  0  0
  9 10  4  0  0  0
  9 15  4  0  0  0
 10 11  4  0  0  0
 11 12  4  0  0  0
 13 14  4  0  0  0
 16 17  3  0  0  0
  2 18  1  0  0  0
  4 19  1  0  0  0
  4 20  1  0  0  0
 10 21  1  0  0  0
 11 22  1  0  0  0
 14 23  1  0  0  0
 15 24  1  0  0  0
M  END
$$$$
