5dtt_ligand
  -I-interpret- 

 21 22  0  0  0  0  0  0  0  0999 V2000
   76.6320  232.1140   35.6190 C   0  0  0  0  0
   77.7560  232.9240   35.7420 C   0  0  0  0  0
   79.0200  232.4010   35.5330 C   0  0  0  0  0
   79.1730  231.0660   35.2020 C   0  0  0  0  0
   78.0610  230.2410   35.0840 C   0  0  0  0  0
   76.7910  230.7690   35.2990 C   0  0  0  0  0
   78.2160  228.8080   34.7130 C   0  0  0  0  0
   73.2570  233.9940   35.7710 C   0  0  0  0  0
   79.4430  228.4270   34.5070 O   0  0  0  0  0
   77.2530  228.0600   34.6180 O   0  0  0  0  0
   75.2820  232.6750   35.7910 C   0  0  0  0  0
   74.8460  234.2380   35.1870 S   0  0  0  0  0
   73.1610  232.7950   36.3660 C   0  0  0  0  0
   74.3070  232.0330   36.3860 N   0  0  0  0  0
   77.6407  233.9757   36.0043 H   0  0  0  0  0
   79.8966  233.0416   35.6292 H   0  0  0  0  0
   80.1703  230.6598   35.0331 H   0  0  0  0  0
   75.9156  230.1249   35.2162 H   0  0  0  0  0
   72.4402  234.7092   35.6739 H   0  0  0  0  0
   80.0342  229.1724   34.6355 H   0  0  0  0  0
   72.2285  232.4445   36.8083 H   0  0  0  0  0
  1  2  4  0  0  0
  1  6  4  0  0  0
 11  1  1  0  0  0
  2  3  4  0  0  0
  3  4  4  0  0  0
  5  4  4  0  0  0
  6  5  4  0  0  0
  5  7  1  0  0  0
  7  9  1  0  0  0
  7 10  2  0  0  0
 12  8  4  0  0  0
  8 13  4  0  0  0
 11 12  4  0  0  0
 11 14  4  0  0  0
 13 14  4  0  0  0
  2 15  1  0  0  0
  3 16  1  0  0  0
  4 17  1  0  0  0
  6 18  1  0  0  0
  8 19  1  0  0  0
  9 20  1  0  0  0
 13 21  1  0  0  0
M  END
$$$$
