5dde_ligand
  -I-interpret- 

 48 51  0  0  0  0  0  0  0  0999 V2000
  -13.2520    7.4600  -12.2020 C   0  0  0  0  0
  -13.3970    8.7780  -11.9270 C   0  0  0  0  0
  -12.3190    9.4840  -11.4370 C   0  0  0  0  0
  -11.1570    8.8430  -11.2460 N   0  0  0  0  0
  -12.1030    6.8520  -12.0180 N   0  0  0  0  0
  -17.5310    6.2240  -11.8250 F   0  0  0  0  0
  -17.7680    7.5810  -11.9130 C   0  0  0  0  0
  -19.1010    7.8030  -12.1910 F   0  0  0  0  0
  -16.8750    8.2040  -13.0580 C   0  0  0  0  0
  -15.4210    8.0730  -12.6820 C   0  0  0  0  0
  -14.6530    6.7680  -12.7940 S   0  0  0  0  0
  -14.6860    9.0950  -12.1990 C   0  0  0  0  0
  -10.9940    7.5090  -11.5400 C   0  0  0  0  0
  -12.2540   10.8230  -11.1400 N   0  0  0  0  0
  -13.1310   11.7750  -11.7850 C   0  0  0  0  0
  -12.3300   12.9030  -12.4800 C   0  0  0  0  0
  -11.1550   11.4480  -10.3760 C   0  0  0  0  0
  -11.3750   12.9430  -10.1980 C   0  0  0  0  0
  -11.5170   13.5910  -11.5120 N   0  3  0  0  0
  -10.8700   14.7040  -11.8200 C   0  0  0  0  0
  -10.9450   15.3970  -13.2810 S   0  0  0  0  0
  -10.0490   16.8270  -12.8590 C   0  0  0  0  0
   -8.9700   17.1010  -13.9130 C   0  0  0  0  0
  -10.9960   18.0300  -12.7630 C   0  0  0  0  0
   -9.4340   16.5520  -11.5530 C   0  0  0  0  0
  -10.0710   15.3710  -10.9720 N   0  0  0  0  0
  -17.5154    8.0523  -10.9632 H   0  0  0  0  0
  -17.1259    9.2571  -13.1845 H   0  0  0  0  0
  -17.0593    7.6753  -13.9932 H   0  0  0  0  0
  -15.0947   10.0930  -12.0406 H   0  0  0  0  0
  -10.0393    7.0015  -11.4017 H   0  0  0  0  0
  -13.7720   12.2236  -11.0260 H   0  0  0  0  0
  -13.7150   11.2498  -12.5408 H   0  0  0  0  0
  -13.0237   13.6097  -12.9356 H   0  0  0  0  0
  -11.6881   12.4694  -13.2469 H   0  0  0  0  0
  -10.2258   11.3001  -10.9263 H   0  0  0  0  0
  -11.1157   10.9861   -9.3895 H   0  0  0  0  0
  -10.5188   13.3719   -9.6773 H   0  0  0  0  0
  -12.2836   13.1052   -9.6181 H   0  0  0  0  0
   -8.2883   16.2519  -13.9625 H   0  0  0  0  0
   -9.4418   17.2469  -14.8847 H   0  0  0  0  0
   -8.4154   17.9983  -13.6386 H   0  0  0  0  0
  -11.4852   18.1833  -13.7249 H   0  0  0  0  0
  -11.7482   17.8385  -11.9978 H   0  0  0  0  0
  -10.4251   18.9200  -12.4983 H   0  0  0  0  0
   -9.5708   17.4082  -10.8925 H   0  0  0  0  0
   -8.3662   16.3722  -11.6779 H   0  0  0  0  0
   -9.9213   15.0792  -10.0062 H   0  0  0  0  0
  1  2  4  0  0  0
  1  5  4  0  0  0
 11  1  4  0  0  0
  2  3  4  0  0  0
  2 12  4  0  0  0
  3  4  4  0  0  0
  3 14  1  0  0  0
 13  4  4  0  0  0
  5 13  4  0  0  0
  7  6  1  0  0  0
  7  8  1  0  0  0
  9  7  1  0  0  0
 10  9  1  0  0  0
 10 11  4  0  0  0
 10 12  4  0  0  0
 14 15  1  0  0  0
 14 17  1  0  0  0
 15 16  1  0  0  0
 16 19  1  0  0  0
 17 18  1  0  0  0
 18 19  1  0  0  0
 19 20  2  0  0  0
 20 21  1  0  0  0
 20 26  1  0  0  0
 21 22  1  0  0  0
 22 23  1  0  0  0
 22 24  1  0  0  0
 22 25  1  0  0  0
 25 26  1  0  0  0
  7 27  1  0  0  0
  9 28  1  0  0  0
  9 29  1  0  0  0
 12 30  1  0  0  0
 13 31  1  0  0  0
 15 32  1  0  0  0
 15 33  1  0  0  0
 16 34  1  0  0  0
 16 35  1  0  0  0
 17 36  1  0  0  0
 17 37  1  0  0  0
 18 38  1  0  0  0
 18 39  1  0  0  0
 23 40  1  0  0  0
 23 41  1  0  0  0
 23 42  1  0  0  0
 24 43  1  0  0  0
 24 44  1  0  0  0
 24 45  1  0  0  0
 25 46  1  0  0  0
 25 47  1  0  0  0
 26 48  1  0  0  0
M  END
$$$$
