### 
### Created by X-TOOL on Mon Sep 10 21:13:27 2018
### 

@<TRIPOS>MOLECULE
5klp_ligand
   42    42     1     0     0
SMALL
GAST_HUCK


@<TRIPOS>ATOM
      1 C1         10.1800    7.8510  -14.4790 C.3       1 IHP         0.1556
      2 C2          9.4770    6.4200  -14.5380 C.3       1 IHP         0.1556
      3 C3          8.8420    5.8350  -15.8570 C.3       1 IHP         0.1556
      4 C4          8.8680    6.8490  -17.0940 C.3       1 IHP         0.1556
      5 C5          9.0240    8.3300  -16.8040 C.3       1 IHP         0.1556
      6 C6         10.2760    8.4350  -15.9440 C.3       1 IHP         0.1556
      7 O11         9.6180    8.6570  -13.6150 O.3       1 IHP        -0.2668
      8 P1         10.2540    9.4510  -12.2610 P.3       1 IHP         0.2013
      9 O21         9.2290    9.4470  -11.1290 O.co2     1 IHP        -0.5537
     10 O31        10.5720   10.9070  -12.6170 O.co2     1 IHP        -0.5537
     11 O41        11.5320    8.8420  -11.7100 O.co2     1 IHP        -0.5537
     12 O12         8.6510    6.1810  -13.4630 O.3       1 IHP        -0.2668
     13 P2          9.0890    4.9330  -12.4220 P.3       1 IHP         0.2013
     14 O22        10.4790    5.2240  -11.8180 O.co2     1 IHP        -0.5537
     15 O32         8.1010    4.6840  -11.2770 O.co2     1 IHP        -0.5537
     16 O42         9.2660    3.6390  -13.2530 O.co2     1 IHP        -0.5537
     17 O13         7.6490    5.5070  -15.5540 O.3       1 IHP        -0.2668
     18 P3          6.7530    4.0800  -15.5220 P.3       1 IHP         0.2013
     19 O23         7.2360    2.9350  -14.6310 O.co2     1 IHP        -0.5537
     20 O33         5.5410    4.7440  -14.8720 O.co2     1 IHP        -0.5537
     21 O43         6.4100    3.5270  -16.9020 O.co2     1 IHP        -0.5537
     22 O14         7.8250    6.6600  -17.9150 O.3       1 IHP        -0.2668
     23 P4          7.9180    5.7840  -19.2760 P.3       1 IHP         0.2013
     24 O24         7.8640    4.2830  -18.9850 O.co2     1 IHP        -0.5537
     25 O34         6.8050    6.1540  -20.2780 O.co2     1 IHP        -0.5537
     26 O44         9.2510    6.0500  -20.0000 O.co2     1 IHP        -0.5537
     27 O15         7.9310    8.9740  -16.3640 O.3       1 IHP        -0.2668
     28 P5          7.1080   10.1590  -17.2740 P.3       1 IHP         0.2013
     29 O25         7.5780   10.1460  -18.7330 O.co2     1 IHP        -0.5537
     30 O35         5.5780    9.8900  -17.2740 O.co2     1 IHP        -0.5537
     31 O45         7.3350   11.5740  -16.7320 O.co2     1 IHP        -0.5537
     32 O16        10.7230    9.6890  -15.9200 O.3       1 IHP        -0.2668
     33 P6         12.3000   10.1200  -15.8730 P.3       1 IHP         0.2013
     34 O26        13.1380    9.1580  -16.7130 O.co2     1 IHP        -0.5537
     35 O36        12.5060   11.5500  -16.4050 O.co2     1 IHP        -0.5537
     36 O46        12.8270   10.0970  -14.4340 O.co2     1 IHP        -0.5537
     37 H1         11.2105    7.6942  -14.1276 H         1 IHP         0.0710
     38 H2         10.3310    5.7464  -14.3740 H         1 IHP         0.0710
     39 H3          9.4027    4.9352  -16.1503 H         1 IHP         0.0710
     40 H4          9.7668    6.5715  -17.6641 H         1 IHP         0.0710
     41 H5          9.2599    8.8154  -17.7625 H         1 IHP         0.0710
     42 H6         11.0407    7.8322  -16.4557 H         1 IHP         0.0710
@<TRIPOS>BOND
     1    1    2 1  
     2    1    6 1  
     3    1    7 1  
     4    2    3 1  
     5    2   12 1  
     6    3    4 1  
     7    3   17 1  
     8    4    5 1  
     9    4   22 1  
    10    5    6 1  
    11    5   27 1  
    12    6   32 1  
    13    7    8 1  
    14    8    9 ar 
    15    8   10 ar 
    16    8   11 ar 
    17   12   13 1  
    18   13   14 ar 
    19   13   15 ar 
    20   13   16 ar 
    21   17   18 1  
    22   18   19 ar 
    23   18   20 ar 
    24   18   21 ar 
    25   22   23 1  
    26   23   24 ar 
    27   23   25 ar 
    28   23   26 ar 
    29   27   28 1  
    30   28   29 ar 
    31   28   30 ar 
    32   28   31 ar 
    33   32   33 1  
    34   33   34 ar 
    35   33   35 ar 
    36   33   36 ar 
    37    1   37 1  
    38    2   38 1  
    39    3   39 1  
    40    4   40 1  
    41    5   41 1  
    42    6   42 1  
@<TRIPOS>SUBSTRUCTURE
     1 IHP         1

