5klp_ligand
  -I-interpret- 

 54 54  0  0  0  0  0  0  0  0999 V2000
   10.1800    7.8510  -14.4790 C   0  0  0  0  0
    9.4770    6.4200  -14.5380 C   0  0  0  0  0
    8.8420    5.8350  -15.8570 C   0  0  0  0  0
    8.8680    6.8490  -17.0940 C   0  0  0  0  0
    9.0240    8.3300  -16.8040 C   0  0  0  0  0
   10.2760    8.4350  -15.9440 C   0  0  0  0  0
    9.6180    8.6570  -13.6150 O   0  0  0  0  0
   10.2540    9.4510  -12.2610 P   0  0  0  0  0
    9.2290    9.4470  -11.1290 O   0  0  0  0  0
   10.5720   10.9070  -12.6170 O   0  0  0  0  0
   11.5320    8.8420  -11.7100 O   0  0  0  0  0
    8.6510    6.1810  -13.4630 O   0  0  0  0  0
    9.0890    4.9330  -12.4220 P   0  0  0  0  0
   10.4790    5.2240  -11.8180 O   0  0  0  0  0
    8.1010    4.6840  -11.2770 O   0  0  0  0  0
    9.2660    3.6390  -13.2530 O   0  0  0  0  0
    7.6490    5.5070  -15.5540 O   0  0  0  0  0
    6.7530    4.0800  -15.5220 P   0  0  0  0  0
    7.2360    2.9350  -14.6310 O   0  0  0  0  0
    5.5410    4.7440  -14.8720 O   0  0  0  0  0
    6.4100    3.5270  -16.9020 O   0  0  0  0  0
    7.8250    6.6600  -17.9150 O   0  0  0  0  0
    7.9180    5.7840  -19.2760 P   0  0  0  0  0
    7.8640    4.2830  -18.9850 O   0  0  0  0  0
    6.8050    6.1540  -20.2780 O   0  0  0  0  0
    9.2510    6.0500  -20.0000 O   0  0  0  0  0
    7.9310    8.9740  -16.3640 O   0  0  0  0  0
    7.1080   10.1590  -17.2740 P   0  0  0  0  0
    7.5780   10.1460  -18.7330 O   0  0  0  0  0
    5.5780    9.8900  -17.2740 O   0  0  0  0  0
    7.3350   11.5740  -16.7320 O   0  0  0  0  0
   10.7230    9.6890  -15.9200 O   0  0  0  0  0
   12.3000   10.1200  -15.8730 P   0  0  0  0  0
   13.1380    9.1580  -16.7130 O   0  0  0  0  0
   12.5060   11.5500  -16.4050 O   0  0  0  0  0
   12.8270   10.0970  -14.4340 O   0  0  0  0  0
   11.1951    7.7398  -14.0979 H   0  0  0  0  0
   10.4003    5.8415  -14.5071 H   0  0  0  0  0
    9.4310    4.9843  -16.1999 H   0  0  0  0  0
    9.8082    6.5752  -17.5728 H   0  0  0  0  0
    9.1486    8.8937  -17.7286 H   0  0  0  0  0
   10.9904    7.7782  -16.4404 H   0  0  0  0  0
    8.4053    9.8268  -11.4434 H   0  0  0  0  0
    9.7850   11.3280  -12.9704 H   0  0  0  0  0
   11.1077    5.3819  -12.5261 H   0  0  0  0  0
    9.8856    3.8015  -13.9681 H   0  0  0  0  0
    7.4533    3.2778  -13.7610 H   0  0  0  0  0
    5.7875    5.0811  -14.0076 H   0  0  0  0  0
    6.8399    7.0960  -20.4598 H   0  0  0  0  0
    9.3234    6.9859  -20.2011 H   0  0  0  0  0
    7.4482    9.2693  -19.1020 H   0  0  0  0  0
    5.4095    9.0068  -17.6104 H   0  0  0  0  0
   11.9829   12.1628  -15.8831 H   0  0  0  0  0
   12.3081   10.6983  -13.8947 H   0  0  0  0  0
  1  2  1  0  0  0
  1  6  1  0  0  0
  1  7  1  0  0  0
  2  3  1  0  0  0
  2 12  1  0  0  0
  3  4  1  0  0  0
  3 17  1  0  0  0
  4  5  1  0  0  0
  4 22  1  0  0  0
  5  6  1  0  0  0
  5 27  1  0  0  0
  6 32  1  0  0  0
  7  8  1  0  0  0
  8  9  1  0  0  0
  8 10  1  0  0  0
  8 11  2  0  0  0
 12 13  1  0  0  0
 13 14  1  0  0  0
 13 15  2  0  0  0
 13 16  1  0  0  0
 17 18  1  0  0  0
 18 19  1  0  0  0
 18 20  1  0  0  0
 18 21  2  0  0  0
 22 23  1  0  0  0
 23 24  2  0  0  0
 23 25  1  0  0  0
 23 26  1  0  0  0
 27 28  1  0  0  0
 28 29  1  0  0  0
 28 30  1  0  0  0
 28 31  2  0  0  0
 32 33  1  0  0  0
 33 34  2  0  0  0
 33 35  1  0  0  0
 33 36  1  0  0  0
  1 37  1  0  0  0
  2 38  1  0  0  0
  3 39  1  0  0  0
  4 40  1  0  0  0
  5 41  1  0  0  0
  6 42  1  0  0  0
  9 43  1  0  0  0
 10 44  1  0  0  0
 14 45  1  0  0  0
 16 46  1  0  0  0
 19 47  1  0  0  0
 20 48  1  0  0  0
 25 49  1  0  0  0
 26 50  1  0  0  0
 29 51  1  0  0  0
 30 52  1  0  0  0
 35 53  1  0  0  0
 36 54  1  0  0  0
M  END
$$$$
