3q3b_ligand
  -I-interpret- 

 35 37  0  0  0  0  0  0  0  0999 V2000
   35.6950   10.7880   32.8280 O   0  0  0  0  0
   36.4620    9.8380   32.8900 C   0  0  0  0  0
   37.2410    9.5400   34.0960 N   0  0  0  0  0
   38.0740    8.5240   34.1620 C   0  0  0  0  0
   38.8550    8.3410   35.4450 C   0  0  0  0  0
   39.7460    7.2570   35.5940 C   0  0  0  0  0
   40.4900    7.0980   36.7700 C   0  0  0  0  0
   41.4350    5.9100   36.8780 C   0  0  0  0  0
   40.3420    8.0500   37.8260 C   0  0  0  0  0
   41.0470    7.9450   38.9990 O   0  0  0  0  0
   39.4490    9.1410   37.6790 C   0  0  0  0  0
   38.7100    9.2860   36.4940 C   0  0  0  0  0
   38.2610    7.6780   33.0810 C   0  0  0  0  0
   37.5760    7.8750   31.9010 C   0  0  0  0  0
   36.6260    9.0260   31.8100 N   0  0  0  0  0
   37.7930    7.0200   30.6760 C   0  0  0  0  0
   38.7960    5.9990   30.6620 C   0  0  0  0  0
   39.0150    5.2300   29.4740 C   0  0  0  0  0
   38.2370    5.4850   28.3030 C   0  0  0  0  0
   37.2390    6.4950   28.3150 C   0  0  0  0  0
   37.0210    7.2630   29.4980 C   0  0  0  0  0
   39.8565    6.5352   34.7847 H   0  0  0  0  0
   40.8664    4.9851   36.7810 H   0  0  0  0  0
   42.1789    5.9657   36.0833 H   0  0  0  0  0
   41.9341    5.9313   37.8468 H   0  0  0  0  0
   40.8119    8.6733   39.5786 H   0  0  0  0  0
   39.3362    9.8663   38.4848 H   0  0  0  0  0
   38.0241   10.1254   36.3795 H   0  0  0  0  0
   38.9593    6.8452   33.1646 H   0  0  0  0  0
   36.1073    9.2005   30.9493 H   0  0  0  0  0
   39.3921    5.8071   31.5541 H   0  0  0  0  0
   39.7758    4.4495   29.4630 H   0  0  0  0  0
   38.4101    4.9026   27.3980 H   0  0  0  0  0
   36.6411    6.6832   27.4233 H   0  0  0  0  0
   36.2587    8.0421   29.5032 H   0  0  0  0  0
  1  2  2  0  0  0
  2  3  1  0  0  0
  2 15  1  0  0  0
  3  4  2  0  0  0
  4  5  1  0  0  0
  4 13  1  0  0  0
  5  6  4  0  0  0
  5 12  4  0  0  0
  6  7  4  0  0  0
  7  8  1  0  0  0
  7  9  4  0  0  0
  9 10  1  0  0  0
  9 11  4  0  0  0
 11 12  4  0  0  0
 13 14  2  0  0  0
 14 15  1  0  0  0
 14 16  1  0  0  0
 16 17  4  0  0  0
 16 21  4  0  0  0
 17 18  4  0  0  0
 18 19  4  0  0  0
 19 20  4  0  0  0
 20 21  4  0  0  0
  6 22  1  0  0  0
  8 23  1  0  0  0
  8 24  1  0  0  0
  8 25  1  0  0  0
 10 26  1  0  0  0
 11 27  1  0  0  0
 12 28  1  0  0  0
 13 29  1  0  0  0
 15 30  1  0  0  0
 17 31  1  0  0  0
 18 32  1  0  0  0
 19 33  1  0  0  0
 20 34  1  0  0  0
 21 35  1  0  0  0
M  END
$$$$
