5mos_ligand
  -I-interpret- 

 22 22  0  0  0  0  0  0  0  0999 V2000
   -1.5360  -13.5390  -14.6870 C   0  0  0  0  0
   -1.3110  -15.0130  -14.8330 C   0  0  0  0  0
   -0.7920  -15.3350  -16.1720 C   0  0  0  0  0
   -1.6400  -14.7980  -17.2440 N   0  0  0  0  0
   -1.8970  -13.3570  -17.1320 C   0  0  0  0  0
   -2.4370  -13.0280  -15.7810 C   0  0  0  0  0
   -2.0080  -15.5070  -18.3060 C   0  0  0  0  0
   -1.6670  -16.7750  -18.4380 N   0  0  0  0  0
   -2.7380  -14.9780  -19.2630 N   0  0  0  0  0
   -0.5758  -13.0273  -14.7530 H   0  0  0  0  0
   -2.0080  -13.3480  -13.7233 H   0  0  0  0  0
   -2.2611  -15.5282  -14.6921 H   0  0  0  0  0
   -0.5815  -15.3317  -14.0884 H   0  0  0  0  0
   -0.7673  -16.4201  -16.2726 H   0  0  0  0  0
    0.1971  -14.8870  -16.2675 H   0  0  0  0  0
   -2.6283  -13.0673  -17.8866 H   0  0  0  0  0
   -0.9619  -12.8172  -17.2815 H   0  0  0  0  0
   -2.5077  -11.9439  -15.6920 H   0  0  0  0  0
   -3.4128  -13.5019  -15.6743 H   0  0  0  0  0
   -1.9694  -17.3018  -19.2574 H   0  0  0  0  0
   -1.1011  -17.2283  -17.7206 H   0  0  0  0  0
   -3.0167  -15.5444  -20.0642 H   0  0  0  0  0
  1  2  1  0  0  0
  1  6  1  0  0  0
  2  3  1  0  0  0
  3  4  1  0  0  0
  4  5  1  0  0  0
  4  7  1  0  0  0
  5  6  1  0  0  0
  7  8  1  0  0  0
  7  9  2  0  0  0
  1 10  1  0  0  0
  1 11  1  0  0  0
  2 12  1  0  0  0
  2 13  1  0  0  0
  3 14  1  0  0  0
  3 15  1  0  0  0
  5 16  1  0  0  0
  5 17  1  0  0  0
  6 18  1  0  0  0
  6 19  1  0  0  0
  8 20  1  0  0  0
  8 21  1  0  0  0
  9 22  1  0  0  0
M  END
$$$$
