### 
### Created by X-TOOL on Mon Sep 10 21:13:06 2018
### 

@<TRIPOS>MOLECULE
3tvw_ligand
   54    58     1     0     0
SMALL
GAST_HUCK


@<TRIPOS>ATOM
      1 C1          6.8730   32.4740   17.6430 C.ar      1 07H        -0.0222
      2 C4          7.7790   33.4210   17.1500 C.ar      1 07H        -0.0753
      3 C8          7.3960   34.2550   16.1030 C.ar      1 07H        -0.0815
      4 C10         6.1180   34.1390   15.5490 C.ar      1 07H        -0.0787
      5 C6          5.2070   33.1950   16.0320 C.ar      1 07H        -0.0403
      6 C2          5.5750   32.3380   17.0780 C.ar      1 07H         0.0922
      7 O5          4.6780   31.4160   17.5490 O.3       1 07H        -0.3044
      8 C9          5.3120   30.2280   18.0390 C.3       1 07H         0.1065
      9 C7          6.5210   30.4640   18.9220 C.2       1 07H        -0.0473
     10 C3          7.2780   31.5560   18.7340 C.2       1 07H        -0.0754
     11 C26         6.8970   29.4710   19.9920 C.3       1 07H        -0.0676
     12 N23         5.9450   29.4850   21.1100 N.4       1 07H         0.4125
     13 C22         6.4660   28.5310   22.1030 C.3       1 07H        -0.0885
     14 C21         5.4300   28.4050   23.2250 C.3       1 07H         0.0152
     15 N19         5.2870   29.7340   23.8400 N.am      1 07H        -0.2762
     16 C25         4.9960   30.8720   22.9390 C.3       1 07H         0.0152
     17 C24         5.9420   30.8300   21.7230 C.3       1 07H        -0.0885
     18 C18         5.4340   29.8970   25.1770 C.2       1 07H         0.2073
     19 O20         5.6460   28.9360   25.8940 O.2       1 07H        -0.3844
     20 C14         5.2800   31.2260   25.8160 C.ar      1 07H         0.0505
     21 C13         6.2790   32.2190   25.7600 C.ar      1 07H        -0.0423
     22 C12         6.0630   33.4460   26.3700 C.ar      1 07H        -0.0560
     23 C11         4.8700   33.7050   27.0380 C.ar      1 07H        -0.0477
     24 C15         3.8790   32.7160   27.0960 C.ar      1 07H         0.0148
     25 C16         4.0790   31.4910   26.4700 C.ar      1 07H        -0.0318
     26 C17         2.5860   32.9050   27.7960 C.2       1 07H         0.0888
     27 N27         1.9640   34.0470   28.0240 N.pl3     1 07H        -0.2154
     28 N28         0.7520   33.7490   28.6760 N.2       1 07H        -0.2183
     29 C29         0.6670   32.4070   28.8460 C.2       1 07H        -0.0029
     30 C30         1.7830   31.8570   28.3140 C.2       1 07H        -0.0398
     31 H           8.7761   33.5046   17.5824 H         1 07H         0.0509
     32 H           8.0927   34.9983   15.7154 H         1 07H         0.0504
     33 H           5.8273   34.7944   14.7280 H         1 07H         0.0521
     34 H           4.2108   33.1255   15.5952 H         1 07H         0.0515
     35 H           5.6625   29.6761   17.1669 H         1 07H         0.0830
     36 H           4.5742   29.7065   18.6488 H         1 07H         0.0830
     37 H           8.1506   31.7586   19.3550 H         1 07H         0.0254
     38 H           7.8808   29.7393   20.3771 H         1 07H         0.0236
     39 H           6.8917   28.4743   19.5507 H         1 07H         0.0236
     40 H           7.4155   28.8852   22.5044 H         1 07H         0.0041
     41 H           6.6392   27.5602   21.6387 H         1 07H         0.0041
     42 H           5.7543   27.6735   23.9652 H         1 07H         0.0502
     43 H           4.4747   28.0623   22.8274 H         1 07H         0.0502
     44 H           5.1449   31.8068   23.4794 H         1 07H         0.0502
     45 H           3.9638   30.8048   22.5952 H         1 07H         0.0502
     46 H           5.5982   31.5535   20.9838 H         1 07H         0.0041
     47 H           6.9527   31.0686   22.0543 H         1 07H         0.0041
     48 H           7.2167   32.0236   25.2398 H         1 07H         0.0665
     49 H           6.8348   34.2144   26.3257 H         1 07H         0.0628
     50 H           4.7073   34.6722   27.5136 H         1 07H         0.0656
     51 H           3.2936   30.7355   26.4910 H         1 07H         0.0677
     52 H           2.3004   34.9767   27.7733 H         1 07H         0.2547
     53 H          -0.1514   31.8688   29.3242 H         1 07H         0.0665
     54 H           2.0229   30.7941   28.2881 H         1 07H         0.0375
@<TRIPOS>BOND
     1    1    2 ar 
     2    1    6 ar 
     3    1   10 1  
     4    2    3 ar 
     5    3    4 ar 
     6    4    5 ar 
     7    5    6 ar 
     8    6    7 1  
     9    7    8 1  
    10    8    9 1  
    11    9   10 2  
    12    9   11 1  
    13   11   12 1  
    14   12   13 1  
    15   12   17 1  
    16   13   14 1  
    17   14   15 1  
    18   15   16 1  
    19   15   18 am 
    20   16   17 1  
    21   18   19 2  
    22   18   20 1  
    23   20   21 ar 
    24   20   25 ar 
    25   21   22 ar 
    26   22   23 ar 
    27   23   24 ar 
    28   24   25 ar 
    29   24   26 1  
    30   26   27 1  
    31   26   30 2  
    32   27   28 1  
    33   28   29 2  
    34   29   30 1  
    35    2   31 1  
    36    3   32 1  
    37    4   33 1  
    38    5   34 1  
    39    8   35 1  
    40    8   36 1  
    41   10   37 1  
    42   11   38 1  
    43   11   39 1  
    44   13   40 1  
    45   13   41 1  
    46   14   42 1  
    47   14   43 1  
    48   16   44 1  
    49   16   45 1  
    50   17   46 1  
    51   17   47 1  
    52   21   48 1  
    53   22   49 1  
    54   23   50 1  
    55   25   51 1  
    56   27   52 1  
    57   29   53 1  
    58   30   54 1  
@<TRIPOS>SUBSTRUCTURE
     1 07H         1

