3tvw_ligand
  -I-interpret- 

 54 58  0  0  0  0  0  0  0  0999 V2000
    6.8730   32.4740   17.6430 C   0  0  0  0  0
    7.7790   33.4210   17.1500 C   0  0  0  0  0
    7.3960   34.2550   16.1030 C   0  0  0  0  0
    6.1180   34.1390   15.5490 C   0  0  0  0  0
    5.2070   33.1950   16.0320 C   0  0  0  0  0
    5.5750   32.3380   17.0780 C   0  0  0  0  0
    4.6780   31.4160   17.5490 O   0  0  0  0  0
    5.3120   30.2280   18.0390 C   0  0  0  0  0
    6.5210   30.4640   18.9220 C   0  0  0  0  0
    7.2780   31.5560   18.7340 C   0  0  0  0  0
    6.8970   29.4710   19.9920 C   0  0  0  0  0
    5.9450   29.4850   21.1100 N   0  3  0  0  0
    6.4660   28.5310   22.1030 C   0  0  0  0  0
    5.4300   28.4050   23.2250 C   0  0  0  0  0
    5.2870   29.7340   23.8400 N   0  0  0  0  0
    4.9960   30.8720   22.9390 C   0  0  0  0  0
    5.9420   30.8300   21.7230 C   0  0  0  0  0
    5.4340   29.8970   25.1770 C   0  0  0  0  0
    5.6460   28.9360   25.8940 O   0  0  0  0  0
    5.2800   31.2260   25.8160 C   0  0  0  0  0
    6.2790   32.2190   25.7600 C   0  0  0  0  0
    6.0630   33.4460   26.3700 C   0  0  0  0  0
    4.8700   33.7050   27.0380 C   0  0  0  0  0
    3.8790   32.7160   27.0960 C   0  0  0  0  0
    4.0790   31.4910   26.4700 C   0  0  0  0  0
    2.5860   32.9050   27.7960 C   0  0  0  0  0
    1.9640   34.0470   28.0240 N   0  0  0  0  0
    0.7520   33.7490   28.6760 N   0  0  0  0  0
    0.6670   32.4070   28.8460 C   0  0  0  0  0
    1.7830   31.8570   28.3140 C   0  0  0  0  0
    8.7761   33.5046   17.5824 H   0  0  0  0  0
    8.0927   34.9983   15.7154 H   0  0  0  0  0
    5.8273   34.7944   14.7280 H   0  0  0  0  0
    4.2108   33.1255   15.5952 H   0  0  0  0  0
    5.6625   29.6761   17.1669 H   0  0  0  0  0
    4.5742   29.7065   18.6488 H   0  0  0  0  0
    8.1506   31.7586   19.3550 H   0  0  0  0  0
    7.8808   29.7393   20.3771 H   0  0  0  0  0
    6.8917   28.4743   19.5507 H   0  0  0  0  0
    5.0025   29.2471   20.8010 H   0  0  0  0  0
    7.4155   28.8852   22.5044 H   0  0  0  0  0
    6.6392   27.5602   21.6387 H   0  0  0  0  0
    5.7543   27.6735   23.9652 H   0  0  0  0  0
    4.4747   28.0623   22.8274 H   0  0  0  0  0
    5.1449   31.8068   23.4794 H   0  0  0  0  0
    3.9638   30.8048   22.5952 H   0  0  0  0  0
    5.5982   31.5535   20.9838 H   0  0  0  0  0
    6.9527   31.0686   22.0543 H   0  0  0  0  0
    7.2167   32.0236   25.2398 H   0  0  0  0  0
    6.8348   34.2144   26.3257 H   0  0  0  0  0
    4.7073   34.6722   27.5136 H   0  0  0  0  0
    3.2936   30.7355   26.4910 H   0  0  0  0  0
   -0.1514   31.8688   29.3242 H   0  0  0  0  0
    2.0229   30.7941   28.2881 H   0  0  0  0  0
  1  2  4  0  0  0
  1  6  4  0  0  0
  1 10  1  0  0  0
  2  3  4  0  0  0
  3  4  4  0  0  0
  4  5  4  0  0  0
  5  6  4  0  0  0
  6  7  1  0  0  0
  7  8  1  0  0  0
  8  9  1  0  0  0
  9 10  2  0  0  0
  9 11  1  0  0  0
 11 12  1  0  0  0
 12 13  1  0  0  0
 12 17  1  0  0  0
 13 14  1  0  0  0
 14 15  1  0  0  0
 15 16  1  0  0  0
 15 18  1  0  0  0
 16 17  1  0  0  0
 18 19  2  0  0  0
 18 20  1  0  0  0
 20 21  4  0  0  0
 20 25  4  0  0  0
 21 22  4  0  0  0
 22 23  4  0  0  0
 23 24  4  0  0  0
 24 25  4  0  0  0
 24 26  1  0  0  0
 26 27  4  0  0  0
 26 30  4  0  0  0
 27 28  4  0  0  0
 28 29  4  0  0  0
 29 30  4  0  0  0
  2 31  1  0  0  0
  3 32  1  0  0  0
  4 33  1  0  0  0
  5 34  1  0  0  0
  8 35  1  0  0  0
  8 36  1  0  0  0
 10 37  1  0  0  0
 11 38  1  0  0  0
 11 39  1  0  0  0
 12 40  1  0  0  0
 13 41  1  0  0  0
 13 42  1  0  0  0
 14 43  1  0  0  0
 14 44  1  0  0  0
 16 45  1  0  0  0
 16 46  1  0  0  0
 17 47  1  0  0  0
 17 48  1  0  0  0
 21 49  1  0  0  0
 22 50  1  0  0  0
 23 51  1  0  0  0
 25 52  1  0  0  0
 29 53  1  0  0  0
 30 54  1  0  0  0
M  END
$$$$
