5mgg_ligand
  -I-interpret- 

 18 18  0  0  0  0  0  0  0  0999 V2000
   24.5190   11.2640    0.6300 C   0  0  0  0  0
   25.5690   10.3460    0.6390 N   0  0  0  0  0
   25.3240    9.0020    1.0010 C   0  0  0  0  0
   24.2180    8.6570    1.3290 O   0  0  0  0  0
   26.5010    8.0890    1.0080 C   0  0  0  0  0
   27.5000    8.4100    0.2400 N   0  0  0  0  0
   28.5960    7.6840    0.2050 C   0  0  0  0  0
   28.7230    6.5620    0.9800 C   0  0  0  0  0
   27.6770    6.1990    1.8180 C   0  0  0  0  0
   26.5370    6.9990    1.8290 C   0  0  0  0  0
   27.7970    4.8140    2.8200 Cl  0  0  0  0  0
   23.7554   10.9337   -0.0742 H   0  0  0  0  0
   24.0887   11.3318    1.6292 H   0  0  0  0  0
   24.8952   12.2414    0.3280 H   0  0  0  0  0
   26.5109   10.6438    0.3851 H   0  0  0  0  0
   29.4153    7.9796   -0.4504 H   0  0  0  0  0
   29.6324    5.9624    0.9396 H   0  0  0  0  0
   25.6940    6.7605    2.4775 H   0  0  0  0  0
  1  2  1  0  0  0
  2  3  1  0  0  0
  3  4  2  0  0  0
  3  5  1  0  0  0
  5  6  4  0  0  0
  5 10  4  0  0  0
  6  7  4  0  0  0
  7  8  4  0  0  0
  8  9  4  0  0  0
  9 10  4  0  0  0
  9 11  1  0  0  0
  1 12  1  0  0  0
  1 13  1  0  0  0
  1 14  1  0  0  0
  2 15  1  0  0  0
  7 16  1  0  0  0
  8 17  1  0  0  0
 10 18  1  0  0  0
M  END
$$$$
