3ee2_ligand
  -I-interpret- 

 31 33  0  0  0  0  0  0  0  0999 V2000
   16.0330   14.2250   40.0370 O   0  0  0  0  0
   17.2130   14.5730   40.0600 C   0  0  0  0  0
   17.5510   15.9890   40.2520 O   0  0  0  0  0
   16.7870   17.0560   39.6730 C   0  0  0  0  0
   18.1990   13.6800   39.9140 N   0  0  0  0  0
   18.5210   12.7430   40.8720 C   0  0  0  0  0
   17.8240   12.5090   42.0050 N   0  0  0  0  0
   18.4980   11.5170   42.6420 C   0  0  0  0  0
   18.2820   10.8450   43.8500 C   0  0  0  0  0
   19.5960   11.9580   40.7320 N   0  0  0  0  0
   19.5930   11.1840   41.8410 C   0  0  0  0  0
   20.4630   10.1900   42.2430 C   0  0  0  0  0
   20.2460    9.5260   43.4380 C   0  0  0  0  0
   19.1630    9.8350   44.2460 C   0  0  0  0  0
   18.9810    9.0740   45.5410 C   0  0  0  0  0
   18.4090    9.6020   46.4570 O   0  0  0  0  0
   19.4660    7.6870   45.7770 C   0  0  0  0  0
   19.6250    6.6270   44.9190 C   0  0  0  0  0
   20.1060    5.5240   45.5880 C   0  0  0  0  0
   20.2910    5.7100   46.9480 C   0  0  0  0  0
   19.8880    7.3240   47.4340 S   0  0  0  0  0
   16.7922   16.9574   38.5875 H   0  0  0  0  0
   15.7613   17.0067   40.0386 H   0  0  0  0  0
   17.2289   18.0118   39.9544 H   0  0  0  0  0
   18.7399   13.6935   39.0494 H   0  0  0  0  0
   17.4313   11.1078   44.4788 H   0  0  0  0  0
   21.3189    9.9287   41.6206 H   0  0  0  0  0
   20.9400    8.7453   43.7495 H   0  0  0  0  0
   19.4008    6.6549   43.8527 H   0  0  0  0  0
   20.3237    4.5804   45.0877 H   0  0  0  0  0
   20.6463    4.9365   47.6288 H   0  0  0  0  0
  1  2  2  0  0  0
  2  3  1  0  0  0
  2  5  1  0  0  0
  3  4  1  0  0  0
  5  6  1  0  0  0
  6  7  4  0  0  0
  6 10  4  0  0  0
  7  8  4  0  0  0
  8  9  4  0  0  0
  8 11  4  0  0  0
  9 14  4  0  0  0
 10 11  4  0  0  0
 11 12  4  0  0  0
 12 13  4  0  0  0
 13 14  4  0  0  0
 14 15  1  0  0  0
 15 16  2  0  0  0
 15 17  1  0  0  0
 17 18  4  0  0  0
 17 21  4  0  0  0
 18 19  4  0  0  0
 19 20  4  0  0  0
 20 21  4  0  0  0
  4 22  1  0  0  0
  4 23  1  0  0  0
  4 24  1  0  0  0
  5 25  1  0  0  0
  9 26  1  0  0  0
 12 27  1  0  0  0
 13 28  1  0  0  0
 18 29  1  0  0  0
 19 30  1  0  0  0
 20 31  1  0  0  0
M  END
$$$$
