### 
### Created by X-TOOL on Sun Sep  9 21:51:24 2018
### 

@<TRIPOS>MOLECULE
3kd7_ligand
   82    81     1     0     0
SMALL
GAST_HUCK


@<TRIPOS>ATOM
      1 C         -26.4400  -14.0850  -17.0450 C.2       1 NON         0.1751
      2 O         -27.1680  -13.1390  -16.7440 O.2       1 NON        -0.3972
      3 CH3       -25.6580  -14.1080  -18.3270 C.3       1 NON         0.0258
      4 N         -26.3780  -15.2000  -16.3180 N.am      1 NON        -0.2658
      5 CA        -25.8440  -15.2210  -14.9550 C.3       1 NON         0.1316
      6 C         -24.3480  -14.9090  -14.9210 C.2       1 NON         0.2039
      7 O         -23.6080  -15.2550  -15.8460 O.2       1 NON        -0.3944
      8 CB        -26.1250  -16.5660  -14.2770 C.3       1 NON        -0.0034
      9 CG        -27.5940  -16.7960  -13.9330 C.3       1 NON        -0.0024
     10 SD        -27.8660  -18.1770  -12.8030 S.3       1 NON        -0.1639
     11 CE        -27.3690  -17.4580  -11.2370 C.3       1 NON        -0.0181
     12 N         -23.9160  -14.2590  -13.8430 N.am      1 NON        -0.2636
     13 CA        -22.5420  -13.7740  -13.7260 C.3       1 NON         0.1325
     14 C         -21.7090  -14.6050  -12.7500 C.2       1 NON         0.2040
     15 O         -22.2120  -15.0590  -11.7200 O.2       1 NON        -0.3944
     16 CB        -22.5280  -12.2940  -13.3210 C.3       1 NON        -0.0008
     17 CG        -23.3010  -11.3560  -14.2640 C.3       1 NON         0.0044
     18 CD        -22.7540  -11.3360  -15.6880 C.2       1 NON         0.0350
     19 OE1       -21.5280  -11.1640  -15.8680 O.co2     1 NON        -0.5690
     20 OE2       -23.5590  -11.4830  -16.6320 O.co2     1 NON        -0.5690
     21 N         -20.4340  -14.7930  -13.0900 N.am      1 NON        -0.2636
     22 CA        -19.5060  -15.6020  -12.2930 C.3       1 NON         0.1325
     23 C         -18.7040  -14.7510  -11.3020 C.2       1 NON         0.2040
     24 O         -18.9790  -13.5630  -11.1320 O.2       1 NON        -0.3944
     25 CB        -18.5610  -16.3870  -13.2130 C.3       1 NON        -0.0008
     26 CG        -19.2520  -17.4480  -14.0680 C.3       1 NON         0.0044
     27 CD        -18.2940  -18.2110  -14.9730 C.2       1 NON         0.0350
     28 OE1       -17.0630  -18.0210  -14.8600 O.co2     1 NON        -0.5690
     29 OE2       -18.7790  -19.0100  -15.8020 O.co2     1 NON        -0.5690
     30 N         -17.7220  -15.3700  -10.6470 N.am      1 NON        -0.2635
     31 CA        -16.8590  -14.6830   -9.6790 C.3       1 NON         0.1332
     32 C         -15.4010  -15.1320   -9.7710 C.2       1 NON         0.2037
     33 O         -15.1190  -16.3200   -9.9530 O.2       1 NON        -0.3944
     34 CB        -17.3430  -14.8700   -8.2150 C.3       1 NON        -0.0063
     35 CG1       -18.3590  -13.8010   -7.8370 C.3       1 NON        -0.0584
     36 CG2       -17.8960  -16.2740   -7.9890 C.3       1 NON        -0.0584
     37 N         -14.4870  -14.1710   -9.6390 N.am      1 NON        -0.2679
     38 CA        -13.0520  -14.4470   -9.6420 C.3       1 NON         0.1057
     39 C         -12.3770  -13.8710   -8.3980 C.2       1 NON         0.0618
     40 O         -12.2190  -12.6570   -8.2520 O.co2     1 NON        -0.5665
     41 CB        -12.3910  -13.9030  -10.9170 C.3       1 NON         0.0351
     42 CG        -12.8390  -14.6370  -12.1720 C.2       1 NON         0.0387
     43 OD1       -14.0310  -14.5370  -12.5360 O.co2     1 NON        -0.5688
     44 OD2       -11.9920  -15.3070  -12.8020 O.co2     1 NON        -0.5688
     45 OXT       -11.9730  -14.6110   -7.5000 O.co2     1 NON        -0.5665
     46 H         -26.3449  -14.0490  -19.1712 H         1 NON         0.0467
     47 H         -24.9770  -13.2573  -18.3510 H         1 NON         0.0467
     48 H         -25.0865  -15.0343  -18.3859 H         1 NON         0.0467
     49 H         -26.7153  -16.0717  -16.7265 H         1 NON         0.1882
     50 H         -26.3568  -14.4357  -14.3997 H         1 NON         0.0800
     51 H         -25.5689  -16.5768  -13.3396 H         1 NON         0.0320
     52 H         -25.8318  -17.3477  -14.9778 H         1 NON         0.0320
     53 H         -28.1143  -17.0276  -14.8624 H         1 NON         0.0378
     54 H         -27.9586  -15.8947  -13.4403 H         1 NON         0.0378
     55 H         -26.3260  -17.1470  -11.2962 H         1 NON         0.0340
     56 H         -27.9957  -16.5928  -11.0207 H         1 NON         0.0340
     57 H         -27.4843  -18.1987  -10.4457 H         1 NON         0.0340
     58 H         -24.5648  -14.0939  -13.0734 H         1 NON         0.1883
     59 H         -22.0811  -13.8804  -14.7080 H         1 NON         0.0801
     60 H         -21.4868  -11.9719  -13.3399 H         1 NON         0.0330
     61 H         -23.0115  -12.2294  -12.3462 H         1 NON         0.0330
     62 H         -23.2120  -10.3455  -13.8653 H         1 NON         0.0433
     63 H         -24.3286  -11.7162  -14.3135 H         1 NON         0.0433
     64 H         -20.0880  -14.3543  -13.9433 H         1 NON         0.1883
     65 H         -20.1020  -16.3030  -11.7086 H         1 NON         0.0801
     66 H         -17.8482  -16.9062  -12.5723 H         1 NON         0.0330
     67 H         -18.1097  -15.6684  -13.8971 H         1 NON         0.0330
     68 H         -19.9726  -16.9377  -14.7071 H         1 NON         0.0433
     69 H         -19.7101  -18.1691  -13.3911 H         1 NON         0.0433
     70 H         -17.5639  -16.3617  -10.8258 H         1 NON         0.1883
     71 H         -16.9239  -13.6280   -9.9454 H         1 NON         0.0802
     72 H         -16.4804  -14.7527   -7.5590 H         1 NON         0.0343
     73 H         -17.9010  -12.8165   -7.9319 H         1 NON         0.0234
     74 H         -19.2198  -13.8683   -8.5022 H         1 NON         0.0234
     75 H         -18.6811  -13.9556   -6.8072 H         1 NON         0.0234
     76 H         -18.7398  -16.4428   -8.6581 H         1 NON         0.0234
     77 H         -17.1161  -17.0075   -8.1934 H         1 NON         0.0234
     78 H         -18.2258  -16.3711   -6.9546 H         1 NON         0.0234
     79 H         -14.8010  -13.2065   -9.5318 H         1 NON         0.1876
     80 H         -12.9228  -15.5292   -9.6255 H         1 NON         0.0745
     81 H         -11.3138  -14.0373  -10.8181 H         1 NON         0.0471
     82 H         -12.6780  -12.8567  -11.0216 H         1 NON         0.0471
@<TRIPOS>BOND
     1    1    2 2  
     2    1    3 1  
     3    1    4 am 
     4    4    5 1  
     5    5    6 1  
     6    5    8 1  
     7    6    7 2  
     8    6   12 am 
     9    8    9 1  
    10    9   10 1  
    11   10   11 1  
    12   12   13 1  
    13   13   14 1  
    14   13   16 1  
    15   14   15 2  
    16   14   21 am 
    17   16   17 1  
    18   17   18 1  
    19   18   19 ar 
    20   18   20 ar 
    21   21   22 1  
    22   22   23 1  
    23   22   25 1  
    24   23   24 2  
    25   23   30 am 
    26   25   26 1  
    27   26   27 1  
    28   27   28 ar 
    29   27   29 ar 
    30   30   31 1  
    31   31   32 1  
    32   31   34 1  
    33   32   33 2  
    34   32   37 am 
    35   34   35 1  
    36   34   36 1  
    37   37   38 1  
    38   38   39 1  
    39   38   41 1  
    40   39   40 ar 
    41   39   45 ar 
    42   41   42 1  
    43   42   43 ar 
    44   42   44 ar 
    45    3   46 1  
    46    3   47 1  
    47    3   48 1  
    48    4   49 1  
    49    5   50 1  
    50    8   51 1  
    51    8   52 1  
    52    9   53 1  
    53    9   54 1  
    54   11   55 1  
    55   11   56 1  
    56   11   57 1  
    57   12   58 1  
    58   13   59 1  
    59   16   60 1  
    60   16   61 1  
    61   17   62 1  
    62   17   63 1  
    63   21   64 1  
    64   22   65 1  
    65   25   66 1  
    66   25   67 1  
    67   26   68 1  
    68   26   69 1  
    69   30   70 1  
    70   31   71 1  
    71   34   72 1  
    72   35   73 1  
    73   35   74 1  
    74   35   75 1  
    75   36   76 1  
    76   36   77 1  
    77   36   78 1  
    78   37   79 1  
    79   38   80 1  
    80   41   81 1  
    81   41   82 1  
@<TRIPOS>SUBSTRUCTURE
     1 NON         1

