3kd7_ligand
  -I-interpret- 

 86 85  0  0  0  0  0  0  0  0999 V2000
  -26.4400  -14.0850  -17.0450 C   0  0  0  0  0
  -27.1680  -13.1390  -16.7440 O   0  0  0  0  0
  -25.6580  -14.1080  -18.3270 C   0  0  0  0  0
  -26.3780  -15.2000  -16.3180 N   0  0  0  0  0
  -25.8440  -15.2210  -14.9550 C   0  0  0  0  0
  -24.3480  -14.9090  -14.9210 C   0  0  0  0  0
  -23.6080  -15.2550  -15.8460 O   0  0  0  0  0
  -26.1250  -16.5660  -14.2770 C   0  0  0  0  0
  -27.5940  -16.7960  -13.9330 C   0  0  0  0  0
  -27.8660  -18.1770  -12.8030 S   0  0  0  0  0
  -27.3690  -17.4580  -11.2370 C   0  0  0  0  0
  -23.9160  -14.2590  -13.8430 N   0  0  0  0  0
  -22.5420  -13.7740  -13.7260 C   0  0  0  0  0
  -21.7090  -14.6050  -12.7500 C   0  0  0  0  0
  -22.2120  -15.0590  -11.7200 O   0  0  0  0  0
  -22.5280  -12.2940  -13.3210 C   0  0  0  0  0
  -23.3010  -11.3560  -14.2640 C   0  0  0  0  0
  -22.7540  -11.3360  -15.6880 C   0  0  0  0  0
  -21.5280  -11.1640  -15.8680 O   0  0  0  0  0
  -23.5590  -11.4830  -16.6320 O   0  0  0  0  0
  -20.4340  -14.7930  -13.0900 N   0  0  0  0  0
  -19.5060  -15.6020  -12.2930 C   0  0  0  0  0
  -18.7040  -14.7510  -11.3020 C   0  0  0  0  0
  -18.9790  -13.5630  -11.1320 O   0  0  0  0  0
  -18.5610  -16.3870  -13.2130 C   0  0  0  0  0
  -19.2520  -17.4480  -14.0680 C   0  0  0  0  0
  -18.2940  -18.2110  -14.9730 C   0  0  0  0  0
  -17.0630  -18.0210  -14.8600 O   0  0  0  0  0
  -18.7790  -19.0100  -15.8020 O   0  0  0  0  0
  -17.7220  -15.3700  -10.6470 N   0  0  0  0  0
  -16.8590  -14.6830   -9.6790 C   0  0  0  0  0
  -15.4010  -15.1320   -9.7710 C   0  0  0  0  0
  -15.1190  -16.3200   -9.9530 O   0  0  0  0  0
  -17.3430  -14.8700   -8.2150 C   0  0  0  0  0
  -18.3590  -13.8010   -7.8370 C   0  0  0  0  0
  -17.8960  -16.2740   -7.9890 C   0  0  0  0  0
  -14.4870  -14.1710   -9.6390 N   0  0  0  0  0
  -13.0520  -14.4470   -9.6420 C   0  0  0  0  0
  -12.3770  -13.8710   -8.3980 C   0  0  0  0  0
  -12.2190  -12.6570   -8.2520 O   0  0  0  0  0
  -12.3910  -13.9030  -10.9170 C   0  0  0  0  0
  -12.8390  -14.6370  -12.1720 C   0  0  0  0  0
  -14.0310  -14.5370  -12.5360 O   0  0  0  0  0
  -11.9920  -15.3070  -12.8020 O   0  0  0  0  0
  -11.9730  -14.6110   -7.5000 O   0  0  0  0  0
  -26.3449  -14.0490  -19.1712 H   0  0  0  0  0
  -24.9770  -13.2573  -18.3510 H   0  0  0  0  0
  -25.0865  -15.0343  -18.3859 H   0  0  0  0  0
  -26.7153  -16.0717  -16.7265 H   0  0  0  0  0
  -26.3568  -14.4357  -14.3997 H   0  0  0  0  0
  -25.5689  -16.5768  -13.3396 H   0  0  0  0  0
  -25.8318  -17.3477  -14.9778 H   0  0  0  0  0
  -28.1143  -17.0276  -14.8624 H   0  0  0  0  0
  -27.9586  -15.8947  -13.4403 H   0  0  0  0  0
  -26.3260  -17.1470  -11.2962 H   0  0  0  0  0
  -27.9957  -16.5928  -11.0207 H   0  0  0  0  0
  -27.4843  -18.1987  -10.4457 H   0  0  0  0  0
  -24.5648  -14.0939  -13.0734 H   0  0  0  0  0
  -22.0811  -13.8804  -14.7080 H   0  0  0  0  0
  -21.4868  -11.9719  -13.3399 H   0  0  0  0  0
  -23.0115  -12.2294  -12.3462 H   0  0  0  0  0
  -23.2120  -10.3455  -13.8653 H   0  0  0  0  0
  -24.3286  -11.7162  -14.3135 H   0  0  0  0  0
  -21.0906  -11.0733  -15.0183 H   0  0  0  0  0
  -20.0880  -14.3543  -13.9433 H   0  0  0  0  0
  -20.1020  -16.3030  -11.7086 H   0  0  0  0  0
  -17.8482  -16.9062  -12.5723 H   0  0  0  0  0
  -18.1097  -15.6684  -13.8971 H   0  0  0  0  0
  -19.9726  -16.9377  -14.7071 H   0  0  0  0  0
  -19.7101  -18.1691  -13.3911 H   0  0  0  0  0
  -16.9024  -17.3730  -14.1701 H   0  0  0  0  0
  -17.5639  -16.3617  -10.8258 H   0  0  0  0  0
  -16.9239  -13.6280   -9.9454 H   0  0  0  0  0
  -16.4804  -14.7527   -7.5590 H   0  0  0  0  0
  -17.9010  -12.8165   -7.9319 H   0  0  0  0  0
  -19.2198  -13.8683   -8.5022 H   0  0  0  0  0
  -18.6811  -13.9556   -6.8072 H   0  0  0  0  0
  -18.7398  -16.4428   -8.6581 H   0  0  0  0  0
  -17.1161  -17.0075   -8.1934 H   0  0  0  0  0
  -18.2258  -16.3711   -6.9546 H   0  0  0  0  0
  -14.8010  -13.2065   -9.5318 H   0  0  0  0  0
  -12.9228  -15.5292   -9.6255 H   0  0  0  0  0
  -12.5739  -12.1952   -9.0151 H   0  0  0  0  0
  -11.3138  -14.0373  -10.8181 H   0  0  0  0  0
  -12.6780  -12.8567  -11.0216 H   0  0  0  0  0
  -14.5082  -13.9808  -11.9159 H   0  0  0  0  0
  1  2  2  0  0  0
  1  3  1  0  0  0
  1  4  1  0  0  0
  4  5  1  0  0  0
  5  6  1  0  0  0
  5  8  1  0  0  0
  6  7  2  0  0  0
  6 12  1  0  0  0
  8  9  1  0  0  0
  9 10  1  0  0  0
 10 11  1  0  0  0
 12 13  1  0  0  0
 13 14  1  0  0  0
 13 16  1  0  0  0
 14 15  2  0  0  0
 14 21  1  0  0  0
 16 17  1  0  0  0
 17 18  1  0  0  0
 18 19  1  0  0  0
 18 20  2  0  0  0
 21 22  1  0  0  0
 22 23  1  0  0  0
 22 25  1  0  0  0
 23 24  2  0  0  0
 23 30  1  0  0  0
 25 26  1  0  0  0
 26 27  1  0  0  0
 27 28  1  0  0  0
 27 29  2  0  0  0
 30 31  1  0  0  0
 31 32  1  0  0  0
 31 34  1  0  0  0
 32 33  2  0  0  0
 32 37  1  0  0  0
 34 35  1  0  0  0
 34 36  1  0  0  0
 37 38  1  0  0  0
 38 39  1  0  0  0
 38 41  1  0  0  0
 39 40  1  0  0  0
 39 45  2  0  0  0
 41 42  1  0  0  0
 42 43  1  0  0  0
 42 44  2  0  0  0
  3 46  1  0  0  0
  3 47  1  0  0  0
  3 48  1  0  0  0
  4 49  1  0  0  0
  5 50  1  0  0  0
  8 51  1  0  0  0
  8 52  1  0  0  0
  9 53  1  0  0  0
  9 54  1  0  0  0
 11 55  1  0  0  0
 11 56  1  0  0  0
 11 57  1  0  0  0
 12 58  1  0  0  0
 13 59  1  0  0  0
 16 60  1  0  0  0
 16 61  1  0  0  0
 17 62  1  0  0  0
 17 63  1  0  0  0
 19 64  1  0  0  0
 21 65  1  0  0  0
 22 66  1  0  0  0
 25 67  1  0  0  0
 25 68  1  0  0  0
 26 69  1  0  0  0
 26 70  1  0  0  0
 28 71  1  0  0  0
 30 72  1  0  0  0
 31 73  1  0  0  0
 34 74  1  0  0  0
 35 75  1  0  0  0
 35 76  1  0  0  0
 35 77  1  0  0  0
 36 78  1  0  0  0
 36 79  1  0  0  0
 36 80  1  0  0  0
 37 81  1  0  0  0
 38 82  1  0  0  0
 40 83  1  0  0  0
 41 84  1  0  0  0
 41 85  1  0  0  0
 43 86  1  0  0  0
M  END
$$$$
