1tcx_ligand
  -I-interpret- 

 80 82  0  0  0  0  0  0  0  0999 V2000
   16.0320   19.1690    3.6700 C   0  0  0  0  0
   17.2640   18.5970    3.0080 C   0  0  0  0  0
   15.4290   17.9750    4.3850 C   0  0  0  0  0
   15.1010   19.6680    2.5830 C   0  0  0  0  0
   15.5330   20.9730    5.2510 C   0  0  0  0  0
   14.9560   23.0620    6.2390 C   0  0  0  0  0
   15.7410   23.6020    7.4380 C   0  0  0  0  0
   16.2490   22.4870    8.3460 C   0  0  0  0  0
   17.6100   22.1560    8.3590 C   0  0  0  0  0
   18.0550   21.1190    9.1810 C   0  0  0  0  0
   17.1490   20.4110    9.9930 C   0  0  0  0  0
   15.7970   20.7450    9.9780 C   0  0  0  0  0
   15.3430   21.7870    9.1510 C   0  0  0  0  0
   14.2390   24.1750    5.4160 C   0  0  0  0  0
   13.3260   23.6540    4.3360 C   0  0  0  0  0
   12.1530   24.5450    4.0370 C   0  0  0  0  0
   11.3850   23.9130    2.8600 C   0  0  0  0  0
    9.9830   24.4580    2.6170 C   0  0  0  0  0
    9.7890   25.7470    2.1020 C   0  0  0  0  0
    8.5010   26.2440    1.8800 C   0  0  0  0  0
    7.3960   25.4520    2.1700 C   0  0  0  0  0
    7.5900   24.1650    2.6840 C   0  0  0  0  0
    8.8750   23.6660    2.9090 C   0  0  0  0  0
   11.2680   24.6780    5.2890 C   0  0  0  0  0
    9.7290   26.0560    6.5610 C   0  0  0  0  0
   10.3910   26.7680    7.7500 C   0  0  0  0  0
    9.4470   26.6250    8.8760 C   0  0  0  0  0
   11.6420   26.1210    8.2630 C   0  0  0  0  0
    8.6810   26.9950    5.9480 C   0  0  0  0  0
    7.5050   28.2600    4.7230 C   0  0  0  0  0
    6.6720   27.3110    5.3280 C   0  0  0  0  0
   15.8970   22.2070    5.5140 N   0  0  0  0  0
   10.6160   25.8120    5.4330 N   0  0  0  0  0
    8.8080   28.0530    5.1270 N   0  0  0  0  0
    7.4660   26.5120    6.1110 N   0  0  0  0  0
   16.4370   20.1680    4.5570 O   0  0  0  0  0
   14.4020   20.6100    5.6320 O   0  0  0  0  0
   15.1250   24.9730    4.6860 O   0  0  0  0  0
   11.1430   23.7870    6.1390 O   0  0  0  0  0
   17.7858   19.3879    2.4692 H   0  0  0  0  0
   17.9226   18.1784    3.7690 H   0  0  0  0  0
   16.9692   17.8135    2.3099 H   0  0  0  0  0
   16.1684   17.5471    5.0620 H   0  0  0  0  0
   14.5566   18.2964    4.9540 H   0  0  0  0  0
   15.1302   17.2265    3.6511 H   0  0  0  0  0
   14.2029   20.0849    3.0387 H   0  0  0  0  0
   15.6053   20.4386    2.0000 H   0  0  0  0  0
   14.8276   18.8381    1.9313 H   0  0  0  0  0
   14.0944   22.4645    6.5368 H   0  0  0  0  0
   15.0736   24.2361    8.0216 H   0  0  0  0  0
   16.6040   24.1492    7.0587 H   0  0  0  0  0
   18.3151   22.7030    7.7331 H   0  0  0  0  0
   19.1126   20.8555    9.1941 H   0  0  0  0  0
   17.5048   19.6030   10.6322 H   0  0  0  0  0
   15.0926   20.1997   10.6061 H   0  0  0  0  0
   14.2853   22.0499    9.1366 H   0  0  0  0  0
   13.7024   24.7127    6.1977 H   0  0  0  0  0
   12.9258   22.7022    4.6851 H   0  0  0  0  0
   13.9166   23.5829    3.4226 H   0  0  0  0  0
   12.4744   25.5502    3.7643 H   0  0  0  0  0
   11.2680   22.8561    3.0997 H   0  0  0  0  0
   11.9616   24.1329    1.9616 H   0  0  0  0  0
   10.6532   26.3700    1.8716 H   0  0  0  0  0
    8.3639   27.2490    1.4809 H   0  0  0  0  0
    6.3881   25.8299    1.9987 H   0  0  0  0  0
    6.7250   23.5423    2.9123 H   0  0  0  0  0
    9.0101   22.6619    3.3111 H   0  0  0  0  0
    9.3594   25.1177    6.9747 H   0  0  0  0  0
   10.6308   27.7767    7.4137 H   0  0  0  0  0
    8.4969   27.0902    8.6133 H   0  0  0  0  0
    9.2895   25.5667    9.0843 H   0  0  0  0  0
    9.8600   27.1128    9.7589 H   0  0  0  0  0
   11.4160   25.1071    8.5933 H   0  0  0  0  0
   12.3853   26.0878    7.4664 H   0  0  0  0  0
   12.0312   26.6992    9.1010 H   0  0  0  0  0
    7.1751   29.0416    4.0386 H   0  0  0  0  0
    5.5930   27.2234    5.2005 H   0  0  0  0  0
   16.8085   22.5592    5.2217 H   0  0  0  0  0
   10.7360   26.5431    4.7320 H   0  0  0  0  0
   15.7663   25.3656    5.2828 H   0  0  0  0  0
  1 36  1  0  0  0
  1  4  1  0  0  0
  1  3  1  0  0  0
  1  2  1  0  0  0
 36  5  1  0  0  0
  5 37  2  0  0  0
  5 32  1  0  0  0
 32  6  1  0  0  0
  6 14  1  0  0  0
  6  7  1  0  0  0
  7  8  1  0  0  0
  8 13  4  0  0  0
  8  9  4  0  0  0
  9 10  4  0  0  0
 10 11  4  0  0  0
 11 12  4  0  0  0
 12 13  4  0  0  0
 14 38  1  0  0  0
 14 15  1  0  0  0
 15 16  1  0  0  0
 16 24  1  0  0  0
 16 17  1  0  0  0
 17 18  1  0  0  0
 18 23  4  0  0  0
 18 19  4  0  0  0
 19 20  4  0  0  0
 20 21  4  0  0  0
 21 22  4  0  0  0
 22 23  4  0  0  0
 24 39  2  0  0  0
 24 33  1  0  0  0
 33 25  1  0  0  0
 25 29  1  0  0  0
 25 26  1  0  0  0
 26 28  1  0  0  0
 26 27  1  0  0  0
 29 35  4  0  0  0
 29 34  4  0  0  0
 34 30  4  0  0  0
 30 31  4  0  0  0
 31 35  4  0  0  0
  2 40  1  0  0  0
  2 41  1  0  0  0
  2 42  1  0  0  0
  3 43  1  0  0  0
  3 44  1  0  0  0
  3 45  1  0  0  0
  4 46  1  0  0  0
  4 47  1  0  0  0
  4 48  1  0  0  0
  6 49  1  0  0  0
  7 50  1  0  0  0
  7 51  1  0  0  0
  9 52  1  0  0  0
 10 53  1  0  0  0
 11 54  1  0  0  0
 12 55  1  0  0  0
 13 56  1  0  0  0
 14 57  1  0  0  0
 15 58  1  0  0  0
 15 59  1  0  0  0
 16 60  1  0  0  0
 17 61  1  0  0  0
 17 62  1  0  0  0
 19 63  1  0  0  0
 20 64  1  0  0  0
 21 65  1  0  0  0
 22 66  1  0  0  0
 23 67  1  0  0  0
 25 68  1  0  0  0
 26 69  1  0  0  0
 27 70  1  0  0  0
 27 71  1  0  0  0
 27 72  1  0  0  0
 28 73  1  0  0  0
 28 74  1  0  0  0
 28 75  1  0  0  0
 30 76  1  0  0  0
 31 77  1  0  0  0
 32 78  1  0  0  0
 33 79  1  0  0  0
 38 80  1  0  0  0
M  END
$$$$
