3v7c_ligand
  -I-interpret- 

 74 80  0  0  0  0  0  0  0  0999 V2000
   49.9470   25.2200   21.5180 N   0  0  0  0  0
   50.4120   25.3500   20.2750 C   0  0  0  0  0
   51.4730   24.6820   19.8380 N   0  0  0  0  0
   52.0910   23.8210   20.6630 C   0  0  0  0  0
   51.6210   23.6580   21.9700 C   0  0  0  0  0
   50.5150   24.3910   22.3880 C   0  0  0  0  0
   50.0270   24.2920   23.6190 N   0  0  0  0  0
   52.3850   22.7510   22.5650 N   0  0  0  0  0
   53.2910   22.3560   21.6660 C   0  0  0  0  0
   53.1150   22.9940   20.4980 N   0  0  0  0  0
   58.0420   23.7230   17.6750 C   0  0  0  0  0
   55.8470   23.9710   16.4330 C   0  0  0  0  0
   49.2520   13.9360   25.4270 O   0  0  0  0  0
   52.9750   17.1160   17.9250 C   0  0  0  0  0
   49.2460   16.7730   19.7540 C   0  0  0  0  0
   49.1240   16.9590   18.2110 C   0  0  0  0  0
   47.9010   16.5960   20.5270 C   0  0  0  0  0
   50.3990   16.4830   17.3890 C   0  0  0  0  0
   48.0290   16.8910   22.0430 C   0  0  0  0  0
   45.3640   15.9010   24.9050 C   0  0  0  0  0
   54.6000   19.1080   18.5680 C   0  0  0  0  0
   51.3870   18.5400   17.8720 N   0  0  0  0  0
   52.4110   19.1330   18.1510 N   0  0  0  0  0
   47.0060   14.1980   25.4130 N   0  0  0  0  0
   48.1940   14.6000   23.5650 N   0  0  0  0  0
   53.4610   21.4690   18.7890 O   0  0  0  0  0
   56.4520   21.8290   17.5590 O   0  0  0  0  0
   56.0120   23.7580   18.8470 O   0  0  0  0  0
   46.5890   17.1460   24.4380 S   0  0  0  0  0
   48.2050   14.2220   24.8420 C   0  0  0  0  0
   51.6540   17.2920   17.7160 C   0  0  0  0  0
   54.5550   20.6800   18.2640 C   0  0  0  0  0
   46.7690   16.4230   22.7820 C   0  0  0  0  0
   55.8110   21.3540   18.7610 C   0  0  0  0  0
   55.3730   22.6260   19.4910 C   0  0  0  0  0
   53.9090   22.7840   19.2480 C   0  0  0  0  0
   53.3580   18.3890   18.1990 N   0  0  0  0  0
   56.5740   23.3120   17.6100 C   0  0  0  0  0
   46.0180   14.6160   24.4240 C   0  0  0  0  0
   46.8410   14.9140   23.1490 C   0  0  0  0  0
   49.9022   26.0299   19.5924 H   0  0  0  0  0
   49.2192   24.8509   23.8939 H   0  0  0  0  0
   50.4599   23.6570   24.2897 H   0  0  0  0  0
   54.0682   21.6156   21.8554 H   0  0  0  0  0
   58.5426   23.4247   16.7539 H   0  0  0  0  0
   58.1103   24.8044   17.7934 H   0  0  0  0  0
   58.5181   23.2325   18.5240 H   0  0  0  0  0
   55.8940   25.0548   16.5394 H   0  0  0  0  0
   56.3264   23.6751   15.4999 H   0  0  0  0  0
   54.8053   23.6503   16.4255 H   0  0  0  0  0
   53.5702   16.2038   17.8849 H   0  0  0  0  0
   49.7036   17.6846   20.1382 H   0  0  0  0  0
   49.8127   15.8549   19.9090 H   0  0  0  0  0
   49.0045   18.0265   18.0260 H   0  0  0  0  0
   48.2841   16.3478   17.8806 H   0  0  0  0  0
   47.5892   15.5574   20.4165 H   0  0  0  0  0
   47.1838   17.3035   20.1109 H   0  0  0  0  0
   50.1819   16.6193   16.3296 H   0  0  0  0  0
   50.5953   15.4435   17.6517 H   0  0  0  0  0
   48.1500   17.9644   22.1886 H   0  0  0  0  0
   48.8934   16.3576   22.4385 H   0  0  0  0  0
   44.3822   16.0759   24.4651 H   0  0  0  0  0
   45.1383   15.8970   25.9714 H   0  0  0  0  0
   54.7358   18.9896   19.6430 H   0  0  0  0  0
   55.4085   18.6856   17.9713 H   0  0  0  0  0
   46.8095   13.9327   26.3781 H   0  0  0  0  0
   49.0178   14.6599   22.9665 H   0  0  0  0  0
   54.4270   20.6675   17.1816 H   0  0  0  0  0
   45.9724   16.7001   22.0915 H   0  0  0  0  0
   56.4245   20.7041   19.3850 H   0  0  0  0  0
   55.6217   22.5721   20.5509 H   0  0  0  0  0
   53.7680   23.6311   18.5767 H   0  0  0  0  0
   45.2431   13.8683   24.2550 H   0  0  0  0  0
   46.4891   14.3570   22.2806 H   0  0  0  0  0
  2  1  4  0  0  0
  6  1  4  0  0  0
  3  2  4  0  0  0
  4  3  4  0  0  0
  4  5  4  0  0  0
 10  4  4  0  0  0
  5  6  4  0  0  0
  8  5  4  0  0  0
  6  7  1  0  0  0
  9  8  4  0  0  0
 10  9  4  0  0  0
 36 10  1  0  0  0
 38 11  1  0  0  0
 38 12  1  0  0  0
 30 13  2  0  0  0
 14 31  4  0  0  0
 37 14  4  0  0  0
 16 15  1  0  0  0
 15 17  1  0  0  0
 18 16  1  0  0  0
 17 19  1  0  0  0
 31 18  1  0  0  0
 19 33  1  0  0  0
 29 20  1  0  0  0
 20 39  1  0  0  0
 32 21  1  0  0  0
 21 37  1  0  0  0
 23 22  4  0  0  0
 22 31  4  0  0  0
 37 23  4  0  0  0
 24 30  1  0  0  0
 39 24  1  0  0  0
 30 25  1  0  0  0
 25 40  1  0  0  0
 32 26  1  0  0  0
 26 36  1  0  0  0
 34 27  1  0  0  0
 27 38  1  0  0  0
 28 35  1  0  0  0
 38 28  1  0  0  0
 33 29  1  0  0  0
 32 34  1  0  0  0
 33 40  1  0  0  0
 34 35  1  0  0  0
 35 36  1  0  0  0
 39 40  1  0  0  0
  2 41  1  0  0  0
  7 42  1  0  0  0
  7 43  1  0  0  0
  9 44  1  0  0  0
 11 45  1  0  0  0
 11 46  1  0  0  0
 11 47  1  0  0  0
 12 48  1  0  0  0
 12 49  1  0  0  0
 12 50  1  0  0  0
 14 51  1  0  0  0
 15 52  1  0  0  0
 15 53  1  0  0  0
 16 54  1  0  0  0
 16 55  1  0  0  0
 17 56  1  0  0  0
 17 57  1  0  0  0
 18 58  1  0  0  0
 18 59  1  0  0  0
 19 60  1  0  0  0
 19 61  1  0  0  0
 20 62  1  0  0  0
 20 63  1  0  0  0
 21 64  1  0  0  0
 21 65  1  0  0  0
 24 66  1  0  0  0
 25 67  1  0  0  0
 32 68  1  0  0  0
 33 69  1  0  0  0
 34 70  1  0  0  0
 35 71  1  0  0  0
 36 72  1  0  0  0
 39 73  1  0  0  0
 40 74  1  0  0  0
M  END
$$$$
