4bjx_ligand
  -I-interpret- 

 54 57  0  0  0  0  0  0  0  0999 V2000
   15.0320    6.0240   10.0040 C   0  0  0  0  0
   14.0090    5.1520    9.2570 C   0  0  0  0  0
   14.6530    4.2700    8.1860 C   0  0  0  0  0
   14.0000    2.9070    8.1410 C   0  0  0  0  0
   14.5630    2.0190    7.1420 N   0  0  0  0  0
   13.8410    1.0320    6.4880 C   0  0  0  0  0
   14.2550    0.5760    5.2570 C   0  0  0  0  0
   13.5710   -0.4260    4.6150 C   0  0  0  0  0
   12.5050   -0.9940    5.2300 C   0  0  0  0  0
   11.6630   -2.3020    4.4280 Cl  0  0  0  0  0
   12.0910   -0.5760    6.4440 C   0  0  0  0  0
   12.7700    0.4320    7.0840 C   0  0  0  0  0
   13.9780    2.3010    9.5210 C   0  0  0  0  0
   14.5050    1.0590    9.8420 C   0  0  0  0  0
   14.4410    0.5820   11.1440 C   0  0  0  0  0
   13.9660    1.4250   12.1300 C   0  0  0  0  0
   13.5050    2.6820   11.8430 C   0  0  0  0  0
   13.5190    3.1270   10.5440 C   0  0  0  0  0
   13.1060    4.4410   10.1930 N   0  0  0  0  0
   11.9960    5.0490   10.6430 C   0  0  0  0  0
   11.1180    4.2820   11.5830 C   0  0  0  0  0
   11.7470    6.1620   10.3290 O   0  0  0  0  0
   14.9370   -0.7580   11.5120 C   0  0  0  0  0
   14.4280   -1.4020   12.6130 C   0  0  0  0  0
   14.8880   -2.6390   13.0010 C   0  0  0  0  0
   15.8780   -3.2790   12.2890 C   0  0  0  0  0
   16.4070   -2.6360   11.1850 C   0  0  0  0  0
   15.9430   -1.3870   10.8080 C   0  0  0  0  0
   16.3820   -4.6180   12.7120 C   0  0  0  0  0
   17.3860   -5.0350   12.2300 O   0  0  0  0  0
   15.7230   -5.2520   13.6010 O   0  0  0  0  0
   14.5055    6.7665   10.6037 H   0  0  0  0  0
   15.6387    5.3937   10.6542 H   0  0  0  0  0
   15.6744    6.5277    9.2817 H   0  0  0  0  0
   13.3595    5.8182    8.6892 H   0  0  0  0  0
   15.7088    4.1439    8.4256 H   0  0  0  0  0
   14.5268    4.7501    7.2156 H   0  0  0  0  0
   12.9705    3.0512    7.8132 H   0  0  0  0  0
   15.5495    2.1270    6.9062 H   0  0  0  0  0
   15.1351    1.0151    4.7872 H   0  0  0  0  0
   13.8806   -0.7602    3.6248 H   0  0  0  0  0
   11.2220   -1.0359    6.9147 H   0  0  0  0  0
   12.4511    0.7550    8.0750 H   0  0  0  0  0
   14.9729    0.4529    9.0662 H   0  0  0  0  0
   13.9580    1.0803   13.1640 H   0  0  0  0  0
   13.1298    3.3245   12.6396 H   0  0  0  0  0
   11.0683    4.8035   12.5389 H   0  0  0  0  0
   10.1170    4.2014   11.1591 H   0  0  0  0  0
   11.5319    3.2848   11.7328 H   0  0  0  0  0
   13.6405   -0.9214   13.1934 H   0  0  0  0  0
   14.4636   -3.1186   13.8830 H   0  0  0  0  0
   17.1961   -3.1165   10.6065 H   0  0  0  0  0
   16.3799   -0.8925    9.9404 H   0  0  0  0  0
   14.9505   -4.7398   13.8511 H   0  0  0  0  0
  1  2  1  0  0  0
  2  3  1  0  0  0
  2 19  1  0  0  0
  3  4  1  0  0  0
  4  5  1  0  0  0
  4 13  1  0  0  0
  5  6  1  0  0  0
  6  7  4  0  0  0
  6 12  4  0  0  0
  7  8  4  0  0  0
  8  9  4  0  0  0
  9 10  1  0  0  0
  9 11  4  0  0  0
 11 12  4  0  0  0
 13 14  4  0  0  0
 13 18  4  0  0  0
 14 15  4  0  0  0
 15 16  4  0  0  0
 15 23  1  0  0  0
 16 17  4  0  0  0
 17 18  4  0  0  0
 18 19  1  0  0  0
 19 20  1  0  0  0
 20 21  1  0  0  0
 20 22  2  0  0  0
 23 24  4  0  0  0
 23 28  4  0  0  0
 24 25  4  0  0  0
 25 26  4  0  0  0
 26 27  4  0  0  0
 26 29  1  0  0  0
 27 28  4  0  0  0
 29 30  2  0  0  0
 29 31  1  0  0  0
  1 32  1  0  0  0
  1 33  1  0  0  0
  1 34  1  0  0  0
  2 35  1  0  0  0
  3 36  1  0  0  0
  3 37  1  0  0  0
  4 38  1  0  0  0
  5 39  1  0  0  0
  7 40  1  0  0  0
  8 41  1  0  0  0
 11 42  1  0  0  0
 12 43  1  0  0  0
 14 44  1  0  0  0
 16 45  1  0  0  0
 17 46  1  0  0  0
 21 47  1  0  0  0
 21 48  1  0  0  0
 21 49  1  0  0  0
 24 50  1  0  0  0
 25 51  1  0  0  0
 27 52  1  0  0  0
 28 53  1  0  0  0
 31 54  1  0  0  0
M  END
$$$$
