### 
### Created by X-TOOL on Mon Sep 10 21:13:06 2018
### 

@<TRIPOS>MOLECULE
3q5u_ligand
  143   144     1     0     0
SMALL
GAST_HUCK


@<TRIPOS>ATOM
      1 N          80.7290   50.5170   32.6220 N.4       1 GLY         0.2357
      2 CA         79.9820   49.9460   33.7300 C.3       1 GLY         0.0545
      3 C          80.6730   48.7480   34.3610 C.2       1 GLY         0.2237
      4 O          81.4820   48.0750   33.7150 O.2       1 GLY        -0.3910
      5 N          80.3670   48.4820   35.6300 N.am      1 SER        -0.2591
      6 CA         79.4610   49.3200   36.4130 C.3       1 SER         0.1540
      7 C          80.2390   50.5120   36.9710 C.2       1 SER         0.2062
      8 O          81.2660   50.3330   37.6360 O.2       1 SER        -0.3943
      9 CB         78.8410   48.5120   37.5600 C.3       1 SER         0.0843
     10 OG         78.3270   47.2670   37.1050 O.3       1 SER        -0.3903
     11 N          79.7510   51.7240   36.7020 N.am      1 ILE        -0.2634
     12 CA         80.5000   52.9400   37.0340 C.3       1 ILE         0.1335
     13 C          79.9070   53.8110   38.1470 C.2       1 ILE         0.2042
     14 O          78.8720   54.4650   37.9640 O.2       1 ILE        -0.3944
     15 CB         80.7500   53.8200   35.7820 C.3       1 ILE        -0.0037
     16 CG1        81.5370   53.0300   34.7280 C.3       1 ILE        -0.0491
     17 CG2        81.4840   55.1090   36.1680 C.3       1 ILE        -0.0582
     18 CD1        82.0920   53.8740   33.5840 C.3       1 ILE        -0.0648
     19 N          80.6310   53.9090   39.2430 N.am      1 ILE        -0.2635
     20 CA         80.4060   54.9450   40.2490 C.3       1 ILE         0.1335
     21 C          80.7920   56.3370   39.7710 C.2       1 ILE         0.2042
     22 O          81.8900   56.5610   39.3490 O.2       1 ILE        -0.3944
     23 CB         81.0930   54.5800   41.5870 C.3       1 ILE        -0.0037
     24 CG1        80.7130   53.1680   41.9800 C.3       1 ILE        -0.0491
     25 CG2        80.6730   55.4800   42.7080 C.3       1 ILE        -0.0582
     26 CD1        79.5850   53.1180   42.8790 C.3       1 ILE        -0.0648
     27 N          79.8610   57.2550   39.9090 N.am      1 ARG        -0.2637
     28 CA         80.1500   58.6490   39.7630 C.3       1 ARG         0.1311
     29 C          79.8140   59.3810   41.0280 C.2       1 ARG         0.2039
     30 O          78.6930   59.3810   41.4400 O.2       1 ARG        -0.3944
     31 CB         79.3550   59.1730   38.5910 C.3       1 ARG        -0.0092
     32 CG         79.8070   58.5620   37.3030 C.3       1 ARG        -0.0156
     33 CD         78.8360   58.8120   36.2230 C.3       1 ARG         0.0627
     34 NE         77.4890   58.5860   36.6830 N.pl3     1 ARG        -0.2723
     35 CZ         76.5550   59.4990   36.6360 C.cat     1 ARG         0.2882
     36 NH1        76.8440   60.6690   36.1600 N.pl3     1 ARG        -0.2849
     37 NH2        75.3490   59.2540   37.0720 N.pl3     1 ARG        -0.2849
     38 N          80.8130   60.0050   41.6340 N.am      1 LYS        -0.2637
     39 CA         80.6480   61.1220   42.5480 C.3       1 LYS         0.1310
     40 C          80.3970   62.4630   41.8420 C.2       1 LYS         0.2040
     41 O          80.6560   62.5790   40.6730 O.2       1 LYS        -0.3944
     42 CB         81.8470   61.1660   43.4810 C.3       1 LYS        -0.0122
     43 CG         82.4660   59.8190   43.7700 C.3       1 LYS        -0.0440
     44 CD         83.1220   59.7870   45.1270 C.3       1 LYS        -0.0124
     45 CE         83.4960   58.3970   45.5350 C.3       1 LYS        -0.0354
     46 NZ         83.3880   58.1420   46.9850 N.4       1 LYS         0.2185
     47 N          79.7910   63.4310   42.5200 N.am      1 TRP        -0.2627
     48 CA         80.4390   64.5790   43.1680 C.3       1 TRP         0.1351
     49 C          79.3270   65.3010   43.8800 C.2       1 TRP         0.2047
     50 O          78.3650   64.7050   44.2520 O.2       1 TRP        -0.3943
     51 CB         81.1430   65.5910   42.2520 C.3       1 TRP         0.0042
     52 CG         80.8030   65.6790   40.7800 C.2       1 TRP        -0.0418
     53 CD1        81.1300   64.7860   39.8140 C.2       1 TRP         0.0167
     54 CD2        80.1590   66.7700   40.1050 C.ar      1 TRP        -0.0214
     55 NE1        80.6980   65.2220   38.5940 N.pl3     1 TRP        -0.2890
     56 CE2        80.1040   66.4440   38.7470 C.ar      1 TRP         0.0603
     57 CE3        79.6180   67.9850   40.5230 C.ar      1 TRP        -0.0747
     58 CZ2        79.5190   67.2850   37.8030 C.ar      1 TRP        -0.0443
     59 CZ3        79.0420   68.8050   39.5990 C.ar      1 TRP        -0.0792
     60 CH2        78.9920   68.4580   38.2560 C.ar      1 TRP        -0.0768
     61 N          79.4640   66.6020   44.0810 N.am      1 ASN        -0.2673
     62 CA         78.2670   67.3860   43.8850 C.3       1 ASN         0.1110
     63 C          78.2410   68.6550   44.6890 C.2       1 ASN         0.0624
     64 O          78.2802   69.7764   44.1159 O.co2     1 ASN        -0.5665
     65 CB         77.0500   66.5700   44.2080 C.3       1 ASN         0.0718
     66 CG         75.8420   67.1310   43.5800 C.2       1 ASN         0.1774
     67 OD1        74.9660   66.4150   43.1510 O.2       1 ASN        -0.3971
     68 ND2        75.7960   68.4300   43.4910 N.am      1 ASN        -0.3007
     69 O          78.1795   68.5973   45.9462 O.co2     1 ASN        -0.5665
     70 H1         80.2235   51.3040   32.2462 H         1 GLY         0.2012
     71 H2         80.8490   49.8205   31.9033 H         1 GLY         0.2012
     72 H3         81.6325   50.8227   32.9480 H         1 GLY         0.2012
     73 H4         78.9964   49.6268   33.3602 H         1 GLY         0.1061
     74 H5         79.8515   50.7204   34.5002 H         1 GLY         0.1061
     75 H6         80.7730   47.6776   36.0637 H         1 SER         0.1885
     76 H7         78.6558   49.6877   35.7600 H         1 SER         0.0823
     77 H8         78.0215   49.0952   38.0053 H         1 SER         0.0606
     78 H9         79.6123   48.3230   38.3212 H         1 SER         0.0606
     79 H10        77.9516   46.7937   37.8382 H         1 SER         0.2097
     80 H11        78.8554   51.8050   36.2646 H         1 ILE         0.1883
     81 H12        81.4818   52.6000   37.3952 H         1 ILE         0.0803
     82 H13        79.7761   54.0950   35.3510 H         1 ILE         0.0345
     83 H14        80.8681   52.2691   34.2996 H         1 ILE         0.0267
     84 H15        82.3814   52.5352   35.2301 H         1 ILE         0.0267
     85 H16        80.8975   55.6528   36.9231 H         1 ILE         0.0235
     86 H17        81.6092   55.7408   35.2763 H         1 ILE         0.0235
     87 H18        82.4720   54.8586   36.5817 H         1 ILE         0.0235
     88 H19        82.6376   53.2265   32.8819 H         1 ILE         0.0230
     89 H20        82.7759   54.6350   33.9880 H         1 ILE         0.0230
     90 H21        81.2626   54.3688   33.0575 H         1 ILE         0.0230
     91 H22        81.3653   53.2469   39.3930 H         1 ILE         0.1883
     92 H23        79.3232   54.9693   40.4411 H         1 ILE         0.0803
     93 H24        82.1829   54.6499   41.4559 H         1 ILE         0.0345
     94 H25        81.5759   52.6971   42.4736 H         1 ILE         0.0267
     95 H26        80.4602   52.6063   41.0687 H         1 ILE         0.0267
     96 H27        80.9327   56.5198   42.4603 H         1 ILE         0.0235
     97 H28        81.1918   55.1825   43.6312 H         1 ILE         0.0235
     98 H29        79.5860   55.3988   42.8558 H         1 ILE         0.0235
     99 H30        79.3592   52.0701   43.1260 H         1 ILE         0.0230
    100 H31        78.7102   53.5774   42.3956 H         1 ILE         0.0230
    101 H32        79.8259   53.6682   43.8005 H         1 ILE         0.0230
    102 H33        78.9259   56.9716   40.1217 H         1 ARG         0.1883
    103 H34        81.2225   58.7788   39.5559 H         1 ARG         0.0800
    104 H35        79.4819   60.2641   38.5326 H         1 ARG         0.0313
    105 H36        78.2922   58.9352   38.7454 H         1 ARG         0.0313
    106 H37        79.9183   57.4764   37.4408 H         1 ARG         0.0301
    107 H38        80.7770   58.9971   37.0207 H         1 ARG         0.0301
    108 H39        79.0486   58.1344   35.3830 H         1 ARG         0.0689
    109 H40        78.9318   59.8548   35.8862 H         1 ARG         0.0689
    110 H41        77.2510   57.6605   37.0673 H         1 ARG         0.2642
    111 H42        76.1199   61.4002   36.1157 H         1 ARG         0.2615
    112 H43        77.7978   60.8679   35.8260 H         1 ARG         0.2615
    113 H44        75.1172   58.3246   37.4508 H         1 ARG         0.2615
    114 H45        74.6294   59.9901   37.0372 H         1 ARG         0.2615
    115 H46        81.7427   59.6859   41.4501 H         1 LYS         0.1883
    116 H47        79.7575   60.9174   43.1604 H         1 LYS         0.0800
    117 H48        81.5236   61.6072   44.4353 H         1 LYS         0.0312
    118 H49        82.6155   61.8059   43.0228 H         1 LYS         0.0312
    119 H50        83.2237   59.6027   43.0025 H         1 LYS         0.0269
    120 H51        81.6797   59.0505   43.7359 H         1 LYS         0.0269
    121 H52        82.4229   60.1992   45.8695 H         1 LYS         0.0317
    122 H53        84.0313   60.4052   45.0968 H         1 LYS         0.0317
    123 H54        84.5372   58.2162   45.2297 H         1 LYS         0.0813
    124 H55        82.8327   57.6934   45.0107 H         1 LYS         0.0813
    125 H56        83.6552   57.1897   47.1795 H         1 LYS         0.1994
    126 H57        82.4366   58.2915   47.2825 H         1 LYS         0.1994
    127 H58        83.9985   58.7706   47.4831 H         1 LYS         0.1994
    128 H59        78.7957   63.3726   42.5969 H         1 TRP         0.1884
    129 H60        81.1779   64.2023   43.8905 H         1 TRP         0.0815
    130 H61        82.2191   65.3708   42.3116 H         1 TRP         0.0397
    131 H62        80.9482   66.5864   42.6778 H         1 TRP         0.0397
    132 H63        81.6625   63.8519   39.9866 H         1 TRP         0.0795
    133 H64        80.8025   64.7136   37.7043 H         1 TRP         0.2216
    134 H65        79.6549   68.2733   41.5673 H         1 TRP         0.0540
    135 H66        79.4843   67.0181   36.7529 H         1 TRP         0.0541
    136 H67        78.6140   69.7479   39.9197 H         1 TRP         0.0510
    137 H68        78.5232   69.1351   37.5512 H         1 TRP         0.0530
    138 H69        80.3350   67.0132   44.3497 H         1 ASN         0.1877
    139 H70        78.2247   67.6636   42.8215 H         1 ASN         0.0752
    140 H71        76.9105   66.5526   45.2990 H         1 ASN         0.0544
    141 H72        77.1999   65.5439   43.8411 H         1 ASN         0.0544
    142 H73        75.0030   68.8749   43.0748 H         1 ASN         0.1814
    143 H74        76.5537   68.9822   43.8389 H         1 ASN         0.1814
@<TRIPOS>BOND
     1    1    2 1  
     2    2    3 1  
     3    3    4 2  
     4    3    5 am 
     5    5    6 1  
     6    6    7 1  
     7    6    9 1  
     8    7    8 2  
     9    7   11 am 
    10    9   10 1  
    11   11   12 1  
    12   12   13 1  
    13   12   15 1  
    14   13   14 2  
    15   13   19 am 
    16   15   16 1  
    17   15   17 1  
    18   16   18 1  
    19   19   20 1  
    20   20   21 1  
    21   20   23 1  
    22   21   22 2  
    23   21   27 am 
    24   23   24 1  
    25   23   25 1  
    26   24   26 1  
    27   27   28 1  
    28   28   29 1  
    29   28   31 1  
    30   29   30 2  
    31   29   38 am 
    32   31   32 1  
    33   32   33 1  
    34   33   34 1  
    35   34   35 ar 
    36   35   36 ar 
    37   35   37 ar 
    38   38   39 1  
    39   39   40 1  
    40   39   42 1  
    41   40   41 2  
    42   40   47 am 
    43   42   43 1  
    44   43   44 1  
    45   44   45 1  
    46   45   46 1  
    47   47   48 1  
    48   48   49 1  
    49   48   51 1  
    50   49   50 2  
    51   49   61 am 
    52   51   52 1  
    53   52   53 2  
    54   52   54 1  
    55   53   55 1  
    56   54   56 ar 
    57   54   57 ar 
    58   55   56 1  
    59   56   58 ar 
    60   57   59 ar 
    61   58   60 ar 
    62   59   60 ar 
    63   61   62 1  
    64   62   63 1  
    65   62   65 1  
    66   63   64 ar 
    67   65   66 1  
    68   66   67 2  
    69   66   68 am 
    70   63   69 ar 
    71    1   70 1  
    72    1   71 1  
    73    1   72 1  
    74    2   73 1  
    75    2   74 1  
    76    5   75 1  
    77    6   76 1  
    78    9   77 1  
    79    9   78 1  
    80   10   79 1  
    81   11   80 1  
    82   12   81 1  
    83   15   82 1  
    84   16   83 1  
    85   16   84 1  
    86   17   85 1  
    87   17   86 1  
    88   17   87 1  
    89   18   88 1  
    90   18   89 1  
    91   18   90 1  
    92   19   91 1  
    93   20   92 1  
    94   23   93 1  
    95   24   94 1  
    96   24   95 1  
    97   25   96 1  
    98   25   97 1  
    99   25   98 1  
   100   26   99 1  
   101   26  100 1  
   102   26  101 1  
   103   27  102 1  
   104   28  103 1  
   105   31  104 1  
   106   31  105 1  
   107   32  106 1  
   108   32  107 1  
   109   33  108 1  
   110   33  109 1  
   111   34  110 1  
   112   36  111 1  
   113   36  112 1  
   114   37  113 1  
   115   37  114 1  
   116   38  115 1  
   117   39  116 1  
   118   42  117 1  
   119   42  118 1  
   120   43  119 1  
   121   43  120 1  
   122   44  121 1  
   123   44  122 1  
   124   45  123 1  
   125   45  124 1  
   126   46  125 1  
   127   46  126 1  
   128   46  127 1  
   129   47  128 1  
   130   48  129 1  
   131   51  130 1  
   132   51  131 1  
   133   53  132 1  
   134   55  133 1  
   135   57  134 1  
   136   58  135 1  
   137   59  136 1  
   138   60  137 1  
   139   61  138 1  
   140   62  139 1  
   141   65  140 1  
   142   65  141 1  
   143   68  142 1  
   144   68  143 1  
@<TRIPOS>SUBSTRUCTURE
     1 GLY         1

