3q5u_ligand
  -I-interpret- 

142143  0  0  0  0  0  0  0  0999 V2000
   80.7290   50.5170   32.6220 N   0  3  0  0  0
   79.9820   49.9460   33.7300 C   0  0  0  0  0
   80.6730   48.7480   34.3610 C   0  0  0  0  0
   81.4820   48.0750   33.7150 O   0  0  0  0  0
   80.3670   48.4820   35.6300 N   0  0  0  0  0
   79.4610   49.3200   36.4130 C   0  0  0  0  0
   80.2390   50.5120   36.9710 C   0  0  0  0  0
   81.2660   50.3330   37.6360 O   0  0  0  0  0
   78.8410   48.5120   37.5600 C   0  0  0  0  0
   78.3270   47.2670   37.1050 O   0  0  0  0  0
   79.7510   51.7240   36.7020 N   0  0  0  0  0
   80.5000   52.9400   37.0340 C   0  0  0  0  0
   79.9070   53.8110   38.1470 C   0  0  0  0  0
   78.8720   54.4650   37.9640 O   0  0  0  0  0
   80.7500   53.8200   35.7820 C   0  0  0  0  0
   81.5370   53.0300   34.7280 C   0  0  0  0  0
   81.4840   55.1090   36.1680 C   0  0  0  0  0
   82.0920   53.8740   33.5840 C   0  0  0  0  0
   80.6310   53.9090   39.2430 N   0  0  0  0  0
   80.4060   54.9450   40.2490 C   0  0  0  0  0
   80.7920   56.3370   39.7710 C   0  0  0  0  0
   81.8900   56.5610   39.3490 O   0  0  0  0  0
   81.0930   54.5800   41.5870 C   0  0  0  0  0
   80.7130   53.1680   41.9800 C   0  0  0  0  0
   80.6730   55.4800   42.7080 C   0  0  0  0  0
   79.5850   53.1180   42.8790 C   0  0  0  0  0
   79.8610   57.2550   39.9090 N   0  0  0  0  0
   80.1500   58.6490   39.7630 C   0  0  0  0  0
   79.8140   59.3810   41.0280 C   0  0  0  0  0
   78.6930   59.3810   41.4400 O   0  0  0  0  0
   79.3550   59.1730   38.5910 C   0  0  0  0  0
   79.8070   58.5620   37.3030 C   0  0  0  0  0
   78.8360   58.8120   36.2230 C   0  0  0  0  0
   77.4890   58.5860   36.6830 N   0  0  0  0  0
   76.5550   59.4990   36.6360 C   0  0  0  0  0
   76.8440   60.6690   36.1600 N   0  0  0  0  0
   75.3490   59.2540   37.0720 N   0  0  0  0  0
   80.8130   60.0050   41.6340 N   0  0  0  0  0
   80.6480   61.1220   42.5480 C   0  0  0  0  0
   80.3970   62.4630   41.8420 C   0  0  0  0  0
   80.6560   62.5790   40.6730 O   0  0  0  0  0
   81.8470   61.1660   43.4810 C   0  0  0  0  0
   82.4660   59.8190   43.7700 C   0  0  0  0  0
   83.1220   59.7870   45.1270 C   0  0  0  0  0
   83.4960   58.3970   45.5350 C   0  0  0  0  0
   83.3880   58.1420   46.9850 N   0  3  0  0  0
   79.7910   63.4310   42.5200 N   0  0  0  0  0
   80.4390   64.5790   43.1680 C   0  0  0  0  0
   79.3270   65.3010   43.8800 C   0  0  0  0  0
   78.3650   64.7050   44.2520 O   0  0  0  0  0
   81.1430   65.5910   42.2520 C   0  0  0  0  0
   80.8030   65.6790   40.7800 C   0  0  0  0  0
   81.1300   64.7860   39.8140 C   0  0  0  0  0
   80.1590   66.7700   40.1050 C   0  0  0  0  0
   80.6980   65.2220   38.5940 N   0  0  0  0  0
   80.1040   66.4440   38.7470 C   0  0  0  0  0
   79.6180   67.9850   40.5230 C   0  0  0  0  0
   79.5190   67.2850   37.8030 C   0  0  0  0  0
   79.0420   68.8050   39.5990 C   0  0  0  0  0
   78.9920   68.4580   38.2560 C   0  0  0  0  0
   79.4640   66.6020   44.0810 N   0  0  0  0  0
   78.2670   67.3860   43.8850 C   0  0  0  0  0
   78.2410   68.6550   44.6890 C   0  0  0  0  0
   78.2802   69.7764   44.1159 O   0  0  0  0  0
   77.0500   66.5700   44.2080 C   0  0  0  0  0
   75.8420   67.1310   43.5800 C   0  0  0  0  0
   74.9660   66.4150   43.1510 O   0  0  0  0  0
   75.7960   68.4300   43.4910 N   0  0  0  0  0
   78.1795   68.5973   45.9462 O   0  0  0  0  0
   80.2166   51.3132   32.2425 H   0  0  0  0  0
   81.6430   50.8259   32.9530 H   0  0  0  0  0
   80.8498   49.8113   31.8955 H   0  0  0  0  0
   79.0212   49.6076   33.3421 H   0  0  0  0  0
   79.8870   50.7151   34.4965 H   0  0  0  0  0
   80.7811   47.6615   36.0724 H   0  0  0  0  0
   78.6552   49.6764   35.7713 H   0  0  0  0  0
   78.0194   49.0897   37.9834 H   0  0  0  0  0
   79.6161   48.3146   38.3005 H   0  0  0  0  0
   77.9477   46.7887   37.8459 H   0  0  0  0  0
   78.8374   51.8066   36.2559 H   0  0  0  0  0
   81.4389   52.5493   37.4262 H   0  0  0  0  0
   79.7886   54.0994   35.3510 H   0  0  0  0  0
   80.8455   52.3121   34.2870 H   0  0  0  0  0
   82.3912   52.5839   35.2374 H   0  0  0  0  0
   80.8796   55.6703   36.8805 H   0  0  0  0  0
   82.4428   54.8577   36.6215 H   0  0  0  0  0
   81.6498   55.7124   35.2755 H   0  0  0  0  0
   81.2692   54.3638   33.0632 H   0  0  0  0  0
   82.7694   54.6276   33.9856 H   0  0  0  0  0
   82.6324   53.2313   32.8890 H   0  0  0  0  0
   81.3799   53.2337   39.3960 H   0  0  0  0  0
   79.3307   54.9827   40.4233 H   0  0  0  0  0
   82.1663   54.6854   41.4290 H   0  0  0  0  0
   81.5666   52.7246   42.4927 H   0  0  0  0  0
   80.4378   52.6327   41.0713 H   0  0  0  0  0
   80.9355   56.5093   42.4637 H   0  0  0  0  0
   79.5951   55.4025   42.8500 H   0  0  0  0  0
   81.1838   55.1809   43.6233 H   0  0  0  0  0
   79.8249   53.6635   43.7916 H   0  0  0  0  0
   78.7189   53.5736   42.3989 H   0  0  0  0  0
   79.3623   52.0793   43.1230 H   0  0  0  0  0
   78.9072   56.9659   40.1259 H   0  0  0  0  0
   81.2123   58.8040   39.5741 H   0  0  0  0  0
   79.5003   60.2516   38.5306 H   0  0  0  0  0
   78.3064   58.9180   38.7442 H   0  0  0  0  0
   79.9007   57.4852   37.4434 H   0  0  0  0  0
   80.7610   59.0086   37.0226 H   0  0  0  0  0
   79.0446   58.1305   35.3983 H   0  0  0  0  0
   78.9279   59.8493   35.9010 H   0  0  0  0  0
   77.2533   57.6695   37.0635 H   0  0  0  0  0
   77.7886   60.8659   35.8292 H   0  0  0  0  0
   74.6363   59.9829   37.0375 H   0  0  0  0  0
   75.1195   58.3337   37.4471 H   0  0  0  0  0
   81.7613   59.6795   41.4464 H   0  0  0  0  0
   79.7413   60.9588   43.1306 H   0  0  0  0  0
   81.4963   61.5664   44.4322 H   0  0  0  0  0
   82.6108   61.7693   42.9903 H   0  0  0  0  0
   83.2275   59.6218   43.0155 H   0  0  0  0  0
   81.6769   59.0672   43.7520 H   0  0  0  0  0
   82.4139   60.1782   45.8576 H   0  0  0  0  0
   84.0319   60.3854   45.0803 H   0  0  0  0  0
   84.5406   58.2512   45.2598 H   0  0  0  0  0
   82.8036   57.7184   45.0368 H   0  0  0  0  0
   83.6585   57.1782   47.1806 H   0  0  0  0  0
   84.0062   58.7787   47.4879 H   0  0  0  0  0
   82.4249   58.2936   47.2849 H   0  0  0  0  0
   78.7758   63.3714   42.5985 H   0  0  0  0  0
   81.2389   64.1831   43.7937 H   0  0  0  0  0
   82.1865   65.2764   42.2636 H   0  0  0  0  0
   80.8440   66.5605   42.6505 H   0  0  0  0  0
   81.6630   63.8510   39.9867 H   0  0  0  0  0
   79.6551   68.2749   41.5731 H   0  0  0  0  0
   79.4841   67.0167   36.7471 H   0  0  0  0  0
   78.6116   69.7531   39.9215 H   0  0  0  0  0
   78.5206   69.1389   37.5473 H   0  0  0  0  0
   80.3525   67.0214   44.3551 H   0  0  0  0  0
   78.2665   67.6733   42.8335 H   0  0  0  0  0
   76.9099   66.5719   45.2890 H   0  0  0  0  0
   77.2002   65.5600   43.8266 H   0  0  0  0  0
   74.9980   68.8827   43.0453 H   0  0  0  0  0
   76.5580   68.9943   43.8671 H   0  0  0  0  0
   78.1567   67.6782   46.2225 H   0  0  0  0  0
  1  2  1  0  0  0
  2  3  1  0  0  0
  3  4  2  0  0  0
  3  5  1  0  0  0
  5  6  1  0  0  0
  6  7  1  0  0  0
  6  9  1  0  0  0
  7  8  2  0  0  0
  7 11  1  0  0  0
  9 10  1  0  0  0
 11 12  1  0  0  0
 12 13  1  0  0  0
 12 15  1  0  0  0
 13 14  2  0  0  0
 13 19  1  0  0  0
 15 16  1  0  0  0
 15 17  1  0  0  0
 16 18  1  0  0  0
 19 20  1  0  0  0
 20 21  1  0  0  0
 20 23  1  0  0  0
 21 22  2  0  0  0
 21 27  1  0  0  0
 23 24  1  0  0  0
 23 25  1  0  0  0
 24 26  1  0  0  0
 27 28  1  0  0  0
 28 29  1  0  0  0
 28 31  1  0  0  0
 29 30  2  0  0  0
 29 38  1  0  0  0
 31 32  1  0  0  0
 32 33  1  0  0  0
 33 34  1  0  0  0
 34 35  1  0  0  0
 35 36  2  0  0  0
 35 37  1  0  0  0
 38 39  1  0  0  0
 39 40  1  0  0  0
 39 42  1  0  0  0
 40 41  2  0  0  0
 40 47  1  0  0  0
 42 43  1  0  0  0
 43 44  1  0  0  0
 44 45  1  0  0  0
 45 46  1  0  0  0
 47 48  1  0  0  0
 48 49  1  0  0  0
 48 51  1  0  0  0
 49 50  2  0  0  0
 49 61  1  0  0  0
 51 52  1  0  0  0
 52 53  4  0  0  0
 52 54  4  0  0  0
 53 55  4  0  0  0
 54 56  4  0  0  0
 54 57  4  0  0  0
 55 56  4  0  0  0
 56 58  4  0  0  0
 57 59  4  0  0  0
 58 60  4  0  0  0
 59 60  4  0  0  0
 61 62  1  0  0  0
 62 63  1  0  0  0
 62 65  1  0  0  0
 63 64  2  0  0  0
 65 66  1  0  0  0
 66 67  2  0  0  0
 66 68  1  0  0  0
 63 69  1  0  0  0
  1 70  1  0  0  0
  1 71  1  0  0  0
  1 72  1  0  0  0
  2 73  1  0  0  0
  2 74  1  0  0  0
  5 75  1  0  0  0
  6 76  1  0  0  0
  9 77  1  0  0  0
  9 78  1  0  0  0
 10 79  1  0  0  0
 11 80  1  0  0  0
 12 81  1  0  0  0
 15 82  1  0  0  0
 16 83  1  0  0  0
 16 84  1  0  0  0
 17 85  1  0  0  0
 17 86  1  0  0  0
 17 87  1  0  0  0
 18 88  1  0  0  0
 18 89  1  0  0  0
 18 90  1  0  0  0
 19 91  1  0  0  0
 20 92  1  0  0  0
 23 93  1  0  0  0
 24 94  1  0  0  0
 24 95  1  0  0  0
 25 96  1  0  0  0
 25 97  1  0  0  0
 25 98  1  0  0  0
 26 99  1  0  0  0
 26100  1  0  0  0
 26101  1  0  0  0
 27102  1  0  0  0
 28103  1  0  0  0
 31104  1  0  0  0
 31105  1  0  0  0
 32106  1  0  0  0
 32107  1  0  0  0
 33108  1  0  0  0
 33109  1  0  0  0
 34110  1  0  0  0
 36111  1  0  0  0
 37112  1  0  0  0
 37113  1  0  0  0
 38114  1  0  0  0
 39115  1  0  0  0
 42116  1  0  0  0
 42117  1  0  0  0
 43118  1  0  0  0
 43119  1  0  0  0
 44120  1  0  0  0
 44121  1  0  0  0
 45122  1  0  0  0
 45123  1  0  0  0
 46124  1  0  0  0
 46125  1  0  0  0
 46126  1  0  0  0
 47127  1  0  0  0
 48128  1  0  0  0
 51129  1  0  0  0
 51130  1  0  0  0
 53131  1  0  0  0
 57132  1  0  0  0
 58133  1  0  0  0
 59134  1  0  0  0
 60135  1  0  0  0
 61136  1  0  0  0
 62137  1  0  0  0
 65138  1  0  0  0
 65139  1  0  0  0
 68140  1  0  0  0
 68141  1  0  0  0
 69142  1  0  0  0
M  END
$$$$
