2wmr_ligand
  -I-interpret- 

 24 26  0  0  0  0  0  0  0  0999 V2000
   13.0010    0.1900    6.1130 O   0  0  0  0  0
   12.0620   -0.3060    6.7290 C   0  0  0  0  0
   12.2510   -1.4270    7.5230 C   0  0  0  0  0
   13.4300   -2.1300    7.8200 C   0  0  0  0  0
   14.8020   -1.9610    7.2260 C   0  0  0  0  0
   16.0810   -2.5240    7.9160 C   0  0  0  0  0
   15.7590   -4.0170    8.0060 C   0  0  0  0  0
   14.5060   -4.0160    8.9270 C   0  0  0  0  0
   13.2590   -3.2600    8.5660 C   0  0  0  0  0
   11.6730   -3.2760    9.0630 S   0  0  0  0  0
   11.1420   -1.9420    8.1990 C   0  0  0  0  0
    9.9330   -1.3780    8.0910 N   0  0  0  0  0
    9.7380   -0.3140    7.3430 C   0  0  0  0  0
   10.7950    0.2570    6.6370 N   0  0  0  0  0
   14.9565   -0.8822    7.2450 H   0  0  0  0  0
   14.7470   -2.5236    6.2941 H   0  0  0  0  0
   16.2877   -2.0667    8.8836 H   0  0  0  0  0
   16.9982   -2.3114    7.3669 H   0  0  0  0  0
   16.5827   -4.6159    8.3946 H   0  0  0  0  0
   15.5842   -4.4825    7.0360 H   0  0  0  0  0
   14.8534   -3.5221    9.8345 H   0  0  0  0  0
   14.1851   -5.0577    8.9270 H   0  0  0  0  0
    8.7424    0.1244    7.2748 H   0  0  0  0  0
   10.6399    1.0818    6.0572 H   0  0  0  0  0
  1  2  2  0  0  0
  2  3  1  0  0  0
  2 14  1  0  0  0
  3  4  4  0  0  0
  3 11  4  0  0  0
  4  5  1  0  0  0
  4  9  4  0  0  0
  5  6  1  0  0  0
  6  7  1  0  0  0
  7  8  1  0  0  0
  8  9  1  0  0  0
  9 10  4  0  0  0
 10 11  4  0  0  0
 11 12  1  0  0  0
 12 13  2  0  0  0
 13 14  1  0  0  0
  5 15  1  0  0  0
  5 16  1  0  0  0
  6 17  1  0  0  0
  6 18  1  0  0  0
  7 19  1  0  0  0
  7 20  1  0  0  0
  8 21  1  0  0  0
  8 22  1  0  0  0
 13 23  1  0  0  0
 14 24  1  0  0  0
M  END
$$$$
