6d1l_ligand
  -I-interpret- 

 26 26  0  0  0  0  0  0  0  0999 V2000
    1.6960    9.0770   84.7020 C   0  0  0  0  0
    1.4580    8.0320   84.1510 C   0  0  0  0  0
   -2.9620    4.2060   85.2550 C   0  0  0  0  0
   -0.8070    3.1810   85.2240 C   0  0  0  0  0
   -2.4990    5.2300   84.4760 C   0  0  0  0  0
   -0.3390    4.2110   84.4430 C   0  0  0  0  0
   -2.1280    3.1590   85.6260 C   0  0  0  0  0
   -1.1900    5.2320   84.0670 C   0  0  0  0  0
    1.9850   10.3320   85.2670 C   0  0  0  0  0
    1.1930    6.7490   83.4630 C   0  0  0  0  0
   -2.2280    0.4660   85.9300 N   0  0  0  0  0
   -2.1920    2.0480   87.9470 O   0  0  0  0  0
   -4.2150    1.9480   86.5200 O   0  0  0  0  0
   -2.7760    1.8690   86.6260 S   0  0  0  0  0
   -0.6300    6.6820   82.9410 Se  0  0  0  0  0
   -3.9994    4.2114   85.5893 H   0  0  0  0  0
   -0.1334    2.3793   85.5268 H   0  0  0  0  0
   -3.1665    6.0400   84.1818 H   0  0  0  0  0
    0.7023    4.2220   84.1209 H   0  0  0  0  0
    2.9875   10.6404   84.9703 H   0  0  0  0  0
    1.2588   11.0640   84.9136 H   0  0  0  0  0
    1.9319   10.2608   86.3534 H   0  0  0  0  0
    1.4098    5.9213   84.1383 H   0  0  0  0  0
    1.8283    6.6701   82.5808 H   0  0  0  0  0
   -1.5710   -0.1302   86.4333 H   0  0  0  0  0
   -2.5481    0.1998   84.9988 H   0  0  0  0  0
  2  1  3  0  0  0
  1  9  1  0  0  0
 10  2  1  0  0  0
  5  3  4  0  0  0
  3  7  4  0  0  0
  6  4  4  0  0  0
  4  7  4  0  0  0
  8  5  4  0  0  0
  8  6  4  0  0  0
  7 14  1  0  0  0
 15  8  1  0  0  0
 10 15  1  0  0  0
 14 11  1  0  0  0
 14 12  2  0  0  0
 14 13  2  0  0  0
  3 16  1  0  0  0
  4 17  1  0  0  0
  5 18  1  0  0  0
  6 19  1  0  0  0
  9 20  1  0  0  0
  9 21  1  0  0  0
  9 22  1  0  0  0
 10 23  1  0  0  0
 10 24  1  0  0  0
 11 25  1  0  0  0
 11 26  1  0  0  0
M  END
$$$$
