### 
### Created by X-TOOL on Mon Sep 10 21:13:18 2018
### 

@<TRIPOS>MOLECULE
4mnv_ligand
  200   199     2     0     0
SMALL
GAST_HUCK


@<TRIPOS>ATOM
      1 N          28.3220   25.7060   -5.6530 N.4       1 THR         0.2398
      2 CA         29.5960   24.9620   -5.4330 C.3       1 THR         0.0910
      3 C          29.6680   23.7410   -6.3430 C.2       1 THR         0.2293
      4 O          28.9360   22.7690   -6.1470 O.2       1 THR        -0.3906
      5 CB         29.7400   24.4730   -3.9730 C.3       1 THR         0.1120
      6 OG1        29.5500   25.5700   -3.0760 O.3       1 THR        -0.3840
      7 CG2        31.1270   23.8570   -3.7380 C.3       1 THR        -0.0314
      8 N          30.5490   23.8060   -7.3350 N.am      1 CYS        -0.2601
      9 CA         30.8610   22.6550   -8.1670 C.3       1 CYS         0.1397
     10 C          31.8490   21.7770   -7.4120 C.2       1 CYS         0.2047
     11 O          32.8740   22.2620   -6.9110 O.2       1 CYS        -0.3944
     12 CB         31.4510   23.1020   -9.5100 C.3       1 CYS         0.0311
     13 SG         31.7030   21.7560  -10.7030 S.3       1 CYS        -0.1735
     14 N          31.5170   20.4920   -7.2970 N.am      1 ARG        -0.2637
     15 CA         32.4440   19.4940   -6.7830 C.3       1 ARG         0.1311
     16 C          32.6060   18.3980   -7.8170 C.2       1 ARG         0.2039
     17 O          31.6700   18.0480   -8.5230 O.2       1 ARG        -0.3944
     18 CB         31.9420   18.8850   -5.4740 C.3       1 ARG        -0.0092
     19 CG         31.9820   19.8350   -4.2960 C.3       1 ARG        -0.0156
     20 CD         31.4810   19.1560   -3.0260 C.3       1 ARG         0.0627
     21 NE         30.6140   20.0520   -2.2650 N.pl3     1 ARG        -0.2723
     22 CZ         29.3100   20.2230   -2.4790 C.cat     1 ARG         0.2882
     23 NH1        28.6710   19.5530   -3.4320 N.pl3     1 ARG        -0.2849
     24 NH2        28.6350   21.0800   -1.7260 N.pl3     1 ARG        -0.2849
     25 N          33.8020   17.8460   -7.8960 N.am      1 GLN        -0.2636
     26 CA         34.0690   16.7960   -8.8700 C.3       1 GLN         0.1330
     27 C          33.1560   15.5620   -8.6930 C.2       1 GLN         0.2041
     28 O          32.8650   14.8560   -9.6620 O.2       1 GLN        -0.3944
     29 CB         35.5370   16.4080   -8.8160 C.3       1 GLN         0.0045
     30 CG         35.9310   15.4400   -9.9080 C.3       1 GLN         0.0412
     31 CD         37.4220   15.3640  -10.0880 C.2       1 GLN         0.1737
     32 OE1        38.1870   15.9800   -9.3360 O.2       1 GLN        -0.3973
     33 NE2        37.8510   14.6060  -11.0880 N.am      1 GLN        -0.3009
     34 N          32.6940   15.3130   -7.4710 N.am      1 SER        -0.2616
     35 CA         31.7810   14.1880   -7.2080 C.3       1 SER         0.1539
     36 C          30.4720   14.2630   -8.0080 C.2       1 SER         0.2062
     37 O          29.8390   13.2400   -8.2530 O.2       1 SER        -0.3943
     38 CB         31.4860   14.0320   -5.7150 C.3       1 SER         0.0843
     39 OG         30.9990   15.2390   -5.1350 O.3       1 SER        -0.3903
     40 N          30.0830   15.4630   -8.4340 N.am      1 MET        -0.2636
     41 CA         28.9640   15.6170   -9.3780 C.3       1 MET         0.1317
     42 C          29.2300   14.8520  -10.6840 C.2       1 MET         0.2039
     43 O          28.3000   14.3360  -11.3010 O.2       1 MET        -0.3944
     44 CB         28.7120   17.1030   -9.6950 C.3       1 MET        -0.0034
     45 CG         28.2700   17.9450   -8.4980 C.3       1 MET        -0.0024
     46 SD         28.1360   19.7120   -8.8730 S.3       1 MET        -0.1639
     47 CE         26.4730   19.7690   -9.5370 C.3       1 MET        -0.0181
     48 N          30.4980   14.7900  -11.0850 N.am      1 CYS        -0.2629
     49 CA         30.9300   14.1000  -12.3060 C.3       1 CYS         0.1396
     50 C          31.3050   12.6220  -12.0710 C.2       1 CYS         0.2048
     51 O          31.1700   11.7930  -12.9630 O.2       1 CYS        -0.3944
     52 CB         32.1060   14.8600  -12.9410 C.3       1 CYS         0.0311
     53 SG         31.6360   16.3480  -13.8940 S.3       1 CYS        -0.1735
     54 N          31.7590   12.2730  -10.8720 N.am      1 THR        -0.2613
     55 CA         32.0920   10.8740  -10.6020 C.3       1 THR         0.1565
     56 C          30.8510   10.0010  -10.3900 C.2       1 THR         0.2065
     57 O          30.9100    8.7960  -10.5520 O.2       1 THR        -0.3943
     58 CB         32.9720   10.7170   -9.3700 C.3       1 THR         0.0924
     59 OG1        32.2760   11.2270   -8.2410 O.3       1 THR        -0.3874
     60 CG2        34.2980   11.4590   -9.5460 C.3       1 THR        -0.0346
     61 N          29.7420   10.6220  -10.0200 N.am      1 ALA        -0.2639
     62 CA         28.5090    9.9020   -9.7920 C.3       1 ALA         0.1282
     63 C          28.1430    9.1200  -11.0440 C.2       1 ALA         0.2031
     64 O          28.1470    9.6740  -12.1380 O.2       1 ALA        -0.3944
     65 CB         27.3920   10.8670   -9.4580 C.3       1 ALA        -0.0244
     66 N          27.8240    7.8450  -10.8710 N.am      1 ARG        -0.2671
     67 CA         27.4590    6.9850  -11.9940 C.3       1 ARG         0.1227
     68 C          25.9880    6.6130  -11.9660 C.2       1 ARG         0.2149
     69 O          25.3090    6.5980  -12.9930 O.co2     1 ARG        -0.4120
     70 CB         28.3190    5.7490  -11.9910 C.3       1 ARG        -0.0124
     71 CG         29.7130    6.0460  -12.5050 C.3       1 ARG        -0.0161
     72 CD         30.5250    4.7930  -12.4900 C.3       1 ARG         0.0627
     73 NE         31.8750    4.9820  -13.0100 N.pl3     1 ARG        -0.2723
     74 CZ         32.7330    3.9850  -13.1840 C.cat     1 ARG         0.2882
     75 NH1        32.3730    2.7460  -12.8600 N.pl3     1 ARG        -0.2849
     76 NH2        33.9550    4.2240  -13.6520 N.pl3     1 ARG        -0.2849
     77 N          42.4160   15.0360   -9.7860 N.4       2 THR         0.2398
     78 CA         42.6790   16.0090  -10.8420 C.3       2 THR         0.0910
     79 C          41.4290   16.1940  -11.6980 C.2       2 THR         0.2293
     80 O          40.7580   15.2150  -12.0450 O.2       2 THR        -0.3906
     81 CB         43.8550   15.5760  -11.7550 C.3       2 THR         0.1120
     82 OG1        43.6320   14.2490  -12.2520 O.3       2 THR        -0.3840
     83 CG2        45.1870   15.6160  -11.0030 C.3       2 THR        -0.0314
     84 N          41.1090   17.4440  -12.0250 N.am      2 CYS        -0.2601
     85 CA         40.0240   17.7280  -12.9630 C.3       2 CYS         0.1399
     86 C          40.6020   17.7400  -14.3760 C.2       2 CYS         0.2072
     87 O          41.4080   18.6070  -14.7000 O.2       2 CYS        -0.3942
     88 CB         39.3390   19.0570  -12.6440 C.3       2 CYS         0.0311
     89 SG         37.6750   19.1720  -13.3460 S.3       2 CYS        -0.1735
     90 N          40.1990   16.7700  -15.2180 N.am      2 PRO        -0.2498
     91 CA         40.8290   16.5860  -16.5260 C.3       2 PRO         0.1334
     92 C          40.4480   17.6800  -17.5140 C.2       2 PRO         0.1994
     93 O          39.3160   18.1530  -17.4940 O.2       2 PRO        -0.3947
     94 CB         40.2610   15.2480  -16.9900 C.3       2 PRO        -0.0104
     95 CG         38.8940   15.2190  -16.3910 C.3       2 PRO        -0.0281
     96 CD         39.0370   15.8760  -15.0450 C.3       2 PRO         0.0369
     97 N          41.4110   18.0790  -18.3920 N.am      2 NH2        -0.2990
     98 H          28.2694   26.0053   -6.6141 H         1 THR         0.2016
     99 H          28.2948   26.5119   -5.0482 H         1 THR         0.2016
    100 H          27.5409   25.1036   -5.4455 H         1 THR         0.2016
    101 H          30.4338   25.6356   -5.6661 H         1 THR         0.1125
    102 H          28.9729   23.7095   -3.7766 H         1 THR         0.0674
    103 H          29.6394   25.2648   -2.1808 H         1 THR         0.2102
    104 H          31.2053   23.5173   -2.6947 H         1 THR         0.0258
    105 H          31.9020   24.6119   -3.9369 H         1 THR         0.0258
    106 H          31.2672   23.0006   -4.4140 H         1 THR         0.0258
    107 H          31.0122   24.6737   -7.5153 H         1 CYS         0.1885
    108 H          29.9401   22.0844   -8.3573 H         1 CYS         0.0808
    109 H          32.4239   23.5777   -9.3173 H         1 CYS         0.0422
    110 H          30.7664   23.8364   -9.9593 H         1 CYS         0.0422
    111 H          32.0913   22.1313  -11.5541 H         1 CYS         0.1019
    112 H          30.6002   20.2032   -7.5730 H         1 ARG         0.1883
    113 H          33.4183   19.9715   -6.6019 H         1 ARG         0.0800
    114 H          32.5685   18.0128   -5.2359 H         1 ARG         0.0313
    115 H          30.9014   18.5600   -5.6207 H         1 ARG         0.0313
    116 H          31.3445   20.7045   -4.5139 H         1 ARG         0.0301
    117 H          33.0180   20.1699   -4.1395 H         1 ARG         0.0301
    118 H          32.3432   18.8743   -2.4037 H         1 ARG         0.0689
    119 H          30.9153   18.2531   -3.2992 H         1 ARG         0.0689
    120 H          31.0447   20.5945   -1.5027 H         1 ARG         0.2642
    121 H          27.6624   19.7021   -3.5786 H         1 ARG         0.2615
    122 H          29.1842   18.8845   -4.0242 H         1 ARG         0.2615
    123 H          29.1187   21.6056   -0.9839 H         1 ARG         0.2615
    124 H          27.6268   21.2204   -1.8830 H         1 ARG         0.2615
    125 H          34.5306   18.1507   -7.2826 H         1 GLN         0.1883
    126 H          33.8660   17.2108   -9.8684 H         1 GLN         0.0801
    127 H          35.7405   15.9395   -7.8418 H         1 GLN         0.0337
    128 H          36.1447   17.3191   -8.9188 H         1 GLN         0.0337
    129 H          35.4762   15.7688  -10.8541 H         1 GLN         0.0504
    130 H          35.5541   14.4399   -9.6480 H         1 GLN         0.0504
    131 H          38.8317   14.5140  -11.2606 H         1 GLN         0.1814
    132 H          37.1938   14.1265  -11.6695 H         1 GLN         0.1814
    133 H          32.9730   15.9032   -6.7135 H         1 SER         0.1884
    134 H          32.3030   13.2762   -7.5338 H         1 SER         0.0823
    135 H          32.4125   13.7395   -5.1992 H         1 SER         0.0606
    136 H          30.7289   13.2449   -5.5835 H         1 SER         0.0606
    137 H          31.6494   15.9236   -5.2384 H         1 SER         0.2097
    138 H          30.5614   16.2774   -8.1055 H         1 MET         0.1883
    139 H          28.0598   15.2018   -8.9090 H         1 MET         0.0800
    140 H          27.9271   17.1612  -10.4634 H         1 MET         0.0320
    141 H          29.6446   17.5321  -10.0901 H         1 MET         0.0320
    142 H          29.0045   17.8147   -7.6896 H         1 MET         0.0378
    143 H          27.2867   17.5843   -8.1618 H         1 MET         0.0378
    144 H          26.2273   20.8026   -9.8221 H         1 MET         0.0340
    145 H          25.7614   19.4201   -8.7742 H         1 MET         0.0340
    146 H          26.4092   19.1194  -10.4224 H         1 MET         0.0340
    147 H          31.1939   15.2380  -10.5237 H         1 CYS         0.1884
    148 H          30.0882   14.1179  -13.0138 H         1 CYS         0.0808
    149 H          32.6314   14.1717  -13.6193 H         1 CYS         0.0422
    150 H          32.7868   15.1714  -12.1350 H         1 CYS         0.0422
    151 H          32.4651   16.7796  -14.2715 H         1 CYS         0.1019
    152 H          31.8726   12.9633  -10.1574 H         1 THR         0.1884
    153 H          32.6415   10.4913  -11.4747 H         1 THR         0.0826
    154 H          33.1821    9.6487   -9.2134 H         1 THR         0.0639
    155 H          32.8185   11.1329   -7.4669 H         1 THR         0.2101
    156 H          34.9133   11.3294   -8.6434 H         1 THR         0.0257
    157 H          34.1009   12.5295   -9.7048 H         1 THR         0.0257
    158 H          34.8334   11.0517  -10.4163 H         1 THR         0.0257
    159 H          29.7574   11.6140   -9.8950 H         1 ALA         0.1883
    160 H          28.6472    9.2042   -8.9530 H         1 ALA         0.0797
    161 H          26.4614   10.3058   -9.2873 H         1 ALA         0.0277
    162 H          27.2498   11.5670  -10.2945 H         1 ALA         0.0277
    163 H          27.6528   11.4295   -8.5494 H         1 ALA         0.0277
    164 H          27.8335    7.4618   -9.9474 H         1 ARG         0.1876
    165 H          27.6511    7.5384  -12.9251 H         1 ARG         0.0751
    166 O1         25.4495    6.3128  -10.8672 O.co2     1 ARG        -0.4120
    167 H          27.8545    4.9878  -12.6351 H         1 ARG         0.0307
    168 H          28.3907    5.3650  -10.9627 H         1 ARG         0.0307
    169 H          30.1890    6.7994  -11.8602 H         1 ARG         0.0301
    170 H          29.6506    6.4304  -13.5337 H         1 ARG         0.0301
    171 H          30.0150    4.0374  -13.1056 H         1 ARG         0.0689
    172 H          30.5961    4.4338  -11.4527 H         1 ARG         0.0689
    173 H          32.1768    5.9361  -13.2540 H         1 ARG         0.2642
    174 H          33.0333    1.9666  -12.9921 H         1 ARG         0.2615
    175 H          31.4339    2.5660  -12.4770 H         1 ARG         0.2615
    176 H          34.2320    5.1840  -13.9023 H         1 ARG         0.2615
    177 H          34.6242    3.4491  -13.7640 H         1 ARG         0.2615
    178 H          41.6470   15.3560   -9.2183 H         2 THR         0.2016
    179 H          43.2378   14.9333   -9.2114 H         2 THR         0.2016
    180 H          42.1815   14.1469  -10.1991 H         2 THR         0.2016
    181 H          42.9366   16.9696  -10.3720 H         2 THR         0.1125
    182 H          43.9102   16.2707  -12.6060 H         2 THR         0.0674
    183 H          42.8251   14.2312  -12.7531 H         2 THR         0.2102
    184 H          45.9982   15.3041  -11.6773 H         2 THR         0.0258
    185 H          45.1427   14.9327  -10.1421 H         2 THR         0.0258
    186 H          45.3777   16.6399  -10.6491 H         2 THR         0.0258
    187 H          41.6202   18.2029  -11.6216 H         2 CYS         0.1885
    188 H          39.2739   16.9267  -12.8907 H         2 CYS         0.0808
    189 H          39.9505   19.8750  -13.0526 H         2 CYS         0.0422
    190 H          39.2679   19.1628  -11.5514 H         2 CYS         0.0422
    191 H          37.2714   20.0640  -13.1063 H         2 CYS         0.1019
    192 H          41.9240   16.5446  -16.4300 H         2 PRO         0.0802
    193 H          40.8708   14.4120  -16.6169 H         2 PRO         0.0313
    194 H          40.2095   15.2029  -18.0879 H         2 PRO         0.0313
    195 H          38.5444   14.1821  -16.2785 H         2 PRO         0.0287
    196 H          38.1858   15.7786  -17.0197 H         2 PRO         0.0287
    197 H          38.1340   16.4501  -14.7901 H         2 PRO         0.0524
    198 H          39.2296   15.1284  -14.2614 H         2 PRO         0.0524
    199 H          41.2117   18.7945  -19.0616 H         2 NH2         0.1815
    200 H          42.3169   17.6563  -18.3666 H         2 NH2         0.1815
@<TRIPOS>BOND
     1    1    2 1  
     2    2    3 1  
     3    2    5 1  
     4    3    4 2  
     5    3    8 am 
     6    5    6 1  
     7    5    7 1  
     8    8    9 1  
     9    9   10 1  
    10    9   12 1  
    11   10   11 2  
    12   10   14 am 
    13   12   13 1  
    14   14   15 1  
    15   15   16 1  
    16   15   18 1  
    17   16   17 2  
    18   16   25 am 
    19   18   19 1  
    20   19   20 1  
    21   20   21 1  
    22   21   22 ar 
    23   22   23 ar 
    24   22   24 ar 
    25   25   26 1  
    26   26   27 1  
    27   26   29 1  
    28   27   28 2  
    29   27   34 am 
    30   29   30 1  
    31   30   31 1  
    32   31   32 2  
    33   31   33 am 
    34   34   35 1  
    35   35   36 1  
    36   35   38 1  
    37   36   37 2  
    38   36   40 am 
    39   38   39 1  
    40   40   41 1  
    41   41   42 1  
    42   41   44 1  
    43   42   43 2  
    44   42   48 am 
    45   44   45 1  
    46   45   46 1  
    47   46   47 1  
    48   48   49 1  
    49   49   50 1  
    50   49   52 1  
    51   50   51 2  
    52   50   54 am 
    53   52   53 1  
    54   54   55 1  
    55   55   56 1  
    56   55   58 1  
    57   56   57 2  
    58   56   61 am 
    59   58   59 1  
    60   58   60 1  
    61   61   62 1  
    62   62   63 1  
    63   62   65 1  
    64   63   64 2  
    65   63   66 am 
    66   66   67 1  
    67   67   68 1  
    68   67   70 1  
    69   68   69 ar 
    70   70   71 1  
    71   71   72 1  
    72   72   73 1  
    73   73   74 ar 
    74   74   75 ar 
    75   74   76 ar 
    76   77   78 1  
    77   78   79 1  
    78   78   81 1  
    79   79   80 2  
    80   79   84 am 
    81   81   82 1  
    82   81   83 1  
    83   84   85 1  
    84   85   86 1  
    85   85   88 1  
    86   86   87 2  
    87   86   90 am 
    88   88   89 1  
    89   90   91 1  
    90   90   96 1  
    91   91   92 1  
    92   91   94 1  
    93   92   93 2  
    94   92   97 am 
    95   94   95 1  
    96   95   96 1  
    97    1   98 1  
    98    1   99 1  
    99    1  100 1  
   100    2  101 1  
   101    5  102 1  
   102    6  103 1  
   103    7  104 1  
   104    7  105 1  
   105    7  106 1  
   106    8  107 1  
   107    9  108 1  
   108   12  109 1  
   109   12  110 1  
   110   13  111 1  
   111   14  112 1  
   112   15  113 1  
   113   18  114 1  
   114   18  115 1  
   115   19  116 1  
   116   19  117 1  
   117   20  118 1  
   118   20  119 1  
   119   21  120 1  
   120   23  121 1  
   121   23  122 1  
   122   24  123 1  
   123   24  124 1  
   124   25  125 1  
   125   26  126 1  
   126   29  127 1  
   127   29  128 1  
   128   30  129 1  
   129   30  130 1  
   130   33  131 1  
   131   33  132 1  
   132   34  133 1  
   133   35  134 1  
   134   38  135 1  
   135   38  136 1  
   136   39  137 1  
   137   40  138 1  
   138   41  139 1  
   139   44  140 1  
   140   44  141 1  
   141   45  142 1  
   142   45  143 1  
   143   47  144 1  
   144   47  145 1  
   145   47  146 1  
   146   48  147 1  
   147   49  148 1  
   148   52  149 1  
   149   52  150 1  
   150   53  151 1  
   151   54  152 1  
   152   55  153 1  
   153   58  154 1  
   154   59  155 1  
   155   60  156 1  
   156   60  157 1  
   157   60  158 1  
   158   61  159 1  
   159   62  160 1  
   160   65  161 1  
   161   65  162 1  
   162   65  163 1  
   163   66  164 1  
   164   67  165 1  
   165   68  166 ar 
   166   70  167 1  
   167   70  168 1  
   168   71  169 1  
   169   71  170 1  
   170   72  171 1  
   171   72  172 1  
   172   73  173 1  
   173   75  174 1  
   174   75  175 1  
   175   76  176 1  
   176   76  177 1  
   177   77  178 1  
   178   77  179 1  
   179   77  180 1  
   180   78  181 1  
   181   81  182 1  
   182   82  183 1  
   183   83  184 1  
   184   83  185 1  
   185   83  186 1  
   186   84  187 1  
   187   85  188 1  
   188   88  189 1  
   189   88  190 1  
   190   89  191 1  
   191   91  192 1  
   192   94  193 1  
   193   94  194 1  
   194   95  195 1  
   195   95  196 1  
   196   96  197 1  
   197   96  198 1  
   198   97  199 1  
   199   97  200 1  
@<TRIPOS>SUBSTRUCTURE
     1 THR         1
     2 THR        77

