4mnv_ligand
  -I-interpret- 

199198  0  0  0  0  0  0  0  0999 V2000
   28.3220   25.7060   -5.6530 N   0  3  0  0  0
   29.5960   24.9620   -5.4330 C   0  0  0  0  0
   29.6680   23.7410   -6.3430 C   0  0  0  0  0
   28.9360   22.7690   -6.1470 O   0  0  0  0  0
   29.7400   24.4730   -3.9730 C   0  0  0  0  0
   29.5500   25.5700   -3.0760 O   0  0  0  0  0
   31.1270   23.8570   -3.7380 C   0  0  0  0  0
   30.5490   23.8060   -7.3350 N   0  0  0  0  0
   30.8610   22.6550   -8.1670 C   0  0  0  0  0
   31.8490   21.7770   -7.4120 C   0  0  0  0  0
   32.8740   22.2620   -6.9110 O   0  0  0  0  0
   31.4510   23.1020   -9.5100 C   0  0  0  0  0
   31.7030   21.7560  -10.7030 S   0  0  0  0  0
   31.5170   20.4920   -7.2970 N   0  0  0  0  0
   32.4440   19.4940   -6.7830 C   0  0  0  0  0
   32.6060   18.3980   -7.8170 C   0  0  0  0  0
   31.6700   18.0480   -8.5230 O   0  0  0  0  0
   31.9420   18.8850   -5.4740 C   0  0  0  0  0
   31.9820   19.8350   -4.2960 C   0  0  0  0  0
   31.4810   19.1560   -3.0260 C   0  0  0  0  0
   30.6140   20.0520   -2.2650 N   0  0  0  0  0
   29.3100   20.2230   -2.4790 C   0  0  0  0  0
   28.6710   19.5530   -3.4320 N   0  0  0  0  0
   28.6350   21.0800   -1.7260 N   0  0  0  0  0
   33.8020   17.8460   -7.8960 N   0  0  0  0  0
   34.0690   16.7960   -8.8700 C   0  0  0  0  0
   33.1560   15.5620   -8.6930 C   0  0  0  0  0
   32.8650   14.8560   -9.6620 O   0  0  0  0  0
   35.5370   16.4080   -8.8160 C   0  0  0  0  0
   35.9310   15.4400   -9.9080 C   0  0  0  0  0
   37.4220   15.3640  -10.0880 C   0  0  0  0  0
   38.1870   15.9800   -9.3360 O   0  0  0  0  0
   37.8510   14.6060  -11.0880 N   0  0  0  0  0
   32.6940   15.3130   -7.4710 N   0  0  0  0  0
   31.7810   14.1880   -7.2080 C   0  0  0  0  0
   30.4720   14.2630   -8.0080 C   0  0  0  0  0
   29.8390   13.2400   -8.2530 O   0  0  0  0  0
   31.4860   14.0320   -5.7150 C   0  0  0  0  0
   30.9990   15.2390   -5.1350 O   0  0  0  0  0
   30.0830   15.4630   -8.4340 N   0  0  0  0  0
   28.9640   15.6170   -9.3780 C   0  0  0  0  0
   29.2300   14.8520  -10.6840 C   0  0  0  0  0
   28.3000   14.3360  -11.3010 O   0  0  0  0  0
   28.7120   17.1030   -9.6950 C   0  0  0  0  0
   28.2700   17.9450   -8.4980 C   0  0  0  0  0
   28.1360   19.7120   -8.8730 S   0  0  0  0  0
   26.4730   19.7690   -9.5370 C   0  0  0  0  0
   30.4980   14.7900  -11.0850 N   0  0  0  0  0
   30.9300   14.1000  -12.3060 C   0  0  0  0  0
   31.3050   12.6220  -12.0710 C   0  0  0  0  0
   31.1700   11.7930  -12.9630 O   0  0  0  0  0
   32.1060   14.8600  -12.9410 C   0  0  0  0  0
   31.6360   16.3480  -13.8940 S   0  0  0  0  0
   31.7590   12.2730  -10.8720 N   0  0  0  0  0
   32.0920   10.8740  -10.6020 C   0  0  0  0  0
   30.8510   10.0010  -10.3900 C   0  0  0  0  0
   30.9100    8.7960  -10.5520 O   0  0  0  0  0
   32.9720   10.7170   -9.3700 C   0  0  0  0  0
   32.2760   11.2270   -8.2410 O   0  0  0  0  0
   34.2980   11.4590   -9.5460 C   0  0  0  0  0
   29.7420   10.6220  -10.0200 N   0  0  0  0  0
   28.5090    9.9020   -9.7920 C   0  0  0  0  0
   28.1430    9.1200  -11.0440 C   0  0  0  0  0
   28.1470    9.6740  -12.1380 O   0  0  0  0  0
   27.3920   10.8670   -9.4580 C   0  0  0  0  0
   27.8240    7.8450  -10.8710 N   0  0  0  0  0
   27.4590    6.9850  -11.9940 C   0  0  0  0  0
   25.9880    6.6130  -11.9660 C   0  0  0  0  0
   25.3090    6.5980  -12.9930 O   0  0  0  0  0
   28.3190    5.7490  -11.9910 C   0  0  0  0  0
   29.7130    6.0460  -12.5050 C   0  0  0  0  0
   30.5250    4.7930  -12.4900 C   0  0  0  0  0
   31.8750    4.9820  -13.0100 N   0  0  0  0  0
   32.7330    3.9850  -13.1840 C   0  0  0  0  0
   32.3730    2.7460  -12.8600 N   0  0  0  0  0
   33.9550    4.2240  -13.6520 N   0  0  0  0  0
   42.4160   15.0360   -9.7860 N   0  3  0  0  0
   42.6790   16.0090  -10.8420 C   0  0  0  0  0
   41.4290   16.1940  -11.6980 C   0  0  0  0  0
   40.7580   15.2150  -12.0450 O   0  0  0  0  0
   43.8550   15.5760  -11.7550 C   0  0  0  0  0
   43.6320   14.2490  -12.2520 O   0  0  0  0  0
   45.1870   15.6160  -11.0030 C   0  0  0  0  0
   41.1090   17.4440  -12.0250 N   0  0  0  0  0
   40.0240   17.7280  -12.9630 C   0  0  0  0  0
   40.6020   17.7400  -14.3760 C   0  0  0  0  0
   41.4080   18.6070  -14.7000 O   0  0  0  0  0
   39.3390   19.0570  -12.6440 C   0  0  0  0  0
   37.6750   19.1720  -13.3460 S   0  0  0  0  0
   40.1990   16.7700  -15.2180 N   0  0  0  0  0
   40.8290   16.5860  -16.5260 C   0  0  0  0  0
   40.4480   17.6800  -17.5140 C   0  0  0  0  0
   39.3160   18.1530  -17.4940 O   0  0  0  0  0
   40.2610   15.2480  -16.9900 C   0  0  0  0  0
   38.8940   15.2190  -16.3910 C   0  0  0  0  0
   39.0370   15.8760  -15.0450 C   0  0  0  0  0
   41.4110   18.0790  -18.3920 N   0  0  0  0  0
   25.4495    6.3128  -10.8672 O   0  0  0  0  0
   28.2699   26.0084   -6.6258 H   0  0  0  0  0
   27.5324   25.0954   -5.4427 H   0  0  0  0  0
   28.2956   26.5212   -5.0405 H   0  0  0  0  0
   30.4020   25.6603   -5.6585 H   0  0  0  0  0
   28.9831   23.7103   -3.7900 H   0  0  0  0  0
   28.6830   25.9553   -3.2226 H   0  0  0  0  0
   31.8932   24.6114   -3.9168 H   0  0  0  0  0
   31.1965   23.5034   -2.7093 H   0  0  0  0  0
   31.2722   23.0206   -4.4217 H   0  0  0  0  0
   31.0215   24.6911   -7.5189 H   0  0  0  0  0
   29.9517   22.0931   -8.3805 H   0  0  0  0  0
   32.4304   23.5328   -9.3019 H   0  0  0  0  0
   30.7398   23.7967   -9.9567 H   0  0  0  0  0
   32.2153   22.2512  -11.8260 H   0  0  0  0  0
   30.5819   20.1974   -7.5785 H   0  0  0  0  0
   33.3994   19.9795   -6.5838 H   0  0  0  0  0
   32.5973   18.0473   -5.2355 H   0  0  0  0  0
   30.8999   18.6044   -5.6272 H   0  0  0  0  0
   31.3381   20.6872   -4.5132 H   0  0  0  0  0
   33.0129   20.1522   -4.1385 H   0  0  0  0  0
   32.3388   18.8894   -2.4086 H   0  0  0  0  0
   30.9120   18.2686   -3.3034 H   0  0  0  0  0
   31.0405   20.5892   -1.5101 H   0  0  0  0  0
   27.6723   19.7010   -3.5774 H   0  0  0  0  0
   29.1791   18.8907   -4.0181 H   0  0  0  0  0
   29.1141   21.6008   -0.9914 H   0  0  0  0  0
   34.5452   18.1568   -7.2704 H   0  0  0  0  0
   33.8376   17.1976   -9.8565 H   0  0  0  0  0
   35.7170   15.9200   -7.8581 H   0  0  0  0  0
   36.1260   17.3157   -8.9477 H   0  0  0  0  0
   35.4935   15.7877  -10.8438 H   0  0  0  0  0
   35.5719   14.4493   -9.6292 H   0  0  0  0  0
   38.8513   14.5118  -11.2638 H   0  0  0  0  0
   37.1807   14.1171  -11.6813 H   0  0  0  0  0
   32.9786   15.9150   -6.6983 H   0  0  0  0  0
   32.3116   13.3006   -7.5531 H   0  0  0  0  0
   32.4148   13.7638   -5.2115 H   0  0  0  0  0
   30.7196   13.2658   -5.5985 H   0  0  0  0  0
   30.8274   15.0975   -4.2011 H   0  0  0  0  0
   30.5710   16.2937   -8.0990 H   0  0  0  0  0
   28.0774   15.1995   -8.9007 H   0  0  0  0  0
   27.9030   17.1392  -10.4246 H   0  0  0  0  0
   29.6578   17.5181  -10.0432 H   0  0  0  0  0
   29.0238   17.8304   -7.7190 H   0  0  0  0  0
   27.2817   17.5966   -8.1979 H   0  0  0  0  0
   26.4111   19.1249  -10.4142 H   0  0  0  0  0
   25.7689   19.4230   -8.7802 H   0  0  0  0  0
   26.2307   20.7936   -9.8191 H   0  0  0  0  0
   31.2078   15.2469  -10.5124 H   0  0  0  0  0
   30.0791   14.0922  -12.9872 H   0  0  0  0  0
   32.5835   14.1746  -13.6412 H   0  0  0  0  0
   32.7424   15.1972  -12.1229 H   0  0  0  0  0
   32.7299   16.9174  -14.3920 H   0  0  0  0  0
   31.8748   12.9771  -10.1431 H   0  0  0  0  0
   32.6278   10.5438  -11.4920 H   0  0  0  0  0
   33.1964    9.6602   -9.2250 H   0  0  0  0  0
   32.8243   11.1319   -7.4587 H   0  0  0  0  0
   34.8275   11.0545  -10.4086 H   0  0  0  0  0
   34.1013   12.5195   -9.7033 H   0  0  0  0  0
   34.9067   11.3298   -8.6511 H   0  0  0  0  0
   29.7577   11.6339   -9.8925 H   0  0  0  0  0
   28.6477    9.2178   -8.9549 H   0  0  0  0  0
   27.6517   11.4237   -8.5576 H   0  0  0  0  0
   27.2521   11.5601  -10.2876 H   0  0  0  0  0
   26.4705   10.3098   -9.2891 H   0  0  0  0  0
   27.8337    7.4541   -9.9289 H   0  0  0  0  0
   27.6321    7.5419  -12.9149 H   0  0  0  0  0
   27.8601    5.0058  -12.6430 H   0  0  0  0  0
   28.3976    5.3838  -10.9670 H   0  0  0  0  0
   30.1847    6.7929  -11.8665 H   0  0  0  0  0
   29.6514    6.4274  -13.5242 H   0  0  0  0  0
   30.0230    4.0645  -13.1267 H   0  0  0  0  0
   30.6112    4.4657  -11.4539 H   0  0  0  0  0
   32.1738    5.9268  -13.2516 H   0  0  0  0  0
   33.0344    1.9774  -12.9703 H   0  0  0  0  0
   31.4355    2.5646  -12.5013 H   0  0  0  0  0
   34.2367    5.1777  -13.8791 H   0  0  0  0  0
   43.2549   14.9173   -9.2181 H   0  0  0  0  0
   41.6516   15.3708   -9.1995 H   0  0  0  0  0
   42.1584   14.1425  -10.2051 H   0  0  0  0  0
   42.9526   16.9463  -10.3574 H   0  0  0  0  0
   43.9042   16.2785  -12.5869 H   0  0  0  0  0
   44.3656   13.9920  -12.8153 H   0  0  0  0  0
   45.3747   16.6310  -10.6528 H   0  0  0  0  0
   45.1418   14.9386  -10.1502 H   0  0  0  0  0
   45.9900   15.3068  -11.6721 H   0  0  0  0  0
   41.6304   18.2181  -11.6136 H   0  0  0  0  0
   39.2615   16.9538  -12.8776 H   0  0  0  0  0
   39.9408   19.8559  -13.0773 H   0  0  0  0  0
   39.2511   19.1364  -11.5605 H   0  0  0  0  0
   37.1425   20.3490  -13.0298 H   0  0  0  0  0
   41.9168   16.6197  -16.4648 H   0  0  0  0  0
   40.8727   14.4034  -16.6727 H   0  0  0  0  0
   40.2417   15.1579  -18.0761 H   0  0  0  0  0
   38.5161   14.2005  -16.3024 H   0  0  0  0  0
   38.1701   15.7404  -17.0173 H   0  0  0  0  0
   38.1375   16.4140  -14.7456 H   0  0  0  0  0
   39.1821   15.1539  -14.2415 H   0  0  0  0  0
   41.2065   18.8060  -19.0776 H   0  0  0  0  0
   42.3363   17.6506  -18.3635 H   0  0  0  0  0
   26.1025    6.3704  -10.1658 H   0  0  0  0  0
  1  2  1  0  0  0
  2  3  1  0  0  0
  2  5  1  0  0  0
  3  4  2  0  0  0
  3  8  1  0  0  0
  5  6  1  0  0  0
  5  7  1  0  0  0
  8  9  1  0  0  0
  9 10  1  0  0  0
  9 12  1  0  0  0
 10 11  2  0  0  0
 10 14  1  0  0  0
 12 13  1  0  0  0
 14 15  1  0  0  0
 15 16  1  0  0  0
 15 18  1  0  0  0
 16 17  2  0  0  0
 16 25  1  0  0  0
 18 19  1  0  0  0
 19 20  1  0  0  0
 20 21  1  0  0  0
 21 22  1  0  0  0
 22 23  1  0  0  0
 22 24  2  0  0  0
 25 26  1  0  0  0
 26 27  1  0  0  0
 26 29  1  0  0  0
 27 28  2  0  0  0
 27 34  1  0  0  0
 29 30  1  0  0  0
 30 31  1  0  0  0
 31 32  2  0  0  0
 31 33  1  0  0  0
 34 35  1  0  0  0
 35 36  1  0  0  0
 35 38  1  0  0  0
 36 37  2  0  0  0
 36 40  1  0  0  0
 38 39  1  0  0  0
 40 41  1  0  0  0
 41 42  1  0  0  0
 41 44  1  0  0  0
 42 43  2  0  0  0
 42 48  1  0  0  0
 44 45  1  0  0  0
 45 46  1  0  0  0
 46 47  1  0  0  0
 48 49  1  0  0  0
 49 50  1  0  0  0
 49 52  1  0  0  0
 50 51  2  0  0  0
 50 54  1  0  0  0
 52 53  1  0  0  0
 54 55  1  0  0  0
 55 56  1  0  0  0
 55 58  1  0  0  0
 56 57  2  0  0  0
 56 61  1  0  0  0
 58 59  1  0  0  0
 58 60  1  0  0  0
 61 62  1  0  0  0
 62 63  1  0  0  0
 62 65  1  0  0  0
 63 64  2  0  0  0
 63 66  1  0  0  0
 66 67  1  0  0  0
 67 68  1  0  0  0
 67 70  1  0  0  0
 68 69  2  0  0  0
 70 71  1  0  0  0
 71 72  1  0  0  0
 72 73  1  0  0  0
 73 74  1  0  0  0
 74 75  1  0  0  0
 74 76  2  0  0  0
 77 78  1  0  0  0
 78 79  1  0  0  0
 78 81  1  0  0  0
 79 80  2  0  0  0
 79 84  1  0  0  0
 81 82  1  0  0  0
 81 83  1  0  0  0
 84 85  1  0  0  0
 85 86  1  0  0  0
 85 88  1  0  0  0
 86 87  2  0  0  0
 86 90  1  0  0  0
 88 89  1  0  0  0
 90 91  1  0  0  0
 90 96  1  0  0  0
 91 92  1  0  0  0
 91 94  1  0  0  0
 92 93  2  0  0  0
 92 97  1  0  0  0
 94 95  1  0  0  0
 95 96  1  0  0  0
 68 98  1  0  0  0
  1 99  1  0  0  0
  1100  1  0  0  0
  1101  1  0  0  0
  2102  1  0  0  0
  5103  1  0  0  0
  6104  1  0  0  0
  7105  1  0  0  0
  7106  1  0  0  0
  7107  1  0  0  0
  8108  1  0  0  0
  9109  1  0  0  0
 12110  1  0  0  0
 12111  1  0  0  0
 13112  1  0  0  0
 14113  1  0  0  0
 15114  1  0  0  0
 18115  1  0  0  0
 18116  1  0  0  0
 19117  1  0  0  0
 19118  1  0  0  0
 20119  1  0  0  0
 20120  1  0  0  0
 21121  1  0  0  0
 23122  1  0  0  0
 23123  1  0  0  0
 24124  1  0  0  0
 25125  1  0  0  0
 26126  1  0  0  0
 29127  1  0  0  0
 29128  1  0  0  0
 30129  1  0  0  0
 30130  1  0  0  0
 33131  1  0  0  0
 33132  1  0  0  0
 34133  1  0  0  0
 35134  1  0  0  0
 38135  1  0  0  0
 38136  1  0  0  0
 39137  1  0  0  0
 40138  1  0  0  0
 41139  1  0  0  0
 44140  1  0  0  0
 44141  1  0  0  0
 45142  1  0  0  0
 45143  1  0  0  0
 47144  1  0  0  0
 47145  1  0  0  0
 47146  1  0  0  0
 48147  1  0  0  0
 49148  1  0  0  0
 52149  1  0  0  0
 52150  1  0  0  0
 53151  1  0  0  0
 54152  1  0  0  0
 55153  1  0  0  0
 58154  1  0  0  0
 59155  1  0  0  0
 60156  1  0  0  0
 60157  1  0  0  0
 60158  1  0  0  0
 61159  1  0  0  0
 62160  1  0  0  0
 65161  1  0  0  0
 65162  1  0  0  0
 65163  1  0  0  0
 66164  1  0  0  0
 67165  1  0  0  0
 70166  1  0  0  0
 70167  1  0  0  0
 71168  1  0  0  0
 71169  1  0  0  0
 72170  1  0  0  0
 72171  1  0  0  0
 73172  1  0  0  0
 75173  1  0  0  0
 75174  1  0  0  0
 76175  1  0  0  0
 77176  1  0  0  0
 77177  1  0  0  0
 77178  1  0  0  0
 78179  1  0  0  0
 81180  1  0  0  0
 82181  1  0  0  0
 83182  1  0  0  0
 83183  1  0  0  0
 83184  1  0  0  0
 84185  1  0  0  0
 85186  1  0  0  0
 88187  1  0  0  0
 88188  1  0  0  0
 89189  1  0  0  0
 91190  1  0  0  0
 94191  1  0  0  0
 94192  1  0  0  0
 95193  1  0  0  0
 95194  1  0  0  0
 96195  1  0  0  0
 96196  1  0  0  0
 97197  1  0  0  0
 97198  1  0  0  0
 98199  1  0  0  0
M  END
$$$$
