3aqt_ligand
  -I-interpret- 

 14 14  0  0  0  0  0  0  0  0999 V2000
   54.5300   28.4260   21.8790 C   0  0  0  0  0
   54.4670   29.5730   21.0380 C   0  0  0  0  0
   55.6090   29.9850   20.2960 C   0  0  0  0  0
   56.8030   29.2450   20.4050 C   0  0  0  0  0
   56.8710   28.1110   21.2360 C   0  0  0  0  0
   55.7310   27.7000   21.9780 C   0  0  0  0  0
   53.3930   28.0380   22.5950 O   0  0  0  0  0
   55.5630   31.1130   19.4660 O   0  0  0  0  0
   53.5385   30.1389   20.9621 H   0  0  0  0  0
   57.6827   29.5537   19.8403 H   0  0  0  0  0
   57.8005   27.5466   21.3105 H   0  0  0  0  0
   55.7869   26.8232   22.6232 H   0  0  0  0  0
   53.5935   27.2539   23.1113 H   0  0  0  0  0
   56.4187   31.2370   19.0488 H   0  0  0  0  0
  1  2  4  0  0  0
  1  6  4  0  0  0
  1  7  1  0  0  0
  2  3  4  0  0  0
  3  4  4  0  0  0
  3  8  1  0  0  0
  4  5  4  0  0  0
  5  6  4  0  0  0
  2  9  1  0  0  0
  4 10  1  0  0  0
  5 11  1  0  0  0
  6 12  1  0  0  0
  7 13  1  0  0  0
  8 14  1  0  0  0
M  END
$$$$
