### 
### Created by X-TOOL on Mon Sep 10 21:13:20 2018
### 

@<TRIPOS>MOLECULE
5cin_ligand
  293   300     1     0     0
SMALL
GAST_HUCK


@<TRIPOS>ATOM
      1 N          12.4350  -12.1140  -30.7220 N.4       1 ASN         0.2396
      2 CA         13.0790  -11.5490  -29.5020 C.3       1 ASN         0.0818
      3 C          13.6980  -10.2060  -29.8080 C.2       1 ASN         0.2292
      4 O          14.6510  -10.1290  -30.5730 O.2       1 ASN        -0.3905
      5 CB         14.1540  -12.4900  -28.9960 C.3       1 ASN         0.0972
      6 CG         14.7790  -12.0200  -27.6830 C.2       1 ASN         0.1813
      7 OD1        14.3180  -11.0590  -27.0670 O.2       1 ASN        -0.3969
      8 ND2        15.8460  -12.6800  -27.2790 N.am      1 ASN        -0.3006
      9 N          13.1250   -9.1520  -29.2340 N.am      1 TRP        -0.2598
     10 CA         13.6760   -7.7960  -29.3390 C.3       1 TRP         0.1353
     11 C          15.1440   -7.7160  -28.9830 C.2       1 TRP         0.2053
     12 O          15.8570   -6.9380  -29.5630 O.2       1 TRP        -0.3942
     13 CB         12.8460   -6.8450  -28.4700 C.3       1 TRP         0.0042
     14 CG         13.2230   -5.3910  -28.4470 C.2       1 TRP        -0.0418
     15 CD1        12.7270   -4.4120  -29.2400 C.2       1 TRP         0.0167
     16 CD2        14.1050   -4.7420  -27.5030 C.ar      1 TRP        -0.0214
     17 NE1        13.2610   -3.1990  -28.8810 N.pl3     1 TRP        -0.2890
     18 CE2        14.0980   -3.3730  -27.8030 C.ar      1 TRP         0.0603
     19 CE3        14.8950   -5.1970  -26.4290 C.ar      1 TRP        -0.0747
     20 CZ2        14.8280   -2.4420  -27.0860 C.ar      1 TRP        -0.0443
     21 CZ3        15.6470   -4.2440  -25.7100 C.ar      1 TRP        -0.0792
     22 CH2        15.6100   -2.8980  -26.0520 C.ar      1 TRP        -0.0768
     23 N          15.5970   -8.5160  -27.9970 N.am      1 PHE        -0.2618
     24 CA         16.9900   -8.5090  -27.6180 C.3       1 PHE         0.1404
     25 C          17.9820   -8.9880  -28.6650 C.2       1 PHE         0.2060
     26 O          19.1820   -8.7810  -28.4910 O.2       1 PHE        -0.3942
     27 CB         17.1800   -9.2650  -26.2790 C.3       1 PHE         0.0214
     28 CG         16.5590   -8.5440  -25.1230 C.ar      1 PHE        -0.0386
     29 CD1        15.2960   -8.8590  -24.6650 C.ar      1 PHE        -0.0601
     30 CD2        17.2490   -7.4830  -24.5160 C.ar      1 PHE        -0.0601
     31 CE1        14.7240   -8.1590  -23.6210 C.ar      1 PHE        -0.0686
     32 CE2        16.6940   -6.7980  -23.4600 C.ar      1 PHE        -0.0686
     33 CZ         15.4230   -7.1130  -23.0190 C.ar      1 PHE        -0.0687
     34 N          17.4810   -9.5720  -29.7640 N.am      1 ASP        -0.2620
     35 CA         18.3340  -10.0280  -30.8630 C.3       1 ASP         0.1423
     36 C          18.4360   -9.0410  -32.0050 C.2       1 ASP         0.2056
     37 O          19.2730   -9.2150  -32.9170 O.2       1 ASP        -0.3943
     38 CB         17.8060  -11.3560  -31.3970 C.3       1 ASP         0.0406
     39 CG         18.0210  -12.5170  -30.4160 C.2       1 ASP         0.0393
     40 OD1        18.9700  -12.4360  -29.6070 O.co2     1 ASP        -0.5688
     41 OD2        17.2770  -13.5130  -30.4870 O.co2     1 ASP        -0.5688
     42 N          17.5940   -8.0090  -31.9940 N.am      1 ILE        -0.2634
     43 CA         17.5440   -7.0940  -33.1380 C.3       1 ILE         0.1335
     44 C          18.8790   -6.3950  -33.4200 C.2       1 ILE         0.2042
     45 O          19.3020   -6.2510  -34.5900 O.2       1 ILE        -0.3944
     46 CB         16.4360   -6.0510  -32.9240 C.3       1 ILE        -0.0037
     47 CG1        15.0900   -6.7500  -33.0030 C.3       1 ILE        -0.0491
     48 CG2        16.5430   -4.9340  -33.9780 C.3       1 ILE        -0.0582
     49 CD1        13.8900   -5.9290  -32.6140 C.3       1 ILE        -0.0648
     50 N          19.5400   -5.8840  -32.3800 N.am      1 THR        -0.2613
     51 CA         20.7710   -5.1250  -32.6220 C.3       1 THR         0.1565
     52 C          21.9260   -5.9910  -33.1550 C.2       1 THR         0.2066
     53 O          22.8120   -5.4730  -33.8540 O.2       1 THR        -0.3943
     54 CB         21.2240   -4.3450  -31.3840 C.3       1 THR         0.0924
     55 OG1        21.3820   -5.2420  -30.2870 O.3       1 THR        -0.3874
     56 CG2        20.1810   -3.2780  -31.0330 C.3       1 THR        -0.0346
     57 N          21.9110   -7.2790  -32.8350 N.am      1 ASN        -0.2615
     58 CA         22.8920   -8.2120  -33.4310 C.3       1 ASN         0.1476
     59 C          22.6840   -8.3070  -34.9490 C.2       1 ASN         0.2063
     60 O          23.6250   -8.1610  -35.7060 O.2       1 ASN        -0.3942
     61 CB         22.8260   -9.5810  -32.7770 C.3       1 ASN         0.0773
     62 CG         23.8460  -10.5270  -33.3470 C.2       1 ASN         0.1780
     63 OD1        23.4990  -11.5110  -33.9790 O.2       1 ASN        -0.3970
     64 ND2        25.0920  -10.1890  -33.2000 N.am      1 ASN        -0.3007
     65 N          21.4470   -8.4820  -35.3690 N.am      1 TRP        -0.2625
     66 CA         21.0510   -8.4800  -36.8040 C.3       1 TRP         0.1352
     67 C          21.5170   -7.1790  -37.4660 C.2       1 TRP         0.2052
     68 O          22.1190   -7.1540  -38.5540 O.2       1 TRP        -0.3942
     69 CB         19.5260   -8.6180  -36.9180 C.3       1 TRP         0.0042
     70 CG         18.9030   -8.3150  -38.2760 C.2       1 TRP        -0.0418
     71 CD1        18.9360   -9.0990  -39.3870 C.2       1 TRP         0.0167
     72 CD2        18.1420   -7.1540  -38.6320 C.ar      1 TRP        -0.0214
     73 NE1        18.2410   -8.5050  -40.4100 N.pl3     1 TRP        -0.2890
     74 CE2        17.7520   -7.3050  -39.9740 C.ar      1 TRP         0.0603
     75 CE3        17.7520   -6.0010  -37.9440 C.ar      1 TRP        -0.0747
     76 CZ2        16.9920   -6.3470  -40.6430 C.ar      1 TRP        -0.0443
     77 CZ3        17.0080   -5.0550  -38.6090 C.ar      1 TRP        -0.0792
     78 CH2        16.6220   -5.2390  -39.9470 C.ar      1 TRP        -0.0768
     79 N          21.1920   -6.0730  -36.8150 N.am      1 LEU        -0.2636
     80 CA         21.5380   -4.7580  -37.3360 C.3       1 LEU         0.1312
     81 C          23.0550   -4.6240  -37.5040 C.2       1 LEU         0.2040
     82 O          23.5570   -4.0890  -38.5170 O.2       1 LEU        -0.3944
     83 CB         21.0160   -3.6740  -36.3780 C.3       1 LEU        -0.0101
     84 CG         21.1660   -2.2310  -36.7950 C.3       1 LEU        -0.0425
     85 CD1        20.4030   -1.9480  -38.0930 C.3       1 LEU        -0.0625
     86 CD2        20.6190   -1.3450  -35.6750 C.3       1 LEU        -0.0625
     87 N          23.7910   -5.1000  -36.4960 N.am      1 TRP        -0.2627
     88 CA         25.2440   -5.0320  -36.5230 C.3       1 TRP         0.1352
     89 C          25.7870   -5.8220  -37.7320 C.2       1 TRP         0.2053
     90 O          26.6920   -5.3570  -38.4620 O.2       1 TRP        -0.3942
     91 CB         25.8020   -5.6010  -35.2130 C.3       1 TRP         0.0042
     92 CG         27.2760   -5.7910  -35.2310 C.2       1 TRP        -0.0418
     93 CD1        28.2180   -4.8390  -35.0580 C.2       1 TRP         0.0167
     94 CD2        27.9520   -7.0040  -35.4700 C.ar      1 TRP        -0.0214
     95 NE1        29.4600   -5.3920  -35.1660 N.pl3     1 TRP        -0.2890
     96 CE2        29.3240   -6.7270  -35.4140 C.ar      1 TRP         0.0603
     97 CE3        27.5340   -8.3130  -35.6970 C.ar      1 TRP        -0.0747
     98 CZ2        30.2900   -7.7070  -35.5990 C.ar      1 TRP        -0.0443
     99 CZ3        28.5100   -9.2950  -35.8770 C.ar      1 TRP        -0.0792
    100 CH2        29.8590   -8.9760  -35.8280 C.ar      1 TRP        -0.0768
    101 N          25.2180   -7.0000  -37.9240 N.am      1 TYR        -0.2620
    102 CA         25.6760   -7.9440  -38.9410 C.3       1 TYR         0.1390
    103 C          25.4460   -7.3710  -40.3540 C.2       1 TYR         0.2057
    104 O          26.3470   -7.4200  -41.2110 O.2       1 TYR        -0.3942
    105 CB         24.9800   -9.2750  -38.7690 C.3       1 TYR         0.0163
    106 CG         25.4210  -10.2810  -39.7930 C.ar      1 TYR        -0.0493
    107 CD1        26.7000  -10.8430  -39.7320 C.ar      1 TYR        -0.0685
    108 CD2        24.5830  -10.6540  -40.8470 C.ar      1 TYR        -0.0685
    109 CE1        27.1270  -11.7600  -40.6900 C.ar      1 TYR        -0.0398
    110 CE2        25.0010  -11.5750  -41.8030 C.ar      1 TYR        -0.0398
    111 CZ         26.2750  -12.1190  -41.7150 C.ar      1 TYR         0.0805
    112 OH         26.7010  -13.0340  -42.6470 O.3       1 TYR        -0.3376
    113 N          24.2670   -6.8040  -40.5710 N.am      1 ILE        -0.2633
    114 CA         23.9260   -6.2530  -41.9000 C.3       1 ILE         0.1335
    115 C          24.5910   -4.9250  -42.1940 C.2       1 ILE         0.2042
    116 O          24.6810   -4.5310  -43.3610 O.2       1 ILE        -0.3944
    117 CB         22.3950   -6.2010  -42.1240 C.3       1 ILE        -0.0037
    118 CG1        21.7090   -5.1940  -41.1900 C.3       1 ILE        -0.0491
    119 CG2        21.8240   -7.6140  -42.0240 C.3       1 ILE        -0.0582
    120 CD1        20.2070   -5.0790  -41.3920 C.3       1 ILE        -0.0648
    121 N          25.0240   -4.2090  -41.1580 N.am      1 LYS        -0.2637
    122 CA         25.7320   -2.9530  -41.3320 C.3       1 LYS         0.1310
    123 C          27.2530   -3.0830  -41.4670 C.2       1 LYS         0.2039
    124 O          27.9250   -2.0720  -41.6690 O.2       1 LYS        -0.3944
    125 CB         25.3860   -1.9740  -40.2060 C.3       1 LYS        -0.0122
    126 CG         24.0890   -1.2610  -40.5120 C.3       1 LYS        -0.0440
    127 CD         23.5940   -0.4530  -39.3410 C.3       1 LYS        -0.0124
    128 CE         22.7130    0.6790  -39.8370 C.3       1 LYS        -0.0354
    129 NZ         23.5250    1.7930  -40.4110 N.4       1 LYS         0.2185
    130 N          27.7900   -4.2920  -41.3340 N.am      1 LYS        -0.2637
    131 CA         29.2170   -4.5330  -41.5900 C.3       1 LYS         0.1309
    132 C          29.5290   -4.4340  -43.0780 C.2       1 LYS         0.2033
    133 O          28.6590   -4.7100  -43.9150 O.2       1 LYS        -0.3944
    134 CB         29.6080   -5.9380  -41.1630 C.3       1 LYS        -0.0122
    135 CG         29.7170   -6.1590  -39.6700 C.3       1 LYS        -0.0440
    136 CD         30.3590   -7.5040  -39.3790 C.3       1 LYS        -0.0124
    137 CE         29.5600   -8.6620  -39.9670 C.3       1 LYS        -0.0354
    138 NZ         30.3580   -9.9130  -39.9990 N.4       1 LYS         0.2185
    139 N          30.7720   -4.0730  -43.4070 N.am      1 LYS        -0.2695
    140 CA         31.2450   -4.1920  -44.7940 C.3       1 LYS         0.0944
    141 C          32.6850   -4.7180  -44.9120 C.2       1 LYS         0.0601
    142 O          32.9010   -5.8130  -45.4490 O.co2     1 LYS        -0.5666
    143 CB         31.0830   -2.8720  -45.5610 C.3       1 LYS        -0.0177
    144 CG         30.5620   -3.0650  -46.9840 C.3       1 LYS        -0.0446
    145 CD         31.2450   -4.2190  -47.7230 C.3       1 LYS        -0.0125
    146 CE         30.7920   -4.3260  -49.1660 C.3       1 LYS        -0.0354
    147 NZ         31.1040   -3.0830  -49.9150 N.4       1 LYS         0.2185
    148 OXT        33.6270   -4.0460  -44.4700 O.co2     1 LYS        -0.5666
    149 H1         12.0268  -13.0091  -30.5025 H         1 ASN         0.2017
    150 H2         13.1278  -12.2289  -31.4451 H         1 ASN         0.2017
    151 H3         11.7149  -11.4861  -31.0433 H         1 ASN         0.2017
    152 H4         12.3142  -11.4228  -28.7216 H         1 ASN         0.1125
    153 H5         14.9454  -12.5617  -29.7566 H         1 ASN         0.0585
    154 H6         13.7068  -13.4824  -28.8374 H         1 ASN         0.0585
    155 H7         16.3013  -12.4210  -26.4272 H         1 ASN         0.1814
    156 H8         16.2002  -13.4398  -27.8243 H         1 ASN         0.1814
    157 H9         12.2846   -9.2891  -28.7096 H         1 TRP         0.1886
    158 H10        13.5761   -7.4760  -30.3867 H         1 TRP         0.0815
    159 H11        12.9055   -7.2134  -27.4353 H         1 TRP         0.0397
    160 H12        11.8056   -6.9063  -28.8219 H         1 TRP         0.0397
    161 H13        12.0094   -4.5644  -30.0449 H         1 TRP         0.0795
    162 H14        13.0658   -2.3006  -29.3454 H         1 TRP         0.2216
    163 H15        14.9242   -6.2475  -26.1631 H         1 TRP         0.0540
    164 H16        14.7846   -1.3871  -27.3318 H         1 TRP         0.0541
    165 H17        16.2628   -4.5669  -24.8784 H         1 TRP         0.0510
    166 H18        16.2112   -2.1918  -25.4908 H         1 TRP         0.0530
    167 H19        14.9595   -9.1224  -27.5217 H         1 PHE         0.1885
    168 H20        17.2443   -7.4556  -27.4293 H         1 PHE         0.0823
    169 H21        18.2572   -9.3783  -26.0871 H         1 PHE         0.0474
    170 H22        16.7164  -10.2588  -26.3656 H         1 PHE         0.0474
    171 H23        14.7449   -9.6676  -25.1314 H         1 PHE         0.0557
    172 H24        18.2291   -7.2006  -24.8831 H         1 PHE         0.0557
    173 H25        13.7328   -8.4222  -23.2698 H         1 PHE         0.0599
    174 H26        17.2553   -6.0090  -22.9726 H         1 PHE         0.0599
    175 H27        14.9717   -6.5504  -22.2098 H         1 PHE         0.0559
    176 H28        16.4918   -9.7001  -29.8349 H         1 ASP         0.1884
    177 H29        19.3457  -10.1855  -30.4611 H         1 ASP         0.0819
    178 H30        18.3267  -11.5891  -32.3375 H         1 ASP         0.0478
    179 H31        16.7280  -11.2539  -31.5903 H         1 ASP         0.0478
    180 H32        16.9967   -7.8586  -31.2062 H         1 ILE         0.1883
    181 H33        17.2884   -7.6890  -34.0272 H         1 ILE         0.0803
    182 H34        16.5491   -5.6042  -31.9252 H         1 ILE         0.0345
    183 H35        15.1272   -7.6255  -32.3381 H         1 ILE         0.0267
    184 H36        14.9458   -7.0838  -34.0412 H         1 ILE         0.0267
    185 H37        17.5258   -4.4467  -33.8973 H         1 ILE         0.0235
    186 H38        15.7502   -4.1910  -33.8067 H         1 ILE         0.0235
    187 H39        16.4295   -5.3662  -34.9831 H         1 ILE         0.0235
    188 H40        12.9805   -6.5400  -32.7115 H         1 ILE         0.0230
    189 H41        13.8155   -5.0526  -33.2746 H         1 ILE         0.0230
    190 H42        13.9969   -5.5944  -31.5716 H         1 ILE         0.0230
    191 H43        19.2008   -6.0167  -31.4487 H         1 THR         0.1884
    192 H44        20.5360   -4.3870  -33.4031 H         1 THR         0.0826
    193 H45        22.1863   -3.8557  -31.5950 H         1 THR         0.0639
    194 H46        21.6629   -4.7565  -29.5203 H         1 THR         0.2101
    195 H47        20.5112   -2.7211  -30.1437 H         1 THR         0.0257
    196 H48        19.2160   -3.7631  -30.8245 H         1 THR         0.0257
    197 H49        20.0674   -2.5840  -31.8789 H         1 THR         0.0257
    198 H50        21.2314   -7.6213  -32.1861 H         1 ASN         0.1885
    199 H51        23.8979   -7.8044  -33.2522 H         1 ASN         0.0826
    200 H52        21.8226  -10.0027  -32.9361 H         1 ASN         0.0551
    201 H53        23.0097   -9.4686  -31.6983 H         1 ASN         0.0551
    202 H54        25.8157  -10.7788  -33.5584 H         1 ASN         0.1814
    203 H55        25.3272   -9.3391  -32.7284 H         1 ASN         0.1814
    204 H56        20.7328   -8.6244  -34.6837 H         1 TRP         0.1884
    205 H57        21.5276   -9.3317  -37.3115 H         1 TRP         0.0815
    206 H58        19.0751   -7.9321  -36.1857 H         1 TRP         0.0397
    207 H59        19.2663   -9.6547  -36.6578 H         1 TRP         0.0397
    208 H60        19.4419  -10.0610  -39.4548 H         1 TRP         0.0795
    209 H61        18.1092   -8.8988  -41.3526 H         1 TRP         0.2216
    210 H62        18.0307   -5.8557  -36.9066 H         1 TRP         0.0540
    211 H63        16.7064   -6.4804  -41.6802 H         1 TRP         0.0541
    212 H64        16.7136   -4.1496  -38.0906 H         1 TRP         0.0510
    213 H65        16.0172   -4.4828  -40.4343 H         1 TRP         0.0530
    214 H66        20.6988   -6.1420  -35.9478 H         1 LEU         0.1883
    215 H67        21.0606   -4.6277  -38.3184 H         1 LEU         0.0800
    216 H68        21.5489   -3.7962  -35.4235 H         1 LEU         0.0315
    217 H69        19.9428   -3.8609  -36.2254 H         1 LEU         0.0315
    218 H70        22.2319   -2.0089  -36.9515 H         1 LEU         0.0298
    219 H71        20.5310   -0.8913  -38.3706 H         1 LEU         0.0232
    220 H72        19.3342   -2.1611  -37.9440 H         1 LEU         0.0232
    221 H73        20.7960   -2.5883  -38.8964 H         1 LEU         0.0232
    222 H74        21.1682   -1.5498  -34.7442 H         1 LEU         0.0232
    223 H75        19.5508   -1.5606  -35.5255 H         1 LEU         0.0232
    224 H76        20.7447   -0.2873  -35.9497 H         1 LEU         0.0232
    225 H77        23.3342   -5.5112  -35.7072 H         1 TRP         0.1884
    226 H78        25.5536   -3.9807  -36.6173 H         1 TRP         0.0815
    227 H79        25.3274   -6.5756  -35.0263 H         1 TRP         0.0397
    228 H80        25.5500   -4.9080  -34.3968 H         1 TRP         0.0397
    229 H81        28.0161   -3.7870  -34.8616 H         1 TRP         0.0795
    230 H82        30.3525   -4.8860  -35.0754 H         1 TRP         0.2216
    231 H83        26.4797   -8.5626  -35.7329 H         1 TRP         0.0540
    232 H84        31.3470   -7.4695  -35.5623 H         1 TRP         0.0541
    233 H85        28.2094  -10.3207  -36.0575 H         1 TRP         0.0510
    234 H86        30.5911   -9.7615  -35.9766 H         1 TRP         0.0530
    235 H87        24.4411   -7.2558  -37.3487 H         1 TYR         0.1885
    236 H88        26.7564   -8.1010  -38.8066 H         1 TYR         0.0821
    237 H89        23.8949   -9.1228  -38.8661 H         1 TYR         0.0453
    238 H90        25.2071   -9.6668  -37.7666 H         1 TYR         0.0453
    239 H91        27.3693  -10.5609  -38.9273 H         1 TYR         0.0530
    240 H92        23.5926  -10.2196  -40.9212 H         1 TYR         0.0530
    241 H93        28.1210  -12.1884  -40.6309 H         1 TYR         0.0525
    242 H94        24.3373  -11.8651  -42.6095 H         1 TYR         0.0525
    243 H95        27.5886  -13.3034  -42.4419 H         1 TYR         0.2458
    244 H96        23.6009   -6.7485  -39.8272 H         1 ILE         0.1883
    245 H97        24.3251   -6.9641  -42.6382 H         1 ILE         0.0803
    246 H98        22.2208   -5.8497  -43.1517 H         1 ILE         0.0345
    247 H99        22.1568   -4.2040  -41.3616 H         1 ILE         0.0267
    248 H100       21.8944   -5.5053  -40.1514 H         1 ILE         0.0267
    249 H101       22.3617   -8.2767  -42.7180 H         1 ILE         0.0235
    250 H102       20.7559   -7.5973  -42.2864 H         1 ILE         0.0235
    251 H103       21.9432   -7.9857  -40.9956 H         1 ILE         0.0235
    252 H104       19.7977   -4.3406  -40.6868 H         1 ILE         0.0230
    253 H105       19.7369   -6.0572  -41.2125 H         1 ILE         0.0230
    254 H106       19.9993   -4.7559  -42.4228 H         1 ILE         0.0230
    255 H107       24.8565   -4.5466  -40.2317 H         1 LYS         0.1883
    256 H108       25.3678   -2.5161  -42.2735 H         1 LYS         0.0800
    257 H109       26.1932   -1.2331  -40.1083 H         1 LYS         0.0312
    258 H110       25.2812   -2.5288  -39.2620 H         1 LYS         0.0312
    259 H111       23.3265   -2.0094  -40.7736 H         1 LYS         0.0269
    260 H112       24.2486   -0.5861  -41.3659 H         1 LYS         0.0269
    261 H113       24.4531   -0.0356  -38.7954 H         1 LYS         0.0317
    262 H114       23.0126   -1.1013  -38.6689 H         1 LYS         0.0317
    263 H115       22.1202    1.0658  -38.9950 H         1 LYS         0.0813
    264 H116       22.0374    0.2920  -40.6140 H         1 LYS         0.0813
    265 H117       22.9113    2.5262  -40.7301 H         1 LYS         0.1994
    266 H118       24.0679    1.4479  -41.1870 H         1 LYS         0.1994
    267 H119       24.1438    2.1570  -39.7034 H         1 LYS         0.1994
    268 H120       27.2089   -5.0558  -41.0530 H         1 LYS         0.1883
    269 H121       29.8110   -3.7930  -41.0336 H         1 LYS         0.0800
    270 H122       30.5853   -6.1689  -41.6119 H         1 LYS         0.0312
    271 H123       28.8512   -6.6339  -41.5541 H         1 LYS         0.0312
    272 H124       28.7111   -6.1339  -39.2256 H         1 LYS         0.0269
    273 H125       30.3325   -5.3608  -39.2295 H         1 LYS         0.0269
    274 H126       30.4254   -7.6366  -38.2891 H         1 LYS         0.0317
    275 H127       31.3701   -7.5152  -39.8120 H         1 LYS         0.0317
    276 H128       29.2589   -8.4039  -40.9930 H         1 LYS         0.0813
    277 H129       28.6630   -8.8260  -39.3519 H         1 LYS         0.0813
    278 H130       29.8020  -10.6562  -40.3921 H         1 LYS         0.1994
    279 H131       30.6339  -10.1596  -39.0614 H         1 LYS         0.1994
    280 H132       31.1800   -9.7728  -40.5653 H         1 LYS         0.1994
    281 H133       31.3872   -3.7182  -42.7029 H         1 LYS         0.1875
    282 H134       30.5963   -4.9330  -45.2840 H         1 LYS         0.0726
    283 H135       32.0626   -2.3741  -45.6116 H         1 LYS         0.0305
    284 H136       30.3749   -2.2333  -45.0127 H         1 LYS         0.0305
    285 H137       30.7345   -2.1370  -47.5488 H         1 LYS         0.0269
    286 H138       29.4823   -3.2701  -46.9366 H         1 LYS         0.0269
    287 H139       31.0063   -5.1604  -47.2066 H         1 LYS         0.0317
    288 H140       32.3327   -4.0563  -47.7048 H         1 LYS         0.0317
    289 H141       29.7057   -4.4975  -49.1903 H         1 LYS         0.0813
    290 H142       31.3076   -5.1724  -49.6431 H         1 LYS         0.0813
    291 H143       30.7938   -3.1789  -50.8693 H         1 LYS         0.1994
    292 H144       32.0990   -2.9222  -49.8997 H         1 LYS         0.1994
    293 H145       30.6311   -2.3037  -49.4847 H         1 LYS         0.1994
@<TRIPOS>BOND
     1    1    2 1  
     2    2    3 1  
     3    2    5 1  
     4    3    4 2  
     5    3    9 am 
     6    5    6 1  
     7    6    7 2  
     8    6    8 am 
     9    9   10 1  
    10   10   11 1  
    11   10   13 1  
    12   11   12 2  
    13   11   23 am 
    14   13   14 1  
    15   14   15 2  
    16   14   16 1  
    17   15   17 1  
    18   16   18 ar 
    19   16   19 ar 
    20   17   18 1  
    21   18   20 ar 
    22   19   21 ar 
    23   20   22 ar 
    24   21   22 ar 
    25   23   24 1  
    26   24   25 1  
    27   24   27 1  
    28   25   26 2  
    29   25   34 am 
    30   27   28 1  
    31   28   29 ar 
    32   28   30 ar 
    33   29   31 ar 
    34   30   32 ar 
    35   31   33 ar 
    36   32   33 ar 
    37   34   35 1  
    38   35   36 1  
    39   35   38 1  
    40   36   37 2  
    41   36   42 am 
    42   38   39 1  
    43   39   40 ar 
    44   39   41 ar 
    45   42   43 1  
    46   43   44 1  
    47   43   46 1  
    48   44   45 2  
    49   44   50 am 
    50   46   47 1  
    51   46   48 1  
    52   47   49 1  
    53   50   51 1  
    54   51   52 1  
    55   51   54 1  
    56   52   53 2  
    57   52   57 am 
    58   54   55 1  
    59   54   56 1  
    60   57   58 1  
    61   58   59 1  
    62   58   61 1  
    63   59   60 2  
    64   59   65 am 
    65   61   62 1  
    66   62   63 2  
    67   62   64 am 
    68   65   66 1  
    69   66   67 1  
    70   66   69 1  
    71   67   68 2  
    72   67   79 am 
    73   69   70 1  
    74   70   71 2  
    75   70   72 1  
    76   71   73 1  
    77   72   74 ar 
    78   72   75 ar 
    79   73   74 1  
    80   74   76 ar 
    81   75   77 ar 
    82   76   78 ar 
    83   77   78 ar 
    84   79   80 1  
    85   80   81 1  
    86   80   83 1  
    87   81   82 2  
    88   81   87 am 
    89   83   84 1  
    90   84   85 1  
    91   84   86 1  
    92   87   88 1  
    93   88   89 1  
    94   88   91 1  
    95   89   90 2  
    96   89  101 am 
    97   91   92 1  
    98   92   93 2  
    99   92   94 1  
   100   93   95 1  
   101   94   96 ar 
   102   94   97 ar 
   103   95   96 1  
   104   96   98 ar 
   105   97   99 ar 
   106   98  100 ar 
   107   99  100 ar 
   108  101  102 1  
   109  102  103 1  
   110  102  105 1  
   111  103  104 2  
   112  103  113 am 
   113  105  106 1  
   114  106  107 ar 
   115  106  108 ar 
   116  107  109 ar 
   117  108  110 ar 
   118  109  111 ar 
   119  110  111 ar 
   120  111  112 1  
   121  113  114 1  
   122  114  115 1  
   123  114  117 1  
   124  115  116 2  
   125  115  121 am 
   126  117  118 1  
   127  117  119 1  
   128  118  120 1  
   129  121  122 1  
   130  122  123 1  
   131  122  125 1  
   132  123  124 2  
   133  123  130 am 
   134  125  126 1  
   135  126  127 1  
   136  127  128 1  
   137  128  129 1  
   138  130  131 1  
   139  131  132 1  
   140  131  134 1  
   141  132  133 2  
   142  132  139 am 
   143  134  135 1  
   144  135  136 1  
   145  136  137 1  
   146  137  138 1  
   147  139  140 1  
   148  140  141 1  
   149  140  143 1  
   150  141  142 ar 
   151  141  148 ar 
   152  143  144 1  
   153  144  145 1  
   154  145  146 1  
   155  146  147 1  
   156    1  149 1  
   157    1  150 1  
   158    1  151 1  
   159    2  152 1  
   160    5  153 1  
   161    5  154 1  
   162    8  155 1  
   163    8  156 1  
   164    9  157 1  
   165   10  158 1  
   166   13  159 1  
   167   13  160 1  
   168   15  161 1  
   169   17  162 1  
   170   19  163 1  
   171   20  164 1  
   172   21  165 1  
   173   22  166 1  
   174   23  167 1  
   175   24  168 1  
   176   27  169 1  
   177   27  170 1  
   178   29  171 1  
   179   30  172 1  
   180   31  173 1  
   181   32  174 1  
   182   33  175 1  
   183   34  176 1  
   184   35  177 1  
   185   38  178 1  
   186   38  179 1  
   187   42  180 1  
   188   43  181 1  
   189   46  182 1  
   190   47  183 1  
   191   47  184 1  
   192   48  185 1  
   193   48  186 1  
   194   48  187 1  
   195   49  188 1  
   196   49  189 1  
   197   49  190 1  
   198   50  191 1  
   199   51  192 1  
   200   54  193 1  
   201   55  194 1  
   202   56  195 1  
   203   56  196 1  
   204   56  197 1  
   205   57  198 1  
   206   58  199 1  
   207   61  200 1  
   208   61  201 1  
   209   64  202 1  
   210   64  203 1  
   211   65  204 1  
   212   66  205 1  
   213   69  206 1  
   214   69  207 1  
   215   71  208 1  
   216   73  209 1  
   217   75  210 1  
   218   76  211 1  
   219   77  212 1  
   220   78  213 1  
   221   79  214 1  
   222   80  215 1  
   223   83  216 1  
   224   83  217 1  
   225   84  218 1  
   226   85  219 1  
   227   85  220 1  
   228   85  221 1  
   229   86  222 1  
   230   86  223 1  
   231   86  224 1  
   232   87  225 1  
   233   88  226 1  
   234   91  227 1  
   235   91  228 1  
   236   93  229 1  
   237   95  230 1  
   238   97  231 1  
   239   98  232 1  
   240   99  233 1  
   241  100  234 1  
   242  101  235 1  
   243  102  236 1  
   244  105  237 1  
   245  105  238 1  
   246  107  239 1  
   247  108  240 1  
   248  109  241 1  
   249  110  242 1  
   250  112  243 1  
   251  113  244 1  
   252  114  245 1  
   253  117  246 1  
   254  118  247 1  
   255  118  248 1  
   256  119  249 1  
   257  119  250 1  
   258  119  251 1  
   259  120  252 1  
   260  120  253 1  
   261  120  254 1  
   262  121  255 1  
   263  122  256 1  
   264  125  257 1  
   265  125  258 1  
   266  126  259 1  
   267  126  260 1  
   268  127  261 1  
   269  127  262 1  
   270  128  263 1  
   271  128  264 1  
   272  129  265 1  
   273  129  266 1  
   274  129  267 1  
   275  130  268 1  
   276  131  269 1  
   277  134  270 1  
   278  134  271 1  
   279  135  272 1  
   280  135  273 1  
   281  136  274 1  
   282  136  275 1  
   283  137  276 1  
   284  137  277 1  
   285  138  278 1  
   286  138  279 1  
   287  138  280 1  
   288  139  281 1  
   289  140  282 1  
   290  143  283 1  
   291  143  284 1  
   292  144  285 1  
   293  144  286 1  
   294  145  287 1  
   295  145  288 1  
   296  146  289 1  
   297  146  290 1  
   298  147  291 1  
   299  147  292 1  
   300  147  293 1  
@<TRIPOS>SUBSTRUCTURE
     1 ASN         1

