5cin_ligand
  -I-interpret- 

292299  0  0  0  0  0  0  0  0999 V2000
   12.4350  -12.1140  -30.7220 N   0  3  0  0  0
   13.0790  -11.5490  -29.5020 C   0  0  0  0  0
   13.6980  -10.2060  -29.8080 C   0  0  0  0  0
   14.6510  -10.1290  -30.5730 O   0  0  0  0  0
   14.1540  -12.4900  -28.9960 C   0  0  0  0  0
   14.7790  -12.0200  -27.6830 C   0  0  0  0  0
   14.3180  -11.0590  -27.0670 O   0  0  0  0  0
   15.8460  -12.6800  -27.2790 N   0  0  0  0  0
   13.1250   -9.1520  -29.2340 N   0  0  0  0  0
   13.6760   -7.7960  -29.3390 C   0  0  0  0  0
   15.1440   -7.7160  -28.9830 C   0  0  0  0  0
   15.8570   -6.9380  -29.5630 O   0  0  0  0  0
   12.8460   -6.8450  -28.4700 C   0  0  0  0  0
   13.2230   -5.3910  -28.4470 C   0  0  0  0  0
   12.7270   -4.4120  -29.2400 C   0  0  0  0  0
   14.1050   -4.7420  -27.5030 C   0  0  0  0  0
   13.2610   -3.1990  -28.8810 N   0  0  0  0  0
   14.0980   -3.3730  -27.8030 C   0  0  0  0  0
   14.8950   -5.1970  -26.4290 C   0  0  0  0  0
   14.8280   -2.4420  -27.0860 C   0  0  0  0  0
   15.6470   -4.2440  -25.7100 C   0  0  0  0  0
   15.6100   -2.8980  -26.0520 C   0  0  0  0  0
   15.5970   -8.5160  -27.9970 N   0  0  0  0  0
   16.9900   -8.5090  -27.6180 C   0  0  0  0  0
   17.9820   -8.9880  -28.6650 C   0  0  0  0  0
   19.1820   -8.7810  -28.4910 O   0  0  0  0  0
   17.1800   -9.2650  -26.2790 C   0  0  0  0  0
   16.5590   -8.5440  -25.1230 C   0  0  0  0  0
   15.2960   -8.8590  -24.6650 C   0  0  0  0  0
   17.2490   -7.4830  -24.5160 C   0  0  0  0  0
   14.7240   -8.1590  -23.6210 C   0  0  0  0  0
   16.6940   -6.7980  -23.4600 C   0  0  0  0  0
   15.4230   -7.1130  -23.0190 C   0  0  0  0  0
   17.4810   -9.5720  -29.7640 N   0  0  0  0  0
   18.3340  -10.0280  -30.8630 C   0  0  0  0  0
   18.4360   -9.0410  -32.0050 C   0  0  0  0  0
   19.2730   -9.2150  -32.9170 O   0  0  0  0  0
   17.8060  -11.3560  -31.3970 C   0  0  0  0  0
   18.0210  -12.5170  -30.4160 C   0  0  0  0  0
   18.9700  -12.4360  -29.6070 O   0  0  0  0  0
   17.2770  -13.5130  -30.4870 O   0  0  0  0  0
   17.5940   -8.0090  -31.9940 N   0  0  0  0  0
   17.5440   -7.0940  -33.1380 C   0  0  0  0  0
   18.8790   -6.3950  -33.4200 C   0  0  0  0  0
   19.3020   -6.2510  -34.5900 O   0  0  0  0  0
   16.4360   -6.0510  -32.9240 C   0  0  0  0  0
   15.0900   -6.7500  -33.0030 C   0  0  0  0  0
   16.5430   -4.9340  -33.9780 C   0  0  0  0  0
   13.8900   -5.9290  -32.6140 C   0  0  0  0  0
   19.5400   -5.8840  -32.3800 N   0  0  0  0  0
   20.7710   -5.1250  -32.6220 C   0  0  0  0  0
   21.9260   -5.9910  -33.1550 C   0  0  0  0  0
   22.8120   -5.4730  -33.8540 O   0  0  0  0  0
   21.2240   -4.3450  -31.3840 C   0  0  0  0  0
   21.3820   -5.2420  -30.2870 O   0  0  0  0  0
   20.1810   -3.2780  -31.0330 C   0  0  0  0  0
   21.9110   -7.2790  -32.8350 N   0  0  0  0  0
   22.8920   -8.2120  -33.4310 C   0  0  0  0  0
   22.6840   -8.3070  -34.9490 C   0  0  0  0  0
   23.6250   -8.1610  -35.7060 O   0  0  0  0  0
   22.8260   -9.5810  -32.7770 C   0  0  0  0  0
   23.8460  -10.5270  -33.3470 C   0  0  0  0  0
   23.4990  -11.5110  -33.9790 O   0  0  0  0  0
   25.0920  -10.1890  -33.2000 N   0  0  0  0  0
   21.4470   -8.4820  -35.3690 N   0  0  0  0  0
   21.0510   -8.4800  -36.8040 C   0  0  0  0  0
   21.5170   -7.1790  -37.4660 C   0  0  0  0  0
   22.1190   -7.1540  -38.5540 O   0  0  0  0  0
   19.5260   -8.6180  -36.9180 C   0  0  0  0  0
   18.9030   -8.3150  -38.2760 C   0  0  0  0  0
   18.9360   -9.0990  -39.3870 C   0  0  0  0  0
   18.1420   -7.1540  -38.6320 C   0  0  0  0  0
   18.2410   -8.5050  -40.4100 N   0  0  0  0  0
   17.7520   -7.3050  -39.9740 C   0  0  0  0  0
   17.7520   -6.0010  -37.9440 C   0  0  0  0  0
   16.9920   -6.3470  -40.6430 C   0  0  0  0  0
   17.0080   -5.0550  -38.6090 C   0  0  0  0  0
   16.6220   -5.2390  -39.9470 C   0  0  0  0  0
   21.1920   -6.0730  -36.8150 N   0  0  0  0  0
   21.5380   -4.7580  -37.3360 C   0  0  0  0  0
   23.0550   -4.6240  -37.5040 C   0  0  0  0  0
   23.5570   -4.0890  -38.5170 O   0  0  0  0  0
   21.0160   -3.6740  -36.3780 C   0  0  0  0  0
   21.1660   -2.2310  -36.7950 C   0  0  0  0  0
   20.4030   -1.9480  -38.0930 C   0  0  0  0  0
   20.6190   -1.3450  -35.6750 C   0  0  0  0  0
   23.7910   -5.1000  -36.4960 N   0  0  0  0  0
   25.2440   -5.0320  -36.5230 C   0  0  0  0  0
   25.7870   -5.8220  -37.7320 C   0  0  0  0  0
   26.6920   -5.3570  -38.4620 O   0  0  0  0  0
   25.8020   -5.6010  -35.2130 C   0  0  0  0  0
   27.2760   -5.7910  -35.2310 C   0  0  0  0  0
   28.2180   -4.8390  -35.0580 C   0  0  0  0  0
   27.9520   -7.0040  -35.4700 C   0  0  0  0  0
   29.4600   -5.3920  -35.1660 N   0  0  0  0  0
   29.3240   -6.7270  -35.4140 C   0  0  0  0  0
   27.5340   -8.3130  -35.6970 C   0  0  0  0  0
   30.2900   -7.7070  -35.5990 C   0  0  0  0  0
   28.5100   -9.2950  -35.8770 C   0  0  0  0  0
   29.8590   -8.9760  -35.8280 C   0  0  0  0  0
   25.2180   -7.0000  -37.9240 N   0  0  0  0  0
   25.6760   -7.9440  -38.9410 C   0  0  0  0  0
   25.4460   -7.3710  -40.3540 C   0  0  0  0  0
   26.3470   -7.4200  -41.2110 O   0  0  0  0  0
   24.9800   -9.2750  -38.7690 C   0  0  0  0  0
   25.4210  -10.2810  -39.7930 C   0  0  0  0  0
   26.7000  -10.8430  -39.7320 C   0  0  0  0  0
   24.5830  -10.6540  -40.8470 C   0  0  0  0  0
   27.1270  -11.7600  -40.6900 C   0  0  0  0  0
   25.0010  -11.5750  -41.8030 C   0  0  0  0  0
   26.2750  -12.1190  -41.7150 C   0  0  0  0  0
   26.7010  -13.0340  -42.6470 O   0  0  0  0  0
   24.2670   -6.8040  -40.5710 N   0  0  0  0  0
   23.9260   -6.2530  -41.9000 C   0  0  0  0  0
   24.5910   -4.9250  -42.1940 C   0  0  0  0  0
   24.6810   -4.5310  -43.3610 O   0  0  0  0  0
   22.3950   -6.2010  -42.1240 C   0  0  0  0  0
   21.7090   -5.1940  -41.1900 C   0  0  0  0  0
   21.8240   -7.6140  -42.0240 C   0  0  0  0  0
   20.2070   -5.0790  -41.3920 C   0  0  0  0  0
   25.0240   -4.2090  -41.1580 N   0  0  0  0  0
   25.7320   -2.9530  -41.3320 C   0  0  0  0  0
   27.2530   -3.0830  -41.4670 C   0  0  0  0  0
   27.9250   -2.0720  -41.6690 O   0  0  0  0  0
   25.3860   -1.9740  -40.2060 C   0  0  0  0  0
   24.0890   -1.2610  -40.5120 C   0  0  0  0  0
   23.5940   -0.4530  -39.3410 C   0  0  0  0  0
   22.7130    0.6790  -39.8370 C   0  0  0  0  0
   23.5250    1.7930  -40.4110 N   0  3  0  0  0
   27.7900   -4.2920  -41.3340 N   0  0  0  0  0
   29.2170   -4.5330  -41.5900 C   0  0  0  0  0
   29.5290   -4.4340  -43.0780 C   0  0  0  0  0
   28.6590   -4.7100  -43.9150 O   0  0  0  0  0
   29.6080   -5.9380  -41.1630 C   0  0  0  0  0
   29.7170   -6.1590  -39.6700 C   0  0  0  0  0
   30.3590   -7.5040  -39.3790 C   0  0  0  0  0
   29.5600   -8.6620  -39.9670 C   0  0  0  0  0
   30.3580   -9.9130  -39.9990 N   0  3  0  0  0
   30.7720   -4.0730  -43.4070 N   0  0  0  0  0
   31.2450   -4.1920  -44.7940 C   0  0  0  0  0
   32.6850   -4.7180  -44.9120 C   0  0  0  0  0
   32.9010   -5.8130  -45.4490 O   0  0  0  0  0
   31.0830   -2.8720  -45.5610 C   0  0  0  0  0
   30.5620   -3.0650  -46.9840 C   0  0  0  0  0
   31.2450   -4.2190  -47.7230 C   0  0  0  0  0
   30.7920   -4.3260  -49.1660 C   0  0  0  0  0
   31.1040   -3.0830  -49.9150 N   0  3  0  0  0
   33.6270   -4.0460  -44.4700 O   0  0  0  0  0
   11.7142  -11.4725  -31.0526 H   0  0  0  0  0
   13.1390  -12.2402  -31.4492 H   0  0  0  0  0
   12.0126  -13.0145  -30.4960 H   0  0  0  0  0
   12.3132  -11.4258  -28.7362 H   0  0  0  0  0
   14.9433  -12.5309  -29.7466 H   0  0  0  0  0
   13.6920  -13.4611  -28.8180 H   0  0  0  0  0
   16.3252  -12.3999  -26.4232 H   0  0  0  0  0
   16.1925  -13.4708  -27.8221 H   0  0  0  0  0
   12.2678   -9.2918  -28.6991 H   0  0  0  0  0
   13.6121   -7.4961  -30.3850 H   0  0  0  0  0
   12.9869   -7.1942  -27.4471 H   0  0  0  0  0
   11.8412   -6.8743  -28.8915 H   0  0  0  0  0
   12.0088   -4.5645  -30.0456 H   0  0  0  0  0
   14.9244   -6.2533  -26.1616 H   0  0  0  0  0
   14.7844   -1.3813  -27.3331 H   0  0  0  0  0
   16.2662   -4.5686  -24.8738 H   0  0  0  0  0
   16.2146   -2.1879  -25.4877 H   0  0  0  0  0
   14.9468   -9.1346  -27.5122 H   0  0  0  0  0
   17.2376   -7.4536  -27.5041 H   0  0  0  0  0
   18.2499   -9.3493  -26.0883 H   0  0  0  0  0
   16.6959  -10.2374  -26.3692 H   0  0  0  0  0
   14.7418   -9.6720  -25.1340 H   0  0  0  0  0
   18.2345   -7.1990  -24.8851 H   0  0  0  0  0
   13.7273   -8.4237  -23.2679 H   0  0  0  0  0
   17.2584   -6.0047  -22.9699 H   0  0  0  0  0
   14.9692   -6.5472  -22.2053 H   0  0  0  0  0
   16.4720   -9.7027  -29.8363 H   0  0  0  0  0
   19.3370  -10.1368  -30.4505 H   0  0  0  0  0
   18.3487  -11.5876  -32.3135 H   0  0  0  0  0
   16.7334  -11.2489  -31.5586 H   0  0  0  0  0
   19.4121  -11.5911  -29.7177 H   0  0  0  0  0
   16.9847   -7.8556  -31.1905 H   0  0  0  0  0
   17.3248   -7.7026  -34.0153 H   0  0  0  0  0
   16.5432   -5.5880  -31.9431 H   0  0  0  0  0
   15.1350   -7.5773  -32.2947 H   0  0  0  0  0
   14.9480   -7.0190  -34.0497 H   0  0  0  0  0
   17.5137   -4.4459  -33.8910 H   0  0  0  0  0
   16.4395   -5.3648  -34.9739 H   0  0  0  0  0
   15.7513   -4.2033  -33.8128 H   0  0  0  0  0
   13.9972   -5.5981  -31.5810 H   0  0  0  0  0
   13.8173   -5.0610  -33.2693 H   0  0  0  0  0
   12.9895   -6.5355  -32.7110 H   0  0  0  0  0
   19.1940   -6.0193  -31.4301 H   0  0  0  0  0
   20.5128   -4.4118  -33.4048 H   0  0  0  0  0
   22.1765   -3.8582  -31.5933 H   0  0  0  0  0
   21.6659   -4.7513  -29.5122 H   0  0  0  0  0
   20.0693   -2.5911  -31.8719 H   0  0  0  0  0
   19.2253   -3.7599  -30.8267 H   0  0  0  0  0
   20.5093   -2.7269  -30.1517 H   0  0  0  0  0
   21.2178   -7.6281  -32.1731 H   0  0  0  0  0
   23.8912   -7.8174  -33.2468 H   0  0  0  0  0
   21.8354   -9.9980  -32.9583 H   0  0  0  0  0
   23.0297   -9.4607  -31.7130 H   0  0  0  0  0
   25.8274  -10.7558  -33.6222 H   0  0  0  0  0
   25.3347   -9.3569  -32.6624 H   0  0  0  0  0
   20.7185   -8.6273  -34.6700 H   0  0  0  0  0
   21.5210   -9.3219  -37.3124 H   0  0  0  0  0
   19.1085   -7.8840  -36.2287 H   0  0  0  0  0
   19.3063   -9.6666  -36.7172 H   0  0  0  0  0
   19.4424  -10.0618  -39.4549 H   0  0  0  0  0
   18.0323   -5.8549  -36.9008 H   0  0  0  0  0
   16.7048   -6.4811  -41.6859 H   0  0  0  0  0
   16.7120   -4.1446  -38.0878 H   0  0  0  0  0
   16.0139   -4.4786  -40.4370 H   0  0  0  0  0
   20.6890   -6.1434  -35.9305 H   0  0  0  0  0
   21.0740   -4.6336  -38.3144 H   0  0  0  0  0
   21.6118   -3.7772  -35.4711 H   0  0  0  0  0
   19.9419   -3.8445  -36.3048 H   0  0  0  0  0
   22.2203   -2.0192  -36.9731 H   0  0  0  0  0
   20.7933   -2.5831  -38.8882 H   0  0  0  0  0
   19.3442   -2.1596  -37.9440 H   0  0  0  0  0
   20.5305   -0.9007  -38.3670 H   0  0  0  0  0
   19.5672   -1.5784  -35.5097 H   0  0  0  0  0
   21.1816   -1.5296  -34.7599 H   0  0  0  0  0
   20.7196   -0.2977  -35.9600 H   0  0  0  0  0
   23.3251   -5.5195  -35.6914 H   0  0  0  0  0
   25.5599   -3.9936  -36.6227 H   0  0  0  0  0
   25.3469   -6.5796  -35.0601 H   0  0  0  0  0
   25.5728   -4.8876  -34.4214 H   0  0  0  0  0
   28.0159   -3.7861  -34.8614 H   0  0  0  0  0
   26.4739   -8.5639  -35.7331 H   0  0  0  0  0
   31.3529   -7.4682  -35.5621 H   0  0  0  0  0
   28.2078  -10.3264  -36.0585 H   0  0  0  0  0
   30.5951   -9.7658  -35.9775 H   0  0  0  0  0
   24.4256   -7.2609  -37.3372 H   0  0  0  0  0
   26.7472   -8.1033  -38.8173 H   0  0  0  0  0
   23.9084   -9.1158  -38.8890 H   0  0  0  0  0
   25.2297   -9.6636  -37.7817 H   0  0  0  0  0
   27.3730  -10.5594  -38.9228 H   0  0  0  0  0
   23.5871  -10.2172  -40.9216 H   0  0  0  0  0
   28.1265  -12.1908  -40.6306 H   0  0  0  0  0
   24.3336  -11.8667  -42.6140 H   0  0  0  0  0
   26.0046  -13.1808  -43.2913 H   0  0  0  0  0
   23.5876   -6.7474  -39.8123 H   0  0  0  0  0
   24.3402   -6.9516  -42.6270 H   0  0  0  0  0
   22.1887   -5.8296  -43.1278 H   0  0  0  0  0
   22.1378   -4.2147  -41.4027 H   0  0  0  0  0
   21.8704   -5.5408  -40.1693 H   0  0  0  0  0
   22.2841   -8.2451  -42.7843 H   0  0  0  0  0
   22.0359   -8.0210  -41.0353 H   0  0  0  0  0
   20.7459   -7.5808  -42.1813 H   0  0  0  0  0
   20.0025   -4.7589  -42.4137 H   0  0  0  0  0
   19.7424   -6.0488  -41.2139 H   0  0  0  0  0
   19.8026   -4.3471  -40.6928 H   0  0  0  0  0
   24.8531   -4.5533  -40.2132 H   0  0  0  0  0
   25.3836   -2.5654  -42.2893 H   0  0  0  0  0
   26.1846   -1.2376  -40.1164 H   0  0  0  0  0
   25.2765   -2.5279  -39.2736 H   0  0  0  0  0
   23.3360   -2.0130  -40.7477 H   0  0  0  0  0
   24.2648   -0.5795  -41.3443 H   0  0  0  0  0
   24.4459   -0.0385  -38.8019 H   0  0  0  0  0
   23.0167   -1.0958  -38.6765 H   0  0  0  0  0
   22.1418    1.0670  -38.9936 H   0  0  0  0  0
   22.0588    0.2908  -40.6176 H   0  0  0  0  0
   22.9030    2.5343  -40.7335 H   0  0  0  0  0
   24.1507    2.1604  -39.6942 H   0  0  0  0  0
   24.0739    1.4425  -41.1960 H   0  0  0  0  0
   27.1973   -5.0711  -41.0474 H   0  0  0  0  0
   29.7676   -3.7803  -41.0258 H   0  0  0  0  0
   30.5990   -6.1236  -41.5772 H   0  0  0  0  0
   28.8190   -6.6010  -41.5179 H   0  0  0  0  0
   28.7178   -6.1411  -39.2348 H   0  0  0  0  0
   30.3339   -5.3706  -39.2387 H   0  0  0  0  0
   30.3993   -7.6340  -38.2975 H   0  0  0  0  0
   31.3507   -7.5117  -39.8313 H   0  0  0  0  0
   29.2803   -8.4048  -40.9886 H   0  0  0  0  0
   28.6825   -8.8283  -39.3422 H   0  0  0  0  0
   29.7944  -10.6643  -40.3969 H   0  0  0  0  0
   31.1895   -9.7699  -40.5722 H   0  0  0  0  0
   30.6366  -10.1615  -39.0498 H   0  0  0  0  0
   31.3995   -3.7111  -42.6889 H   0  0  0  0  0
   30.6050   -4.9442  -45.2552 H   0  0  0  0  0
   32.0660   -2.4059  -45.6288 H   0  0  0  0  0
   30.3568   -2.2632  -45.0224 H   0  0  0  0  0
   30.7671   -2.1493  -47.5386 H   0  0  0  0  0
   29.4990   -3.2969  -46.9187 H   0  0  0  0  0
   30.9826   -5.1477  -47.2163 H   0  0  0  0  0
   32.3193   -4.0349  -47.7184 H   0  0  0  0  0
   29.7135   -4.4833  -49.1832 H   0  0  0  0  0
   31.3157   -5.1584  -49.6361 H   0  0  0  0  0
   30.7897   -3.1812  -50.8804 H   0  0  0  0  0
   30.6249   -2.2953  -49.4787 H   0  0  0  0  0
   32.1110   -2.9214  -49.8988 H   0  0  0  0  0
   33.2876   -3.2325  -44.0898 H   0  0  0  0  0
  1  2  1  0  0  0
  2  3  1  0  0  0
  2  5  1  0  0  0
  3  4  2  0  0  0
  3  9  1  0  0  0
  5  6  1  0  0  0
  6  7  2  0  0  0
  6  8  1  0  0  0
  9 10  1  0  0  0
 10 11  1  0  0  0
 10 13  1  0  0  0
 11 12  2  0  0  0
 11 23  1  0  0  0
 13 14  1  0  0  0
 14 15  4  0  0  0
 14 16  4  0  0  0
 15 17  4  0  0  0
 16 18  4  0  0  0
 16 19  4  0  0  0
 17 18  4  0  0  0
 18 20  4  0  0  0
 19 21  4  0  0  0
 20 22  4  0  0  0
 21 22  4  0  0  0
 23 24  1  0  0  0
 24 25  1  0  0  0
 24 27  1  0  0  0
 25 26  2  0  0  0
 25 34  1  0  0  0
 27 28  1  0  0  0
 28 29  4  0  0  0
 28 30  4  0  0  0
 29 31  4  0  0  0
 30 32  4  0  0  0
 31 33  4  0  0  0
 32 33  4  0  0  0
 34 35  1  0  0  0
 35 36  1  0  0  0
 35 38  1  0  0  0
 36 37  2  0  0  0
 36 42  1  0  0  0
 38 39  1  0  0  0
 39 40  1  0  0  0
 39 41  2  0  0  0
 42 43  1  0  0  0
 43 44  1  0  0  0
 43 46  1  0  0  0
 44 45  2  0  0  0
 44 50  1  0  0  0
 46 47  1  0  0  0
 46 48  1  0  0  0
 47 49  1  0  0  0
 50 51  1  0  0  0
 51 52  1  0  0  0
 51 54  1  0  0  0
 52 53  2  0  0  0
 52 57  1  0  0  0
 54 55  1  0  0  0
 54 56  1  0  0  0
 57 58  1  0  0  0
 58 59  1  0  0  0
 58 61  1  0  0  0
 59 60  2  0  0  0
 59 65  1  0  0  0
 61 62  1  0  0  0
 62 63  2  0  0  0
 62 64  1  0  0  0
 65 66  1  0  0  0
 66 67  1  0  0  0
 66 69  1  0  0  0
 67 68  2  0  0  0
 67 79  1  0  0  0
 69 70  1  0  0  0
 70 71  4  0  0  0
 70 72  4  0  0  0
 71 73  4  0  0  0
 72 74  4  0  0  0
 72 75  4  0  0  0
 73 74  4  0  0  0
 74 76  4  0  0  0
 75 77  4  0  0  0
 76 78  4  0  0  0
 77 78  4  0  0  0
 79 80  1  0  0  0
 80 81  1  0  0  0
 80 83  1  0  0  0
 81 82  2  0  0  0
 81 87  1  0  0  0
 83 84  1  0  0  0
 84 85  1  0  0  0
 84 86  1  0  0  0
 87 88  1  0  0  0
 88 89  1  0  0  0
 88 91  1  0  0  0
 89 90  2  0  0  0
 89101  1  0  0  0
 91 92  1  0  0  0
 92 93  4  0  0  0
 92 94  4  0  0  0
 93 95  4  0  0  0
 94 96  4  0  0  0
 94 97  4  0  0  0
 95 96  4  0  0  0
 96 98  4  0  0  0
 97 99  4  0  0  0
 98100  4  0  0  0
 99100  4  0  0  0
101102  1  0  0  0
102103  1  0  0  0
102105  1  0  0  0
103104  2  0  0  0
103113  1  0  0  0
105106  1  0  0  0
106107  4  0  0  0
106108  4  0  0  0
107109  4  0  0  0
108110  4  0  0  0
109111  4  0  0  0
110111  4  0  0  0
111112  1  0  0  0
113114  1  0  0  0
114115  1  0  0  0
114117  1  0  0  0
115116  2  0  0  0
115121  1  0  0  0
117118  1  0  0  0
117119  1  0  0  0
118120  1  0  0  0
121122  1  0  0  0
122123  1  0  0  0
122125  1  0  0  0
123124  2  0  0  0
123130  1  0  0  0
125126  1  0  0  0
126127  1  0  0  0
127128  1  0  0  0
128129  1  0  0  0
130131  1  0  0  0
131132  1  0  0  0
131134  1  0  0  0
132133  2  0  0  0
132139  1  0  0  0
134135  1  0  0  0
135136  1  0  0  0
136137  1  0  0  0
137138  1  0  0  0
139140  1  0  0  0
140141  1  0  0  0
140143  1  0  0  0
141142  2  0  0  0
141148  1  0  0  0
143144  1  0  0  0
144145  1  0  0  0
145146  1  0  0  0
146147  1  0  0  0
  1149  1  0  0  0
  1150  1  0  0  0
  1151  1  0  0  0
  2152  1  0  0  0
  5153  1  0  0  0
  5154  1  0  0  0
  8155  1  0  0  0
  8156  1  0  0  0
  9157  1  0  0  0
 10158  1  0  0  0
 13159  1  0  0  0
 13160  1  0  0  0
 15161  1  0  0  0
 19162  1  0  0  0
 20163  1  0  0  0
 21164  1  0  0  0
 22165  1  0  0  0
 23166  1  0  0  0
 24167  1  0  0  0
 27168  1  0  0  0
 27169  1  0  0  0
 29170  1  0  0  0
 30171  1  0  0  0
 31172  1  0  0  0
 32173  1  0  0  0
 33174  1  0  0  0
 34175  1  0  0  0
 35176  1  0  0  0
 38177  1  0  0  0
 38178  1  0  0  0
 40179  1  0  0  0
 42180  1  0  0  0
 43181  1  0  0  0
 46182  1  0  0  0
 47183  1  0  0  0
 47184  1  0  0  0
 48185  1  0  0  0
 48186  1  0  0  0
 48187  1  0  0  0
 49188  1  0  0  0
 49189  1  0  0  0
 49190  1  0  0  0
 50191  1  0  0  0
 51192  1  0  0  0
 54193  1  0  0  0
 55194  1  0  0  0
 56195  1  0  0  0
 56196  1  0  0  0
 56197  1  0  0  0
 57198  1  0  0  0
 58199  1  0  0  0
 61200  1  0  0  0
 61201  1  0  0  0
 64202  1  0  0  0
 64203  1  0  0  0
 65204  1  0  0  0
 66205  1  0  0  0
 69206  1  0  0  0
 69207  1  0  0  0
 71208  1  0  0  0
 75209  1  0  0  0
 76210  1  0  0  0
 77211  1  0  0  0
 78212  1  0  0  0
 79213  1  0  0  0
 80214  1  0  0  0
 83215  1  0  0  0
 83216  1  0  0  0
 84217  1  0  0  0
 85218  1  0  0  0
 85219  1  0  0  0
 85220  1  0  0  0
 86221  1  0  0  0
 86222  1  0  0  0
 86223  1  0  0  0
 87224  1  0  0  0
 88225  1  0  0  0
 91226  1  0  0  0
 91227  1  0  0  0
 93228  1  0  0  0
 97229  1  0  0  0
 98230  1  0  0  0
 99231  1  0  0  0
100232  1  0  0  0
101233  1  0  0  0
102234  1  0  0  0
105235  1  0  0  0
105236  1  0  0  0
107237  1  0  0  0
108238  1  0  0  0
109239  1  0  0  0
110240  1  0  0  0
112241  1  0  0  0
113242  1  0  0  0
114243  1  0  0  0
117244  1  0  0  0
118245  1  0  0  0
118246  1  0  0  0
119247  1  0  0  0
119248  1  0  0  0
119249  1  0  0  0
120250  1  0  0  0
120251  1  0  0  0
120252  1  0  0  0
121253  1  0  0  0
122254  1  0  0  0
125255  1  0  0  0
125256  1  0  0  0
126257  1  0  0  0
126258  1  0  0  0
127259  1  0  0  0
127260  1  0  0  0
128261  1  0  0  0
128262  1  0  0  0
129263  1  0  0  0
129264  1  0  0  0
129265  1  0  0  0
130266  1  0  0  0
131267  1  0  0  0
134268  1  0  0  0
134269  1  0  0  0
135270  1  0  0  0
135271  1  0  0  0
136272  1  0  0  0
136273  1  0  0  0
137274  1  0  0  0
137275  1  0  0  0
138276  1  0  0  0
138277  1  0  0  0
138278  1  0  0  0
139279  1  0  0  0
140280  1  0  0  0
143281  1  0  0  0
143282  1  0  0  0
144283  1  0  0  0
144284  1  0  0  0
145285  1  0  0  0
145286  1  0  0  0
146287  1  0  0  0
146288  1  0  0  0
147289  1  0  0  0
147290  1  0  0  0
147291  1  0  0  0
148292  1  0  0  0
M  END
$$$$
