6poq_ligand
  -I-interpret- 

 37 39  0  0  0  0  0  0  0  0999 V2000
   18.9650  -11.7000    3.2270 C   0  0  0  0  0
   19.9480  -11.4780    4.2020 C   0  0  0  0  0
   19.1260  -13.2790    5.5700 C   0  0  0  0  0
   18.9980   -8.8380    0.6750 C   0  0  0  0  0
   19.6740   -7.7170    0.2040 C   0  0  0  0  0
   20.9780   -7.4830    0.5890 C   0  0  0  0  0
   21.6280   -3.9580    0.2830 C   0  0  0  0  0
   22.0100   -5.2640   -0.4830 C   0  0  0  0  0
   22.0120   -6.4850    0.3400 C   0  0  0  0  0
   23.0820   -6.9080    1.0830 C   0  0  0  0  0
   21.5490   -8.4380    1.4790 C   0  0  0  0  0
   20.9050   -9.5590    1.9570 C   0  0  0  0  0
   19.5890   -9.7780    1.5670 C   0  0  0  0  0
   20.0280  -12.2460    5.3560 C   0  0  0  0  0
   18.7470  -13.3200    7.8240 C   0  0  0  0  0
   18.1390  -13.5300    4.6350 C   0  0  0  0  0
   18.0680  -12.7480    3.4860 C   0  0  0  0  0
   18.8480  -10.9330    2.0290 N   0  0  0  0  0
   20.4480   -3.8620    0.6740 O   0  0  0  0  0
   22.5390   -3.1130    0.4480 O   0  0  0  0  0
   22.8290   -8.0900    1.7840 O   0  0  0  0  0
   19.1910  -14.0300    6.6970 O   0  0  0  0  0
   20.6719  -10.6776    4.0492 H   0  0  0  0  0
   17.9718   -9.0041    0.3472 H   0  0  0  0  0
   19.1727   -7.0226   -0.4702 H   0  0  0  0  0
   23.0271   -5.1289   -0.8509 H   0  0  0  0  0
   21.2581   -5.4069   -1.2591 H   0  0  0  0  0
   24.0331   -6.3772    1.1233 H   0  0  0  0  0
   21.4143  -10.2553    2.6232 H   0  0  0  0  0
   20.8010  -12.0372    6.0956 H   0  0  0  0  0
   19.3704  -12.4370    7.9644 H   0  0  0  0  0
   17.7112  -13.0151    7.6749 H   0  0  0  0  0
   18.8159  -13.9587    8.7046 H   0  0  0  0  0
   17.4216  -14.3346    4.7966 H   0  0  0  0  0
   17.2843  -12.9578    2.7580 H   0  0  0  0  0
   18.1194  -11.2524    1.3906 H   0  0  0  0  0
   23.3499   -3.4363    0.0486 H   0  0  0  0  0
  1  2  4  0  0  0
  1 17  4  0  0  0
 18  1  1  0  0  0
  2 14  4  0  0  0
 14  3  4  0  0  0
  3 16  4  0  0  0
  3 22  1  0  0  0
  4  5  4  0  0  0
 13  4  4  0  0  0
  5  6  4  0  0  0
  6  9  4  0  0  0
 11  6  4  0  0  0
  8  7  1  0  0  0
  7 19  2  0  0  0
  7 20  1  0  0  0
  9  8  1  0  0  0
 10  9  4  0  0  0
 21 10  4  0  0  0
 12 11  4  0  0  0
 11 21  4  0  0  0
 13 12  4  0  0  0
 13 18  1  0  0  0
 22 15  1  0  0  0
 16 17  4  0  0  0
  2 23  1  0  0  0
  4 24  1  0  0  0
  5 25  1  0  0  0
  8 26  1  0  0  0
  8 27  1  0  0  0
 10 28  1  0  0  0
 12 29  1  0  0  0
 14 30  1  0  0  0
 15 31  1  0  0  0
 15 32  1  0  0  0
 15 33  1  0  0  0
 16 34  1  0  0  0
 17 35  1  0  0  0
 18 36  1  0  0  0
 20 37  1  0  0  0
M  END
$$$$
