1v2j_ligand
  -I-interpret- 

 17 17  0  0  0  0  0  0  0  0999 V2000
   -3.1810    9.0690   19.6770 C   0  0  0  0  0
   -1.7990    8.8300   19.2450 C   0  0  0  0  0
   -1.1970    7.5130   19.3840 C   0  0  0  0  0
   -1.9660    6.4190   19.9580 C   0  0  0  0  0
   -3.3290    6.6410   20.3880 C   0  0  0  0  0
   -3.9370    7.9570   20.2510 C   0  0  0  0  0
   -3.8250   10.4620   19.5310 C   0  0  0  0  0
   -5.1290   10.5930   19.6880 N   0  0  0  0  0
   -3.0690   11.5130   19.2490 N   0  0  0  0  0
   -1.2183    9.6467   18.8161 H   0  0  0  0  0
   -0.1703    7.3457   19.0583 H   0  0  0  0  0
   -1.5149    5.4324   20.0639 H   0  0  0  0  0
   -3.9035    5.8197   20.8164 H   0  0  0  0  0
   -4.9644    8.1144   20.5792 H   0  0  0  0  0
   -5.5646   11.5103   19.5924 H   0  0  0  0  0
   -3.4937   12.4352   19.1511 H   0  0  0  0  0
   -2.0623   11.3999   19.1298 H   0  0  0  0  0
  1  2  4  0  0  0
  1  6  4  0  0  0
  1  7  1  0  0  0
  2  3  4  0  0  0
  3  4  4  0  0  0
  4  5  4  0  0  0
  5  6  4  0  0  0
  7  8  2  0  0  0
  7  9  1  0  0  0
  2 10  1  0  0  0
  3 11  1  0  0  0
  4 12  1  0  0  0
  5 13  1  0  0  0
  6 14  1  0  0  0
  8 15  1  0  0  0
  9 16  1  0  0  0
  9 17  1  0  0  0
M  END
$$$$
