2aou_ligand
  -I-interpret- 

 48 50  0  0  0  0  0  0  0  0999 V2000
   53.0060   -5.0200   36.6160 C   0  0  0  0  0
   52.0880   -4.6520   35.5600 C   0  0  0  0  0
   51.8960   -5.5390   34.4320 C   0  0  0  0  0
   52.6270   -6.7900   34.3590 C   0  0  0  0  0
   53.5510   -7.1500   35.4350 C   0  0  0  0  0
   53.7320   -6.2600   36.5550 C   0  0  0  0  0
   52.4820   -7.7080   33.2470 C   0  0  0  0  0
   53.2650   -8.9400   33.2630 C   0  0  0  0  0
   54.1470   -9.2070   34.3510 C   0  0  0  0  0
   54.2820   -8.3310   35.4110 N   0  0  0  0  0
   53.2780   -4.0030   37.9660 Cl  0  0  0  0  0
   51.5570   -7.3920   32.1290 N   0  0  0  0  0
   51.7620   -7.9990   30.8030 C   0  0  0  0  0
   52.2390   -7.1460   29.7490 C   0  0  0  0  0
   52.3870   -7.6880   28.4230 C   0  0  0  0  0
   52.0850   -9.0710   28.1240 C   0  0  0  0  0
   51.6220   -9.9360   29.2160 C   0  0  0  0  0
   51.4580   -9.3700   30.5100 C   0  0  0  0  0
   52.2610   -9.5310   26.6840 O   0  0  0  0  0
   51.5420  -11.3140   28.6290 C   0  0  0  0  0
   52.4700  -12.4260   28.6670 N   0  3  0  0  0
   52.6450  -12.4780   27.2420 C   0  0  0  0  0
   52.1520  -13.0520   25.9320 C   0  0  0  0  0
   51.6370  -13.4900   29.1610 C   0  0  0  0  0
   50.9020  -14.3070   30.2070 C   0  0  0  0  0
   51.5426   -3.7098   35.6135 H   0  0  0  0  0
   51.2017   -5.2667   33.6370 H   0  0  0  0  0
   54.4202   -6.5275   37.3568 H   0  0  0  0  0
   53.1755   -9.6545   32.4447 H   0  0  0  0  0
   54.7308  -10.1275   34.3464 H   0  0  0  0  0
   50.7770   -6.7523   32.2800 H   0  0  0  0  0
   52.4853   -6.1035   29.9505 H   0  0  0  0  0
   52.7367   -7.0374   27.6214 H   0  0  0  0  0
   51.0853  -10.0050   31.3137 H   0  0  0  0  0
   52.0307  -10.4605   26.6157 H   0  0  0  0  0
   51.5932  -11.0666   27.5687 H   0  0  0  0  0
   50.7346  -11.7262   29.2342 H   0  0  0  0  0
   53.3389  -12.4195   29.2012 H   0  0  0  0  0
   53.5396  -13.0994   27.2828 H   0  0  0  0  0
   52.2384  -11.4825   27.0640 H   0  0  0  0  0
   52.2238  -14.1392   25.9632 H   0  0  0  0  0
   51.1135  -12.7595   25.7765 H   0  0  0  0  0
   52.7647  -12.6694   25.1157 H   0  0  0  0  0
   52.4468  -14.2167   29.0956 H   0  0  0  0  0
   50.7242  -12.9825   28.8492 H   0  0  0  0  0
   51.6186  -14.7021   30.9271 H   0  0  0  0  0
   50.1807  -13.6719   30.7214 H   0  0  0  0  0
   50.3805  -15.1318   29.7214 H   0  0  0  0  0
  1  2  4  0  0  0
  1  6  4  0  0  0
  1 11  1  0  0  0
  2  3  4  0  0  0
  3  4  4  0  0  0
  4  5  4  0  0  0
  4  7  4  0  0  0
  5  6  4  0  0  0
  5 10  4  0  0  0
  7  8  4  0  0  0
  7 12  1  0  0  0
  8  9  4  0  0  0
  9 10  4  0  0  0
 12 13  1  0  0  0
 13 14  4  0  0  0
 13 18  4  0  0  0
 14 15  4  0  0  0
 15 16  4  0  0  0
 16 17  4  0  0  0
 16 19  1  0  0  0
 17 18  4  0  0  0
 17 20  1  0  0  0
 20 21  1  0  0  0
 21 22  1  0  0  0
 21 24  1  0  0  0
 22 23  1  0  0  0
 24 25  1  0  0  0
  2 26  1  0  0  0
  3 27  1  0  0  0
  6 28  1  0  0  0
  8 29  1  0  0  0
  9 30  1  0  0  0
 12 31  1  0  0  0
 14 32  1  0  0  0
 15 33  1  0  0  0
 18 34  1  0  0  0
 19 35  1  0  0  0
 20 36  1  0  0  0
 20 37  1  0  0  0
 21 38  1  0  0  0
 22 39  1  0  0  0
 22 40  1  0  0  0
 23 41  1  0  0  0
 23 42  1  0  0  0
 23 43  1  0  0  0
 24 44  1  0  0  0
 24 45  1  0  0  0
 25 46  1  0  0  0
 25 47  1  0  0  0
 25 48  1  0  0  0
M  END
$$$$
