3r8i_ligand
  -I-interpret- 

 66 68  0  0  0  0  0  0  0  0999 V2000
   18.3400    8.3930    9.8040 N   0  0  0  0  0
   17.0350    6.5830   10.5750 N   0  0  0  0  0
    9.1390    5.3070    9.5850 C   0  0  0  0  0
   21.2620    7.3880   17.4110 C   0  0  0  0  0
   18.8080    7.8560   17.6160 C   0  0  0  0  0
   21.0300    7.5110   20.0340 O   0  0  0  0  0
   19.1800    6.2780   20.1730 O   0  0  0  0  0
   18.3930   11.6200    7.9960 C   0  0  0  0  0
   17.0530   11.6190    7.6270 C   0  0  0  0  0
   19.5620    5.3090   13.9230 C   0  0  0  0  0
   17.3230    5.2450   14.7990 C   0  0  0  0  0
   20.0620    5.4460   15.2150 C   0  0  0  0  0
   17.8240    5.3830   16.0870 C   0  0  0  0  0
   18.9180   10.5610    8.7280 C   0  0  0  0  0
   16.2380   10.5520    7.9870 C   0  0  0  0  0
   10.5580    5.7630    9.2370 C   0  0  0  0  0
   11.3940    5.9210   10.5080 C   0  0  0  0  0
   12.8100    6.4190   10.2120 C   0  0  0  0  0
   13.6100    5.4100    9.3870 C   0  0  0  0  0
   15.0660    5.8680    9.2720 C   0  0  0  0  0
   17.6310    4.9690   12.3080 C   0  0  0  0  0
   15.6980    5.9760   10.6610 C   0  0  0  0  0
   18.1690    5.9660   11.2780 C   0  0  0  0  0
   19.6800    5.5650   17.5720 O   0  0  0  0  0
   16.2020    8.3600    9.2240 O   0  0  0  0  0
   20.0610    6.8960   19.5360 C   0  0  0  0  0
   18.1920    5.2020   13.7110 C   0  0  0  0  0
   19.1950    5.4800   16.3000 C   0  0  0  0  0
   17.2020    7.7130    9.8940 C   0  0  0  0  0
   18.1040    9.4940    9.0930 C   0  0  0  0  0
   16.7650    9.4930    8.7180 C   0  0  0  0  0
   19.9400    6.9040   18.0100 C   0  0  0  0  0
    9.1834    4.3489   10.1028 H   0  0  0  0  0
    8.6684    6.0488   10.2303 H   0  0  0  0  0
    8.5583    5.1997    8.6688 H   0  0  0  0  0
   22.0695    6.7339   17.7399 H   0  0  0  0  0
   21.1958    7.3669   16.3232 H   0  0  0  0  0
   21.4592    8.4068   17.7446 H   0  0  0  0  0
   18.7018    7.8629   16.5312 H   0  0  0  0  0
   17.8767    7.5192   18.0714 H   0  0  0  0  0
   19.0422    8.8614   17.9658 H   0  0  0  0  0
   21.5571    7.8981   19.3313 H   0  0  0  0  0
   19.0344   12.4538    7.7106 H   0  0  0  0  0
   16.6424   12.4524    7.0570 H   0  0  0  0  0
   20.2465    5.2855   13.0751 H   0  0  0  0  0
   16.2474    5.1702   14.6391 H   0  0  0  0  0
   21.1370    5.5268   15.3758 H   0  0  0  0  0
   17.1396    5.4154   16.9347 H   0  0  0  0  0
   19.9692   10.5670    9.0163 H   0  0  0  0  0
   15.1874   10.5455    7.6967 H   0  0  0  0  0
   10.5065    6.7235    8.7242 H   0  0  0  0  0
   11.0242    5.0147    8.5961 H   0  0  0  0  0
   11.4715    4.9444   10.9859 H   0  0  0  0  0
   10.9034    6.6554   11.1468 H   0  0  0  0  0
   13.3247    6.5683   11.1612 H   0  0  0  0  0
   12.7340    7.3437    9.6400 H   0  0  0  0  0
   13.1764    5.3371    8.3896 H   0  0  0  0  0
   13.5770    4.4375    9.8783 H   0  0  0  0  0
   15.0953    6.8452    8.7900 H   0  0  0  0  0
   15.6232    5.1400    8.6824 H   0  0  0  0  0
   17.9299    3.9697   11.9917 H   0  0  0  0  0
   16.5491    5.0925   12.3573 H   0  0  0  0  0
   15.0652    6.6026   11.2895 H   0  0  0  0  0
   15.7903    4.9765   11.0859 H   0  0  0  0  0
   18.7537    6.7361   11.7811 H   0  0  0  0  0
   18.8082    5.4481   10.5629 H   0  0  0  0  0
 29  1  4  0  0  0
  1 30  4  0  0  0
  2 22  1  0  0  0
 23  2  1  0  0  0
  2 29  1  0  0  0
 16  3  1  0  0  0
 32  4  1  0  0  0
 32  5  1  0  0  0
 26  6  1  0  0  0
 26  7  2  0  0  0
  9  8  4  0  0  0
 14  8  4  0  0  0
 15  9  4  0  0  0
 12 10  4  0  0  0
 10 27  4  0  0  0
 13 11  4  0  0  0
 11 27  4  0  0  0
 28 12  4  0  0  0
 28 13  4  0  0  0
 30 14  4  0  0  0
 31 15  4  0  0  0
 17 16  1  0  0  0
 18 17  1  0  0  0
 19 18  1  0  0  0
 20 19  1  0  0  0
 22 20  1  0  0  0
 21 23  1  0  0  0
 27 21  1  0  0  0
 24 28  1  0  0  0
 32 24  1  0  0  0
 29 25  4  0  0  0
 25 31  4  0  0  0
 26 32  1  0  0  0
 30 31  4  0  0  0
  3 33  1  0  0  0
  3 34  1  0  0  0
  3 35  1  0  0  0
  4 36  1  0  0  0
  4 37  1  0  0  0
  4 38  1  0  0  0
  5 39  1  0  0  0
  5 40  1  0  0  0
  5 41  1  0  0  0
  6 42  1  0  0  0
  8 43  1  0  0  0
  9 44  1  0  0  0
 10 45  1  0  0  0
 11 46  1  0  0  0
 12 47  1  0  0  0
 13 48  1  0  0  0
 14 49  1  0  0  0
 15 50  1  0  0  0
 16 51  1  0  0  0
 16 52  1  0  0  0
 17 53  1  0  0  0
 17 54  1  0  0  0
 18 55  1  0  0  0
 18 56  1  0  0  0
 19 57  1  0  0  0
 19 58  1  0  0  0
 20 59  1  0  0  0
 20 60  1  0  0  0
 21 61  1  0  0  0
 21 62  1  0  0  0
 22 63  1  0  0  0
 22 64  1  0  0  0
 23 65  1  0  0  0
 23 66  1  0  0  0
M  END
$$$$
