2w8g_ligand
  -I-interpret- 

 63 68  0  0  0  0  0  0  0  0999 V2000
   53.5640  -26.9000    4.3750 C   0  0  0  0  0
   53.0620  -25.8280    5.0800 C   0  0  0  0  0
   52.2320  -24.9290    4.4450 C   0  0  0  0  0
   51.9100  -25.0920    3.1100 C   0  0  0  0  0
   52.4260  -26.1550    2.3930 C   0  0  0  0  0
   53.2270  -27.0710    3.0590 C   0  0  0  0  0
   53.7640  -28.2000    2.1930 C   0  0  0  0  0
   55.2070  -27.7710    1.8660 C   0  0  0  0  0
   56.1320  -28.1320    3.0450 C   0  0  0  0  0
   57.3960  -28.4800    2.5380 C   0  0  0  0  0
   58.4050  -28.8680    3.4150 C   0  0  0  0  0
   58.1280  -28.8910    4.7850 C   0  0  0  0  0
   56.8560  -28.5540    5.2850 C   0  0  0  0  0
   55.8260  -28.1750    4.4240 C   0  0  0  0  0
   54.4850  -27.8200    5.2110 C   0  0  0  0  0
   53.6620  -28.8960    5.8170 O   0  0  0  0  0
   52.3820  -28.5090    6.4330 C   0  0  0  0  0
   52.5140  -28.1470    7.9220 C   0  0  0  0  0
   51.3750  -29.6570    6.3320 C   0  0  0  0  0
   51.8360  -30.8160    7.2380 C   0  0  0  0  0
   53.3470  -31.0720    7.0140 C   0  0  0  0  0
   54.0240  -30.1070    8.0290 C   0  0  0  0  0
   52.8700  -29.3970    8.7330 C   0  0  0  0  0
   51.7920  -30.4100    8.6620 N   0  3  0  0  0
   52.2220  -31.4950    9.5720 C   0  0  0  0  0
   51.7410  -32.9180    9.2540 C   0  0  0  0  0
   50.4800  -33.1680    8.7290 C   0  0  0  0  0
   50.0570  -34.4690    8.4780 C   0  0  0  0  0
   50.8970  -35.5200    8.7740 C   0  0  0  0  0
   52.1430  -35.2860    9.3180 C   0  0  0  0  0
   52.5750  -33.9910    9.5580 C   0  0  0  0  0
   53.3189  -25.6919    6.1305 H   0  0  0  0  0
   51.8263  -24.0829    4.9996 H   0  0  0  0  0
   51.2463  -24.3789    2.6210 H   0  0  0  0  0
   52.2090  -26.2706    1.3311 H   0  0  0  0  0
   53.1655  -28.3497    1.2944 H   0  0  0  0  0
   53.7263  -29.1630    2.7023 H   0  0  0  0  0
   55.2362  -26.6943    1.6986 H   0  0  0  0  0
   55.5447  -28.2889    0.9683 H   0  0  0  0  0
   57.5849  -28.4463    1.4650 H   0  0  0  0  0
   59.3900  -29.1479    3.0415 H   0  0  0  0  0
   58.9155  -29.1766    5.4825 H   0  0  0  0  0
   56.6735  -28.5897    6.3590 H   0  0  0  0  0
   54.9159  -27.3279    6.0830 H   0  0  0  0  0
   52.0455  -27.6287    5.8854 H   0  0  0  0  0
   51.5662  -27.7444    8.2795 H   0  0  0  0  0
   53.3020  -27.4037    8.0427 H   0  0  0  0  0
   51.3147  -30.0012    5.2995 H   0  0  0  0  0
   50.3922  -29.3110    6.6519 H   0  0  0  0  0
   51.1954  -31.6683    7.0113 H   0  0  0  0  0
   53.6574  -30.8867    5.9857 H   0  0  0  0  0
   53.6256  -32.1137    7.1734 H   0  0  0  0  0
   54.6887  -29.4005    7.5318 H   0  0  0  0  0
   54.6575  -30.6441    8.7349 H   0  0  0  0  0
   53.0709  -29.0698    9.7531 H   0  0  0  0  0
   50.8515  -30.1200    8.9298 H   0  0  0  0  0
   51.7933  -31.2504   10.5439 H   0  0  0  0  0
   53.3088  -31.5285    9.4961 H   0  0  0  0  0
   49.8131  -32.3339    8.5108 H   0  0  0  0  0
   49.0713  -34.6550    8.0516 H   0  0  0  0  0
   50.5752  -36.5427    8.5772 H   0  0  0  0  0
   52.7931  -36.1264    9.5611 H   0  0  0  0  0
   53.5630  -33.8133    9.9827 H   0  0  0  0  0
  1  2  4  0  0  0
  1  6  4  0  0  0
  1 15  1  0  0  0
  2  3  4  0  0  0
  3  4  4  0  0  0
  4  5  4  0  0  0
  5  6  4  0  0  0
  6  7  1  0  0  0
  7  8  1  0  0  0
  8  9  1  0  0  0
  9 10  4  0  0  0
  9 14  4  0  0  0
 10 11  4  0  0  0
 11 12  4  0  0  0
 12 13  4  0  0  0
 13 14  4  0  0  0
 14 15  1  0  0  0
 15 16  1  0  0  0
 16 17  1  0  0  0
 17 18  1  0  0  0
 17 19  1  0  0  0
 18 23  1  0  0  0
 19 20  1  0  0  0
 20 21  1  0  0  0
 20 24  1  0  0  0
 21 22  1  0  0  0
 22 23  1  0  0  0
 23 24  1  0  0  0
 24 25  1  0  0  0
 25 26  1  0  0  0
 26 27  4  0  0  0
 26 31  4  0  0  0
 27 28  4  0  0  0
 28 29  4  0  0  0
 29 30  4  0  0  0
 30 31  4  0  0  0
  2 32  1  0  0  0
  3 33  1  0  0  0
  4 34  1  0  0  0
  5 35  1  0  0  0
  7 36  1  0  0  0
  7 37  1  0  0  0
  8 38  1  0  0  0
  8 39  1  0  0  0
 10 40  1  0  0  0
 11 41  1  0  0  0
 12 42  1  0  0  0
 13 43  1  0  0  0
 15 44  1  0  0  0
 17 45  1  0  0  0
 18 46  1  0  0  0
 18 47  1  0  0  0
 19 48  1  0  0  0
 19 49  1  0  0  0
 20 50  1  0  0  0
 21 51  1  0  0  0
 21 52  1  0  0  0
 22 53  1  0  0  0
 22 54  1  0  0  0
 23 55  1  0  0  0
 24 56  1  0  0  0
 25 57  1  0  0  0
 25 58  1  0  0  0
 27 59  1  0  0  0
 28 60  1  0  0  0
 29 61  1  0  0  0
 30 62  1  0  0  0
 31 63  1  0  0  0
M  END
$$$$
