5ntk_ligand
  -I-interpret- 

104109  0  0  0  0  0  0  0  0999 V2000
   10.8290    9.2150   16.9160 O   0  0  0  0  0
   11.5430    7.1130   15.8520 O   0  0  0  0  0
   15.7760    6.9690   26.0900 C   0  0  0  0  0
   15.7340    5.1130   21.7830 C   0  0  0  0  0
   14.5850    5.1560   20.8010 C   0  0  0  0  0
   13.6670    6.1410   20.7180 C   0  0  0  0  0
   12.5660    6.0420   19.6640 C   0  0  0  0  0
   12.5090    7.2540   22.6840 C   0  0  0  0  0
   16.9100    6.3280   23.7860 C   0  0  0  0  0
   16.8180    7.3480   24.9710 C   0  0  0  0  0
   18.2890    7.2580   25.5220 C   0  0  0  0  0
   18.6280    5.7280   25.3710 C   0  0  0  0  0
   17.5880    5.0900   24.4100 C   0  0  0  0  0
   18.7080    7.8610   26.9330 C   0  0  0  0  0
   20.2540    7.7330   27.1770 C   0  0  0  0  0
   21.1410    8.4180   26.0930 C   0  0  0  0  0
   22.5100    8.8680   26.5340 C   0  0  0  0  0
   24.1450    9.2170   28.3320 C   0  0  0  0  0
   25.0290    7.9720   28.4920 C   0  0  0  0  0
   25.4120    7.2280   27.3620 C   0  0  0  0  0
   26.2130    6.0880   27.5030 C   0  0  0  0  0
   26.6390    5.6710   28.7750 C   0  0  0  0  0
   26.2510    6.4140   29.9040 C   0  0  0  0  0
   25.4510    7.5570   29.7650 C   0  0  0  0  0
   28.5500    4.4340   29.8430 C   0  0  0  0  0
   10.7180    7.7630   16.8500 S   0  0  0  0  0
   10.9950    7.1620   18.2210 O   0  0  0  0  0
   12.2610    7.3560   18.8850 C   0  0  0  0  0
   12.2350    8.5890   19.8330 C   0  0  0  0  0
   13.4890    8.6360   20.7460 C   0  0  0  0  0
   13.6880    7.3670   21.6480 C   0  0  0  0  0
   15.0770    7.5010   22.3940 C   0  0  0  0  0
   15.5870    6.1270   22.9610 C   0  0  0  0  0
   23.2840    9.2730   25.6810 O   0  0  0  0  0
   22.8250    8.8030   27.8510 N   0  0  0  0  0
   27.4350    4.5290   28.9370 O   0  0  0  0  0
   28.9200    2.9310   29.9300 C   0  0  0  0  0
   30.1710    2.5420   29.2230 N   0  3  0  0  0
   30.3290    3.0710   27.8390 C   0  0  0  0  0
   31.7170    2.6790   27.2710 C   0  0  0  0  0
   31.8770    1.2480   27.3300 O   0  0  0  0  0
   31.7940    0.7230   28.6710 C   0  0  0  0  0
   30.4240    1.0770   29.3050 C   0  0  0  0  0
   18.2900    9.3500   27.1680 C   0  0  0  0  0
   16.4490    8.7140   24.2950 C   0  0  0  0  0
   15.1350    8.6600   23.4610 C   0  0  0  0  0
    9.2780    7.4370   16.5570 O   0  0  0  0  0
   14.7803    6.9059   25.6511 H   0  0  0  0  0
   16.0449    6.0059   26.5239 H   0  0  0  0  0
   15.7844    7.7339   26.8665 H   0  0  0  0  0
   16.6405    5.3749   21.2373 H   0  0  0  0  0
   15.7584    4.1122   22.2141 H   0  0  0  0  0
   14.4908    4.3236   20.1036 H   0  0  0  0  0
   11.6516    5.7773   20.1950 H   0  0  0  0  0
   12.9081    5.3166   18.9259 H   0  0  0  0  0
   12.4936    8.1437   23.3135 H   0  0  0  0  0
   11.5633    7.1698   22.1485 H   0  0  0  0  0
   12.6562    6.3704   23.3051 H   0  0  0  0  0
   17.5128    6.6926   22.9542 H   0  0  0  0  0
   18.8879    7.9611   24.9431 H   0  0  0  0  0
   18.5872    5.2384   26.3440 H   0  0  0  0  0
   19.6333    5.6060   24.9679 H   0  0  0  0  0
   18.0387    4.4299   23.6689 H   0  0  0  0  0
   16.8863    4.4280   24.9174 H   0  0  0  0  0
   18.1498    7.2568   27.6482 H   0  0  0  0  0
   20.4922    6.6695   27.1575 H   0  0  0  0  0
   20.4688    8.2288   28.1237 H   0  0  0  0  0
   20.6083    9.3200   25.7917 H   0  0  0  0  0
   21.3036    7.6694   25.3176 H   0  0  0  0  0
   24.5996    9.9022   27.6165 H   0  0  0  0  0
   24.0451    9.7238   29.2918 H   0  0  0  0  0
   25.0836    7.5403   26.3707 H   0  0  0  0  0
   26.5078    5.5207   26.6202 H   0  0  0  0  0
   26.5750    6.0986   30.8958 H   0  0  0  0  0
   25.1560    8.1248   30.6475 H   0  0  0  0  0
   28.2896    4.8292   30.8249 H   0  0  0  0  0
   29.3943    5.0236   29.4858 H   0  0  0  0  0
   13.0447    7.5640   18.1565 H   0  0  0  0  0
   11.3509    8.5171   20.4665 H   0  0  0  0  0
   12.2201    9.4919   19.2225 H   0  0  0  0  0
   13.3630    9.4863   21.4163 H   0  0  0  0  0
   14.3576    8.7000   20.0906 H   0  0  0  0  0
   15.7821    7.8066   21.6210 H   0  0  0  0  0
   14.8630    5.7092   23.6605 H   0  0  0  0  0
   22.1323    8.4606   28.5169 H   0  0  0  0  0
   28.1083    2.3816   29.4532 H   0  0  0  0  0
   29.0759    2.7085   30.9856 H   0  0  0  0  0
   30.9064    3.0210   29.7427 H   0  0  0  0  0
   30.2465    4.1577   27.8609 H   0  0  0  0  0
   29.5511    2.6470   27.2041 H   0  0  0  0  0
   32.4983    3.1555   27.8631 H   0  0  0  0  0
   31.7907    3.0092   26.2348 H   0  0  0  0  0
   32.5888    1.1617   29.2743 H   0  0  0  0  0
   31.8996   -0.3613   28.6353 H   0  0  0  0  0
   29.6377    0.5521   28.7625 H   0  0  0  0  0
   30.4324    0.7783   30.3532 H   0  0  0  0  0
   18.7535    9.9803   26.4090 H   0  0  0  0  0
   17.2055    9.4365   27.1011 H   0  0  0  0  0
   18.6208    9.6671   28.1570 H   0  0  0  0  0
   17.2594    8.9713   23.6129 H   0  0  0  0  0
   16.3019    9.4440   25.0909 H   0  0  0  0  0
   14.3208    8.4842   24.1640 H   0  0  0  0  0
   15.0696    9.5994   22.9120 H   0  0  0  0  0
    9.1705    6.4843   16.5069 H   0  0  0  0  0
 26  1  2  0  0  0
 26  2  2  0  0  0
 10  3  1  0  0  0
  5  4  1  0  0  0
  4 33  1  0  0  0
  6  5  2  0  0  0
  7  6  1  0  0  0
  6 31  1  0  0  0
 28  7  1  0  0  0
 31  8  1  0  0  0
  9 10  1  0  0  0
  9 13  1  0  0  0
 33  9  1  0  0  0
 10 11  1  0  0  0
 10 45  1  0  0  0
 12 11  1  0  0  0
 11 14  1  0  0  0
 13 12  1  0  0  0
 14 15  1  0  0  0
 14 44  1  0  0  0
 15 16  1  0  0  0
 16 17  1  0  0  0
 17 34  2  0  0  0
 17 35  1  0  0  0
 18 19  1  0  0  0
 35 18  1  0  0  0
 19 20  4  0  0  0
 19 24  4  0  0  0
 20 21  4  0  0  0
 21 22  4  0  0  0
 23 22  4  0  0  0
 22 36  1  0  0  0
 24 23  4  0  0  0
 36 25  1  0  0  0
 25 37  1  0  0  0
 27 26  1  0  0  0
 26 47  1  0  0  0
 27 28  1  0  0  0
 28 29  1  0  0  0
 29 30  1  0  0  0
 30 31  1  0  0  0
 31 32  1  0  0  0
 32 33  1  0  0  0
 32 46  1  0  0  0
 37 38  1  0  0  0
 38 39  1  0  0  0
 38 43  1  0  0  0
 39 40  1  0  0  0
 40 41  1  0  0  0
 41 42  1  0  0  0
 42 43  1  0  0  0
 45 46  1  0  0  0
  3 48  1  0  0  0
  3 49  1  0  0  0
  3 50  1  0  0  0
  4 51  1  0  0  0
  4 52  1  0  0  0
  5 53  1  0  0  0
  7 54  1  0  0  0
  7 55  1  0  0  0
  8 56  1  0  0  0
  8 57  1  0  0  0
  8 58  1  0  0  0
  9 59  1  0  0  0
 11 60  1  0  0  0
 12 61  1  0  0  0
 12 62  1  0  0  0
 13 63  1  0  0  0
 13 64  1  0  0  0
 14 65  1  0  0  0
 15 66  1  0  0  0
 15 67  1  0  0  0
 16 68  1  0  0  0
 16 69  1  0  0  0
 18 70  1  0  0  0
 18 71  1  0  0  0
 20 72  1  0  0  0
 21 73  1  0  0  0
 23 74  1  0  0  0
 24 75  1  0  0  0
 25 76  1  0  0  0
 25 77  1  0  0  0
 28 78  1  0  0  0
 29 79  1  0  0  0
 29 80  1  0  0  0
 30 81  1  0  0  0
 30 82  1  0  0  0
 32 83  1  0  0  0
 33 84  1  0  0  0
 35 85  1  0  0  0
 37 86  1  0  0  0
 37 87  1  0  0  0
 38 88  1  0  0  0
 39 89  1  0  0  0
 39 90  1  0  0  0
 40 91  1  0  0  0
 40 92  1  0  0  0
 42 93  1  0  0  0
 42 94  1  0  0  0
 43 95  1  0  0  0
 43 96  1  0  0  0
 44 97  1  0  0  0
 44 98  1  0  0  0
 44 99  1  0  0  0
 45100  1  0  0  0
 45101  1  0  0  0
 46102  1  0  0  0
 46103  1  0  0  0
 47104  1  0  0  0
M  END
$$$$
