6hu2_ligand
  -I-interpret- 

 35 36  0  0  0  0  0  0  0  0999 V2000
   47.1790   30.7940   85.6680 O   0  0  0  0  0
   46.4000   31.8790   85.2690 N   0  0  0  0  0
   46.2170   32.9100   86.0880 C   0  0  0  0  0
   46.7740   32.9950   87.1820 O   0  0  0  0  0
   45.2590   33.9610   85.6110 C   0  0  0  0  0
   44.6960   33.8540   84.3450 C   0  0  0  0  0
   43.7450   34.7620   83.9200 C   0  0  0  0  0
   43.3160   35.8100   84.7320 C   0  0  0  0  0
   43.9050   35.9360   86.0020 C   0  0  0  0  0
   44.8670   35.0150   86.4330 C   0  0  0  0  0
   42.2230   36.7410   84.2710 C   0  0  0  0  0
   43.5200   36.9800   86.8160 N   0  0  0  0  0
   44.1040   37.1320   88.1380 C   0  0  0  0  0
   44.0140   38.5400   88.6660 C   0  0  0  0  0
   45.1220   39.1590   89.2290 C   0  0  0  0  0
   45.0410   40.4550   89.7100 C   0  0  0  0  0
   43.8490   41.1470   89.6390 C   0  0  0  0  0
   42.7380   40.5400   89.0880 C   0  0  0  0  0
   42.8210   39.2470   88.6010 C   0  0  0  0  0
   47.2061   30.1441   84.9619 H   0  0  0  0  0
   45.9686   31.8818   84.3447 H   0  0  0  0  0
   45.0072   33.0470   83.6816 H   0  0  0  0  0
   43.3188   34.6556   82.9224 H   0  0  0  0  0
   45.3136   35.1237   87.4213 H   0  0  0  0  0
   42.5341   37.2375   83.3519 H   0  0  0  0  0
   41.3138   36.1687   84.0866 H   0  0  0  0  0
   42.0338   37.4874   85.0425 H   0  0  0  0  0
   42.8224   37.6484   86.4890 H   0  0  0  0  0
   45.1602   36.8727   88.0651 H   0  0  0  0  0
   43.5510   36.4866   88.8204 H   0  0  0  0  0
   46.0664   38.6186   89.2931 H   0  0  0  0  0
   45.9203   40.9295   90.1455 H   0  0  0  0  0
   43.7850   42.1677   90.0161 H   0  0  0  0  0
   41.7929   41.0805   89.0364 H   0  0  0  0  0
   41.9401   38.7788   88.1617 H   0  0  0  0  0
  1  2  1  0  0  0
  2  3  1  0  0  0
  3  4  2  0  0  0
  3  5  1  0  0  0
  5  6  4  0  0  0
  5 10  4  0  0  0
  6  7  4  0  0  0
  7  8  4  0  0  0
  8  9  4  0  0  0
  8 11  1  0  0  0
  9 10  4  0  0  0
  9 12  1  0  0  0
 12 13  1  0  0  0
 13 14  1  0  0  0
 14 15  4  0  0  0
 14 19  4  0  0  0
 15 16  4  0  0  0
 16 17  4  0  0  0
 17 18  4  0  0  0
 18 19  4  0  0  0
  1 20  1  0  0  0
  2 21  1  0  0  0
  6 22  1  0  0  0
  7 23  1  0  0  0
 10 24  1  0  0  0
 11 25  1  0  0  0
 11 26  1  0  0  0
 11 27  1  0  0  0
 12 28  1  0  0  0
 13 29  1  0  0  0
 13 30  1  0  0  0
 15 31  1  0  0  0
 16 32  1  0  0  0
 17 33  1  0  0  0
 18 34  1  0  0  0
 19 35  1  0  0  0
M  END
$$$$
