5q15_ligand
  -I-interpret- 

 71 75  0  0  0  0  0  0  0  0999 V2000
   24.1530   16.9310   99.6630 C   0  0  0  0  0
   24.0920   16.0020   98.6270 C   0  0  0  0  0
   25.2310   15.2740   98.2790 C   0  0  0  0  0
   22.4110   18.5350  100.7160 C   0  0  0  0  0
   21.6150   18.7080  104.5600 C   0  0  0  0  0
   24.6250   23.0310   96.3080 C   0  0  0  0  0
   22.7410   22.2740   97.8040 C   0  0  0  0  0
   23.7130   21.4930   98.6840 C   0  0  0  0  0
   21.1980   17.2410  104.7710 C   0  0  0  0  0
   22.0480   16.6660  102.4530 C   0  0  0  0  0
   21.5810   19.0860  103.0640 C   0  0  0  0  0
   26.3800   15.5170   99.0010 C   0  0  0  0  0
   26.4140   16.4420  100.0280 C   0  0  0  0  0
   25.3070   17.1680  100.3840 C   0  0  0  0  0
   22.8200   15.9620   98.0770 N   0  0  0  0  0
   22.1170   16.8360   98.7600 C   0  0  0  0  0
   22.8560   17.4760   99.7660 N   0  0  0  0  0
   23.2100   19.8160  100.4260 C   0  0  0  0  0
   23.9340   20.3290  101.2750 O   0  0  0  0  0
   23.0580   20.3000   99.1930 N   0  0  0  0  0
   23.4230   23.4670   97.1280 C   0  0  0  0  0
   25.6350   22.2980   97.1800 C   0  0  0  0  0
   24.9830   21.0830   97.8920 C   0  0  0  0  0
   22.4650   18.1500  102.2090 C   0  0  0  0  0
   22.0700   16.2980  103.9470 C   0  0  0  0  0
   20.6740   17.0950   98.4480 C   0  0  0  0  0
   19.6830   16.6720   99.4950 C   0  0  0  0  0
   19.7610   15.4140  100.0830 C   0  0  0  0  0
   18.8440   15.0270  101.0480 C   0  0  0  0  0
   17.8380   15.8910  101.4350 C   0  0  0  0  0
   17.7490   17.1440  100.8550 C   0  0  0  0  0
   18.6650   17.5340   99.8920 C   0  0  0  0  0
   20.5130   18.4730   98.1180 O   0  0  0  0  0
   20.5100   18.7210   96.7180 C   0  0  0  0  0
   27.5710   16.6350  100.6970 F   0  0  0  0  0
   27.5070   14.8350   98.7010 F   0  0  0  0  0
   25.2127   14.5437   97.4700 H   0  0  0  0  0
   21.3471   18.6930  100.5392 H   0  0  0  0  0
   22.6322   18.8379  104.9294 H   0  0  0  0  0
   20.9170   19.3497  105.0977 H   0  0  0  0  0
   25.1016   23.9150   95.8844 H   0  0  0  0  0
   24.2878   22.3589   95.5189 H   0  0  0  0  0
   21.9344   22.6505   98.4331 H   0  0  0  0  0
   22.3679   21.6062   97.0275 H   0  0  0  0  0
   24.0151   22.1363   99.5104 H   0  0  0  0  0
   20.1617   17.1240  104.4541 H   0  0  0  0  0
   21.3163   16.9930  105.8258 H   0  0  0  0  0
   22.7584   16.0229  101.9335 H   0  0  0  0  0
   21.0307   16.5333  102.0847 H   0  0  0  0  0
   21.9618   20.1021  102.9608 H   0  0  0  0  0
   20.5527   18.9970  102.7136 H   0  0  0  0  0
   25.3360   17.8956  101.1951 H   0  0  0  0  0
   22.4364   19.7959   98.5607 H   0  0  0  0  0
   22.7043   23.9425   96.4606 H   0  0  0  0  0
   23.7646   24.1535   97.9027 H   0  0  0  0  0
   26.0061   22.9878   97.9380 H   0  0  0  0  0
   26.4449   21.9368   96.5463 H   0  0  0  0  0
   24.6939   20.3558   97.1333 H   0  0  0  0  0
   25.7062   20.6688   98.5945 H   0  0  0  0  0
   23.5047   18.2638  102.5160 H   0  0  0  0  0
   21.6822   15.2854  104.0579 H   0  0  0  0  0
   23.0963   16.3764  104.3058 H   0  0  0  0  0
   20.4349   16.4515   97.6013 H   0  0  0  0  0
   20.5508   14.7257   99.7822 H   0  0  0  0  0
   18.9169   14.0389  101.5023 H   0  0  0  0  0
   17.1173   15.5869  102.1941 H   0  0  0  0  0
   16.9549   17.8269  101.1571 H   0  0  0  0  0
   18.5880   18.5236   99.4416 H   0  0  0  0  0
   21.4557   18.3891   96.2895 H   0  0  0  0  0
   19.6883   18.1744   96.2552 H   0  0  0  0  0
   20.3837   19.7889   96.5397 H   0  0  0  0  0
  1  2  4  0  0  0
  1 14  4  0  0  0
 17  1  4  0  0  0
  2  3  4  0  0  0
 15  2  4  0  0  0
  3 12  4  0  0  0
  4 17  1  0  0  0
 18  4  1  0  0  0
  4 24  1  0  0  0
  5  9  1  0  0  0
 11  5  1  0  0  0
 21  6  1  0  0  0
  6 22  1  0  0  0
  8  7  1  0  0  0
  7 21  1  0  0  0
 20  8  1  0  0  0
  8 23  1  0  0  0
 25  9  1  0  0  0
 24 10  1  0  0  0
 10 25  1  0  0  0
 24 11  1  0  0  0
 13 12  4  0  0  0
 12 36  1  0  0  0
 14 13  4  0  0  0
 13 35  1  0  0  0
 16 15  4  0  0  0
 17 16  4  0  0  0
 16 26  1  0  0  0
 18 19  2  0  0  0
 18 20  1  0  0  0
 22 23  1  0  0  0
 26 27  1  0  0  0
 26 33  1  0  0  0
 27 28  4  0  0  0
 27 32  4  0  0  0
 28 29  4  0  0  0
 29 30  4  0  0  0
 30 31  4  0  0  0
 31 32  4  0  0  0
 33 34  1  0  0  0
  3 37  1  0  0  0
  4 38  1  0  0  0
  5 39  1  0  0  0
  5 40  1  0  0  0
  6 41  1  0  0  0
  6 42  1  0  0  0
  7 43  1  0  0  0
  7 44  1  0  0  0
  8 45  1  0  0  0
  9 46  1  0  0  0
  9 47  1  0  0  0
 10 48  1  0  0  0
 10 49  1  0  0  0
 11 50  1  0  0  0
 11 51  1  0  0  0
 14 52  1  0  0  0
 20 53  1  0  0  0
 21 54  1  0  0  0
 21 55  1  0  0  0
 22 56  1  0  0  0
 22 57  1  0  0  0
 23 58  1  0  0  0
 23 59  1  0  0  0
 24 60  1  0  0  0
 25 61  1  0  0  0
 25 62  1  0  0  0
 26 63  1  0  0  0
 28 64  1  0  0  0
 29 65  1  0  0  0
 30 66  1  0  0  0
 31 67  1  0  0  0
 32 68  1  0  0  0
 34 69  1  0  0  0
 34 70  1  0  0  0
 34 71  1  0  0  0
M  END
$$$$
