4yz5_ligand
  -I-interpret- 

 61 62  0  0  0  0  0  0  0  0999 V2000
  -50.7030  -51.9950  -21.9190 O   0  0  0  0  0
  -50.0850  -52.7430  -22.6360 C   0  0  0  0  0
  -48.5960  -52.6000  -22.7730 C   0  0  0  0  0
  -50.7000  -53.7080  -23.3050 N   0  0  0  0  0
  -52.1350  -54.0240  -23.1750 C   0  0  0  0  0
  -53.0050  -53.5050  -24.3210 C   0  0  0  0  0
  -54.3550  -53.9960  -24.2140 O   0  0  0  0  0
  -53.0050  -51.9640  -24.4230 C   0  0  0  0  0
  -53.7930  -51.3880  -23.3770 O   0  0  0  0  0
  -53.3760  -51.4210  -25.8200 C   0  0  0  0  0
  -53.6610  -50.0220  -25.8470 O   0  0  0  0  0
  -54.5470  -52.0710  -26.4980 C   0  0  0  0  0
  -54.0100  -53.1860  -27.2030 O   0  0  0  0  0
  -52.2340  -55.5400  -23.1530 C   0  0  0  0  0
  -51.4570  -56.0330  -22.0460 O   0  0  0  0  0
  -53.6870  -55.9740  -23.0280 C   0  0  0  0  0
  -54.5890  -55.4180  -24.1440 C   0  0  0  0  0
  -54.2310  -56.1360  -25.4450 C   0  0  0  0  0
  -54.0940  -57.3930  -25.4810 O   0  0  0  0  0
  -54.0390  -55.4540  -26.4830 O   0  0  0  0  0
  -55.9140  -55.5850  -23.5710 O   0  0  0  0  0
  -57.2540  -55.8970  -24.0610 C   0  0  0  0  0
  -58.2620  -54.9710  -23.3100 C   0  0  0  0  0
  -59.6740  -54.9390  -23.9370 C   0  0  0  0  0
  -59.5430  -54.7640  -25.3530 O   0  0  0  0  0
  -60.6190  -53.8660  -23.3730 C   0  0  0  0  0
  -61.9450  -54.0240  -23.9180 O   0  0  0  0  0
  -57.7300  -53.6440  -23.1720 O   0  0  0  0  0
  -57.4790  -55.9770  -25.5790 C   0  0  0  0  0
  -57.0870  -57.2680  -26.0590 O   0  0  0  0  0
  -58.9480  -55.9130  -25.9550 C   0  0  0  0  0
  -59.0610  -55.8770  -27.3720 O   0  0  0  0  0
  -48.3618  -51.6096  -23.1632 H   0  0  0  0  0
  -48.1287  -52.7271  -21.7965 H   0  0  0  0  0
  -48.2208  -53.3600  -23.4584 H   0  0  0  0  0
  -50.1449  -54.2685  -23.9517 H   0  0  0  0  0
  -52.5063  -53.5372  -22.2732 H   0  0  0  0  0
  -52.5589  -53.8896  -25.2382 H   0  0  0  0  0
  -51.9719  -51.6460  -24.2825 H   0  0  0  0  0
  -53.5229  -51.7583  -22.5335 H   0  0  0  0  0
  -52.4595  -51.6627  -26.3582 H   0  0  0  0  0
  -53.8820  -49.7588  -26.7434 H   0  0  0  0  0
  -55.0521  -51.3789  -27.1718 H   0  0  0  0  0
  -55.3031  -52.3817  -25.7770 H   0  0  0  0  0
  -54.7182  -53.6451  -27.6605 H   0  0  0  0  0
  -51.8445  -55.9518  -24.0840 H   0  0  0  0  0
  -50.5455  -55.7484  -22.1444 H   0  0  0  0  0
  -54.0639  -55.5912  -22.0796 H   0  0  0  0  0
  -53.7121  -57.0616  -23.0964 H   0  0  0  0  0
  -54.2756  -57.7586  -24.6121 H   0  0  0  0  0
  -57.4284  -56.9463  -23.8228 H   0  0  0  0  0
  -58.3899  -55.4107  -22.3209 H   0  0  0  0  0
  -60.1388  -55.8909  -23.6803 H   0  0  0  0  0
  -60.2393  -52.8812  -23.6451 H   0  0  0  0  0
  -60.6668  -53.9705  -22.2891 H   0  0  0  0  0
  -62.5213  -53.3470  -23.5559 H   0  0  0  0  0
  -58.3646  -53.0926  -22.7085 H   0  0  0  0  0
  -56.9138  -55.1439  -25.9969 H   0  0  0  0  0
  -57.2296  -57.3124  -27.0073 H   0  0  0  0  0
  -59.4751  -56.7943  -25.5895 H   0  0  0  0  0
  -58.6521  -56.6616  -27.7445 H   0  0  0  0  0
  1  2  2  0  0  0
  2  3  1  0  0  0
  2  4  1  0  0  0
  4  5  1  0  0  0
  5  6  1  0  0  0
  5 14  1  0  0  0
  6  7  1  0  0  0
  6  8  1  0  0  0
  7 17  1  0  0  0
  8  9  1  0  0  0
  8 10  1  0  0  0
 10 11  1  0  0  0
 10 12  1  0  0  0
 12 13  1  0  0  0
 14 15  1  0  0  0
 14 16  1  0  0  0
 16 17  1  0  0  0
 17 18  1  0  0  0
 17 21  1  0  0  0
 18 19  1  0  0  0
 18 20  2  0  0  0
 21 22  1  0  0  0
 22 23  1  0  0  0
 22 29  1  0  0  0
 23 24  1  0  0  0
 23 28  1  0  0  0
 24 25  1  0  0  0
 24 26  1  0  0  0
 25 31  1  0  0  0
 26 27  1  0  0  0
 29 30  1  0  0  0
 29 31  1  0  0  0
 31 32  1  0  0  0
  3 33  1  0  0  0
  3 34  1  0  0  0
  3 35  1  0  0  0
  4 36  1  0  0  0
  5 37  1  0  0  0
  6 38  1  0  0  0
  8 39  1  0  0  0
  9 40  1  0  0  0
 10 41  1  0  0  0
 11 42  1  0  0  0
 12 43  1  0  0  0
 12 44  1  0  0  0
 13 45  1  0  0  0
 14 46  1  0  0  0
 15 47  1  0  0  0
 16 48  1  0  0  0
 16 49  1  0  0  0
 19 50  1  0  0  0
 22 51  1  0  0  0
 23 52  1  0  0  0
 24 53  1  0  0  0
 26 54  1  0  0  0
 26 55  1  0  0  0
 27 56  1  0  0  0
 28 57  1  0  0  0
 29 58  1  0  0  0
 30 59  1  0  0  0
 31 60  1  0  0  0
 32 61  1  0  0  0
M  END
$$$$
