2wq5_ligand
  -I-interpret- 

 63 66  0  0  0  0  0  0  0  0999 V2000
  -13.7090   17.5040   15.1700 O   0  0  0  0  0
  -13.0470   16.6000   15.7240 C   0  0  0  0  0
  -11.8290   16.8560   16.2090 N   0  0  0  0  0
  -13.6040   15.2540   15.8250 C   0  0  0  0  0
  -14.8170   14.9630   16.5640 C   0  0  0  0  0
  -15.7110   15.7740   16.7120 O   0  0  0  0  0
  -13.2320   14.3450   14.9440 C   0  0  0  0  0
  -13.0120   14.7870   13.7140 O   0  0  0  0  0
  -13.4820   12.8690   15.1850 C   0  0  0  0  0
  -12.1880   12.3600   15.7290 N   0  3  0  0  0
  -12.2500   10.8890   15.7920 C   0  0  0  0  0
  -11.7830   12.8300   17.0640 C   0  0  0  0  0
  -14.7580   12.5840   15.9820 C   0  0  0  0  0
  -14.9310   13.5760   17.1120 C   0  0  0  0  0
  -13.8710   13.3470   18.0320 O   0  0  0  0  0
  -16.2480   13.4220   17.8170 C   0  0  0  0  0
  -16.3570   14.0150   19.0040 O   0  0  0  0  0
  -17.2650   12.7430   17.2740 C   0  0  0  0  0
  -17.1760   12.0490   15.9340 C   0  0  0  0  0
  -15.9990   12.5490   15.0990 C   0  0  0  0  0
  -18.5130   12.6370   18.0160 C   0  0  0  0  0
  -18.6120   13.1840   19.1610 O   0  0  0  0  0
  -19.6620   11.9330   17.3640 C   0  0  0  0  0
  -19.6440   11.7150   15.9880 C   0  0  0  0  0
  -18.4730   12.2270   15.1650 C   0  0  0  0  0
  -20.7220   11.4660   18.1310 C   0  0  0  0  0
  -20.7440   11.6730   19.4460 O   0  0  0  0  0
  -21.7790   10.7950   17.5090 C   0  0  0  0  0
  -21.7720   10.5910   16.1330 C   0  0  0  0  0
  -20.6950   11.0470   15.3600 C   0  0  0  0  0
  -20.6560   10.8580   13.9620 N   0  0  0  0  0
  -20.9820   12.1140   13.2920 C   0  0  0  0  0
  -21.5860    9.8450   13.4760 C   0  0  0  0  0
  -11.4345   17.7932   16.1283 H   0  0  0  0  0
  -11.2934   16.1143   16.6601 H   0  0  0  0  0
  -12.9473   15.1321   16.6864 H   0  0  0  0  0
  -12.2203   14.1684   15.3092 H   0  0  0  0  0
  -12.8734   15.7367   13.7365 H   0  0  0  0  0
  -13.7289   12.3129   14.2807 H   0  0  0  0  0
  -11.4904   12.7322   15.0846 H   0  0  0  0  0
  -13.0707   10.5888   16.4435 H   0  0  0  0  0
  -12.4146   10.4904   14.7910 H   0  0  0  0  0
  -11.3104   10.5036   16.1879 H   0  0  0  0  0
  -11.6852   13.9155   17.0514 H   0  0  0  0  0
  -12.5385   12.5404   17.7944 H   0  0  0  0  0
  -10.8265   12.3808   17.3312 H   0  0  0  0  0
  -14.6419   11.5890   16.4117 H   0  0  0  0  0
  -13.9478   13.9608   18.7662 H   0  0  0  0  0
  -15.5282   14.4480   19.2214 H   0  0  0  0  0
  -17.0090   10.9898   16.1295 H   0  0  0  0  0
  -15.8341   11.8821   14.2527 H   0  0  0  0  0
  -16.2118   13.5477   14.7176 H   0  0  0  0  0
  -18.4168   11.6628   14.2341 H   0  0  0  0  0
  -18.6207   13.2861   14.9537 H   0  0  0  0  0
  -21.5413   11.2872   19.8162 H   0  0  0  0  0
  -22.6142   10.4292   18.1062 H   0  0  0  0  0
  -22.6052   10.0758   15.6551 H   0  0  0  0  0
  -21.9810   12.4338   13.5884 H   0  0  0  0  0
  -20.2559   12.8754   13.5769 H   0  0  0  0  0
  -20.9516   11.9670   12.2124 H   0  0  0  0  0
  -21.3511    8.8863   13.9383 H   0  0  0  0  0
  -22.6045   10.1347   13.7346 H   0  0  0  0  0
  -21.4950    9.7597   12.3932 H   0  0  0  0  0
  1  2  2  0  0  0
  2  3  1  0  0  0
  2  4  1  0  0  0
  4  5  1  0  0  0
  4  7  1  0  0  0
  5  6  2  0  0  0
  5 14  1  0  0  0
  7  8  1  0  0  0
  7  9  1  0  0  0
  9 10  1  0  0  0
  9 13  1  0  0  0
 10 11  1  0  0  0
 10 12  1  0  0  0
 13 14  1  0  0  0
 13 20  1  0  0  0
 14 15  1  0  0  0
 14 16  1  0  0  0
 16 17  1  0  0  0
 16 18  2  0  0  0
 18 19  1  0  0  0
 18 21  1  0  0  0
 19 20  1  0  0  0
 19 25  1  0  0  0
 21 22  2  0  0  0
 21 23  1  0  0  0
 23 24  4  0  0  0
 23 26  4  0  0  0
 24 25  1  0  0  0
 24 30  4  0  0  0
 26 27  1  0  0  0
 26 28  4  0  0  0
 28 29  4  0  0  0
 29 30  4  0  0  0
 30 31  1  0  0  0
 31 32  1  0  0  0
 31 33  1  0  0  0
  3 34  1  0  0  0
  3 35  1  0  0  0
  4 36  1  0  0  0
  7 37  1  0  0  0
  8 38  1  0  0  0
  9 39  1  0  0  0
 10 40  1  0  0  0
 11 41  1  0  0  0
 11 42  1  0  0  0
 11 43  1  0  0  0
 12 44  1  0  0  0
 12 45  1  0  0  0
 12 46  1  0  0  0
 13 47  1  0  0  0
 15 48  1  0  0  0
 17 49  1  0  0  0
 19 50  1  0  0  0
 20 51  1  0  0  0
 20 52  1  0  0  0
 25 53  1  0  0  0
 25 54  1  0  0  0
 27 55  1  0  0  0
 28 56  1  0  0  0
 29 57  1  0  0  0
 32 58  1  0  0  0
 32 59  1  0  0  0
 32 60  1  0  0  0
 33 61  1  0  0  0
 33 62  1  0  0  0
 33 63  1  0  0  0
M  END
$$$$
