### 
### Created by X-TOOL on Mon Sep 10 21:13:09 2018
### 

@<TRIPOS>MOLECULE
4emt_ligand
   68    74     1     0     0
SMALL
GAST_HUCK


@<TRIPOS>ATOM
      1 P1         54.4070   16.8200   76.6630 P.3       1 C2E         0.2557
      2 O2P        55.7250   17.6500   76.8540 O.co2     1 C2E        -0.6177
      3 O1P        54.7330   15.3540   76.4060 O.co2     1 C2E        -0.6177
      4 O5'        53.6820   17.4840   75.4520 O.3       1 C2E        -0.2514
      5 C5'        53.2490   18.8080   75.5500 C.3       1 C2E         0.1128
      6 C4'        52.3350   19.2720   74.5340 C.3       1 C2E         0.1242
      7 O4'        52.9910   19.2280   73.1670 O.3       1 C2E        -0.3359
      8 C3'        51.1520   18.4060   74.4030 C.3       1 C2E         0.1540
      9 O3'        50.1980   18.8080   75.3300 O.3       1 C2E        -0.2453
     10 C2'        50.7350   18.6470   73.0270 C.3       1 C2E         0.1440
     11 O2'        50.0610   19.8750   72.9400 O.3       1 C2E        -0.3832
     12 C1'        52.0240   18.7300   72.2940 C.3       1 C2E         0.1996
     13 N9         52.4090   17.3980   71.6920 N.pl3     1 C2E        -0.2101
     14 C8         52.9980   16.3730   72.3370 C.2       1 C2E         0.0957
     15 N7         53.1980   15.3570   71.4860 N.2       1 C2E        -0.3235
     16 C5         52.7140   15.7280   70.2780 C.2       1 C2E         0.0926
     17 C6         52.6290   15.1370   69.0150 C.2       1 C2E         0.2135
     18 O6         53.0740   13.8950   68.7780 O.2       1 C2E        -0.4091
     19 N1         52.0760   15.8180   68.0090 N.am      1 C2E        -0.1839
     20 C2         51.6200   17.0670   68.1900 C.2       1 C2E         0.2340
     21 N2         51.0530   17.7430   67.1080 N.pl3     1 C2E        -0.2807
     22 N3         51.6850   17.6660   69.3770 N.2       1 C2E        -0.2765
     23 C4         52.2270   17.0220   70.4160 C.2       1 C2E         0.1159
     24 P11        49.2220   17.6990   75.9800 P.3       1 C2E         0.2557
     25 O21        48.1010   18.4490   76.6470 O.co2     1 C2E        -0.6177
     26 O11        48.7260   16.7040   75.0090 O.co2     1 C2E        -0.6177
     27 O5A        49.9880   16.9250   77.1150 O.3       1 C2E        -0.2514
     28 C5A        50.6030   17.6780   78.1970 C.3       1 C2E         0.1128
     29 C4A        51.5170   16.8800   79.1150 C.3       1 C2E         0.1242
     30 O4A        50.7610   15.8920   79.7400 O.3       1 C2E        -0.3359
     31 C3A        52.4910   16.1540   78.3560 C.3       1 C2E         0.1540
     32 O3A        53.5960   17.0510   78.0030 O.3       1 C2E        -0.2453
     33 C2A        52.8650   15.1610   79.2480 C.3       1 C2E         0.1440
     34 O2A        53.6950   15.6710   80.2480 O.3       1 C2E        -0.3832
     35 C1A        51.5450   14.7610   79.8210 C.3       1 C2E         0.1996
     36 N91        50.9530   13.6400   79.0890 N.pl3     1 C2E        -0.2101
     37 C81        50.2750   13.6730   77.9250 C.2       1 C2E         0.0957
     38 N71        49.9310   12.4290   77.5740 N.2       1 C2E        -0.3235
     39 C51        50.3940   11.5840   78.5240 C.2       1 C2E         0.0926
     40 C61        50.3550   10.2050   78.7190 C.2       1 C2E         0.2135
     41 O61        49.7390    9.3560   77.8350 O.2       1 C2E        -0.4091
     42 N11        50.9470    9.6920   79.8020 N.am      1 C2E        -0.1839
     43 C21        51.5510   10.5010   80.6870 C.2       1 C2E         0.2340
     44 N21        52.1640    9.8940   81.8290 N.pl3     1 C2E        -0.2807
     45 N31        51.6280   11.8160   80.5510 N.2       1 C2E        -0.2765
     46 C41        51.0540   12.3560   79.4730 C.2       1 C2E         0.1159
     47 H1         54.1397   19.4526   75.5154 H         1 C2E         0.0647
     48 H2         52.7503   18.9236   76.5236 H         1 C2E         0.0647
     49 H3         52.0247   20.2988   74.7778 H         1 C2E         0.0655
     50 H4         51.4010   17.3462   74.5601 H         1 C2E         0.0712
     51 H5         50.1006   17.8334   72.6454 H         1 C2E         0.0681
     52 H6         49.2947   19.8548   73.5012 H         1 C2E         0.2102
     53 H7         51.9076   19.4456   71.4668 H         1 C2E         0.0998
     54 H8         53.2707   16.3701   73.3913 H         1 C2E         0.1179
     55 H9         52.0004   15.3914   67.1077 H         1 C2E         0.2515
     56 H10        50.6979   18.7023   67.2289 H         1 C2E         0.1897
     57 H11        50.9898   17.2825   66.1889 H         1 C2E         0.1897
     58 H12        49.7978   18.1077   78.8110 H         1 C2E         0.0647
     59 H13        51.1964   18.4894   77.7504 H         1 C2E         0.0647
     60 H14        51.9992   17.5451   79.8465 H         1 C2E         0.0655
     61 H15        52.0588   15.7220   77.4414 H         1 C2E         0.0712
     62 H16        53.3618   14.3221   78.7387 H         1 C2E         0.0681
     63 H17        54.4780   16.0359   79.8526 H         1 C2E         0.2102
     64 H18        51.6684   14.4659   80.8735 H         1 C2E         0.0998
     65 H19        50.0430   14.5732   77.3578 H         1 C2E         0.1179
     66 H20        50.9400    8.7035   79.9534 H         1 C2E         0.2515
     67 H21        52.6377   10.4797   82.5315 H         1 C2E         0.1897
     68 H22        52.1314    8.8715   81.9484 H         1 C2E         0.1897
@<TRIPOS>BOND
     1    1    2 ar 
     2    1    3 ar 
     3    1    4 1  
     4    1   32 1  
     5    4    5 1  
     6    5    6 1  
     7    6    7 1  
     8    6    8 1  
     9    7   12 1  
    10    8    9 1  
    11    8   10 1  
    12    9   24 1  
    13   10   11 1  
    14   10   12 1  
    15   12   13 1  
    16   13   14 1  
    17   13   23 1  
    18   14   15 2  
    19   15   16 1  
    20   16   17 1  
    21   16   23 2  
    22   17   18 2  
    23   17   19 am 
    24   19   20 am 
    25   20   21 1  
    26   20   22 2  
    27   22   23 1  
    28   24   25 ar 
    29   24   26 ar 
    30   24   27 1  
    31   27   28 1  
    32   28   29 1  
    33   29   30 1  
    34   29   31 1  
    35   30   35 1  
    36   31   32 1  
    37   31   33 1  
    38   33   34 1  
    39   33   35 1  
    40   35   36 1  
    41   36   37 1  
    42   36   46 1  
    43   37   38 2  
    44   38   39 1  
    45   39   40 1  
    46   39   46 2  
    47   40   41 2  
    48   40   42 am 
    49   42   43 am 
    50   43   44 1  
    51   43   45 2  
    52   45   46 1  
    53    5   47 1  
    54    5   48 1  
    55    6   49 1  
    56    8   50 1  
    57   10   51 1  
    58   11   52 1  
    59   12   53 1  
    60   14   54 1  
    61   19   55 1  
    62   21   56 1  
    63   21   57 1  
    64   28   58 1  
    65   28   59 1  
    66   29   60 1  
    67   31   61 1  
    68   33   62 1  
    69   34   63 1  
    70   35   64 1  
    71   37   65 1  
    72   42   66 1  
    73   44   67 1  
    74   44   68 1  
@<TRIPOS>SUBSTRUCTURE
     1 C2E         1

