2pnx_ligand
  -I-interpret- 

192191  0  0  0  0  0  0  0  0999 V2000
   52.1600    6.7710    9.0900 N   0  3  0  0  0
   52.5030    7.0450   10.5150 C   0  0  0  0  0
   51.5630    8.0970   11.1060 C   0  0  0  0  0
   51.0320    8.9430   10.3850 O   0  0  0  0  0
   53.9450    7.5210   10.6130 C   0  0  0  0  0
   51.3610    8.0400   12.4190 N   0  0  0  0  0
   50.4900    8.9980   13.0960 C   0  0  0  0  0
   51.3640   10.1630   13.5700 C   0  0  0  0  0
   52.3800    9.9630   14.2370 O   0  0  0  0  0
   49.7740    8.3180   14.2670 C   0  0  0  0  0
   50.6920    7.7330   15.3200 C   0  0  0  0  0
   50.0990    6.4650   15.9300 C   0  0  0  0  0
   50.6670    6.1910   17.2450 N   0  0  0  0  0
   50.3610    6.8800   18.3410 C   0  0  0  0  0
   49.4880    7.8770   18.2740 N   0  0  0  0  0
   50.9350    6.5830   19.4990 N   0  0  0  0  0
   50.9700   11.3780   13.2090 N   0  0  0  0  0
   51.7530   12.5550   13.5660 C   0  0  0  0  0
   50.8370   13.6680   14.0550 C   0  0  0  0  0
   49.6100   13.5730   13.9880 O   0  0  0  0  0
   52.5220   13.0820   12.3430 C   0  0  0  0  0
   51.5860   13.4250   11.3100 O   0  0  0  0  0
   53.4820   12.0250   11.8160 C   0  0  0  0  0
   51.4590   14.7270   14.5580 N   0  0  0  0  0
   50.7260   15.8920   15.0220 C   0  0  0  0  0
   50.1780   15.7450   16.4490 C   0  0  0  0  0
   51.0400   16.3940   17.5330 C   0  0  0  0  0
   50.4540   16.2480   18.9320 C   0  0  0  0  0
   51.2600   15.3010   19.8210 C   0  0  0  0  0
   51.7470   15.9680   21.0840 N   0  3  0  0  0
   51.6460   17.1060   14.8840 C   0  0  0  0  0
   52.8670   17.0090   15.0690 O   0  0  0  0  0
   52.8610   15.4080   21.8810 C   0  0  0  0  0
   50.9210   16.8940   21.9460 C   0  0  0  0  0
   50.9160   14.9060   21.7470 C   0  0  0  0  0
   51.0450   18.2380   14.5320 N   0  0  0  0  0
   51.7770   19.4900   14.3500 C   0  0  0  0  0
   51.5740   20.3450   15.5940 C   0  0  0  0  0
   50.5430   20.2510   16.2610 O   0  0  0  0  0
   51.2370   20.2490   13.1370 C   0  0  0  0  0
   51.4070   19.5510   11.8030 C   0  0  0  0  0
   52.8530   19.5140   11.3450 C   0  0  0  0  0
   53.6830   20.3030   11.8030 O   0  0  0  0  0
   53.1590   18.6070   10.4220 N   0  0  0  0  0
   52.5610   21.1820   15.8930 N   0  0  0  0  0
   52.4960   22.0810   17.0490 C   0  0  0  0  0
   52.8360   23.4700   16.5280 C   0  0  0  0  0
   53.7920   23.6200   15.7720 O   0  0  0  0  0
   53.5410   21.7040   18.1130 C   0  0  0  0  0
   53.5440   20.2860   18.2970 O   0  0  0  0  0
   53.2160   22.3690   19.4400 C   0  0  0  0  0
   52.0560   24.4750   16.9160 N   0  0  0  0  0
   52.3110   25.8510   16.4680 C   0  0  0  0  0
   53.6910   26.2780   16.9860 C   0  0  0  0  0
   54.4630   26.9150   16.2670 O   0  0  0  0  0
   51.2280   26.7870   16.9960 C   0  0  0  0  0
   53.9930   25.9250   18.2330 N   0  0  0  0  0
   55.2940   26.2570   18.8350 C   0  0  0  0  0
   56.3680   25.5890   17.9670 C   0  0  0  0  0
   56.2680   24.4030   17.6600 O   0  0  0  0  0
   55.3680   25.7190   20.2680 C   0  0  0  0  0
   56.6620   26.0550   20.9960 C   0  0  0  0  0
   56.7780   25.2810   22.2980 C   0  0  0  0  0
   55.7120   25.6020   23.2450 N   0  0  0  0  0
   55.6290   26.7420   23.9220 C   0  0  0  0  0
   56.5520   27.6830   23.7630 N   0  0  0  0  0
   54.6240   26.9410   24.7650 N   0  0  0  0  0
   57.3910   26.3480   17.5790 N   0  0  0  0  0
   58.4510   25.8160   16.7120 C   0  0  0  0  0
   59.6270   25.2660   17.5260 C   0  0  0  0  0
   60.3920   24.4440   17.0250 O   0  0  0  0  0
   58.9500   26.9060   15.7600 C   0  0  0  0  0
   57.8710   27.5030   14.8680 C   0  0  0  0  0
   57.2840   26.4680   13.9220 C   0  0  0  0  0
   56.2450   27.0980   13.0020 C   0  0  0  0  0
   55.7010   26.1280   12.0090 N   0  3  0  0  0
   59.7830   25.7160   18.7660 N   0  0  0  0  0
   60.8870   25.2300   19.5990 C   0  0  0  0  0
   60.5900   25.5250   21.0670 C   0  0  0  0  0
   59.6810   26.2870   21.3850 O   0  0  0  0  0
   62.2020   25.8980   19.1830 C   0  0  0  0  0
   62.1050   27.3100   19.2490 O   0  0  0  0  0
   61.3680   24.9140   21.9560 N   0  0  0  0  0
   61.1880   25.1060   23.3960 C   0  0  0  0  0
   61.4870   26.5660   23.7440 C   0  0  0  0  0
   61.9380   27.3100   22.8470 O   0  0  0  0  0
   62.1370   24.1950   24.2050 C   0  0  0  0  0
   63.4920   24.4380   23.8040 O   0  0  0  0  0
   61.7990   22.7300   23.9740 C   0  0  0  0  0
   51.1929    6.4524    9.0295 H   0  0  0  0  0
   52.2725    7.6253    8.5441 H   0  0  0  0  0
   52.7807    6.0486    8.7250 H   0  0  0  0  0
   52.3867    6.1231   11.0848 H   0  0  0  0  0
   54.0568    8.4536   10.0600 H   0  0  0  0  0
   54.2019    7.6847   11.6596 H   0  0  0  0  0
   54.6056    6.7645   10.1894 H   0  0  0  0  0
   51.8235    7.3128   12.9646 H   0  0  0  0  0
   49.7187    9.3718   12.4226 H   0  0  0  0  0
   49.2024    7.4889   13.8498 H   0  0  0  0  0
   49.1754    9.0842   14.7596 H   0  0  0  0  0
   50.8254    8.4697   16.1122 H   0  0  0  0  0
   51.6426    7.4804   14.8502 H   0  0  0  0  0
   50.3267    5.6256   15.2729 H   0  0  0  0  0
   49.0235    6.6040   16.0397 H   0  0  0  0  0
   51.3375    5.4270   17.3292 H   0  0  0  0  0
   49.2601    8.4125   19.1117 H   0  0  0  0  0
   49.0448    8.1079   17.3848 H   0  0  0  0  0
   51.6140    5.8237   19.5517 H   0  0  0  0  0
   50.1082   11.4897   12.6749 H   0  0  0  0  0
   52.4507   12.2638   14.3512 H   0  0  0  0  0
   53.0954   13.9599   12.6405 H   0  0  0  0  0
   52.0625   13.7545   10.5445 H   0  0  0  0  0
   54.1963   11.7633   12.5966 H   0  0  0  0  0
   52.9194   11.1381   11.5243 H   0  0  0  0  0
   54.0153   12.4193   10.9510 H   0  0  0  0  0
   52.4771   14.7227   14.6203 H   0  0  0  0  0
   49.8360   16.0156   14.4049 H   0  0  0  0  0
   50.1428   14.6777   16.6676 H   0  0  0  0  0
   49.2099   16.2454   16.4708 H   0  0  0  0  0
   51.1041   17.4592   17.3109 H   0  0  0  0  0
   52.0094   15.8958   17.5269 H   0  0  0  0  0
   49.4505   15.8347   18.8303 H   0  0  0  0  0
   50.4636   17.2321   19.4005 H   0  0  0  0  0
   52.1325   14.9713   19.2569 H   0  0  0  0  0
   50.6104   14.4736   20.1067 H   0  0  0  0  0
   52.5971   14.4055   22.2177 H   0  0  0  0  0
   53.7590   15.3611   21.2650 H   0  0  0  0  0
   53.0446   16.0464   22.7452 H   0  0  0  0  0
   50.6079   17.7551   21.3556 H   0  0  0  0  0
   50.0418   16.3621   22.3095 H   0  0  0  0  0
   51.5195   17.2305   22.7926 H   0  0  0  0  0
   49.8779   15.0086   21.4308 H   0  0  0  0  0
   51.2890   13.9228   21.4602 H   0  0  0  0  0
   50.9804   15.0189   22.8292 H   0  0  0  0  0
   50.0359   18.2329   14.3834 H   0  0  0  0  0
   52.8337   19.2748   14.1914 H   0  0  0  0  0
   51.8025   21.1788   13.0754 H   0  0  0  0  0
   50.1643   20.3623   13.2938 H   0  0  0  0  0
   50.8333   20.1039   11.0592 H   0  0  0  0  0
   51.0642   18.5225   11.9161 H   0  0  0  0  0
   54.1124   18.5443   10.0649 H   0  0  0  0  0
   52.4403   17.9739   10.0711 H   0  0  0  0  0
   53.3904   21.1998   15.2995 H   0  0  0  0  0
   51.5085   22.0244   17.5070 H   0  0  0  0  0
   54.5193   22.0432   17.7723 H   0  0  0  0  0
   54.1965   20.0520   18.9612 H   0  0  0  0  0
   53.2157   23.4515   19.3120 H   0  0  0  0  0
   52.2328   22.0415   19.7779 H   0  0  0  0  0
   53.9672   22.0894   20.1787 H   0  0  0  0  0
   51.2674   24.2874   17.5351 H   0  0  0  0  0
   52.2935   25.9002   15.3793 H   0  0  0  0  0
   50.2564   26.4639   16.6221 H   0  0  0  0  0
   51.2265   26.7607   18.0857 H   0  0  0  0  0
   51.4301   27.8027   16.6561 H   0  0  0  0  0
   53.3058   25.4117   18.7850 H   0  0  0  0  0
   55.4388   27.3365   18.8775 H   0  0  0  0  0
   55.3069   24.6324   20.2067 H   0  0  0  0  0
   54.5552   26.1823   20.8273 H   0  0  0  0  0
   56.6659   27.1209   21.2238 H   0  0  0  0  0
   57.5014   25.7850   20.3552 H   0  0  0  0  0
   57.7277   25.5481   22.7615 H   0  0  0  0  0
   56.7065   24.2192   22.0625 H   0  0  0  0  0
   54.9834   24.9044   23.3961 H   0  0  0  0  0
   56.4869   28.5551   24.2880 H   0  0  0  0  0
   57.3262   27.5338   23.1159 H   0  0  0  0  0
   53.9153   26.2188   24.8932 H   0  0  0  0  0
   57.4396   27.3182   17.8900 H   0  0  0  0  0
   58.0235   24.9939   16.1379 H   0  0  0  0  0
   59.6884   26.4447   15.1042 H   0  0  0  0  0
   59.3397   27.7158   16.3768 H   0  0  0  0  0
   58.3203   28.2968   14.2712 H   0  0  0  0  0
   57.0698   27.8790   15.5043 H   0  0  0  0  0
   56.8025   25.6878   14.5116 H   0  0  0  0  0
   58.0876   26.0554   13.3120 H   0  0  0  0  0
   56.7272   27.9070   12.4533 H   0  0  0  0  0
   55.4174   27.4487   13.6186 H   0  0  0  0  0
   55.0128   26.5965   11.4197 H   0  0  0  0  0
   56.4619   25.7739   11.4294 H   0  0  0  0  0
   55.2574   25.3524   12.5010 H   0  0  0  0  0
   59.1303   26.4043   19.1411 H   0  0  0  0  0
   60.9874   24.1533   19.4623 H   0  0  0  0  0
   62.4261   25.6131   18.1550 H   0  0  0  0  0
   62.9878   25.5718   19.8643 H   0  0  0  0  0
   62.9412   27.6998   18.9836 H   0  0  0  0  0
   62.1091   24.2958   21.6259 H   0  0  0  0  0
   60.1601   24.8493   23.6522 H   0  0  0  0  0
   61.3109   26.9476   24.7497 H   0  0  0  0  0
   62.0169   24.4209   25.2645 H   0  0  0  0  0
   64.0803   23.8709   24.3079 H   0  0  0  0  0
   60.7730   22.5410   24.2896 H   0  0  0  0  0
   61.9032   22.4971   22.9143 H   0  0  0  0  0
   62.4795   22.1058   24.5531 H   0  0  0  0  0
  1  2  1  0  0  0
  2  3  1  0  0  0
  2  5  1  0  0  0
  3  4  2  0  0  0
  3  6  1  0  0  0
  6  7  1  0  0  0
  7  8  1  0  0  0
  7 10  1  0  0  0
  8  9  2  0  0  0
  8 17  1  0  0  0
 10 11  1  0  0  0
 11 12  1  0  0  0
 12 13  1  0  0  0
 13 14  1  0  0  0
 14 15  1  0  0  0
 14 16  2  0  0  0
 17 18  1  0  0  0
 18 19  1  0  0  0
 18 21  1  0  0  0
 19 20  2  0  0  0
 19 24  1  0  0  0
 21 22  1  0  0  0
 21 23  1  0  0  0
 24 25  1  0  0  0
 25 26  1  0  0  0
 25 31  1  0  0  0
 26 27  1  0  0  0
 27 28  1  0  0  0
 28 29  1  0  0  0
 29 30  1  0  0  0
 30 33  1  0  0  0
 30 34  1  0  0  0
 30 35  1  0  0  0
 31 32  2  0  0  0
 31 36  1  0  0  0
 36 37  1  0  0  0
 37 38  1  0  0  0
 37 40  1  0  0  0
 38 39  2  0  0  0
 38 45  1  0  0  0
 40 41  1  0  0  0
 41 42  1  0  0  0
 42 43  2  0  0  0
 42 44  1  0  0  0
 45 46  1  0  0  0
 46 47  1  0  0  0
 46 49  1  0  0  0
 47 48  2  0  0  0
 47 52  1  0  0  0
 49 50  1  0  0  0
 49 51  1  0  0  0
 52 53  1  0  0  0
 53 54  1  0  0  0
 53 56  1  0  0  0
 54 55  2  0  0  0
 54 57  1  0  0  0
 57 58  1  0  0  0
 58 59  1  0  0  0
 58 61  1  0  0  0
 59 60  2  0  0  0
 59 68  1  0  0  0
 61 62  1  0  0  0
 62 63  1  0  0  0
 63 64  1  0  0  0
 64 65  1  0  0  0
 65 66  1  0  0  0
 65 67  2  0  0  0
 68 69  1  0  0  0
 69 70  1  0  0  0
 69 72  1  0  0  0
 70 71  2  0  0  0
 70 77  1  0  0  0
 72 73  1  0  0  0
 73 74  1  0  0  0
 74 75  1  0  0  0
 75 76  1  0  0  0
 77 78  1  0  0  0
 78 79  1  0  0  0
 78 81  1  0  0  0
 79 80  2  0  0  0
 79 83  1  0  0  0
 81 82  1  0  0  0
 83 84  1  0  0  0
 84 85  1  0  0  0
 84 87  1  0  0  0
 85 86  2  0  0  0
 87 88  1  0  0  0
 87 89  1  0  0  0
  1 90  1  0  0  0
  1 91  1  0  0  0
  1 92  1  0  0  0
  2 93  1  0  0  0
  5 94  1  0  0  0
  5 95  1  0  0  0
  5 96  1  0  0  0
  6 97  1  0  0  0
  7 98  1  0  0  0
 10 99  1  0  0  0
 10100  1  0  0  0
 11101  1  0  0  0
 11102  1  0  0  0
 12103  1  0  0  0
 12104  1  0  0  0
 13105  1  0  0  0
 15106  1  0  0  0
 15107  1  0  0  0
 16108  1  0  0  0
 17109  1  0  0  0
 18110  1  0  0  0
 21111  1  0  0  0
 22112  1  0  0  0
 23113  1  0  0  0
 23114  1  0  0  0
 23115  1  0  0  0
 24116  1  0  0  0
 25117  1  0  0  0
 26118  1  0  0  0
 26119  1  0  0  0
 27120  1  0  0  0
 27121  1  0  0  0
 28122  1  0  0  0
 28123  1  0  0  0
 29124  1  0  0  0
 29125  1  0  0  0
 33126  1  0  0  0
 33127  1  0  0  0
 33128  1  0  0  0
 34129  1  0  0  0
 34130  1  0  0  0
 34131  1  0  0  0
 35132  1  0  0  0
 35133  1  0  0  0
 35134  1  0  0  0
 36135  1  0  0  0
 37136  1  0  0  0
 40137  1  0  0  0
 40138  1  0  0  0
 41139  1  0  0  0
 41140  1  0  0  0
 44141  1  0  0  0
 44142  1  0  0  0
 45143  1  0  0  0
 46144  1  0  0  0
 49145  1  0  0  0
 50146  1  0  0  0
 51147  1  0  0  0
 51148  1  0  0  0
 51149  1  0  0  0
 52150  1  0  0  0
 53151  1  0  0  0
 56152  1  0  0  0
 56153  1  0  0  0
 56154  1  0  0  0
 57155  1  0  0  0
 58156  1  0  0  0
 61157  1  0  0  0
 61158  1  0  0  0
 62159  1  0  0  0
 62160  1  0  0  0
 63161  1  0  0  0
 63162  1  0  0  0
 64163  1  0  0  0
 66164  1  0  0  0
 66165  1  0  0  0
 67166  1  0  0  0
 68167  1  0  0  0
 69168  1  0  0  0
 72169  1  0  0  0
 72170  1  0  0  0
 73171  1  0  0  0
 73172  1  0  0  0
 74173  1  0  0  0
 74174  1  0  0  0
 75175  1  0  0  0
 75176  1  0  0  0
 76177  1  0  0  0
 76178  1  0  0  0
 76179  1  0  0  0
 77180  1  0  0  0
 78181  1  0  0  0
 81182  1  0  0  0
 81183  1  0  0  0
 82184  1  0  0  0
 83185  1  0  0  0
 84186  1  0  0  0
 85187  1  0  0  0
 87188  1  0  0  0
 88189  1  0  0  0
 89190  1  0  0  0
 89191  1  0  0  0
 89192  1  0  0  0
M  END
$$$$
