### 
### Created by X-TOOL on Sun Sep  9 21:50:47 2018
### 

@<TRIPOS>MOLECULE
2pnx_ligand
  194   193     1     0     0
SMALL
GAST_HUCK


@<TRIPOS>ATOM
      1 N          52.1600    6.7710    9.0900 N.4       1 NON         0.2377
      2 CA         52.5030    7.0450   10.5150 C.3       1 NON         0.0621
      3 C          51.5630    8.0970   11.1060 C.2       1 NON         0.2264
      4 O          51.0320    8.9430   10.3850 O.2       1 NON        -0.3907
      5 CB         53.9450    7.5210   10.6130 C.3       1 NON        -0.0040
      6 N          51.3610    8.0400   12.4190 N.am      1 NON        -0.2610
      7 CA         50.4900    8.9980   13.0960 C.3       1 NON         0.1312
      8 C          51.3640   10.1630   13.5700 C.2       1 NON         0.2040
      9 O          52.3800    9.9630   14.2370 O.2       1 NON        -0.3944
     10 CB         49.7740    8.3180   14.2670 C.3       1 NON        -0.0092
     11 CG         50.6920    7.7330   15.3200 C.3       1 NON        -0.0156
     12 CD         50.0990    6.4650   15.9300 C.3       1 NON         0.0627
     13 NE         50.6670    6.1910   17.2450 N.pl3     1 NON        -0.2723
     14 CZ         50.3610    6.8800   18.3410 C.cat     1 NON         0.2882
     15 NH1        49.4880    7.8770   18.2740 N.pl3     1 NON        -0.2849
     16 NH2        50.9350    6.5830   19.4990 N.pl3     1 NON        -0.2849
     17 N          50.9700   11.3780   13.2090 N.am      1 NON        -0.2613
     18 CA         51.7530   12.5550   13.5660 C.3       1 NON         0.1565
     19 C          50.8370   13.6680   14.0550 C.2       1 NON         0.2065
     20 O          49.6100   13.5730   13.9880 O.2       1 NON        -0.3943
     21 CB         52.5220   13.0820   12.3430 C.3       1 NON         0.0924
     22 OG1        51.5860   13.4250   11.3100 O.3       1 NON        -0.3874
     23 CG2        53.4820   12.0250   11.8160 C.3       1 NON        -0.0346
     24 N          51.4590   14.7270   14.5580 N.am      1 NON        -0.2637
     25 CA         50.7260   15.8920   15.0220 C.3       1 NON         0.1310
     26 CB         50.1780   15.7450   16.4490 C.3       1 NON        -0.0122
     27 CG         51.0400   16.3940   17.5330 C.3       1 NON        -0.0440
     28 CD         50.4540   16.2480   18.9320 C.3       1 NON        -0.0123
     29 CE         51.2600   15.3010   19.8210 C.3       1 NON        -0.0309
     30 NZ         51.7470   15.9680   21.0840 N.4       1 NON         0.2369
     31 C          51.6460   17.1060   14.8840 C.2       1 NON         0.2039
     32 O          52.8670   17.0090   15.0690 O.2       1 NON        -0.3944
     33 CM1        52.8610   15.4080   21.8810 C.3       1 NON        -0.0418
     34 CM2        50.9210   16.8940   21.9460 C.3       1 NON        -0.0418
     35 CM3        50.9160   14.9060   21.7470 C.3       1 NON        -0.0418
     36 N          51.0450   18.2380   14.5320 N.am      1 NON        -0.2636
     37 CA         51.7770   19.4900   14.3500 C.3       1 NON         0.1330
     38 C          51.5740   20.3450   15.5940 C.2       1 NON         0.2041
     39 O          50.5430   20.2510   16.2610 O.2       1 NON        -0.3944
     40 CB         51.2370   20.2490   13.1370 C.3       1 NON         0.0045
     41 CG         51.4070   19.5510   11.8030 C.3       1 NON         0.0412
     42 CD         52.8530   19.5140   11.3450 C.2       1 NON         0.1737
     43 OE1        53.6830   20.3030   11.8030 O.2       1 NON        -0.3973
     44 NE2        53.1590   18.6070   10.4220 N.am      1 NON        -0.3009
     45 N          52.5610   21.1820   15.8930 N.am      1 NON        -0.2613
     46 CA         52.4960   22.0810   17.0490 C.3       1 NON         0.1565
     47 C          52.8360   23.4700   16.5280 C.2       1 NON         0.2065
     48 O          53.7920   23.6200   15.7720 O.2       1 NON        -0.3943
     49 CB         53.5410   21.7040   18.1130 C.3       1 NON         0.0924
     50 OG1        53.5440   20.2860   18.2970 O.3       1 NON        -0.3874
     51 CG2        53.2160   22.3690   19.4400 C.3       1 NON        -0.0346
     52 N          52.0560   24.4750   16.9160 N.am      1 NON        -0.2639
     53 CA         52.3110   25.8510   16.4680 C.3       1 NON         0.1282
     54 C          53.6910   26.2780   16.9860 C.2       1 NON         0.2036
     55 O          54.4630   26.9150   16.2670 O.2       1 NON        -0.3944
     56 CB         51.2280   26.7870   16.9960 C.3       1 NON        -0.0244
     57 N          53.9930   25.9250   18.2330 N.am      1 NON        -0.2637
     58 CA         55.2940   26.2570   18.8350 C.3       1 NON         0.1311
     59 C          56.3680   25.5890   17.9670 C.2       1 NON         0.2039
     60 O          56.2680   24.4030   17.6600 O.2       1 NON        -0.3944
     61 CB         55.3680   25.7190   20.2680 C.3       1 NON        -0.0092
     62 CG         56.6620   26.0550   20.9960 C.3       1 NON        -0.0156
     63 CD         56.7780   25.2810   22.2980 C.3       1 NON         0.0627
     64 NE         55.7120   25.6020   23.2450 N.pl3     1 NON        -0.2723
     65 CZ         55.6290   26.7420   23.9220 C.cat     1 NON         0.2882
     66 NH1        56.5520   27.6830   23.7630 N.pl3     1 NON        -0.2849
     67 NH2        54.6240   26.9410   24.7650 N.pl3     1 NON        -0.2849
     68 N          57.3910   26.3480   17.5790 N.am      1 NON        -0.2637
     69 CA         58.4510   25.8160   16.7120 C.3       1 NON         0.1310
     70 C          59.6270   25.2660   17.5260 C.2       1 NON         0.2040
     71 O          60.3920   24.4440   17.0250 O.2       1 NON        -0.3944
     72 CB         58.9500   26.9060   15.7600 C.3       1 NON        -0.0122
     73 CG         57.8710   27.5030   14.8680 C.3       1 NON        -0.0440
     74 CD         57.2840   26.4680   13.9220 C.3       1 NON        -0.0124
     75 CE         56.2450   27.0980   13.0020 C.3       1 NON        -0.0354
     76 NZ         55.7010   26.1280   12.0090 N.4       1 NON         0.2185
     77 N          59.7830   25.7160   18.7660 N.am      1 NON        -0.2616
     78 CA         60.8870   25.2300   19.5990 C.3       1 NON         0.1539
     79 C          60.5900   25.5250   21.0670 C.2       1 NON         0.2063
     80 O          59.6810   26.2870   21.3850 O.2       1 NON        -0.3943
     81 CB         62.2020   25.8980   19.1830 C.3       1 NON         0.0843
     82 OG         62.1050   27.3100   19.2490 O.3       1 NON        -0.3903
     83 N          61.3680   24.9140   21.9560 N.am      1 NON        -0.2624
     84 CA         61.1880   25.1060   23.3960 C.3       1 NON         0.1382
     85 C          61.4870   26.5660   23.7440 C.2       1 NON         0.1270
     86 O          61.9380   27.3100   22.8470 O.2       1 NON        -0.3724
     87 CB         62.1370   24.1950   24.2050 C.3       1 NON         0.0911
     88 OG1        63.4920   24.4380   23.8040 O.3       1 NON        -0.3873
     89 CG2        61.7990   22.7300   23.9740 C.3       1 NON        -0.0345
     90 H1         52.7901    6.0765    8.7203 H         1 NON         0.2015
     91 H2         52.2451    7.6207    8.5545 H         1 NON         0.2015
     92 H3         51.2131    6.4305    9.0318 H         1 NON         0.2015
     93 H4         52.3955    6.1135   11.0900 H         1 NON         0.1095
     94 H5         54.1940    7.7220   11.6654 H         1 NON         0.0310
     95 H6         54.0678    8.4424   10.0248 H         1 NON         0.0310
     96 H7         54.6156    6.7428   10.2197 H         1 NON         0.0310
     97 H8         51.8144    7.3270   12.9539 H         1 NON         0.1884
     98 H9         49.7355    9.3741   12.3894 H         1 NON         0.0800
     99 H10        49.1544    7.5039   13.8629 H         1 NON         0.0313
    100 H11        49.1279    9.0641   14.7527 H         1 NON         0.0313
    101 H12        50.8438    8.4766   16.1163 H         1 NON         0.0301
    102 H13        51.6594    7.4892   14.8567 H         1 NON         0.0301
    103 H14        50.3106    5.6150   15.2647 H         1 NON         0.0689
    104 H15        49.0108    6.5908   16.0294 H         1 NON         0.0689
    105 H16        51.3441    5.4195   17.3300 H         1 NON         0.2642
    106 H17        49.2503    8.4112   19.1219 H         1 NON         0.2615
    107 H18        49.0481    8.1167   17.3741 H         1 NON         0.2615
    108 H19        51.6131    5.8097   19.5543 H         1 NON         0.2615
    109 H20        50.7027    7.1257   20.3431 H         1 NON         0.2615
    110 H21        50.1251   11.4876   12.6854 H         1 NON         0.1884
    111 H22        52.4645   12.2862   14.3607 H         1 NON         0.0826
    112 H23        53.0929   13.9765   12.6328 H         1 NON         0.0639
    113 H24        52.0575   13.7511   10.5525 H         1 NON         0.2101
    114 H25        54.0209   12.4218   10.9430 H         1 NON         0.0257
    115 H26        52.9155   11.1294   11.5212 H         1 NON         0.0257
    116 H27        54.2035   11.7600   12.6029 H         1 NON         0.0257
    117 H28        52.4571   14.7228   14.6191 H         1 NON         0.1883
    118 H29        49.8621   16.0364   14.3565 H         1 NON         0.0800
    119 H30        50.0934   14.6718   16.6750 H         1 NON         0.0312
    120 H31        49.1801   16.2066   16.4824 H         1 NON         0.0312
    121 H32        51.1397   17.4656   17.3057 H         1 NON         0.0269
    122 H33        52.0335   15.9221   17.5190 H         1 NON         0.0269
    123 H34        49.4290   15.8587   18.8439 H         1 NON         0.0317
    124 H35        50.4301   17.2397   19.4073 H         1 NON         0.0317
    125 H36        52.1310   14.9407   19.2540 H         1 NON         0.0815
    126 H37        50.6229   14.4475   20.0960 H         1 NON         0.0815
    127 H38        53.0472   16.0514   22.7535 H         1 NON         0.0778
    128 H39        53.7680   15.3602   21.2605 H         1 NON         0.0778
    129 H40        52.5959   14.3962   22.2215 H         1 NON         0.0778
    130 H41        50.0940   17.3085   21.3508 H         1 NON         0.0778
    131 H42        51.5545   17.7142   22.3146 H         1 NON         0.0778
    132 H43        50.5131   16.3335   22.8000 H         1 NON         0.0778
    133 H44        51.2146   13.9173   21.3684 H         1 NON         0.0778
    134 H45        49.8531   15.0788   21.5227 H         1 NON         0.0778
    135 H46        51.0721   14.9444   22.8352 H         1 NON         0.0778
    136 H47        50.0557   18.2330   14.3863 H         1 NON         0.1883
    137 H48        52.8470   19.2783   14.2077 H         1 NON         0.0801
    138 H49        51.7584   21.2160   13.0825 H         1 NON         0.0337
    139 H50        50.1620   20.4204   13.2953 H         1 NON         0.0337
    140 H51        50.8116   20.0846   11.0475 H         1 NON         0.0504
    141 H52        51.0403   18.5181   11.8963 H         1 NON         0.0504
    142 H53        54.0968   18.5363   10.0821 H         1 NON         0.1814
    143 H54        52.4513   17.9956   10.0678 H         1 NON         0.1814
    144 H55        53.3741   21.1994   15.3111 H         1 NON         0.1884
    145 H56        51.4885   22.0619   17.4901 H         1 NON         0.0826
    146 H57        54.5349   22.0329   17.7754 H         1 NON         0.0639
    147 H58        54.1897   20.0544   18.9542 H         1 NON         0.2101
    148 H59        53.9734   22.0875   20.1864 H         1 NON         0.0257
    149 H60        52.2239   22.0393   19.7821 H         1 NON         0.0257
    150 H61        53.2154   23.4615   19.3122 H         1 NON         0.0257
    151 H62        51.2828   24.2910   17.5229 H         1 NON         0.1883
    152 H63        52.3077   25.8844   15.3685 H         1 NON         0.0797
    153 H64        51.4309   27.8125   16.6536 H         1 NON         0.0277
    154 H65        51.2254   26.7614   18.0957 H         1 NON         0.0277
    155 H66        50.2469   26.4621   16.6193 H         1 NON         0.0277
    156 H67        53.3193   25.4218   18.7742 H         1 NON         0.1883
    157 H68        55.4389   27.3474   18.8449 H         1 NON         0.0800
    158 H69        55.2677   24.6242   20.2308 H         1 NON         0.0313
    159 H70        54.5303   26.1448   20.8398 H         1 NON         0.0313
    160 H71        56.6800   27.1325   21.2166 H         1 NON         0.0301
    161 H72        57.5142   25.7988   20.3494 H         1 NON         0.0301
    162 H73        57.7454   25.5198   22.7638 H         1 NON         0.0689
    163 H74        56.7353   24.2053   22.0723 H         1 NON         0.0689
    164 H75        54.9762   24.8975   23.3976 H         1 NON         0.2642
    165 H76        56.4839   28.5654   24.2898 H         1 NON         0.2615
    166 H77        57.3362   27.5306   23.1128 H         1 NON         0.2615
    167 H78        53.9059   26.2135   24.8912 H         1 NON         0.2615
    168 H79        54.5619   27.8230   25.2933 H         1 NON         0.2615
    169 H80        57.4387   27.2992   17.8839 H         1 NON         0.1883
    170 H81        58.0282   24.9942   16.1155 H         1 NON         0.0800
    171 H82        59.7274   26.4703   15.1152 H         1 NON         0.0312
    172 H83        59.3855   27.7165   16.3628 H         1 NON         0.0312
    173 H84        58.3103   28.3187   14.2750 H         1 NON         0.0269
    174 H85        57.0660   27.9030   15.5020 H         1 NON         0.0269
    175 H86        56.8069   25.6712   14.5114 H         1 NON         0.0317
    176 H87        58.0922   26.0388   13.3116 H         1 NON         0.0317
    177 H88        56.7132   27.9329   12.4600 H         1 NON         0.0813
    178 H89        55.4148   27.4785   13.6152 H         1 NON         0.0813
    179 H90        55.0207   26.5899   11.4260 H         1 NON         0.1994
    180 H91        55.2623   25.3610   12.4941 H         1 NON         0.1994
    181 H92        56.4521   25.7774   11.4355 H         1 NON         0.1994
    182 H93        59.1431   26.3908   19.1337 H         1 NON         0.1884
    183 H94        60.9833   24.1425   19.4650 H         1 NON         0.0823
    184 H95        62.4430   25.6032   18.1510 H         1 NON         0.0606
    185 H96        63.0037   25.5620   19.8571 H         1 NON         0.0606
    186 H97        62.9324   27.6957   18.9864 H         1 NON         0.2097
    187 H98        62.0946   24.3079   21.6324 H         1 NON         0.1885
    188 H99        60.1475   24.8694   23.6631 H         1 NON         0.0816
    189 H100       61.3110   26.9472   24.7488 H         1 NON         0.1374
    190 H101       62.0282   24.4243   25.2753 H         1 NON         0.0640
    191 H102       64.0741   23.8768   24.3027 H         1 NON         0.2101
    192 H103       62.4851   22.0989   24.5580 H         1 NON         0.0257
    193 H104       61.9039   22.4936   22.9048 H         1 NON         0.0257
    194 H105       60.7637   22.5379   24.2922 H         1 NON         0.0257
@<TRIPOS>BOND
     1    1    2 1  
     2    2    3 1  
     3    2    5 1  
     4    3    4 2  
     5    3    6 am 
     6    6    7 1  
     7    7    8 1  
     8    7   10 1  
     9    8    9 2  
    10    8   17 am 
    11   10   11 1  
    12   11   12 1  
    13   12   13 1  
    14   13   14 ar 
    15   14   15 ar 
    16   14   16 ar 
    17   17   18 1  
    18   18   19 1  
    19   18   21 1  
    20   19   20 2  
    21   19   24 am 
    22   21   22 1  
    23   21   23 1  
    24   24   25 1  
    25   25   26 1  
    26   25   31 1  
    27   26   27 1  
    28   27   28 1  
    29   28   29 1  
    30   29   30 1  
    31   30   33 1  
    32   30   34 1  
    33   30   35 1  
    34   31   32 2  
    35   31   36 am 
    36   36   37 1  
    37   37   38 1  
    38   37   40 1  
    39   38   39 2  
    40   38   45 am 
    41   40   41 1  
    42   41   42 1  
    43   42   43 2  
    44   42   44 am 
    45   45   46 1  
    46   46   47 1  
    47   46   49 1  
    48   47   48 2  
    49   47   52 am 
    50   49   50 1  
    51   49   51 1  
    52   52   53 1  
    53   53   54 1  
    54   53   56 1  
    55   54   55 2  
    56   54   57 am 
    57   57   58 1  
    58   58   59 1  
    59   58   61 1  
    60   59   60 2  
    61   59   68 am 
    62   61   62 1  
    63   62   63 1  
    64   63   64 1  
    65   64   65 ar 
    66   65   66 ar 
    67   65   67 ar 
    68   68   69 1  
    69   69   70 1  
    70   69   72 1  
    71   70   71 2  
    72   70   77 am 
    73   72   73 1  
    74   73   74 1  
    75   74   75 1  
    76   75   76 1  
    77   77   78 1  
    78   78   79 1  
    79   78   81 1  
    80   79   80 2  
    81   79   83 am 
    82   81   82 1  
    83   83   84 1  
    84   84   85 1  
    85   84   87 1  
    86   85   86 2  
    87   87   88 1  
    88   87   89 1  
    89    1   90 1  
    90    1   91 1  
    91    1   92 1  
    92    2   93 1  
    93    5   94 1  
    94    5   95 1  
    95    5   96 1  
    96    6   97 1  
    97    7   98 1  
    98   10   99 1  
    99   10  100 1  
   100   11  101 1  
   101   11  102 1  
   102   12  103 1  
   103   12  104 1  
   104   13  105 1  
   105   15  106 1  
   106   15  107 1  
   107   16  108 1  
   108   16  109 1  
   109   17  110 1  
   110   18  111 1  
   111   21  112 1  
   112   22  113 1  
   113   23  114 1  
   114   23  115 1  
   115   23  116 1  
   116   24  117 1  
   117   25  118 1  
   118   26  119 1  
   119   26  120 1  
   120   27  121 1  
   121   27  122 1  
   122   28  123 1  
   123   28  124 1  
   124   29  125 1  
   125   29  126 1  
   126   33  127 1  
   127   33  128 1  
   128   33  129 1  
   129   34  130 1  
   130   34  131 1  
   131   34  132 1  
   132   35  133 1  
   133   35  134 1  
   134   35  135 1  
   135   36  136 1  
   136   37  137 1  
   137   40  138 1  
   138   40  139 1  
   139   41  140 1  
   140   41  141 1  
   141   44  142 1  
   142   44  143 1  
   143   45  144 1  
   144   46  145 1  
   145   49  146 1  
   146   50  147 1  
   147   51  148 1  
   148   51  149 1  
   149   51  150 1  
   150   52  151 1  
   151   53  152 1  
   152   56  153 1  
   153   56  154 1  
   154   56  155 1  
   155   57  156 1  
   156   58  157 1  
   157   61  158 1  
   158   61  159 1  
   159   62  160 1  
   160   62  161 1  
   161   63  162 1  
   162   63  163 1  
   163   64  164 1  
   164   66  165 1  
   165   66  166 1  
   166   67  167 1  
   167   67  168 1  
   168   68  169 1  
   169   69  170 1  
   170   72  171 1  
   171   72  172 1  
   172   73  173 1  
   173   73  174 1  
   174   74  175 1  
   175   74  176 1  
   176   75  177 1  
   177   75  178 1  
   178   76  179 1  
   179   76  180 1  
   180   76  181 1  
   181   77  182 1  
   182   78  183 1  
   183   81  184 1  
   184   81  185 1  
   185   82  186 1  
   186   83  187 1  
   187   84  188 1  
   188   85  189 1  
   189   87  190 1  
   190   88  191 1  
   191   89  192 1  
   192   89  193 1  
   193   89  194 1  
@<TRIPOS>SUBSTRUCTURE
     1 NON         1

