5ko5_ligand
  -I-interpret- 

 12 12  0  0  0  0  0  0  0  0999 V2000
   -3.5170   72.0970   79.4700 N   0  0  0  0  0
   -2.9830   70.9740   78.9880 C   0  0  0  0  0
   -1.4670   73.2200   79.0420 N   0  0  0  0  0
   -2.7810   73.2360   79.5240 C   0  0  0  0  0
   -3.2430   74.2750   80.0070 O   0  0  0  0  0
   -3.7540   69.8810   78.9730 N   0  0  0  0  0
   -1.6470   70.9390   78.4820 C   0  0  0  0  0
   -0.9340   72.0730   78.5360 C   0  0  0  0  0
   -4.7113   69.9274   79.3220 H   0  0  0  0  0
   -1.7411   70.7022   77.4222 H   0  0  0  0  0
   -1.1136   70.2271   79.1119 H   0  0  0  0  0
    0.0920   72.0773   78.1679 H   0  0  0  0  0
  1  2  4  0  0  0
  1  4  1  0  0  0
  2  6  2  0  0  0
  2  7  1  0  0  0
  4  3  1  0  0  0
  3  8  2  0  0  0
  4  5  2  0  0  0
  7  8  1  0  0  0
  6  9  1  0  0  0
  7 10  1  0  0  0
  7 11  1  0  0  0
  8 12  1  0  0  0
M  END
$$$$
