5vkc_ligand
  -I-interpret- 

103110  0  0  0  0  0  0  0  0999 V2000
  -28.5480    4.8270    3.5620 C   0  0  0  0  0
  -32.4990    2.9050   10.4660 C   0  0  0  0  0
  -28.0470    7.7760    1.4800 C   0  0  0  0  0
  -30.5970    8.2440    2.3960 C   0  0  0  0  0
  -31.1420    7.9100    7.3150 C   0  0  0  0  0
  -30.0640    7.9410    9.4650 C   0  0  0  0  0
  -35.7960   12.2780   11.8640 C   0  0  0  0  0
  -36.0220   10.0370   13.4020 C   0  0  0  0  0
  -32.5450    2.5190   11.7830 C   0  0  0  0  0
  -29.9300    7.0970    2.8000 C   0  0  0  0  0
  -32.2980    7.4510    7.9230 C   0  0  0  0  0
  -31.2050    7.5110   10.0990 C   0  0  0  0  0
  -33.5100    4.9690   11.1150 C   0  0  0  0  0
  -32.3230    7.2710    9.3020 C   0  0  0  0  0
  -34.8520   10.2500   12.7110 C   0  0  0  0  0
  -28.7140    8.9150    1.0870 C   0  0  0  0  0
  -29.9960    9.1430    1.5430 C   0  0  0  0  0
  -30.0350    8.1330    8.1040 C   0  0  0  0  0
  -27.9570    5.7390    2.7140 C   0  0  0  0  0
  -32.9890    4.1470   10.1270 C   0  0  0  0  0
  -37.0670   10.9300   13.3170 C   0  0  0  0  0
  -29.8270    5.0330    4.0340 C   0  0  0  0  0
  -34.7410   11.3920   11.9410 C   0  0  0  0  0
  -33.5050    4.4810   12.4040 C   0  0  0  0  0
  -28.6480    6.8710    2.3300 C   0  0  0  0  0
  -31.1680    7.4020   11.5450 C   0  0  0  0  0
  -33.5720    7.1210    7.3820 C   0  0  0  0  0
  -36.9950   12.0750   12.5330 C   0  0  0  0  0
  -30.5190    6.1770    3.6550 C   0  0  0  0  0
  -34.3740    6.7360    8.4350 C   0  0  0  0  0
  -31.8060    8.2520   12.4850 C   0  0  0  0  0
  -30.4640    6.4790   12.2990 C   0  0  0  0  0
  -35.7640    6.3400    8.4280 C   0  0  0  0  0
  -41.5820   15.0190   11.2710 C   0  0  0  0  0
  -39.4080   12.3220   12.5230 C   0  0  0  0  0
  -38.0430   13.9110   11.3180 C   0  0  0  0  0
  -40.5130   13.3470   12.7050 C   0  0  0  0  0
  -39.1030   14.9900   11.4500 C   0  0  0  0  0
  -29.5860    5.3410   11.9470 C   0  0  0  0  0
  -41.5470   16.5200   11.3190 C   0  0  0  0  0
  -30.2940    6.1170   14.7950 C   0  0  0  0  0
  -33.9630    7.2420    5.9510 C   0  0  0  0  0
  -34.0670    6.3330   10.8560 C   0  0  0  0  0
  -32.6570    9.4300   12.2330 C   0  0  0  0  0
  -33.8950    5.9720    5.1230 C   0  0  0  0  0
  -32.4730    5.5320    4.8690 C   0  0  0  0  0
  -33.0410    3.2790   12.7640 N   0  0  0  0  0
  -31.5540    7.8670   13.7390 N   0  0  0  0  0
  -33.5970    6.8260    9.5690 N   0  0  0  0  0
  -30.7540    6.7990   13.5980 N   0  0  0  0  0
  -38.1030   12.9880   12.4500 N   0  0  0  0  0
  -40.4150   14.4280   11.7360 N   0  0  0  0  0
  -36.6200    6.7270    9.2020 O   0  0  0  0  0
  -42.5840   14.4270   10.8800 O   0  0  0  0  0
  -36.0730    5.4740    7.4530 O   0  0  0  0  0
  -33.8960    9.2480   12.8950 O   0  0  0  0  0
  -31.8120    6.5040    4.0720 O   0  0  0  0  0
  -27.9990    3.9345    3.8623 H   0  0  0  0  0
  -32.0840    2.2433    9.7057 H   0  0  0  0  0
  -27.0366    7.5883    1.1167 H   0  0  0  0  0
  -31.6073    8.4359    2.7573 H   0  0  0  0  0
  -31.1087    8.0902    6.2405 H   0  0  0  0  0
  -29.1658    8.1333   10.0518 H   0  0  0  0  0
  -35.6832   13.1736   11.2530 H   0  0  0  0  0
  -36.1236    9.1489   14.0257 H   0  0  0  0  0
  -32.1542    1.5354   12.0435 H   0  0  0  0  0
  -28.2327    9.6309    0.4207 H   0  0  0  0  0
  -30.5345   10.0366    1.2275 H   0  0  0  0  0
  -29.1104    8.4711    7.6362 H   0  0  0  0  0
  -26.9452    5.5667    2.3470 H   0  0  0  0  0
  -32.9674    4.4813    9.0897 H   0  0  0  0  0
  -37.9781   10.7326   13.8818 H   0  0  0  0  0
  -30.2914    4.3047    4.6988 H   0  0  0  0  0
  -33.8197   11.5930   11.3942 H   0  0  0  0  0
  -33.9089    5.1217   13.1879 H   0  0  0  0  0
  -39.5801   11.7738   11.5968 H   0  0  0  0  0
  -39.4122   11.6394   13.3728 H   0  0  0  0  0
  -37.0603   14.3823   11.2988 H   0  0  0  0  0
  -38.2199   13.3533   10.3983 H   0  0  0  0  0
  -40.4221   13.7739   13.7038 H   0  0  0  0  0
  -41.4706   12.8462   12.5628 H   0  0  0  0  0
  -39.1607   15.5305   10.5052 H   0  0  0  0  0
  -38.8238   15.6449   12.2754 H   0  0  0  0  0
  -30.1490    4.6186   11.3561 H   0  0  0  0  0
  -28.7375    5.7042   11.3671 H   0  0  0  0  0
  -29.2270    4.8649   12.8595 H   0  0  0  0  0
  -41.7059   16.9181   10.3168 H   0  0  0  0  0
  -42.3332   16.8794   11.9829 H   0  0  0  0  0
  -40.5767   16.8478   11.6920 H   0  0  0  0  0
  -30.6326    5.0811   14.7742 H   0  0  0  0  0
  -29.2049    6.1440   14.8311 H   0  0  0  0  0
  -30.7005    6.6159   15.6748 H   0  0  0  0  0
  -33.2525    7.9352    5.5007 H   0  0  0  0  0
  -35.0087    7.5496    5.9480 H   0  0  0  0  0
  -33.7360    7.0111   11.6426 H   0  0  0  0  0
  -35.1556    6.2797   10.8441 H   0  0  0  0  0
  -32.8236    9.5430   11.1618 H   0  0  0  0  0
  -32.1659   10.3277   12.6086 H   0  0  0  0  0
  -34.3660    6.1694    4.1600 H   0  0  0  0  0
  -34.4016    5.1800    5.6746 H   0  0  0  0  0
  -32.4765    4.5752    4.3468 H   0  0  0  0  0
  -31.9504    5.4251    5.8196 H   0  0  0  0  0
  -35.2858    5.2774    6.9399 H   0  0  0  0  0
  1 19  4  0  0  0
 22  1  4  0  0  0
  2  9  4  0  0  0
 20  2  4  0  0  0
  3 16  4  0  0  0
 25  3  4  0  0  0
 10  4  4  0  0  0
  4 17  4  0  0  0
 11  5  4  0  0  0
  5 18  4  0  0  0
 12  6  4  0  0  0
 18  6  4  0  0  0
 23  7  4  0  0  0
  7 28  4  0  0  0
 15  8  4  0  0  0
  8 21  4  0  0  0
 47  9  4  0  0  0
 10 25  4  0  0  0
 29 10  4  0  0  0
 11 14  4  0  0  0
 27 11  4  0  0  0
 14 12  4  0  0  0
 12 26  1  0  0  0
 13 20  4  0  0  0
 13 24  4  0  0  0
 43 13  1  0  0  0
 49 14  4  0  0  0
 15 23  4  0  0  0
 56 15  1  0  0  0
 17 16  4  0  0  0
 25 19  4  0  0  0
 21 28  4  0  0  0
 29 22  4  0  0  0
 24 47  4  0  0  0
 26 31  4  0  0  0
 26 32  4  0  0  0
 27 30  4  0  0  0
 42 27  1  0  0  0
 28 51  1  0  0  0
 57 29  1  0  0  0
 30 33  1  0  0  0
 30 49  4  0  0  0
 31 44  1  0  0  0
 31 48  4  0  0  0
 32 39  1  0  0  0
 32 50  4  0  0  0
 33 53  2  0  0  0
 33 55  1  0  0  0
 34 40  1  0  0  0
 52 34  1  0  0  0
 34 54  2  0  0  0
 35 37  1  0  0  0
 51 35  1  0  0  0
 36 38  1  0  0  0
 51 36  1  0  0  0
 37 52  1  0  0  0
 38 52  1  0  0  0
 50 41  1  0  0  0
 45 42  1  0  0  0
 49 43  1  0  0  0
 44 56  1  0  0  0
 46 45  1  0  0  0
 46 57  1  0  0  0
 48 50  4  0  0  0
  1 58  1  0  0  0
  2 59  1  0  0  0
  3 60  1  0  0  0
  4 61  1  0  0  0
  5 62  1  0  0  0
  6 63  1  0  0  0
  7 64  1  0  0  0
  8 65  1  0  0  0
  9 66  1  0  0  0
 16 67  1  0  0  0
 17 68  1  0  0  0
 18 69  1  0  0  0
 19 70  1  0  0  0
 20 71  1  0  0  0
 21 72  1  0  0  0
 22 73  1  0  0  0
 23 74  1  0  0  0
 24 75  1  0  0  0
 35 76  1  0  0  0
 35 77  1  0  0  0
 36 78  1  0  0  0
 36 79  1  0  0  0
 37 80  1  0  0  0
 37 81  1  0  0  0
 38 82  1  0  0  0
 38 83  1  0  0  0
 39 84  1  0  0  0
 39 85  1  0  0  0
 39 86  1  0  0  0
 40 87  1  0  0  0
 40 88  1  0  0  0
 40 89  1  0  0  0
 41 90  1  0  0  0
 41 91  1  0  0  0
 41 92  1  0  0  0
 42 93  1  0  0  0
 42 94  1  0  0  0
 43 95  1  0  0  0
 43 96  1  0  0  0
 44 97  1  0  0  0
 44 98  1  0  0  0
 45 99  1  0  0  0
 45100  1  0  0  0
 46101  1  0  0  0
 46102  1  0  0  0
 55103  1  0  0  0
M  END
$$$$
