2xht_ligand
  -I-interpret- 

 40 41  0  0  0  0  0  0  0  0999 V2000
    7.0240   -1.1390    9.9970 C   0  0  0  0  0
    6.3580   -1.5910   11.2970 C   0  0  0  0  0
    6.8370   -0.6640   12.4250 C   0  0  0  0  0
    4.8420   -1.4330   11.1450 C   0  0  0  0  0
    6.7260   -3.0510   11.6090 C   0  0  0  0  0
    7.6540   -3.6470   10.7750 C   0  0  0  0  0
    8.0850   -4.9480   10.9730 C   0  0  0  0  0
    7.5790   -5.6790   12.0420 C   0  0  0  0  0
    6.6500   -5.1170   12.8980 C   0  0  0  0  0
    6.2140   -3.8100   12.6990 C   0  0  0  0  0
    5.2800   -3.2770   13.5590 O   0  0  0  0  0
    9.1280   -5.5350   10.0760 C   0  0  0  0  0
   10.1770   -5.9220   10.5570 O   0  0  0  0  0
    8.9170   -5.5450    8.7360 N   0  0  0  0  0
    9.9440   -5.9770    7.7780 C   0  0  0  0  0
    9.4830   -7.2380    7.0710 C   0  0  0  0  0
    8.2110   -7.0430    6.4360 O   0  0  0  0  0
    7.2190   -6.6960    7.4140 C   0  0  0  0  0
    7.5850   -5.4130    8.1420 C   0  0  0  0  0
    8.1064   -1.2189   10.0979 H   0  0  0  0  0
    6.6863   -1.7735    9.1776 H   0  0  0  0  0
    6.7524   -0.1035    9.7921 H   0  0  0  0  0
    6.3623   -0.9577   13.3612 H   0  0  0  0  0
    7.9195   -0.7441   12.5243 H   0  0  0  0  0
    6.5678    0.3650   12.1868 H   0  0  0  0  0
    4.4919   -2.0663   10.3298 H   0  0  0  0  0
    4.3523   -1.7290   12.0727 H   0  0  0  0  0
    4.6068   -0.3917   10.9247 H   0  0  0  0  0
    8.0576   -3.0768    9.9383 H   0  0  0  0  0
    7.9170   -6.7021   12.2063 H   0  0  0  0  0
    6.2576   -5.6994   13.7316 H   0  0  0  0  0
    5.0534   -3.9282   14.2270 H   0  0  0  0  0
   10.8733   -6.1796    8.3104 H   0  0  0  0  0
   10.1077   -5.1890    7.0429 H   0  0  0  0  0
    9.3844   -8.0339    7.8092 H   0  0  0  0  0
   10.2166   -7.4961    6.3073 H   0  0  0  0  0
    7.1550   -7.5027    8.1442 H   0  0  0  0  0
    6.2673   -6.5459    6.9043 H   0  0  0  0  0
    7.5856   -4.5838    7.4345 H   0  0  0  0  0
    6.8555   -5.2238    8.9295 H   0  0  0  0  0
  1  2  1  0  0  0
  2  3  1  0  0  0
  2  4  1  0  0  0
  2  5  1  0  0  0
  5  6  4  0  0  0
  5 10  4  0  0  0
  6  7  4  0  0  0
  7  8  4  0  0  0
  7 12  1  0  0  0
  8  9  4  0  0  0
  9 10  4  0  0  0
 10 11  1  0  0  0
 12 13  2  0  0  0
 12 14  1  0  0  0
 14 15  1  0  0  0
 14 19  1  0  0  0
 15 16  1  0  0  0
 16 17  1  0  0  0
 17 18  1  0  0  0
 18 19  1  0  0  0
  1 20  1  0  0  0
  1 21  1  0  0  0
  1 22  1  0  0  0
  3 23  1  0  0  0
  3 24  1  0  0  0
  3 25  1  0  0  0
  4 26  1  0  0  0
  4 27  1  0  0  0
  4 28  1  0  0  0
  6 29  1  0  0  0
  8 30  1  0  0  0
  9 31  1  0  0  0
 11 32  1  0  0  0
 15 33  1  0  0  0
 15 34  1  0  0  0
 16 35  1  0  0  0
 16 36  1  0  0  0
 18 37  1  0  0  0
 18 38  1  0  0  0
 19 39  1  0  0  0
 19 40  1  0  0  0
M  END
$$$$
