6i76_ligand
  -I-interpret- 

 54 57  0  0  0  0  0  0  0  0999 V2000
  -16.1290    7.7790   -1.3180 N   0  0  0  0  0
   -8.5930   10.4690    1.8340 N   0  0  0  0  0
  -23.3010   10.5360   -2.6710 C   0  0  0  0  0
  -23.5520    8.1220   -3.9650 C   0  0  0  0  0
  -22.4450    8.3660   -3.1710 C   0  0  0  0  0
  -22.3100    9.5800   -2.5100 C   0  0  0  0  0
  -19.8580    8.4490   -1.5800 C   0  0  0  0  0
  -20.2220    5.2730    0.2500 C   0  0  0  0  0
  -15.4470    8.1620   -0.2660 C   0  0  0  0  0
  -12.9470    8.6690    0.0810 C   0  0  0  0  0
  -10.7360    9.6210    0.1600 C   0  0  0  0  0
  -12.8440    8.4460    1.4390 C   0  0  0  0  0
  -18.3870    8.8080   -1.3980 C   0  0  0  0  0
  -25.7600    8.8020   -4.9920 C   0  0  0  0  0
  -18.1020    6.4920   -0.4660 C   0  0  0  0  0
  -17.5660    7.5130   -1.4730 C   0  0  0  0  0
  -14.1430    8.2850   -0.6660 C   0  0  0  0  0
  -11.8610    9.2560   -0.5420 C   0  0  0  0  0
  -10.6270    9.3950    1.5290 C   0  0  0  0  0
  -11.7210    8.8030    2.1480 C   0  0  0  0  0
  -24.5500    9.0680   -4.1270 C   0  0  0  0  0
  -24.4020   10.2740   -3.4680 C   0  0  0  0  0
  -19.5900    6.2340   -0.7330 C   0  0  0  0  0
  -11.9190    9.4930   -1.8620 F   0  0  0  0  0
   -9.7210   10.1880   -0.5190 F   0  0  0  0  0
  -11.6920    8.5730    3.4740 F   0  0  0  0  0
  -13.8790    7.8730    2.0710 F   0  0  0  0  0
   -9.4870    9.7480    2.3250 N   0  0  0  0  0
   -7.8730   11.1240    1.2580 N   0  0  0  0  0
  -14.0810    7.9420   -1.9800 N   0  0  0  0  0
  -15.2950    7.6420   -2.3780 N   0  0  0  0  0
  -20.3040    7.4770   -0.6400 O   0  0  0  0  0
  -21.5890    5.0150   -0.0730 O   0  0  0  0  0
  -17.9520    6.9680    0.8680 O   0  0  0  0  0
  -18.0240    9.7450   -2.4190 O   0  0  0  0  0
  -20.9100    9.9430   -1.4730 S   0  0  0  0  0
  -23.2127   11.4987   -2.1675 H   0  0  0  0  0
  -23.6403    7.1626   -4.4748 H   0  0  0  0  0
  -21.6753    7.6017   -3.0639 H   0  0  0  0  0
  -19.9488    8.0113   -2.5741 H   0  0  0  0  0
  -20.1810    5.7196    1.2435 H   0  0  0  0  0
  -19.6750    4.3310    0.2112 H   0  0  0  0  0
  -15.8413    8.3467    0.7332 H   0  0  0  0  0
  -18.1936    9.2740   -0.4318 H   0  0  0  0  0
  -25.4378    8.6037   -6.0142 H   0  0  0  0  0
  -26.2985    7.9369   -4.6051 H   0  0  0  0  0
  -26.4135    9.6742   -4.9785 H   0  0  0  0  0
  -17.5321    5.5701   -0.5819 H   0  0  0  0  0
  -17.6795    7.0761   -2.4651 H   0  0  0  0  0
  -25.1716   11.0379   -3.5787 H   0  0  0  0  0
  -19.6520    5.7888   -1.7260 H   0  0  0  0  0
  -21.9583    4.4036    0.5684 H   0  0  0  0  0
  -18.2941    6.3129    1.4807 H   0  0  0  0  0
  -17.0992    9.9826   -2.3195 H   0  0  0  0  0
  9  1  4  0  0  0
  1 16  1  0  0  0
  1 31  4  0  0  0
 28  2  2  0  0  0
  2 29  3  0  0  0
  6  3  4  0  0  0
  3 22  4  0  0  0
  5  4  4  0  0  0
  4 21  4  0  0  0
  6  5  4  0  0  0
 36  6  1  0  0  0
 13  7  1  0  0  0
  7 32  1  0  0  0
  7 36  1  0  0  0
 23  8  1  0  0  0
  8 33  1  0  0  0
 17  9  4  0  0  0
 12 10  4  0  0  0
 10 17  1  0  0  0
 18 10  4  0  0  0
 11 18  4  0  0  0
 19 11  4  0  0  0
 11 25  1  0  0  0
 20 12  4  0  0  0
 12 27  1  0  0  0
 16 13  1  0  0  0
 13 35  1  0  0  0
 21 14  1  0  0  0
 16 15  1  0  0  0
 15 23  1  0  0  0
 15 34  1  0  0  0
 17 30  4  0  0  0
 18 24  1  0  0  0
 19 20  4  0  0  0
 19 28  1  0  0  0
 20 26  1  0  0  0
 21 22  4  0  0  0
 23 32  1  0  0  0
 30 31  4  0  0  0
  3 37  1  0  0  0
  4 38  1  0  0  0
  5 39  1  0  0  0
  7 40  1  0  0  0
  8 41  1  0  0  0
  8 42  1  0  0  0
  9 43  1  0  0  0
 13 44  1  0  0  0
 14 45  1  0  0  0
 14 46  1  0  0  0
 14 47  1  0  0  0
 15 48  1  0  0  0
 16 49  1  0  0  0
 22 50  1  0  0  0
 23 51  1  0  0  0
 33 52  1  0  0  0
 34 53  1  0  0  0
 35 54  1  0  0  0
M  END
$$$$
