3e7a_ligand
  -I-interpret- 

119120  0  0  0  0  0  0  0  0999 V2000
   12.5800  -38.3560   10.3140 C   0  0  0  0  0
   13.4840  -37.6450    9.8250 O   0  0  0  0  0
   11.4450  -37.8890   10.6140 O   0  0  0  0  0
   12.8640  -39.8220   10.5660 C   0  0  0  0  0
   11.6390  -40.6080   10.6110 N   0  0  0  0  0
   13.6350  -39.9990   11.8830 C   0  0  0  0  0
   12.7960  -39.5660   13.0550 C   0  0  0  0  0
   11.7440  -40.1560   13.2920 O   0  0  0  0  0
   14.0760  -41.4530   12.0820 C   0  0  0  0  0
   13.2290  -38.5210   13.7630 N   0  0  0  0  0
   12.4640  -37.9020   14.8320 C   0  0  0  0  0
   11.9180  -36.5350   14.4770 C   0  0  0  0  0
   11.0050  -36.1070   15.1710 O   0  0  0  0  0
   13.3110  -37.8050   16.0990 C   0  0  0  0  0
   13.3980  -39.1790   16.7750 C   0  0  0  0  0
   14.7530  -39.4040   17.4330 C   0  0  0  0  0
   15.8100  -39.4250   16.4400 N   0  0  0  0  0
   16.0010  -40.4560   15.6160 C   0  0  0  0  0
   16.9060  -40.3320   14.6470 N   0  0  0  0  0
   15.2750  -41.5720   15.7480 N   0  0  0  0  0
   12.4320  -35.8660   13.4320 N   0  0  0  0  0
   10.9160  -34.7280   11.8870 C   0  0  0  0  0
    9.6960  -35.3640   12.5130 C   0  0  0  0  0
    8.9490  -34.6540   13.1670 O   0  0  0  0  0
   11.9810  -34.5490   12.9820 C   0  0  0  0  0
   10.5350  -33.3900   11.2310 C   0  0  0  0  0
   15.3160  -31.0640   13.6660 C   0  0  0  0  0
   14.8440  -31.9680   12.7780 C   0  0  0  0  0
   13.6930  -32.7860   13.2210 C   0  0  0  0  0
   13.1460  -33.7320   12.4640 C   0  0  0  0  0
   15.1040  -28.2980   12.4520 C   0  0  0  0  0
   16.1410  -28.6830   13.5070 C   0  0  0  0  0
   16.4960  -30.1630   13.4000 C   0  0  0  0  0
   13.9240  -24.1460   12.5950 C   0  0  0  0  0
   14.6640  -24.6250   11.5230 C   0  0  0  0  0
   15.0410  -25.9680   11.4820 C   0  0  0  0  0
   14.7000  -26.8350   12.5180 C   0  0  0  0  0
   13.9630  -26.3440   13.5890 C   0  0  0  0  0
   13.5800  -25.0060   13.6290 C   0  0  0  0  0
   17.3420  -27.9350   13.3010 O   0  0  0  0  0
   17.5460  -26.9880   14.3570 C   0  0  0  0  0
   17.5930  -30.5230   14.4040 C   0  0  0  0  0
   15.4500  -32.1950   11.4130 C   0  0  0  0  0
    9.4710  -36.6710   12.3700 N   0  0  0  0  0
    8.2850  -37.3000   12.9610 C   0  0  0  0  0
    7.0000  -36.9960   12.2180 C   0  0  0  0  0
    5.9400  -36.8200   12.8710 O   0  0  0  0  0
    8.4360  -38.8250   13.1090 C   0  0  0  0  0
    8.5540  -39.5890   11.7970 C   0  0  0  0  0
    8.7680  -41.0720   12.0660 C   0  0  0  0  0
    8.4940  -41.5040   13.1840 O   0  0  0  0  0
    7.0280  -36.9290   10.9800 O   0  0  0  0  0
    9.2320  -41.8690   11.0950 N   0  0  0  0  0
    9.4540  -43.2860   11.3580 C   0  0  0  0  0
    9.4930  -41.3620    9.8620 C   0  0  0  0  0
   10.8040  -40.7380    9.5900 C   0  0  0  0  0
   11.1110  -40.3040    8.4830 O   0  0  0  0  0
    8.5360  -41.4430    8.9170 C   0  0  0  0  0
    7.1960  -42.0890    9.1950 C   0  0  0  0  0
   10.8964  -38.5902   10.9730 H   0  0  0  0  0
   13.4706  -40.1824    9.7352 H   0  0  0  0  0
   11.4096  -41.0878   11.4814 H   0  0  0  0  0
   14.5235  -39.3703   11.8239 H   0  0  0  0  0
   14.6613  -41.5317   12.9982 H   0  0  0  0  0
   13.1957  -42.0915   12.1558 H   0  0  0  0  0
   14.6836  -41.7665   11.2331 H   0  0  0  0  0
   14.1471  -38.1358   13.5416 H   0  0  0  0  0
   11.6023  -38.5481   15.0000 H   0  0  0  0  0
   12.8505  -37.0948   16.7858 H   0  0  0  0  0
   14.3142  -37.4695   15.8361 H   0  0  0  0  0
   13.2574  -39.9446   16.0120 H   0  0  0  0  0
   12.6306  -39.2288   17.5475 H   0  0  0  0  0
   14.7377  -40.3631   17.9506 H   0  0  0  0  0
   14.9437  -38.5901   18.1325 H   0  0  0  0  0
   16.4317  -38.6195   16.3691 H   0  0  0  0  0
   17.4328  -39.4641   14.5492 H   0  0  0  0  0
   15.4097  -42.3477   15.0996 H   0  0  0  0  0
   14.5868  -41.6471   16.4971 H   0  0  0  0  0
   13.1918  -36.3081   12.9147 H   0  0  0  0  0
   11.3232  -35.3636   11.1007 H   0  0  0  0  0
   11.5464  -34.0107   13.8243 H   0  0  0  0  0
    9.7858  -33.5656   10.4590 H   0  0  0  0  0
   10.1286  -32.7187   11.9874 H   0  0  0  0  0
   11.4215  -32.9408   10.7833 H   0  0  0  0  0
   14.8145  -30.9816   14.6303 H   0  0  0  0  0
   13.2755  -32.6049   14.2114 H   0  0  0  0  0
   13.5383  -33.9207   11.4647 H   0  0  0  0  0
   14.2109  -28.8963   12.6322 H   0  0  0  0  0
   15.5475  -28.4749   11.4722 H   0  0  0  0  0
   15.7137  -28.4716   14.4872 H   0  0  0  0  0
   16.8342  -30.3189   12.3756 H   0  0  0  0  0
   13.6149  -23.1012   12.6248 H   0  0  0  0  0
   14.9504  -23.9530   10.7140 H   0  0  0  0  0
   15.6084  -26.3428   10.6302 H   0  0  0  0  0
   13.6827  -27.0114   14.4039 H   0  0  0  0  0
   13.0067  -24.6316   14.4771 H   0  0  0  0  0
   16.7044  -26.2961   14.3904 H   0  0  0  0  0
   17.6217  -27.5163   15.3074 H   0  0  0  0  0
   18.4665  -26.4339   14.1736 H   0  0  0  0  0
   17.2206  -30.3712   15.4171 H   0  0  0  0  0
   17.8759  -31.5674   14.2722 H   0  0  0  0  0
   18.4613  -29.8860   14.2354 H   0  0  0  0  0
   15.4075  -31.2691   10.8395 H   0  0  0  0  0
   16.4883  -32.5070   11.5252 H   0  0  0  0  0
   14.8899  -32.9721   10.8929 H   0  0  0  0  0
   10.1326  -37.2407   11.8426 H   0  0  0  0  0
    8.2122  -36.8513   13.9517 H   0  0  0  0  0
    6.1241  -36.9123   13.8087 H   0  0  0  0  0
    7.5334  -39.1846   13.6030 H   0  0  0  0  0
    9.3611  -38.9982   13.6589 H   0  0  0  0  0
    9.4050  -39.2029   11.2359 H   0  0  0  0  0
    7.6343  -39.4601   11.2264 H   0  0  0  0  0
   10.1836  -43.3954   12.1604 H   0  0  0  0  0
    8.5137  -43.7509   11.6543 H   0  0  0  0  0
    9.8301  -43.7672   10.4552 H   0  0  0  0  0
    8.7321  -41.0325    7.9265 H   0  0  0  0  0
    7.3483  -43.1294    9.4821 H   0  0  0  0  0
    6.6984  -41.5562   10.0053 H   0  0  0  0  0
    6.5796  -42.0450    8.2971 H   0  0  0  0  0
  1  2  2  0  0  0
  1  3  1  0  0  0
  4  1  1  0  0  0
  4  5  1  0  0  0
  6  4  1  0  0  0
  5 56  1  0  0  0
  7  6  1  0  0  0
  6  9  1  0  0  0
  7  8  2  0  0  0
 10  7  1  0  0  0
 11 10  1  0  0  0
 12 11  1  0  0  0
 11 14  1  0  0  0
 12 13  2  0  0  0
 21 12  1  0  0  0
 14 15  1  0  0  0
 15 16  1  0  0  0
 16 17  1  0  0  0
 17 18  1  0  0  0
 18 19  2  0  0  0
 18 20  1  0  0  0
 25 21  1  0  0  0
 22 23  1  0  0  0
 25 22  1  0  0  0
 22 26  1  0  0  0
 23 24  2  0  0  0
 23 44  1  0  0  0
 30 25  1  0  0  0
 27 28  2  0  0  0
 33 27  1  0  0  0
 28 29  1  0  0  0
 28 43  1  0  0  0
 29 30  2  0  0  0
 31 32  1  0  0  0
 37 31  1  0  0  0
 32 33  1  0  0  0
 32 40  1  0  0  0
 33 42  1  0  0  0
 35 34  4  0  0  0
 34 39  4  0  0  0
 36 35  4  0  0  0
 36 37  4  0  0  0
 37 38  4  0  0  0
 38 39  4  0  0  0
 40 41  1  0  0  0
 44 45  1  0  0  0
 45 46  1  0  0  0
 45 48  1  0  0  0
 46 47  1  0  0  0
 46 52  2  0  0  0
 48 49  1  0  0  0
 49 50  1  0  0  0
 50 51  2  0  0  0
 50 53  1  0  0  0
 53 54  1  0  0  0
 53 55  1  0  0  0
 55 56  1  0  0  0
 55 58  2  0  0  0
 56 57  2  0  0  0
 58 59  1  0  0  0
  3 60  1  0  0  0
  4 61  1  0  0  0
  5 62  1  0  0  0
  6 63  1  0  0  0
  9 64  1  0  0  0
  9 65  1  0  0  0
  9 66  1  0  0  0
 10 67  1  0  0  0
 11 68  1  0  0  0
 14 69  1  0  0  0
 14 70  1  0  0  0
 15 71  1  0  0  0
 15 72  1  0  0  0
 16 73  1  0  0  0
 16 74  1  0  0  0
 17 75  1  0  0  0
 19 76  1  0  0  0
 20 77  1  0  0  0
 20 78  1  0  0  0
 21 79  1  0  0  0
 22 80  1  0  0  0
 25 81  1  0  0  0
 26 82  1  0  0  0
 26 83  1  0  0  0
 26 84  1  0  0  0
 27 85  1  0  0  0
 29 86  1  0  0  0
 30 87  1  0  0  0
 31 88  1  0  0  0
 31 89  1  0  0  0
 32 90  1  0  0  0
 33 91  1  0  0  0
 34 92  1  0  0  0
 35 93  1  0  0  0
 36 94  1  0  0  0
 38 95  1  0  0  0
 39 96  1  0  0  0
 41 97  1  0  0  0
 41 98  1  0  0  0
 41 99  1  0  0  0
 42100  1  0  0  0
 42101  1  0  0  0
 42102  1  0  0  0
 43103  1  0  0  0
 43104  1  0  0  0
 43105  1  0  0  0
 44106  1  0  0  0
 45107  1  0  0  0
 47108  1  0  0  0
 48109  1  0  0  0
 48110  1  0  0  0
 49111  1  0  0  0
 49112  1  0  0  0
 54113  1  0  0  0
 54114  1  0  0  0
 54115  1  0  0  0
 58116  1  0  0  0
 59117  1  0  0  0
 59118  1  0  0  0
 59119  1  0  0  0
M  END
$$$$
