4mb9_ligand
  -I-interpret- 

 48 51  0  0  0  0  0  0  0  0999 V2000
   19.6720   34.1440    1.5880 C   0  0  0  0  0
   19.3310   32.6640    1.6460 C   0  0  0  0  0
   18.4250   30.6560    3.4840 O   0  0  0  0  0
   16.3570   31.6800    3.5350 N   0  0  0  0  0
   15.8560   30.8820    4.5510 C   0  0  0  0  0
   14.4580   30.2610    6.1410 C   0  0  0  0  0
   13.3900   30.2380    7.0330 C   0  0  0  0  0
   13.2760   29.1960    7.9380 C   0  0  0  0  0
   14.2900   28.2150    7.8880 C   0  0  0  0  0
   15.3820   29.2300    6.2210 C   0  0  0  0  0
   15.5200   24.8970   11.0550 C   0  0  0  0  0
   16.4290   23.8420   10.4470 C   0  0  0  0  0
   14.4510   23.8690    9.2480 C   0  0  0  0  0
   11.3820   28.0240    9.1570 C   0  0  0  0  0
   10.3790   27.9860   10.0550 N   0  0  0  0  0
   17.9930   32.4950    2.1510 N   0  0  0  0  0
   17.6620   31.5450    3.0940 C   0  0  0  0  0
   14.7460   31.2010    5.1850 N   0  0  0  0  0
   15.3500   28.1880    7.0540 N   0  0  0  0  0
   16.6620   29.3950    5.0390 S   0  0  0  0  0
   14.1660   27.1790    8.7700 O   0  0  0  0  0
   15.1800   26.2000    8.9290 C   0  0  0  0  0
   14.5820   25.2000    9.9150 C   0  0  0  0  0
   15.7910   23.3600    9.2520 O   0  0  0  0  0
   12.1660   29.1390    8.9250 C   0  0  0  0  0
   10.1610   29.1160   10.7430 C   0  0  0  0  0
   10.8430   30.2630   10.6230 N   0  0  0  0  0
   11.8280   30.2280    9.7040 C   0  0  0  0  0
   18.9687   34.6520    0.9282 H   0  0  0  0  0
   19.6059   34.5703    2.5890 H   0  0  0  0  0
   20.6852   34.2674    1.2054 H   0  0  0  0  0
   20.0339   32.1564    2.3066 H   0  0  0  0  0
   19.3963   32.2381    0.6448 H   0  0  0  0  0
   15.7529   32.3799    3.1041 H   0  0  0  0  0
   12.6473   31.0357    7.0194 H   0  0  0  0  0
   16.0581   25.7739   11.4150 H   0  0  0  0  0
   15.0083   24.5578   11.9556 H   0  0  0  0  0
   16.5889   23.0248   11.1504 H   0  0  0  0  0
   17.4048   24.2678   10.2134 H   0  0  0  0  0
   14.0354   23.9441    8.2431 H   0  0  0  0  0
   13.7521   23.2102    9.7634 H   0  0  0  0  0
   11.5878   27.1229    8.5792 H   0  0  0  0  0
   17.2573   33.1053    1.7952 H   0  0  0  0  0
   16.1134   26.6293    9.2931 H   0  0  0  0  0
   15.4529   25.7325    7.9829 H   0  0  0  0  0
   13.6450   25.6414   10.2546 H   0  0  0  0  0
    9.3498   29.0999   11.4709 H   0  0  0  0  0
   12.4090   31.1394    9.5632 H   0  0  0  0  0
  2  1  1  0  0  0
 16  2  1  0  0  0
 17  3  2  0  0  0
  5  4  1  0  0  0
  4 17  1  0  0  0
  5 18  4  0  0  0
 20  5  4  0  0  0
  7  6  4  0  0  0
 10  6  4  0  0  0
  6 18  4  0  0  0
  8  7  4  0  0  0
  9  8  4  0  0  0
  8 25  1  0  0  0
  9 19  4  0  0  0
 21  9  1  0  0  0
 19 10  4  0  0  0
 10 20  4  0  0  0
 11 12  1  0  0  0
 23 11  1  0  0  0
 24 12  1  0  0  0
 23 13  1  0  0  0
 13 24  1  0  0  0
 14 15  4  0  0  0
 25 14  4  0  0  0
 15 26  4  0  0  0
 17 16  1  0  0  0
 22 21  1  0  0  0
 22 23  1  0  0  0
 25 28  4  0  0  0
 26 27  4  0  0  0
 27 28  4  0  0  0
  1 29  1  0  0  0
  1 30  1  0  0  0
  1 31  1  0  0  0
  2 32  1  0  0  0
  2 33  1  0  0  0
  4 34  1  0  0  0
  7 35  1  0  0  0
 11 36  1  0  0  0
 11 37  1  0  0  0
 12 38  1  0  0  0
 12 39  1  0  0  0
 13 40  1  0  0  0
 13 41  1  0  0  0
 14 42  1  0  0  0
 16 43  1  0  0  0
 22 44  1  0  0  0
 22 45  1  0  0  0
 23 46  1  0  0  0
 26 47  1  0  0  0
 28 48  1  0  0  0
M  END
$$$$
