3l54_ligand
  -I-interpret- 

 37 41  0  0  0  0  0  0  0  0999 V2000
   27.2000   13.5330   19.0520 C   0  0  0  0  0
   28.5530   13.3400   19.0890 N   0  0  0  0  0
   29.0360   12.9930   20.2950 N   0  0  0  0  0
   27.9490   12.9630   21.0730 C   0  0  0  0  0
   27.8690   12.6710   22.3760 N   0  0  0  0  0
   26.5960   12.7500   22.7880 C   0  0  0  0  0
   25.4470   13.0700   22.0860 C   0  0  0  0  0
   25.4890   13.3740   20.7410 C   0  0  0  0  0
   26.7970   13.2940   20.3410 C   0  0  0  0  0
   24.1670   13.0540   22.7320 C   0  0  0  0  0
   23.8100   11.9710   23.4920 C   0  0  0  0  0
   22.5640   11.9090   24.0610 C   0  0  0  0  0
   21.6440   12.9170   23.9000 C   0  0  0  0  0
   20.4470   12.8030   24.4790 N   0  0  0  0  0
   19.6030   13.8140   24.2920 C   0  0  0  0  0
   19.8910   14.9350   23.5570 C   0  0  0  0  0
   21.1260   15.0460   22.9650 C   0  0  0  0  0
   21.4300   16.2380   22.2140 C   0  0  0  0  0
   20.5800   16.7010   21.2380 C   0  0  0  0  0
   20.9060   17.8610   20.5740 C   0  0  0  0  0
   21.9940   18.6000   20.8020 N   0  0  0  0  0
   22.7970   18.1250   21.7560 C   0  0  0  0  0
   22.5640   16.9750   22.4720 C   0  0  0  0  0
   22.0190   14.0130   23.1490 C   0  0  0  0  0
   23.2630   14.0740   22.5660 C   0  0  0  0  0
   26.5846   13.8120   18.1967 H   0  0  0  0  0
   26.4411   12.5268   23.8436 H   0  0  0  0  0
   24.6371   13.6309   20.1114 H   0  0  0  0  0
   24.5184   11.1567   23.6446 H   0  0  0  0  0
   22.2960   11.0367   24.6571 H   0  0  0  0  0
   18.6178   13.7468   24.7534 H   0  0  0  0  0
   19.1507   15.7270   23.4439 H   0  0  0  0  0
   19.6656   16.1597   20.9949 H   0  0  0  0  0
   20.2205   18.2043   19.7992 H   0  0  0  0  0
   23.7017   18.6888   21.9836 H   0  0  0  0  0
   23.2698   16.6498   23.2363 H   0  0  0  0  0
   23.5345   14.9420   21.9652 H   0  0  0  0  0
  1  2  4  0  0  0
  1  9  4  0  0  0
  2  3  4  0  0  0
  3  4  4  0  0  0
  4  5  4  0  0  0
  4  9  4  0  0  0
  5  6  4  0  0  0
  6  7  4  0  0  0
  7  8  4  0  0  0
  7 10  1  0  0  0
  8  9  4  0  0  0
 10 11  4  0  0  0
 10 25  4  0  0  0
 11 12  4  0  0  0
 12 13  4  0  0  0
 13 14  4  0  0  0
 13 24  4  0  0  0
 14 15  4  0  0  0
 15 16  4  0  0  0
 16 17  4  0  0  0
 17 18  1  0  0  0
 17 24  4  0  0  0
 18 19  4  0  0  0
 18 23  4  0  0  0
 19 20  4  0  0  0
 20 21  4  0  0  0
 21 22  4  0  0  0
 22 23  4  0  0  0
 24 25  4  0  0  0
  1 26  1  0  0  0
  6 27  1  0  0  0
  8 28  1  0  0  0
 11 29  1  0  0  0
 12 30  1  0  0  0
 15 31  1  0  0  0
 16 32  1  0  0  0
 19 33  1  0  0  0
 20 34  1  0  0  0
 22 35  1  0  0  0
 23 36  1  0  0  0
 25 37  1  0  0  0
M  END
$$$$
