1uu3_ligand
  -I-interpret- 

 64 69  0  0  0  0  0  0  0  0999 V2000
   23.0590   81.7310   26.8680 C   0  0  0  0  0
   23.0500   80.4080   26.1420 C   0  0  0  0  0
   23.8550   79.3070   26.6980 N   0  0  0  0  0
   25.1760   79.4250   27.0870 C   0  0  0  0  0
   23.5690   78.0220   26.6870 C   0  0  0  0  0
   22.3960   77.3450   26.2970 C   0  0  0  0  0
   22.3460   75.9380   26.4140 C   0  0  0  0  0
   23.4110   75.1900   26.9230 C   0  0  0  0  0
   24.5970   75.8670   27.3000 C   0  0  0  0  0
   24.6690   77.2950   27.1670 C   0  0  0  0  0
   25.6700   78.2160   27.4710 C   0  0  0  0  0
   27.0560   78.0510   27.8410 C   0  0  0  0  0
   27.9160   77.0440   27.2890 C   0  0  0  0  0
   27.6000   76.1180   26.5140 O   0  0  0  0  0
   29.1960   77.2020   27.7290 N   0  0  0  0  0
   29.2110   78.2680   28.5030 C   0  0  0  0  0
   30.2550   78.7090   29.0070 O   0  0  0  0  0
   27.9200   78.8530   28.6560 C   0  0  0  0  0
   27.5390   80.0400   29.3640 C   0  0  0  0  0
   26.2840   80.2240   29.8570 C   0  0  0  0  0
   28.2350   81.2450   29.6330 C   0  0  0  0  0
   29.5680   81.6980   29.3750 C   0  0  0  0  0
   29.9130   82.9930   29.7780 C   0  0  0  0  0
   28.9970   83.8460   30.4150 C   0  0  0  0  0
   27.6940   83.4060   30.6560 C   0  0  0  0  0
   27.3270   82.1040   30.2570 C   0  0  0  0  0
   26.1650   81.4600   30.3850 N   0  0  0  0  0
   24.8740   81.9520   30.9420 C   0  0  0  0  0
   24.0910   82.5240   29.7510 C   0  0  0  0  0
   23.3960   81.3680   29.2220 O   0  0  0  0  0
   22.3860   81.6410   28.2390 C   0  0  0  0  0
   21.4570   80.4140   28.4010 C   0  0  0  0  0
   20.6680   80.4240   29.6780 N   0  3  0  0  0
   19.4060   79.6900   29.4820 C   0  0  0  0  0
   21.3580   79.6600   30.7500 C   0  0  0  0  0
   22.5073   82.4527   26.2656 H   0  0  0  0  0
   24.0967   82.0290   27.0180 H   0  0  0  0  0
   23.4803   80.6137   25.1619 H   0  0  0  0  0
   22.0175   80.0615   26.1863 H   0  0  0  0  0
   25.7430   80.3559   27.0864 H   0  0  0  0  0
   21.5402   77.8987   25.9109 H   0  0  0  0  0
   21.4433   75.4166   26.0955 H   0  0  0  0  0
   23.3309   74.1080   27.0278 H   0  0  0  0  0
   25.4485   75.3081   27.6881 H   0  0  0  0  0
   29.9926   76.6069   27.5018 H   0  0  0  0  0
   25.4885   79.4793   29.8293 H   0  0  0  0  0
   30.2934   81.0530   28.8790 H   0  0  0  0  0
   30.9254   83.3512   29.5915 H   0  0  0  0  0
   29.3019   84.8471   30.7199 H   0  0  0  0  0
   26.9712   84.0590   31.1452 H   0  0  0  0  0
   24.3216   81.1482   31.4287 H   0  0  0  0  0
   25.0374   82.7099   31.7082 H   0  0  0  0  0
   24.7377   82.9985   29.0130 H   0  0  0  0  0
   23.4114   83.3251   30.0417 H   0  0  0  0  0
   21.8365   82.5761   28.3470 H   0  0  0  0  0
   22.0877   79.5251   28.4128 H   0  0  0  0  0
   20.7448   80.4314   27.5760 H   0  0  0  0  0
   20.5400   81.4039   29.9304 H   0  0  0  0  0
   18.8269   80.1697   28.6929 H   0  0  0  0  0
   19.6260   78.6608   29.1985 H   0  0  0  0  0
   18.8345   79.6983   30.4101 H   0  0  0  0  0
   21.4873   78.6256   30.4315 H   0  0  0  0  0
   22.3334   80.1069   30.9426 H   0  0  0  0  0
   20.7576   79.6892   31.6592 H   0  0  0  0  0
  1  2  1  0  0  0
 31  1  1  0  0  0
 11  4  4  0  0  0
  5  6  4  0  0  0
 10  5  4  0  0  0
  6  7  4  0  0  0
  8  7  4  0  0  0
  9  8  4  0  0  0
 10  9  4  0  0  0
 11 10  4  0  0  0
 12 11  1  0  0  0
 12 13  1  0  0  0
 18 12  2  0  0  0
 13 14  2  0  0  0
 16 17  2  0  0  0
 18 16  1  0  0  0
 19 18  1  0  0  0
 20 19  4  0  0  0
 21 19  4  0  0  0
 21 22  4  0  0  0
 26 21  4  0  0  0
 22 23  4  0  0  0
 24 23  4  0  0  0
 25 24  4  0  0  0
 26 25  4  0  0  0
 28 29  1  0  0  0
 29 30  1  0  0  0
 30 31  1  0  0  0
 31 32  1  0  0  0
 15 13  1  0  0  0
 16 15  1  0  0  0
  4  3  4  0  0  0
  5  3  4  0  0  0
 27 20  4  0  0  0
 27 26  4  0  0  0
 27 28  1  0  0  0
  3  2  1  0  0  0
 32 33  1  0  0  0
 33 34  1  0  0  0
 33 35  1  0  0  0
  1 36  1  0  0  0
  1 37  1  0  0  0
  2 38  1  0  0  0
  2 39  1  0  0  0
  4 40  1  0  0  0
  6 41  1  0  0  0
  7 42  1  0  0  0
  8 43  1  0  0  0
  9 44  1  0  0  0
 15 45  1  0  0  0
 20 46  1  0  0  0
 22 47  1  0  0  0
 23 48  1  0  0  0
 24 49  1  0  0  0
 25 50  1  0  0  0
 28 51  1  0  0  0
 28 52  1  0  0  0
 29 53  1  0  0  0
 29 54  1  0  0  0
 31 55  1  0  0  0
 32 56  1  0  0  0
 32 57  1  0  0  0
 33 58  1  0  0  0
 34 59  1  0  0  0
 34 60  1  0  0  0
 34 61  1  0  0  0
 35 62  1  0  0  0
 35 63  1  0  0  0
 35 64  1  0  0  0
M  END
$$$$
