1wc1_ligand
  -I-interpret- 

 46 48  0  0  0  0  0  0  0  0999 V2000
   40.5190   47.8320  147.9490 P   0  0  0  0  0
   41.6640   47.8270  146.9750 O   0  0  0  0  0
   39.3960   48.7200  147.4920 O   0  0  0  0  0
   41.0350   48.2910  149.2890 O   0  0  0  0  0
   39.1140   45.4850  147.1780 P   0  0  0  0  0
   38.4190   46.3790  146.1660 O   0  0  0  0  0
   39.9460   44.4050  146.4510 O   0  0  0  0  0
   40.0710   46.3350  148.1050 O   0  0  0  0  0
   36.7350   44.1400  147.8650 P   0  0  0  0  0
   35.3260   45.0220  148.9590 S   0  0  0  0  0
   36.4220   44.2340  146.3540 O   0  0  0  0  0
   38.1040   44.8250  148.2230 O   0  0  0  0  0
   36.9100   42.6540  148.2900 O   0  0  0  0  0
   38.0320   41.8880  147.7770 C   0  0  0  0  0
   37.5420   40.7210  146.9720 C   0  0  0  0  0
   36.6960   39.8850  147.8570 O   0  0  0  0  0
   36.6170   41.1570  145.8390 C   0  0  0  0  0
   37.3390   41.4990  144.6490 O   0  0  0  0  0
   35.7580   39.9830  145.6720 C   0  0  0  0  0
   36.4480   39.0200  144.8700 O   0  0  0  0  0
   35.5110   39.4850  147.0970 C   0  0  0  0  0
   34.2760   40.1110  147.7010 N   0  0  0  0  0
   34.1800   40.9640  148.7480 C   0  0  0  0  0
   32.9070   41.3290  149.0440 N   0  0  0  0  0
   32.1850   40.6780  148.1440 C   0  0  0  0  0
   30.7970   40.6240  147.9190 C   0  0  0  0  0
   29.9170   41.2860  148.6600 N   0  0  0  0  0
   30.3290   39.8270  146.8520 N   0  0  0  0  0
   31.2690   39.1200  146.0780 C   0  0  0  0  0
   32.5910   39.0990  146.2240 N   0  0  0  0  0
   32.9980   39.8980  147.2740 C   0  0  0  0  0
   42.3583   47.2502  147.3020 H   0  0  0  0  0
   41.7510   47.7161  149.5690 H   0  0  0  0  0
   40.3802   43.8465  147.0999 H   0  0  0  0  0
   38.6233   41.5188  148.6150 H   0  0  0  0  0
   38.6390   42.5303  147.1389 H   0  0  0  0  0
   38.4154   40.2075  146.5700 H   0  0  0  0  0
   36.0565   42.0665  146.0554 H   0  0  0  0  0
   36.7196   41.7661  143.9659 H   0  0  0  0  0
   34.8139   40.1879  145.1673 H   0  0  0  0  0
   35.8931   38.2452  144.7541 H   0  0  0  0  0
   35.3476   38.4074  147.1103 H   0  0  0  0  0
   35.0463   41.3247  149.3026 H   0  0  0  0  0
   30.2373   41.8676  149.4343 H   0  0  0  0  0
   28.9204   41.2131  148.4552 H   0  0  0  0  0
   30.8658   38.5189  145.2630 H   0  0  0  0  0
  1  2  1  0  0  0
  1  3  2  0  0  0
  1  4  1  0  0  0
  8  1  1  0  0  0
  5  6  2  0  0  0
  5  7  1  0  0  0
  5  8  1  0  0  0
 12  5  1  0  0  0
  9 10  2  0  0  0
  9 11  2  0  0  0
  9 12  1  0  0  0
  9 13  1  0  0  0
 13 14  1  0  0  0
 14 15  1  0  0  0
 15 16  1  0  0  0
 15 17  1  0  0  0
 16 21  1  0  0  0
 17 18  1  0  0  0
 17 19  1  0  0  0
 19 20  1  0  0  0
 19 21  1  0  0  0
 21 22  1  0  0  0
 22 23  4  0  0  0
 22 31  4  0  0  0
 23 24  4  0  0  0
 24 25  4  0  0  0
 25 26  4  0  0  0
 25 31  4  0  0  0
 26 27  1  0  0  0
 26 28  4  0  0  0
 28 29  4  0  0  0
 29 30  4  0  0  0
 30 31  4  0  0  0
  2 32  1  0  0  0
  4 33  1  0  0  0
  7 34  1  0  0  0
 14 35  1  0  0  0
 14 36  1  0  0  0
 15 37  1  0  0  0
 17 38  1  0  0  0
 18 39  1  0  0  0
 19 40  1  0  0  0
 20 41  1  0  0  0
 21 42  1  0  0  0
 23 43  1  0  0  0
 27 44  1  0  0  0
 27 45  1  0  0  0
 29 46  1  0  0  0
M  END
$$$$
