4qmw_ligand
  -I-interpret- 

 40 44  0  0  0  0  0  0  0  0999 V2000
   -1.9110   -2.5120   15.9920 C   0  0  0  0  0
   -2.0410   -3.8330   16.7790 C   0  0  0  0  0
   -2.7000   -3.4750   18.1310 C   0  0  0  0  0
   -3.0860   -1.9780   18.0610 C   0  0  0  0  0
   -1.9750   -1.4750   17.1250 C   0  0  0  0  0
   -1.7870   -0.0720   16.8450 N   0  0  0  0  0
   -0.6830    0.3720   17.3190 N   0  0  0  0  0
   -2.4210    0.9450   16.2070 C   0  0  0  0  0
   -3.6030    1.0070   15.5390 N   0  0  0  0  0
   -3.9910    2.1880   14.9840 C   0  0  0  0  0
   -3.2050    3.3050   15.0870 N   0  0  0  0  0
   -2.0210    3.3030   15.7570 C   0  0  0  0  0
   -1.3290    4.4540   15.8140 N   0  0  0  0  0
   -1.6060    2.0870   16.3370 C   0  0  0  0  0
   -0.5000    1.6620   17.0760 C   0  0  0  0  0
    0.6940    2.2390   17.5350 C   0  0  0  0  0
    1.5160    3.0160   16.6930 C   0  0  0  0  0
    2.7180    3.4990   17.2360 C   0  0  0  0  0
    3.7300    4.3000   16.7250 C   0  0  0  0  0
    4.6580    4.4350   17.7560 C   0  0  0  0  0
    4.2460    3.7570   18.8400 N   0  0  0  0  0
    3.0680    3.1830   18.5560 C   0  0  0  0  0
    2.2870    2.4110   19.3330 N   0  0  0  0  0
    1.1120    1.9290   18.8530 C   0  0  0  0  0
   -2.6815   -2.3779   15.2328 H   0  0  0  0  0
   -1.0033   -2.4483   15.3920 H   0  0  0  0  0
   -1.0654   -4.2949   16.9304 H   0  0  0  0  0
   -2.6439   -4.5566   16.2303 H   0  0  0  0  0
   -2.0126   -3.6587   18.9567 H   0  0  0  0  0
   -3.5801   -4.0933   18.3077 H   0  0  0  0  0
   -3.1319   -1.4736   19.0262 H   0  0  0  0  0
   -4.0997   -1.7847   17.7102 H   0  0  0  0  0
   -1.0352   -1.4247   17.6749 H   0  0  0  0  0
   -4.9398    2.2455   14.4505 H   0  0  0  0  0
   -1.6956    5.2923   15.3633 H   0  0  0  0  0
   -0.4373    4.4890   16.3080 H   0  0  0  0  0
    1.2305    3.2328   15.6636 H   0  0  0  0  0
    3.7870    4.7329   15.7263 H   0  0  0  0  0
    5.5834    5.0074   17.6921 H   0  0  0  0  0
    0.4862    1.2995   19.4856 H   0  0  0  0  0
  1  2  1  0  0  0
  1  5  1  0  0  0
  2  3  1  0  0  0
  3  4  1  0  0  0
  4  5  1  0  0  0
  5  6  1  0  0  0
  6  7  4  0  0  0
  6  8  4  0  0  0
  7 15  4  0  0  0
  8  9  4  0  0  0
  8 14  4  0  0  0
  9 10  4  0  0  0
 10 11  4  0  0  0
 11 12  4  0  0  0
 12 13  1  0  0  0
 12 14  4  0  0  0
 14 15  4  0  0  0
 15 16  1  0  0  0
 16 17  4  0  0  0
 16 24  4  0  0  0
 17 18  4  0  0  0
 18 19  4  0  0  0
 18 22  4  0  0  0
 19 20  4  0  0  0
 20 21  4  0  0  0
 21 22  4  0  0  0
 22 23  4  0  0  0
 23 24  4  0  0  0
  1 25  1  0  0  0
  1 26  1  0  0  0
  2 27  1  0  0  0
  2 28  1  0  0  0
  3 29  1  0  0  0
  3 30  1  0  0  0
  4 31  1  0  0  0
  4 32  1  0  0  0
  5 33  1  0  0  0
 10 34  1  0  0  0
 13 35  1  0  0  0
 13 36  1  0  0  0
 17 37  1  0  0  0
 19 38  1  0  0  0
 20 39  1  0  0  0
 24 40  1  0  0  0
M  END
$$$$
