5vc6_ligand
  -I-interpret- 

 67 71  0  0  0  0  0  0  0  0999 V2000
   50.3920    1.4710   11.0610 O   0  0  0  0  0
   49.7100    1.8550   10.1470 C   0  0  0  0  0
   49.9680    1.5750    8.8750 N   0  0  0  0  0
   51.1760    0.8980    8.4380 C   0  0  0  0  0
   48.5690    2.7120   10.4820 C   0  0  0  0  0
   48.1360    3.6820    9.6940 N   0  0  0  0  0
   47.0690    4.3000   10.3010 N   0  0  0  0  0
   46.4750    5.4060    9.5300 C   0  0  0  0  0
   46.7710    3.7370   11.4610 C   0  0  0  0  0
   47.7460    2.6530   11.7210 C   0  0  0  0  0
   45.7610    4.1140   12.4620 C   0  0  0  0  0
   45.5850    3.2570   13.5640 C   0  0  0  0  0
   46.3110    1.9300   13.7130 C   0  0  0  0  0
   47.6710    1.8090   13.0190 C   0  0  0  0  0
   48.7570    2.1060   14.0450 C   0  0  0  0  0
   47.7540    0.3820   12.5820 C   0  0  0  0  0
   45.0860    5.2950   12.3740 N   0  0  0  0  0
   44.1880    5.6640   13.3220 C   0  0  0  0  0
   44.0000    4.8410   14.3920 N   0  0  0  0  0
   44.6630    3.6630   14.5200 C   0  0  0  0  0
   43.4760    6.7980   13.2980 N   0  0  0  0  0
   43.2450    7.7430   12.3210 C   0  0  0  0  0
   42.0960    8.5940   12.3810 C   0  0  0  0  0
   41.8510    9.5420   11.4040 C   0  0  0  0  0
   42.7640    9.7060   10.3320 C   0  0  0  0  0
   43.9350    8.8710   10.2580 C   0  0  0  0  0
   44.1750    7.9020   11.2540 C   0  0  0  0  0
   42.5180   10.6740    9.3450 N   0  0  0  0  0
   42.2260   12.0550    9.7530 C   0  0  0  0  0
   42.8180   12.9030    8.6290 C   0  0  0  0  0
   42.2730   12.3240    7.3950 N   0  3  0  0  0
   41.1160   12.9240    6.7340 C   0  0  0  0  0
   42.7420   11.0130    6.9680 C   0  0  0  0  0
   42.0930   10.1320    8.0320 C   0  0  0  0  0
   49.2838    1.8490    8.1699 H   0  0  0  0  0
   52.0461    1.4879    8.7262 H   0  0  0  0  0
   51.2302   -0.0845    8.9068 H   0  0  0  0  0
   51.1553    0.7842    7.3542 H   0  0  0  0  0
   47.2289    6.1746    9.3599 H   0  0  0  0  0
   46.1169    5.0283    8.5723 H   0  0  0  0  0
   45.6413    5.8304   10.0893 H   0  0  0  0  0
   45.6687    1.1822   13.2478 H   0  0  0  0  0
   46.5061    1.8123   14.7789 H   0  0  0  0  0
   49.7347    1.9136   13.6033 H   0  0  0  0  0
   48.6930    3.1511   14.3478 H   0  0  0  0  0
   48.6177    1.4650   14.9155 H   0  0  0  0  0
   46.9210    0.1584   11.9155 H   0  0  0  0  0
   48.6951    0.2183   12.0570 H   0  0  0  0  0
   47.7062   -0.2676   13.4559 H   0  0  0  0  0
   44.4691    3.0277   15.3843 H   0  0  0  0  0
   43.0102    7.0044   14.1816 H   0  0  0  0  0
   41.3997    8.4931   13.2135 H   0  0  0  0  0
   40.9565   10.1625   11.4583 H   0  0  0  0  0
   44.6362    8.9881    9.4317 H   0  0  0  0  0
   45.0675    7.2780   11.2076 H   0  0  0  0  0
   42.6545   12.2988   10.7251 H   0  0  0  0  0
   41.1584   12.2305    9.8857 H   0  0  0  0  0
   43.9078   12.8854    8.6385 H   0  0  0  0  0
   42.5553   13.9557    8.7336 H   0  0  0  0  0
   42.8753   12.9064    6.8132 H   0  0  0  0  0
   40.2661   12.9187    7.4164 H   0  0  0  0  0
   41.3516   13.9505    6.4529 H   0  0  0  0  0
   40.8704   12.3488    5.8413 H   0  0  0  0  0
   43.8267   10.9219    6.9118 H   0  0  0  0  0
   42.4718   10.7521    5.9448 H   0  0  0  0  0
   41.0071   10.1434    7.9384 H   0  0  0  0  0
   42.4030    9.0930    7.9202 H   0  0  0  0  0
  1  2  2  0  0  0
  2  3  1  0  0  0
  2  5  1  0  0  0
  3  4  1  0  0  0
  5  6  4  0  0  0
  5 10  4  0  0  0
  6  7  4  0  0  0
  7  8  1  0  0  0
  7  9  4  0  0  0
  9 10  4  0  0  0
  9 11  1  0  0  0
 10 14  1  0  0  0
 11 12  4  0  0  0
 11 17  4  0  0  0
 12 13  1  0  0  0
 12 20  4  0  0  0
 13 14  1  0  0  0
 14 15  1  0  0  0
 14 16  1  0  0  0
 17 18  4  0  0  0
 18 19  4  0  0  0
 18 21  1  0  0  0
 19 20  4  0  0  0
 21 22  1  0  0  0
 22 23  4  0  0  0
 22 27  4  0  0  0
 23 24  4  0  0  0
 24 25  4  0  0  0
 25 26  4  0  0  0
 25 28  1  0  0  0
 26 27  4  0  0  0
 28 29  1  0  0  0
 28 34  1  0  0  0
 29 30  1  0  0  0
 30 31  1  0  0  0
 31 32  1  0  0  0
 31 33  1  0  0  0
 33 34  1  0  0  0
  3 35  1  0  0  0
  4 36  1  0  0  0
  4 37  1  0  0  0
  4 38  1  0  0  0
  8 39  1  0  0  0
  8 40  1  0  0  0
  8 41  1  0  0  0
 13 42  1  0  0  0
 13 43  1  0  0  0
 15 44  1  0  0  0
 15 45  1  0  0  0
 15 46  1  0  0  0
 16 47  1  0  0  0
 16 48  1  0  0  0
 16 49  1  0  0  0
 20 50  1  0  0  0
 21 51  1  0  0  0
 23 52  1  0  0  0
 24 53  1  0  0  0
 26 54  1  0  0  0
 27 55  1  0  0  0
 29 56  1  0  0  0
 29 57  1  0  0  0
 30 58  1  0  0  0
 30 59  1  0  0  0
 31 60  1  0  0  0
 32 61  1  0  0  0
 32 62  1  0  0  0
 32 63  1  0  0  0
 33 64  1  0  0  0
 33 65  1  0  0  0
 34 66  1  0  0  0
 34 67  1  0  0  0
M  END
$$$$
