5v1b_ligand
  -I-interpret- 

 25 27  0  0  0  0  0  0  0  0999 V2000
   16.0560   26.1890   -7.7580 N   0  0  0  0  0
   13.9860   26.6180   -4.9570 C   0  0  0  0  0
   13.4010   26.3580   -3.7310 C   0  0  0  0  0
   13.7720   25.1950   -3.0210 C   0  0  0  0  0
   14.7320   24.3130   -3.5580 C   0  0  0  0  0
   15.3210   24.5810   -4.7730 C   0  0  0  0  0
   11.8100   24.8390   -1.4980 C   0  0  0  0  0
   13.5660   24.2240    0.5810 C   0  0  0  0  0
   15.7450   24.1580    0.6680 C   0  0  0  0  0
   15.5710   25.9820   -6.7530 C   0  0  0  0  0
   14.9530   25.7340   -5.4870 C   0  0  0  0  0
   13.1860   24.8630   -1.7030 C   0  0  0  0  0
   11.3150   24.5030   -0.2250 C   0  0  0  0  0
   12.1670   24.1940    0.8050 C   0  0  0  0  0
   14.6240   23.9860    1.3580 N   0  0  0  0  0
   15.4490   24.5070   -0.5580 N   0  0  0  0  0
   14.0460   24.5610   -0.6620 N   0  0  0  0  0
   13.7000   27.5085   -5.5168 H   0  0  0  0  0
   12.6614   27.0435   -3.3172 H   0  0  0  0  0
   15.0094   23.4138   -3.0079 H   0  0  0  0  0
   16.0700   23.9015   -5.1797 H   0  0  0  0  0
   11.1255   25.0771   -2.3122 H   0  0  0  0  0
   16.7535   24.0288    1.0609 H   0  0  0  0  0
   10.2386   24.4879   -0.0543 H   0  0  0  0  0
   11.7719   23.9282    1.7855 H   0  0  0  0  0
 10  1  3  0  0  0
  3  2  4  0  0  0
  2 11  4  0  0  0
  4  3  4  0  0  0
  4  5  4  0  0  0
 12  4  1  0  0  0
  5  6  4  0  0  0
  6 11  4  0  0  0
 12  7  4  0  0  0
  7 13  4  0  0  0
  8 14  4  0  0  0
  8 15  4  0  0  0
 17  8  4  0  0  0
 15  9  4  0  0  0
  9 16  4  0  0  0
 11 10  1  0  0  0
 12 17  4  0  0  0
 13 14  4  0  0  0
 16 17  4  0  0  0
  2 18  1  0  0  0
  3 19  1  0  0  0
  5 20  1  0  0  0
  6 21  1  0  0  0
  7 22  1  0  0  0
  9 23  1  0  0  0
 13 24  1  0  0  0
 14 25  1  0  0  0
M  END
$$$$
