4h3g_ligand
  -I-interpret- 

 52 56  0  0  0  0  0  0  0  0999 V2000
   21.9550   10.7170   21.1860 C   0  0  0  0  0
   21.4950   12.1180   21.6250 C   0  0  0  0  0
   22.6910   11.6700   23.7900 N   0  0  0  0  0
   22.5710   10.2970   23.5800 C   0  0  0  0  0
   22.2490   12.6340   22.8790 C   0  0  0  0  0
   22.1730    9.8350   22.3520 N   0  0  0  0  0
   23.1850   10.8980   20.3110 C   0  0  0  0  0
   19.6300   10.7890   21.0670 N   0  0  0  0  0
   20.7880   10.1640   20.4320 C   0  0  0  0  0
   19.9770   11.9990   21.8190 C   0  0  0  0  0
   24.5600   10.8480   20.7490 C   0  0  0  0  0
   25.4990   11.0590   19.7140 C   0  0  0  0  0
   23.1580   11.2120   18.6280 S   0  0  0  0  0
   24.8630   11.2790   18.4680 C   0  0  0  0  0
   18.3210   10.2980   21.0180 C   0  0  0  0  0
   29.8160    9.5150   23.6020 N   0  0  0  0  0
   22.8590    9.4320   24.5560 N   0  0  0  0  0
   26.9860   11.0580   19.9590 C   0  0  0  0  0
   17.7220    9.5050   19.9650 C   0  0  0  0  0
   29.4030    9.9630   22.6230 C   0  0  0  0  0
   22.4380   13.8400   23.0230 O   0  0  0  0  0
   16.3810    9.0950   20.1020 C   0  0  0  0  0
   27.5210   10.5180   21.1540 C   0  0  0  0  0
   23.3360   12.1520   25.0490 C   0  0  0  0  0
   28.9120   10.5210   21.4010 C   0  0  0  0  0
   17.5670   10.6430   22.1120 N   0  0  0  0  0
   27.8980   11.6070   19.0170 C   0  0  0  0  0
   16.2800   10.2220   22.2300 C   0  0  0  0  0
   29.2940   11.6100   19.2590 C   0  0  0  0  0
   15.6440    9.4550   21.2480 C   0  0  0  0  0
   29.8160   11.0670   20.4580 C   0  0  0  0  0
   18.4050    9.0940   18.7530 C   0  0  0  0  0
   19.0030    8.7910   17.8020 N   0  0  0  0  0
   21.7303   12.8742   20.8761 H   0  0  0  0  0
   22.0198    8.8331   22.2374 H   0  0  0  0  0
   20.7460    9.0757   20.4750 H   0  0  0  0  0
   20.8433   10.3830   19.3657 H   0  0  0  0  0
   19.4402   12.8792   21.4652 H   0  0  0  0  0
   19.6938   11.9337   22.8695 H   0  0  0  0  0
   24.8477   10.6642   21.7841 H   0  0  0  0  0
   25.3882   11.4661   17.5314 H   0  0  0  0  0
   23.1700    9.7740   25.4652 H   0  0  0  0  0
   15.9124    8.4979   19.3197 H   0  0  0  0  0
   26.8469   10.0921   21.8971 H   0  0  0  0  0
   22.7701   11.7898   25.9073 H   0  0  0  0  0
   24.3573   11.7746   25.1000 H   0  0  0  0  0
   23.3494   13.2419   25.0547 H   0  0  0  0  0
   27.5157   12.0342   18.0899 H   0  0  0  0  0
   15.7210   10.4929   23.1257 H   0  0  0  0  0
   29.9709   12.0333   18.5169 H   0  0  0  0  0
   14.6060    9.1441   21.3661 H   0  0  0  0  0
   30.8889   11.0693   20.6505 H   0  0  0  0  0
  1  2  1  0  0  0
  1  6  1  0  0  0
  7  1  1  0  0  0
  1  9  1  0  0  0
  2  5  1  0  0  0
  2 10  1  0  0  0
  4  3  4  0  0  0
  5  3  1  0  0  0
  3 24  1  0  0  0
  6  4  1  0  0  0
  4 17  2  0  0  0
  5 21  2  0  0  0
 11  7  4  0  0  0
 13  7  4  0  0  0
  9  8  1  0  0  0
  8 10  1  0  0  0
  8 15  1  0  0  0
 12 11  4  0  0  0
 12 14  4  0  0  0
 18 12  1  0  0  0
 14 13  4  0  0  0
 15 19  4  0  0  0
 15 26  4  0  0  0
 20 16  3  0  0  0
 23 18  4  0  0  0
 18 27  4  0  0  0
 19 22  4  0  0  0
 19 32  1  0  0  0
 25 20  1  0  0  0
 22 30  4  0  0  0
 23 25  4  0  0  0
 25 31  4  0  0  0
 26 28  4  0  0  0
 27 29  4  0  0  0
 28 30  4  0  0  0
 29 31  4  0  0  0
 32 33  3  0  0  0
  2 34  1  0  0  0
  6 35  1  0  0  0
  9 36  1  0  0  0
  9 37  1  0  0  0
 10 38  1  0  0  0
 10 39  1  0  0  0
 11 40  1  0  0  0
 14 41  1  0  0  0
 17 42  1  0  0  0
 22 43  1  0  0  0
 23 44  1  0  0  0
 24 45  1  0  0  0
 24 46  1  0  0  0
 24 47  1  0  0  0
 27 48  1  0  0  0
 28 49  1  0  0  0
 29 50  1  0  0  0
 30 51  1  0  0  0
 31 52  1  0  0  0
M  END
$$$$
