2wzm_ligand
  -I-interpret- 

 63 66  0  0  0  0  0  0  0  0999 V2000
    9.5840   44.9010   -3.1550 P   0  0  0  0  0
    8.9740   44.1490   -1.9760 O   0  0  0  0  0
   11.0320   45.2990   -3.0320 O   0  0  0  0  0
    9.5900   44.0650   -4.5390 O   0  0  0  0  0
    8.4280   43.5650   -5.1570 C   0  0  0  0  0
    8.7870   42.7870   -6.4230 C   0  0  0  0  0
    8.6950   43.6460   -7.5730 O   0  0  0  0  0
   10.1880   42.1990   -6.4140 C   0  0  0  0  0
   10.0800   40.8420   -6.8660 O   0  0  0  0  0
   10.9760   43.0740   -7.3900 C   0  0  0  0  0
   11.9330   42.3150   -8.1080 O   0  0  0  0  0
    9.8910   43.5710   -8.3410 C   0  0  0  0  0
   10.1500   44.8900   -9.0000 N   0  0  0  0  0
   10.6560   46.0310   -8.4850 C   0  0  0  0  0
   10.7110   46.9780   -9.4610 N   0  0  0  0  0
   10.2330   46.4170  -10.6010 C   0  0  0  0  0
   10.0410   46.8940  -11.9000 C   0  0  0  0  0
   10.3730   48.1730  -12.2560 N   0  0  0  0  0
    9.5190   46.0370  -12.8280 N   0  0  0  0  0
    9.1970   44.7650  -12.5060 C   0  0  0  0  0
    9.3740   44.3000  -11.2570 N   0  0  0  0  0
    9.8870   45.1070  -10.3000 C   0  0  0  0  0
    8.6640   46.1540   -3.6150 O   0  0  0  0  0
    7.5380   46.9630   -2.7780 P   0  0  0  0  0
    6.4680   46.0340   -2.2240 O   0  0  0  0  0
    7.2030   48.1370   -3.6250 O   0  0  0  0  0
    8.2630   47.4240   -1.4550 O   0  0  0  0  0
    9.5050   48.0680   -1.5360 C   0  0  0  0  0
    9.7240   48.2860   -0.0690 C   0  0  0  0  0
   10.7290   47.4270    0.4660 O   0  0  0  0  0
   10.2520   49.6890    0.0490 C   0  0  0  0  0
    9.1350   50.5970   -0.0750 O   0  0  0  0  0
   11.0080   49.6250    1.3810 C   0  0  0  0  0
   10.2040   50.0630    2.4930 O   0  0  0  0  0
   11.3600   48.1440    1.5530 C   0  0  0  0  0
   13.4130   42.8660   -8.3440 P   0  0  0  0  0
   13.9560   43.2910   -7.0040 O   0  0  0  0  0
   14.1160   41.6880   -8.9600 O   0  0  0  0  0
   13.2610   44.0410   -9.2950 O   0  0  0  0  0
    8.0544   43.9495   -2.1664 H   0  0  0  0  0
    7.7826   44.4011   -5.4263 H   0  0  0  0  0
    7.9178   42.8966   -4.4634 H   0  0  0  0  0
    8.0736   41.9638   -6.4625 H   0  0  0  0  0
   10.6775   42.1858   -5.4402 H   0  0  0  0  0
    9.5798   40.3313   -6.2252 H   0  0  0  0  0
   11.5342   43.8666   -6.8916 H   0  0  0  0  0
    9.8406   42.8699   -9.1741 H   0  0  0  0  0
   10.9707   46.1715   -7.4509 H   0  0  0  0  0
   10.7727   48.8074  -11.5645 H   0  0  0  0  0
   10.2207   48.4919  -13.2128 H   0  0  0  0  0
    8.7872   44.1054  -13.2709 H   0  0  0  0  0
    6.8842   45.3416   -1.7054 H   0  0  0  0  0
    9.5277   48.9669   -2.1521 H   0  0  0  0  0
   10.2891   47.5115   -2.0495 H   0  0  0  0  0
    8.7943   48.0966    0.4675 H   0  0  0  0  0
   10.9349   50.0638   -0.7135 H   0  0  0  0  0
    9.4495   51.5011   -0.0025 H   0  0  0  0  0
   11.8775   50.2821    1.3648 H   0  0  0  0  0
   10.7189   50.0049    3.3012 H   0  0  0  0  0
   12.4403   48.0006    1.5323 H   0  0  0  0  0
   11.0054   47.7737    2.5149 H   0  0  0  0  0
   13.4557   44.0442   -6.6815 H   0  0  0  0  0
   12.8072   44.7580   -8.8460 H   0  0  0  0  0
  1  2  1  0  0  0
  1  3  2  0  0  0
  1  4  1  0  0  0
  1 23  1  0  0  0
  4  5  1  0  0  0
  5  6  1  0  0  0
  6  7  1  0  0  0
  6  8  1  0  0  0
  7 12  1  0  0  0
  8  9  1  0  0  0
  8 10  1  0  0  0
 10 11  1  0  0  0
 10 12  1  0  0  0
 11 36  1  0  0  0
 12 13  1  0  0  0
 13 14  4  0  0  0
 13 22  4  0  0  0
 14 15  4  0  0  0
 15 16  4  0  0  0
 16 17  4  0  0  0
 16 22  4  0  0  0
 17 18  1  0  0  0
 17 19  4  0  0  0
 19 20  4  0  0  0
 20 21  4  0  0  0
 21 22  4  0  0  0
 23 24  1  0  0  0
 24 25  1  0  0  0
 24 26  2  0  0  0
 24 27  1  0  0  0
 27 28  1  0  0  0
 28 29  1  0  0  0
 29 30  1  0  0  0
 29 31  1  0  0  0
 30 35  1  0  0  0
 31 32  1  0  0  0
 31 33  1  0  0  0
 33 34  1  0  0  0
 33 35  1  0  0  0
 36 37  1  0  0  0
 36 38  2  0  0  0
 36 39  1  0  0  0
  2 40  1  0  0  0
  5 41  1  0  0  0
  5 42  1  0  0  0
  6 43  1  0  0  0
  8 44  1  0  0  0
  9 45  1  0  0  0
 10 46  1  0  0  0
 12 47  1  0  0  0
 14 48  1  0  0  0
 18 49  1  0  0  0
 18 50  1  0  0  0
 20 51  1  0  0  0
 25 52  1  0  0  0
 28 53  1  0  0  0
 28 54  1  0  0  0
 29 55  1  0  0  0
 31 56  1  0  0  0
 32 57  1  0  0  0
 33 58  1  0  0  0
 34 59  1  0  0  0
 35 60  1  0  0  0
 35 61  1  0  0  0
 37 62  1  0  0  0
 39 63  1  0  0  0
M  END
$$$$
