4pz5_ligand
  -I-interpret- 

227228  0  0  0  0  0  0  0  0999 V2000
  -50.7500   17.6790   64.5050 C   0  0  0  0  0
  -51.0370   17.4040   65.6820 O   0  0  0  0  0
  -50.6230   19.0980   64.0230 C   0  0  0  0  0
  -50.1750   16.7850   63.7120 N   0  0  0  0  0
  -50.2720   15.3780   64.0410 C   0  0  0  0  0
  -49.0900   14.5830   63.4890 C   0  0  0  0  0
  -48.5310   14.9220   62.4450 O   0  0  0  0  0
  -51.5900   14.8080   63.5100 C   0  0  0  0  0
  -51.7970   13.4810   63.9660 O   0  0  0  0  0
  -48.6940   13.5470   64.2240 N   0  0  0  0  0
  -47.7980   12.5200   63.7020 C   0  0  0  0  0
  -48.6570   11.3020   63.3770 C   0  0  0  0  0
  -49.0290   10.5400   64.2710 O   0  0  0  0  0
  -46.6800   12.1430   64.7100 C   0  0  0  0  0
  -45.8010   13.3560   65.0370 C   0  0  0  0  0
  -45.8270   11.0010   64.1630 C   0  0  0  0  0
  -44.9490   13.8360   63.8810 C   0  0  0  0  0
  -49.0130   11.1420   62.1070 N   0  0  0  0  0
  -49.9220   10.0740   61.7010 C   0  0  0  0  0
  -49.1690    8.7870   61.3570 C   0  0  0  0  0
  -49.7030    7.6930   61.5090 O   0  0  0  0  0
  -50.7700   10.5330   60.5070 C   0  0  0  0  0
  -51.3990   11.7800   60.7820 O   0  0  0  0  0
  -47.9330    8.9270   60.8830 N   0  0  0  0  0
  -47.0630    7.7910   60.5710 C   0  0  0  0  0
  -45.6590    8.1050   61.0610 C   0  0  0  0  0
  -45.2820    9.2750   61.1570 O   0  0  0  0  0
  -47.0270    7.5010   59.0560 C   0  0  0  0  0
  -48.3940    7.3490   58.4270 C   0  0  0  0  0
  -49.0060    6.0990   58.3450 C   0  0  0  0  0
  -49.0820    8.4560   57.9300 C   0  0  0  0  0
  -50.2640    5.9520   57.7800 C   0  0  0  0  0
  -50.3390    8.3180   57.3610 C   0  0  0  0  0
  -50.9230    7.0610   57.2890 C   0  0  0  0  0
  -52.1750    6.9170   56.7320 O   0  0  0  0  0
  -44.8740    7.0720   61.3530 N   0  0  0  0  0
  -43.5340    7.2860   61.8860 C   0  0  0  0  0
  -42.4290    7.0490   60.8490 C   0  0  0  0  0
  -41.2510    6.9550   61.2060 O   0  0  0  0  0
  -43.2710    6.3870   63.1280 C   0  0  0  0  0
  -43.6950    5.0470   62.8520 O   0  0  0  0  0
  -44.0440    6.9070   64.3400 C   0  0  0  0  0
  -42.7970    6.9480   59.5750 N   0  0  0  0  0
  -41.7820    6.8460   58.5370 C   0  0  0  0  0
  -42.2370    7.4820   57.2400 C   0  0  0  0  0
  -43.4050    7.8290   57.0770 O   0  0  0  0  0
  -41.3760    5.3820   58.2890 C   0  0  0  0  0
  -42.5610    4.4670   57.9860 C   0  0  0  0  0
  -43.5310    4.8990   57.3360 O   0  0  0  0  0
  -42.5070    3.2910   58.3970 O   0  0  0  0  0
  -41.3030    7.6480   56.3150 N   0  0  0  0  0
  -41.6680    8.0830   54.9870 C   0  0  0  0  0
  -40.6690    7.5110   54.0030 C   0  0  0  0  0
  -39.5770    7.0780   54.3830 O   0  0  0  0  0
  -41.7450    9.6150   54.8860 C   0  0  0  0  0
  -40.5150   10.3670   55.3540 C   0  0  0  0  0
  -40.6830   11.8880   55.2880 C   0  0  0  0  0
  -41.7700   12.3690   54.8900 O   0  0  0  0  0
  -39.7160   12.6070   55.6280 O   0  0  0  0  0
  -41.1030    7.4680   52.7500 N   0  0  0  0  0
  -40.2870    6.9750   51.6490 C   0  0  0  0  0
  -40.1150    8.0870   50.6270 C   0  0  0  0  0
  -41.0600    8.8100   50.3220 O   0  0  0  0  0
  -40.9190    5.7350   50.9660 C   0  0  0  0  0
  -40.7700    4.4960   51.8470 C   0  0  0  0  0
  -40.2900    5.4730   49.6050 C   0  0  0  0  0
  -41.8250    4.3760   52.9130 C   0  0  0  0  0
  -38.8990    8.2370   50.1180 N   0  0  0  0  0
  -38.6480    9.1960   49.0470 C   0  0  0  0  0
  -37.8920    8.5070   47.9250 C   0  0  0  0  0
  -37.0840    7.6140   48.1720 O   0  0  0  0  0
  -37.8560   10.3920   49.5610 C   0  0  0  0  0
  -38.5650   11.1600   50.6650 C   0  0  0  0  0
  -37.7330   12.3120   51.1950 C   0  0  0  0  0
  -36.6200   12.5360   50.6600 O   0  0  0  0  0
  -38.1960   12.9880   52.1440 O   0  0  0  0  0
  -38.1540    8.9140   46.6890 N   0  0  0  0  0
  -37.3290    8.4610   45.5800 C   0  0  0  0  0
  -37.2610    9.5530   44.5280 C   0  0  0  0  0
  -37.9230   10.5860   44.6700 O   0  0  0  0  0
  -37.8670    7.1520   44.9930 C   0  0  0  0  0
  -39.3280    7.1910   44.5750 C   0  0  0  0  0
  -39.8730    5.8050   44.2610 C   0  0  0  0  0
  -39.2370    4.8040   44.6600 O   0  0  0  0  0
  -40.9380    5.7140   43.6180 O   0  0  0  0  0
  -36.4550    9.3330   43.4900 N   0  0  0  0  0
  -36.2550   10.3430   42.4470 C   0  0  0  0  0
  -37.5830   10.7400   41.8060 C   0  0  0  0  0
  -38.4300    9.8730   41.5690 O   0  0  0  0  0
  -35.2860    9.8260   41.3720 C   0  0  0  0  0
  -33.8210    9.8180   41.8040 C   0  0  0  0  0
  -32.9210    9.0680   40.8390 C   0  0  0  0  0
  -33.3230    8.8760   39.6690 O   0  0  0  0  0
  -31.8090    8.6690   41.2560 O   0  0  0  0  0
  -37.7630   12.0440   41.5530 N   0  0  0  0  0
  -38.9440   12.5520   40.8430 C   0  0  0  0  0
  -38.9630   12.0080   39.4270 C   0  0  0  0  0
  -37.9020   11.7850   38.8430 O   0  0  0  0  0
  -38.9550   14.0820   40.7800 C   0  0  0  0  0
  -39.0690   14.7280   42.1380 C   0  0  0  0  0
  -39.5580   14.0680   43.0820 O   0  0  0  0  0
  -38.6810   15.9130   42.2460 O   0  0  0  0  0
  -40.1550   11.8310   38.8630 N   0  0  0  0  0
  -40.2820   11.3070   37.5010 C   0  0  0  0  0
  -39.5740   12.2320   36.5120 C   0  0  0  0  0
  -39.1270   11.8080   35.4430 O   0  0  0  0  0
  -41.7540   11.1350   37.1210 C   0  0  0  0  0
  -42.4270   12.3880   36.5860 C   0  0  0  0  0
  -42.9940   13.3260   37.4490 C   0  0  0  0  0
  -42.5090   12.6220   35.2140 C   0  0  0  0  0
  -43.6140   14.4780   36.9490 C   0  0  0  0  0
  -43.1180   13.7630   34.7070 C   0  0  0  0  0
  -43.6730   14.6850   35.5790 C   0  0  0  0  0
  -44.2880   15.8090   35.0650 O   0  0  0  0  0
  -39.4620   13.5030   36.8840 N   0  0  0  0  0
  -38.7830   14.4730   36.0360 C   0  0  0  0  0
  -37.5100   14.9740   36.7210 C   0  0  0  0  0
  -36.9630   16.0050   36.3260 O   0  0  0  0  0
  -39.7200   15.6420   35.6930 C   0  0  0  0  0
  -40.2350   16.3740   36.9380 C   0  0  0  0  0
  -40.0060   15.8870   38.0690 O   0  0  0  0  0
  -40.8800   17.4350   36.7870 O   0  0  0  0  0
  -37.0211   14.3324   37.6889 O   0  0  0  0  0
  -51.5707   19.6162   64.1691 H   0  0  0  0  0
  -49.8401   19.6037   64.5882 H   0  0  0  0  0
  -50.3665   19.0989   62.9636 H   0  0  0  0  0
  -49.6694   17.0854   62.8786 H   0  0  0  0  0
  -50.2486   15.2865   65.1269 H   0  0  0  0  0
  -51.5509   14.7990   62.4207 H   0  0  0  0  0
  -52.4084   15.4310   63.8708 H   0  0  0  0  0
  -52.6285   13.1504   63.6183 H   0  0  0  0  0
  -49.0279   13.4679   65.1846 H   0  0  0  0  0
  -47.2883   12.8970   62.8154 H   0  0  0  0  0
  -47.1575   11.8111   65.6319 H   0  0  0  0  0
  -45.1210   13.0545   65.8338 H   0  0  0  0  0
  -46.4694   14.1742   65.3049 H   0  0  0  0  0
  -46.4574   10.1286   63.9909 H   0  0  0  0  0
  -45.3676   11.3099   63.2240 H   0  0  0  0  0
  -45.0492   10.7521   64.8849 H   0  0  0  0  0
  -44.2824   13.0336   63.5649 H   0  0  0  0  0
  -45.5940   14.1227   63.0504 H   0  0  0  0  0
  -44.3594   14.6960   64.1985 H   0  0  0  0  0
  -48.6435   11.7786   61.4009 H   0  0  0  0  0
  -50.5762    9.8534   62.5445 H   0  0  0  0  0
  -51.5403    9.7859   60.3156 H   0  0  0  0  0
  -50.1203   10.6512   59.6398 H   0  0  0  0  0
  -51.9229   12.0471   60.0232 H   0  0  0  0  0
  -47.5750    9.8698   60.7299 H   0  0  0  0  0
  -47.4568    6.9050   61.0690 H   0  0  0  0  0
  -46.5012    6.5560   58.9198 H   0  0  0  0  0
  -46.5422    8.3507   58.5753 H   0  0  0  0  0
  -48.4868    5.2221   58.7316 H   0  0  0  0  0
  -48.6249    9.4437   57.9898 H   0  0  0  0  0
  -50.7290    4.9677   57.7241 H   0  0  0  0  0
  -50.8647    9.1905   56.9730 H   0  0  0  0  0
  -52.4948    7.7739   56.4405 H   0  0  0  0  0
  -45.2124    6.1216   61.2027 H   0  0  0  0  0
  -43.4986    8.3360   62.1765 H   0  0  0  0  0
  -42.2032    6.4062   63.3461 H   0  0  0  0  0
  -43.5309    4.4959   63.6208 H   0  0  0  0  0
  -43.7234    7.9243   64.5647 H   0  0  0  0  0
  -45.1112    6.9016   64.1183 H   0  0  0  0  0
  -43.8466    6.2646   65.1982 H   0  0  0  0  0
  -43.7862    6.9421   59.3265 H   0  0  0  0  0
  -40.9110    7.3930   58.8980 H   0  0  0  0  0
  -40.9009    5.0142   59.1984 H   0  0  0  0  0
  -40.7180    5.3661   57.4202 H   0  0  0  0  0
  -41.6841    3.1570   58.8728 H   0  0  0  0  0
  -40.3247    7.4683   56.5411 H   0  0  0  0  0
  -42.6665    7.7151   54.7508 H   0  0  0  0  0
  -42.5630    9.9265   55.5355 H   0  0  0  0  0
  -41.8661    9.8490   53.8283 H   0  0  0  0  0
  -39.6892   10.0951   54.6966 H   0  0  0  0  0
  -40.3367   10.0973   56.3949 H   0  0  0  0  0
  -42.3766   11.6552   54.6799 H   0  0  0  0  0
  -42.0484    7.7941   52.5492 H   0  0  0  0  0
  -39.3214    6.6698   52.0522 H   0  0  0  0  0
  -41.9788    5.9466   50.8240 H   0  0  0  0  0
  -39.8065    4.5705   52.3512 H   0  0  0  0  0
  -40.8629    3.6243   51.1992 H   0  0  0  0  0
  -40.4437    6.3398   48.9622 H   0  0  0  0  0
  -39.2217    5.2951   49.7281 H   0  0  0  0  0
  -40.7558    4.5971   49.1534 H   0  0  0  0  0
  -41.7785    5.2461   53.5679 H   0  0  0  0  0
  -42.8081    4.3239   52.4452 H   0  0  0  0  0
  -41.6500    3.4714   53.4954 H   0  0  0  0  0
  -38.1291    7.6744   50.4802 H   0  0  0  0  0
  -39.6029    9.5642   48.6719 H   0  0  0  0  0
  -37.7158   11.0761   48.7241 H   0  0  0  0  0
  -36.9213   10.0128   49.9741 H   0  0  0  0  0
  -38.7505   10.4712   51.4891 H   0  0  0  0  0
  -39.4857   11.5715   50.2515 H   0  0  0  0  0
  -36.4698   11.8990   49.9577 H   0  0  0  0  0
  -38.9358    9.5460   46.5165 H   0  0  0  0  0
  -36.3212    8.2573   45.9420 H   0  0  0  0  0
  -37.7825    6.3972   45.7749 H   0  0  0  0  0
  -37.2867    6.9475   44.0933 H   0  0  0  0  0
  -39.4069    7.7988   43.6736 H   0  0  0  0  0
  -39.9064    7.6038   45.4015 H   0  0  0  0  0
  -38.4517    5.0921   45.1310 H   0  0  0  0  0
  -35.9657    8.4408   43.4197 H   0  0  0  0  0
  -35.8219   11.2259   42.9170 H   0  0  0  0  0
  -35.3661   10.4967   40.5165 H   0  0  0  0  0
  -35.5641    8.7943   41.1567 H   0  0  0  0  0
  -33.7628    9.3162   42.7699 H   0  0  0  0  0
  -33.4800   10.8527   41.8394 H   0  0  0  0  0
  -31.7040    8.9219   42.1761 H   0  0  0  0  0
  -37.0540   12.7076   41.8649 H   0  0  0  0  0
  -39.8243   12.2213   41.3942 H   0  0  0  0  0
  -39.8240   14.3836   40.1953 H   0  0  0  0  0
  -38.0114   14.4025   40.3384 H   0  0  0  0  0
  -38.3441   16.2166   41.3999 H   0  0  0  0  0
  -40.9969   12.0648   39.3893 H   0  0  0  0  0
  -39.8071   10.3267   37.4616 H   0  0  0  0  0
  -42.2845   10.8560   38.0314 H   0  0  0  0  0
  -41.7895   10.3927   36.3236 H   0  0  0  0  0
  -42.9540   13.1603   38.5256 H   0  0  0  0  0
  -42.0855   11.8929   34.5233 H   0  0  0  0  0
  -44.0477   15.2077   37.6328 H   0  0  0  0  0
  -43.1588   13.9315   33.6309 H   0  0  0  0  0
  -44.2367   15.7904   34.1066 H   0  0  0  0  0
  -39.8569   13.8031   37.7753 H   0  0  0  0  0
  -38.5010   13.9850   35.1030 H   0  0  0  0  0
  -40.5819   15.2354   35.1639 H   0  0  0  0  0
  -39.1566   16.3573   35.0938 H   0  0  0  0  0
  -39.5001   15.0770   37.9709 H   0  0  0  0  0
  -37.5645   13.5614   37.8674 H   0  0  0  0  0
  1  2  2  0  0  0
  1  3  1  0  0  0
  1  4  1  0  0  0
  4  5  1  0  0  0
  5  6  1  0  0  0
  5  8  1  0  0  0
  6  7  2  0  0  0
  6 10  1  0  0  0
  8  9  1  0  0  0
 10 11  1  0  0  0
 11 12  1  0  0  0
 11 14  1  0  0  0
 12 13  2  0  0  0
 12 18  1  0  0  0
 14 15  1  0  0  0
 14 16  1  0  0  0
 15 17  1  0  0  0
 18 19  1  0  0  0
 19 20  1  0  0  0
 19 22  1  0  0  0
 20 21  2  0  0  0
 20 24  1  0  0  0
 22 23  1  0  0  0
 24 25  1  0  0  0
 25 26  1  0  0  0
 25 28  1  0  0  0
 26 27  2  0  0  0
 26 36  1  0  0  0
 28 29  1  0  0  0
 29 30  4  0  0  0
 29 31  4  0  0  0
 30 32  4  0  0  0
 31 33  4  0  0  0
 32 34  4  0  0  0
 33 34  4  0  0  0
 34 35  1  0  0  0
 36 37  1  0  0  0
 37 38  1  0  0  0
 37 40  1  0  0  0
 38 39  2  0  0  0
 38 43  1  0  0  0
 40 41  1  0  0  0
 40 42  1  0  0  0
 43 44  1  0  0  0
 44 45  1  0  0  0
 44 47  1  0  0  0
 45 46  2  0  0  0
 45 51  1  0  0  0
 47 48  1  0  0  0
 48 49  2  0  0  0
 48 50  1  0  0  0
 51 52  1  0  0  0
 52 53  1  0  0  0
 52 55  1  0  0  0
 53 54  2  0  0  0
 53 60  1  0  0  0
 55 56  1  0  0  0
 56 57  1  0  0  0
 57 58  1  0  0  0
 57 59  2  0  0  0
 60 61  1  0  0  0
 61 62  1  0  0  0
 61 64  1  0  0  0
 62 63  2  0  0  0
 62 68  1  0  0  0
 64 65  1  0  0  0
 64 66  1  0  0  0
 65 67  1  0  0  0
 68 69  1  0  0  0
 69 70  1  0  0  0
 69 72  1  0  0  0
 70 71  2  0  0  0
 70 77  1  0  0  0
 72 73  1  0  0  0
 73 74  1  0  0  0
 74 75  1  0  0  0
 74 76  2  0  0  0
 77 78  1  0  0  0
 78 79  1  0  0  0
 78 81  1  0  0  0
 79 80  2  0  0  0
 79 86  1  0  0  0
 81 82  1  0  0  0
 82 83  1  0  0  0
 83 84  1  0  0  0
 83 85  2  0  0  0
 86 87  1  0  0  0
 87 88  1  0  0  0
 87 90  1  0  0  0
 88 89  2  0  0  0
 88 95  1  0  0  0
 90 91  1  0  0  0
 91 92  1  0  0  0
 92 93  2  0  0  0
 92 94  1  0  0  0
 95 96  1  0  0  0
 96 97  1  0  0  0
 96 99  1  0  0  0
 97 98  2  0  0  0
 97103  1  0  0  0
 99100  1  0  0  0
100101  2  0  0  0
100102  1  0  0  0
103104  1  0  0  0
104105  1  0  0  0
104107  1  0  0  0
105106  2  0  0  0
105115  1  0  0  0
107108  1  0  0  0
108109  4  0  0  0
108110  4  0  0  0
109111  4  0  0  0
110112  4  0  0  0
111113  4  0  0  0
112113  4  0  0  0
113114  1  0  0  0
115116  1  0  0  0
116117  1  0  0  0
116119  1  0  0  0
117118  2  0  0  0
119120  1  0  0  0
120121  1  0  0  0
120122  2  0  0  0
117123  1  0  0  0
  3124  1  0  0  0
  3125  1  0  0  0
  3126  1  0  0  0
  4127  1  0  0  0
  5128  1  0  0  0
  8129  1  0  0  0
  8130  1  0  0  0
  9131  1  0  0  0
 10132  1  0  0  0
 11133  1  0  0  0
 14134  1  0  0  0
 15135  1  0  0  0
 15136  1  0  0  0
 16137  1  0  0  0
 16138  1  0  0  0
 16139  1  0  0  0
 17140  1  0  0  0
 17141  1  0  0  0
 17142  1  0  0  0
 18143  1  0  0  0
 19144  1  0  0  0
 22145  1  0  0  0
 22146  1  0  0  0
 23147  1  0  0  0
 24148  1  0  0  0
 25149  1  0  0  0
 28150  1  0  0  0
 28151  1  0  0  0
 30152  1  0  0  0
 31153  1  0  0  0
 32154  1  0  0  0
 33155  1  0  0  0
 35156  1  0  0  0
 36157  1  0  0  0
 37158  1  0  0  0
 40159  1  0  0  0
 41160  1  0  0  0
 42161  1  0  0  0
 42162  1  0  0  0
 42163  1  0  0  0
 43164  1  0  0  0
 44165  1  0  0  0
 47166  1  0  0  0
 47167  1  0  0  0
 50168  1  0  0  0
 51169  1  0  0  0
 52170  1  0  0  0
 55171  1  0  0  0
 55172  1  0  0  0
 56173  1  0  0  0
 56174  1  0  0  0
 58175  1  0  0  0
 60176  1  0  0  0
 61177  1  0  0  0
 64178  1  0  0  0
 65179  1  0  0  0
 65180  1  0  0  0
 66181  1  0  0  0
 66182  1  0  0  0
 66183  1  0  0  0
 67184  1  0  0  0
 67185  1  0  0  0
 67186  1  0  0  0
 68187  1  0  0  0
 69188  1  0  0  0
 72189  1  0  0  0
 72190  1  0  0  0
 73191  1  0  0  0
 73192  1  0  0  0
 75193  1  0  0  0
 77194  1  0  0  0
 78195  1  0  0  0
 81196  1  0  0  0
 81197  1  0  0  0
 82198  1  0  0  0
 82199  1  0  0  0
 84200  1  0  0  0
 86201  1  0  0  0
 87202  1  0  0  0
 90203  1  0  0  0
 90204  1  0  0  0
 91205  1  0  0  0
 91206  1  0  0  0
 94207  1  0  0  0
 95208  1  0  0  0
 96209  1  0  0  0
 99210  1  0  0  0
 99211  1  0  0  0
102212  1  0  0  0
103213  1  0  0  0
104214  1  0  0  0
107215  1  0  0  0
107216  1  0  0  0
109217  1  0  0  0
110218  1  0  0  0
111219  1  0  0  0
112220  1  0  0  0
114221  1  0  0  0
115222  1  0  0  0
116223  1  0  0  0
119224  1  0  0  0
119225  1  0  0  0
121226  1  0  0  0
123227  1  0  0  0
M  END
$$$$
