### 
### Created by X-TOOL on Mon Sep 10 21:13:17 2018
### 

@<TRIPOS>MOLECULE
4pz5_ligand
  219   220     1     0     0
SMALL
GAST_HUCK


@<TRIPOS>ATOM
      1 C         -50.7500   17.6790   64.5050 C.2       1 ACE         0.1752
      2 O         -51.0370   17.4040   65.6820 O.2       1 ACE        -0.3972
      3 CH3       -50.6230   19.0980   64.0230 C.3       1 ACE         0.0258
      4 N         -50.1750   16.7850   63.7120 N.am      1 SER        -0.2637
      5 CA        -50.2720   15.3780   64.0410 C.3       1 SER         0.1538
      6 C         -49.0900   14.5830   63.4890 C.2       1 SER         0.2062
      7 O         -48.5310   14.9220   62.4450 O.2       1 SER        -0.3943
      8 CB        -51.5900   14.8080   63.5100 C.3       1 SER         0.0843
      9 OG        -51.7970   13.4810   63.9660 O.3       1 SER        -0.3903
     10 N         -48.6940   13.5470   64.2240 N.am      1 ILE        -0.2634
     11 CA        -47.7980   12.5200   63.7020 C.3       1 ILE         0.1335
     12 C         -48.6570   11.3020   63.3770 C.2       1 ILE         0.2042
     13 O         -49.0290   10.5400   64.2710 O.2       1 ILE        -0.3944
     14 CB        -46.6800   12.1430   64.7100 C.3       1 ILE        -0.0037
     15 CG1       -45.8010   13.3560   65.0370 C.3       1 ILE        -0.0491
     16 CG2       -45.8270   11.0010   64.1630 C.3       1 ILE        -0.0582
     17 CD1       -44.9490   13.8360   63.8810 C.3       1 ILE        -0.0648
     18 N         -49.0130   11.1420   62.1070 N.am      1 SER        -0.2616
     19 CA        -49.9220   10.0740   61.7010 C.3       1 SER         0.1539
     20 C         -49.1690    8.7870   61.3570 C.2       1 SER         0.2063
     21 O         -49.7030    7.6930   61.5090 O.2       1 SER        -0.3943
     22 CB        -50.7700   10.5330   60.5070 C.3       1 SER         0.0843
     23 OG        -51.3990   11.7800   60.7820 O.3       1 SER        -0.3903
     24 N         -47.9330    8.9270   60.8830 N.am      1 TYR        -0.2621
     25 CA        -47.0630    7.7910   60.5710 C.3       1 TYR         0.1390
     26 C         -45.6590    8.1050   61.0610 C.2       1 TYR         0.2058
     27 O         -45.2820    9.2750   61.1570 O.2       1 TYR        -0.3942
     28 CB        -47.0270    7.5010   59.0560 C.3       1 TYR         0.0163
     29 CG        -48.3940    7.3490   58.4270 C.ar      1 TYR        -0.0493
     30 CD1       -49.0060    6.0990   58.3450 C.ar      1 TYR        -0.0685
     31 CD2       -49.0820    8.4560   57.9300 C.ar      1 TYR        -0.0685
     32 CE1       -50.2640    5.9520   57.7800 C.ar      1 TYR        -0.0398
     33 CE2       -50.3390    8.3180   57.3610 C.ar      1 TYR        -0.0398
     34 CZ        -50.9230    7.0610   57.2890 C.ar      1 TYR         0.0805
     35 OH        -52.1750    6.9170   56.7320 O.3       1 TYR        -0.3376
     36 N         -44.8740    7.0720   61.3530 N.am      1 THR        -0.2612
     37 CA        -43.5340    7.2860   61.8860 C.3       1 THR         0.1565
     38 C         -42.4290    7.0490   60.8490 C.2       1 THR         0.2066
     39 O         -41.2510    6.9550   61.2060 O.2       1 THR        -0.3943
     40 CB        -43.2710    6.3870   63.1280 C.3       1 THR         0.0924
     41 OG1       -43.6950    5.0470   62.8520 O.3       1 THR        -0.3874
     42 CG2       -44.0440    6.9070   64.3400 C.3       1 THR        -0.0346
     43 N         -42.7970    6.9480   59.5750 N.am      1 ASP        -0.2621
     44 CA        -41.7820    6.8460   58.5370 C.3       1 ASP         0.1423
     45 C         -42.2370    7.4820   57.2400 C.2       1 ASP         0.2056
     46 O         -43.4050    7.8290   57.0770 O.2       1 ASP        -0.3943
     47 CB        -41.3760    5.3820   58.2890 C.3       1 ASP         0.0406
     48 CG        -42.5610    4.4670   57.9860 C.2       1 ASP         0.0393
     49 OD1       -43.5310    4.8990   57.3360 O.co2     1 ASP        -0.5688
     50 OD2       -42.5070    3.2910   58.3970 O.co2     1 ASP        -0.5688
     51 N         -41.3030    7.6480   56.3150 N.am      1 GLU        -0.2635
     52 CA        -41.6680    8.0830   54.9870 C.3       1 GLU         0.1325
     53 C         -40.6690    7.5110   54.0030 C.2       1 GLU         0.2040
     54 O         -39.5770    7.0780   54.3830 O.2       1 GLU        -0.3944
     55 CB        -41.7450    9.6150   54.8860 C.3       1 GLU        -0.0008
     56 CG        -40.5150   10.3670   55.3540 C.3       1 GLU         0.0044
     57 CD        -40.6830   11.8880   55.2880 C.2       1 GLU         0.0350
     58 OE1       -41.7700   12.3690   54.8900 O.co2     1 GLU        -0.5690
     59 OE2       -39.7160   12.6070   55.6280 O.co2     1 GLU        -0.5690
     60 N         -41.1030    7.4680   52.7500 N.am      1 ILE        -0.2635
     61 CA        -40.2870    6.9750   51.6490 C.3       1 ILE         0.1335
     62 C         -40.1150    8.0870   50.6270 C.2       1 ILE         0.2042
     63 O         -41.0600    8.8100   50.3220 O.2       1 ILE        -0.3944
     64 CB        -40.9190    5.7350   50.9660 C.3       1 ILE        -0.0037
     65 CG1       -40.7700    4.4960   51.8470 C.3       1 ILE        -0.0491
     66 CG2       -40.2900    5.4730   49.6050 C.3       1 ILE        -0.0582
     67 CD1       -41.8250    4.3760   52.9130 C.3       1 ILE        -0.0648
     68 N         -38.8990    8.2370   50.1180 N.am      1 GLU        -0.2636
     69 CA        -38.6480    9.1960   49.0470 C.3       1 GLU         0.1325
     70 C         -37.8920    8.5070   47.9250 C.2       1 GLU         0.2040
     71 O         -37.0840    7.6140   48.1720 O.2       1 GLU        -0.3944
     72 CB        -37.8560   10.3920   49.5610 C.3       1 GLU        -0.0008
     73 CG        -38.5650   11.1600   50.6650 C.3       1 GLU         0.0044
     74 CD        -37.7330   12.3120   51.1950 C.2       1 GLU         0.0350
     75 OE1       -36.6200   12.5360   50.6600 O.co2     1 GLU        -0.5690
     76 OE2       -38.1960   12.9880   52.1440 O.co2     1 GLU        -0.5690
     77 N         -38.1540    8.9140   46.6890 N.am      1 GLU        -0.2636
     78 CA        -37.3290    8.4610   45.5800 C.3       1 GLU         0.1325
     79 C         -37.2610    9.5530   44.5280 C.2       1 GLU         0.2040
     80 O         -37.9230   10.5860   44.6700 O.2       1 GLU        -0.3944
     81 CB        -37.8670    7.1520   44.9930 C.3       1 GLU        -0.0008
     82 CG        -39.3280    7.1910   44.5750 C.3       1 GLU         0.0044
     83 CD        -39.8730    5.8050   44.2610 C.2       1 GLU         0.0350
     84 OE1       -39.2370    4.8040   44.6600 O.co2     1 GLU        -0.5690
     85 OE2       -40.9380    5.7140   43.6180 O.co2     1 GLU        -0.5690
     86 N         -36.4550    9.3330   43.4900 N.am      1 GLU        -0.2636
     87 CA        -36.2550   10.3430   42.4470 C.3       1 GLU         0.1325
     88 C         -37.5830   10.7400   41.8060 C.2       1 GLU         0.2041
     89 O         -38.4300    9.8730   41.5690 O.2       1 GLU        -0.3944
     90 CB        -35.2860    9.8260   41.3720 C.3       1 GLU        -0.0008
     91 CG        -33.8210    9.8180   41.8040 C.3       1 GLU         0.0044
     92 CD        -32.9210    9.0680   40.8390 C.2       1 GLU         0.0350
     93 OE1       -33.3230    8.8760   39.6690 O.co2     1 GLU        -0.5690
     94 OE2       -31.8090    8.6690   41.2560 O.co2     1 GLU        -0.5690
     95 N         -37.7630   12.0440   41.5530 N.am      1 ASP        -0.2622
     96 CA        -38.9440   12.5520   40.8430 C.3       1 ASP         0.1423
     97 C         -38.9630   12.0080   39.4270 C.2       1 ASP         0.2057
     98 O         -37.9020   11.7850   38.8430 O.2       1 ASP        -0.3943
     99 CB        -38.9550   14.0820   40.7800 C.3       1 ASP         0.0406
    100 CG        -39.0690   14.7280   42.1380 C.2       1 ASP         0.0393
    101 OD1       -39.5580   14.0680   43.0820 O.co2     1 ASP        -0.5688
    102 OD2       -38.6810   15.9130   42.2460 O.co2     1 ASP        -0.5688
    103 N         -40.1550   11.8310   38.8630 N.am      1 TYR        -0.2620
    104 CA        -40.2820   11.3070   37.5010 C.3       1 TYR         0.1390
    105 C         -39.5740   12.2320   36.5120 C.2       1 TYR         0.2053
    106 O         -39.1270   11.8080   35.4430 O.2       1 TYR        -0.3942
    107 CB        -41.7540   11.1350   37.1210 C.3       1 TYR         0.0163
    108 CG        -42.4270   12.3880   36.5860 C.ar      1 TYR        -0.0493
    109 CD1       -42.9940   13.3260   37.4490 C.ar      1 TYR        -0.0685
    110 CD2       -42.5090   12.6220   35.2140 C.ar      1 TYR        -0.0685
    111 CE1       -43.6140   14.4780   36.9490 C.ar      1 TYR        -0.0398
    112 CE2       -43.1180   13.7630   34.7070 C.ar      1 TYR        -0.0398
    113 CZ        -43.6730   14.6850   35.5790 C.ar      1 TYR         0.0805
    114 OH        -44.2880   15.8090   35.0650 O.3       1 TYR        -0.3376
    115 N         -39.4620   13.5030   36.8840 N.am      1 ASP        -0.2654
    116 CA        -38.7830   14.4730   36.0360 C.3       1 ASP         0.1339
    117 C         -37.5100   14.9740   36.7210 C.2       1 ASP         0.2166
    118 O         -36.9630   16.0050   36.3260 O.co2     1 ASP        -0.4119
    119 CB        -39.7200   15.6420   35.6930 C.3       1 ASP         0.0375
    120 CG        -40.2350   16.3740   36.9380 C.2       1 ASP         0.0387
    121 OD1       -40.0060   15.8870   38.0690 O.co2     1 ASP        -0.5688
    122 OD2       -40.8800   17.4350   36.7870 O.co2     1 ASP        -0.5688
    123 H         -50.3641   19.1003   62.9539 H         1 ACE         0.0467
    124 H         -49.8331   19.6094   64.5926 H         1 ACE         0.0467
    125 H         -51.5789   19.6221   64.1699 H         1 ACE         0.0467
    126 H         -49.6793   17.0795   62.8949 H         1 SER         0.1883
    127 H         -50.2669   15.2809   65.1367 H         1 SER         0.0823
    128 H         -51.5640   14.8093   62.4103 H         1 SER         0.0606
    129 H         -52.4202   15.4403   63.8579 H         1 SER         0.0606
    130 H         -52.6199   13.1539   63.6220 H         1 SER         0.2097
    131 H         -49.0213   13.4694   65.1657 H         1 ILE         0.1883
    132 H         -47.3242   12.8906   62.7810 H         1 ILE         0.0803
    133 H         -47.1573   11.8029   65.6409 H         1 ILE         0.0345
    134 H         -45.1333   13.0840   65.8677 H         1 ILE         0.0267
    135 H         -46.4563   14.1826   65.3488 H         1 ILE         0.0267
    136 H         -46.4713   10.1395   63.9336 H         1 ILE         0.0235
    137 H         -45.0789   10.7094   64.9149 H         1 ILE         0.0235
    138 H         -45.3163   11.3312   63.2464 H         1 ILE         0.0235
    139 H         -44.3534   14.7040   64.2002 H         1 ILE         0.0230
    140 H         -45.5988   14.1257   63.0421 H         1 ILE         0.0230
    141 H         -44.2758   13.0271   63.5610 H         1 ILE         0.0230
    142 H         -48.6508   11.7661   61.4147 H         1 SER         0.1884
    143 H         -50.5959    9.8595   62.5435 H         1 SER         0.0823
    144 H         -51.5425    9.7772   60.3018 H         1 SER         0.0606
    145 H         -50.1214   10.6432   59.6254 H         1 SER         0.0606
    146 H         -51.9628   11.6884   61.5411 H         1 SER         0.2097
    147 H         -47.5821    9.8513   60.7329 H         1 TYR         0.1885
    148 H         -47.4401    6.8991   61.0928 H         1 TYR         0.0821
    149 H         -46.4666    6.5682   58.8954 H         1 TYR         0.0453
    150 H         -46.5069    8.3319   58.5569 H         1 TYR         0.0453
    151 H         -48.4896    5.2269   58.7295 H         1 TYR         0.0530
    152 H         -48.6275    9.4383   57.9894 H         1 TYR         0.0530
    153 H         -50.7264    4.9732   57.7244 H         1 TYR         0.0525
    154 H         -50.8618    9.1857   56.9752 H         1 TYR         0.0525
    155 H         -52.4290    6.0019   56.7588 H         1 TYR         0.2458
    156 H         -45.2058    6.1402   61.2057 H         1 THR         0.1884
    157 H         -43.4729    8.3366   62.2060 H         1 THR         0.0826
    158 H         -42.1946    6.3916   63.3543 H         1 THR         0.0639
    159 H         -43.2089    4.7089   62.1091 H         1 THR         0.2101
    160 H         -43.8456    6.2595   65.2068 H         1 THR         0.0257
    161 H         -45.1213    6.9020   64.1176 H         1 THR         0.0257
    162 H         -43.7213    7.9336   64.5678 H         1 THR         0.0257
    163 H         -43.7669    6.9422   59.3314 H         1 ASP         0.1884
    164 H         -40.8925    7.3904   58.8868 H         1 ASP         0.0819
    165 H         -40.8650    5.0049   59.1871 H         1 ASP         0.0478
    166 H         -40.6847    5.3519   57.4339 H         1 ASP         0.0478
    167 H         -40.3439    7.4718   56.5367 H         1 GLU         0.1883
    168 H         -42.6632    7.6790   54.7495 H         1 GLU         0.0801
    169 H         -42.5982    9.9513   55.4934 H         1 GLU         0.0330
    170 H         -41.9198    9.8759   53.8318 H         1 GLU         0.0330
    171 H         -39.6652   10.0802   54.7171 H         1 GLU         0.0433
    172 H         -40.3052   10.0823   56.3956 H         1 GLU         0.0433
    173 H         -42.0299    7.7877   52.5532 H         1 ILE         0.1883
    174 H         -39.2998    6.6914   52.0427 H         1 ILE         0.0803
    175 H         -41.9912    5.9329   50.8205 H         1 ILE         0.0345
    176 H         -39.7858    4.5354   52.3366 H         1 ILE         0.0267
    177 H         -40.8244    3.6051   51.2040 H         1 ILE         0.0267
    178 H         -40.3987    6.3666   48.9727 H         1 ILE         0.0235
    179 H         -40.7946    4.6212   49.1257 H         1 ILE         0.0235
    180 H         -39.2222    5.2420   49.7329 H         1 ILE         0.0235
    181 H         -41.6494    3.4634   53.5015 H         1 ILE         0.0230
    182 H         -42.8177    4.3233   52.4422 H         1 ILE         0.0230
    183 H         -41.7791    5.2535   53.5747 H         1 ILE         0.0230
    184 H         -38.1442    7.6854   50.4731 H         1 GLU         0.1883
    185 H         -39.6128    9.5549   48.6593 H         1 GLU         0.0801
    186 H         -37.6762   11.0779   48.7200 H         1 GLU         0.0330
    187 H         -36.8934   10.0303   49.9515 H         1 GLU         0.0330
    188 H         -38.7801   10.4693   51.4936 H         1 GLU         0.0433
    189 H         -39.5090   11.5602   50.2667 H         1 GLU         0.0433
    190 H         -38.9205    9.5336   46.5199 H         1 GLU         0.1883
    191 H         -36.3117    8.2747   45.9546 H         1 GLU         0.0801
    192 H         -37.7494    6.3637   45.7511 H         1 GLU         0.0330
    193 H         -37.2647    6.9017   44.1072 H         1 GLU         0.0330
    194 H         -39.4233    7.8207   43.6781 H         1 GLU         0.0433
    195 H         -39.9193    7.6271   45.3937 H         1 GLU         0.0433
    196 H         -35.9753    8.4583   43.4210 H         1 GLU         0.1883
    197 H         -35.8139   11.2366   42.9127 H         1 GLU         0.0801
    198 H         -35.3806   10.4683   40.4841 H         1 GLU         0.0330
    199 H         -35.5751    8.7969   41.1126 H         1 GLU         0.0330
    200 H         -33.7498    9.3405   42.7924 H         1 GLU         0.0433
    201 H         -33.4705   10.8583   41.8732 H         1 GLU         0.0433
    202 H         -37.0679   12.6946   41.8588 H         1 ASP         0.1884
    203 H         -39.8456   12.2124   41.3738 H         1 ASP         0.0819
    204 H         -39.8109   14.4013   40.1673 H         1 ASP         0.0478
    205 H         -38.0203   14.4200   40.3087 H         1 ASP         0.0478
    206 H         -40.9804   12.0602   39.3790 H         1 TYR         0.1885
    207 H         -39.7976   10.3202   37.4620 H         1 TYR         0.0821
    208 H         -42.3024   10.8086   38.0169 H         1 TYR         0.0453
    209 H         -41.8185   10.3557   36.3474 H         1 TYR         0.0453
    210 H         -42.9542   13.1612   38.5197 H         1 TYR         0.0530
    211 H         -42.0878   11.8969   34.5271 H         1 TYR         0.0530
    212 H         -44.0453   15.2037   37.6290 H         1 TYR         0.0525
    213 H         -43.1586   13.9305   33.6368 H         1 TYR         0.0525
    214 H         -43.6590   16.3090   34.5584 H         1 TYR         0.2458
    215 H         -39.8491   13.7972   37.7578 H         1 ASP         0.1877
    216 H         -38.4975   13.9742   35.0981 H         1 ASP         0.0770
    217 O1        -37.0211   14.3324   37.6889 O.co2     1 ASP        -0.4119
    218 H         -40.5822   15.2493   35.1341 H         1 ASP         0.0472
    219 H         -39.1718   16.3595   35.0648 H         1 ASP         0.0472
@<TRIPOS>BOND
     1    1    2 2  
     2    1    3 1  
     3    1    4 am 
     4    4    5 1  
     5    5    6 1  
     6    5    8 1  
     7    6    7 2  
     8    6   10 am 
     9    8    9 1  
    10   10   11 1  
    11   11   12 1  
    12   11   14 1  
    13   12   13 2  
    14   12   18 am 
    15   14   15 1  
    16   14   16 1  
    17   15   17 1  
    18   18   19 1  
    19   19   20 1  
    20   19   22 1  
    21   20   21 2  
    22   20   24 am 
    23   22   23 1  
    24   24   25 1  
    25   25   26 1  
    26   25   28 1  
    27   26   27 2  
    28   26   36 am 
    29   28   29 1  
    30   29   30 ar 
    31   29   31 ar 
    32   30   32 ar 
    33   31   33 ar 
    34   32   34 ar 
    35   33   34 ar 
    36   34   35 1  
    37   36   37 1  
    38   37   38 1  
    39   37   40 1  
    40   38   39 2  
    41   38   43 am 
    42   40   41 1  
    43   40   42 1  
    44   43   44 1  
    45   44   45 1  
    46   44   47 1  
    47   45   46 2  
    48   45   51 am 
    49   47   48 1  
    50   48   49 ar 
    51   48   50 ar 
    52   51   52 1  
    53   52   53 1  
    54   52   55 1  
    55   53   54 2  
    56   53   60 am 
    57   55   56 1  
    58   56   57 1  
    59   57   58 ar 
    60   57   59 ar 
    61   60   61 1  
    62   61   62 1  
    63   61   64 1  
    64   62   63 2  
    65   62   68 am 
    66   64   65 1  
    67   64   66 1  
    68   65   67 1  
    69   68   69 1  
    70   69   70 1  
    71   69   72 1  
    72   70   71 2  
    73   70   77 am 
    74   72   73 1  
    75   73   74 1  
    76   74   75 ar 
    77   74   76 ar 
    78   77   78 1  
    79   78   79 1  
    80   78   81 1  
    81   79   80 2  
    82   79   86 am 
    83   81   82 1  
    84   82   83 1  
    85   83   84 ar 
    86   83   85 ar 
    87   86   87 1  
    88   87   88 1  
    89   87   90 1  
    90   88   89 2  
    91   88   95 am 
    92   90   91 1  
    93   91   92 1  
    94   92   93 ar 
    95   92   94 ar 
    96   95   96 1  
    97   96   97 1  
    98   96   99 1  
    99   97   98 2  
   100   97  103 am 
   101   99  100 1  
   102  100  101 ar 
   103  100  102 ar 
   104  103  104 1  
   105  104  105 1  
   106  104  107 1  
   107  105  106 2  
   108  105  115 am 
   109  107  108 1  
   110  108  109 ar 
   111  108  110 ar 
   112  109  111 ar 
   113  110  112 ar 
   114  111  113 ar 
   115  112  113 ar 
   116  113  114 1  
   117  115  116 1  
   118  116  117 1  
   119  116  119 1  
   120  117  118 ar 
   121  119  120 1  
   122  120  121 ar 
   123  120  122 ar 
   124    3  123 1  
   125    3  124 1  
   126    3  125 1  
   127    4  126 1  
   128    5  127 1  
   129    8  128 1  
   130    8  129 1  
   131    9  130 1  
   132   10  131 1  
   133   11  132 1  
   134   14  133 1  
   135   15  134 1  
   136   15  135 1  
   137   16  136 1  
   138   16  137 1  
   139   16  138 1  
   140   17  139 1  
   141   17  140 1  
   142   17  141 1  
   143   18  142 1  
   144   19  143 1  
   145   22  144 1  
   146   22  145 1  
   147   23  146 1  
   148   24  147 1  
   149   25  148 1  
   150   28  149 1  
   151   28  150 1  
   152   30  151 1  
   153   31  152 1  
   154   32  153 1  
   155   33  154 1  
   156   35  155 1  
   157   36  156 1  
   158   37  157 1  
   159   40  158 1  
   160   41  159 1  
   161   42  160 1  
   162   42  161 1  
   163   42  162 1  
   164   43  163 1  
   165   44  164 1  
   166   47  165 1  
   167   47  166 1  
   168   51  167 1  
   169   52  168 1  
   170   55  169 1  
   171   55  170 1  
   172   56  171 1  
   173   56  172 1  
   174   60  173 1  
   175   61  174 1  
   176   64  175 1  
   177   65  176 1  
   178   65  177 1  
   179   66  178 1  
   180   66  179 1  
   181   66  180 1  
   182   67  181 1  
   183   67  182 1  
   184   67  183 1  
   185   68  184 1  
   186   69  185 1  
   187   72  186 1  
   188   72  187 1  
   189   73  188 1  
   190   73  189 1  
   191   77  190 1  
   192   78  191 1  
   193   81  192 1  
   194   81  193 1  
   195   82  194 1  
   196   82  195 1  
   197   86  196 1  
   198   87  197 1  
   199   90  198 1  
   200   90  199 1  
   201   91  200 1  
   202   91  201 1  
   203   95  202 1  
   204   96  203 1  
   205   99  204 1  
   206   99  205 1  
   207  103  206 1  
   208  104  207 1  
   209  107  208 1  
   210  107  209 1  
   211  109  210 1  
   212  110  211 1  
   213  111  212 1  
   214  112  213 1  
   215  114  214 1  
   216  115  215 1  
   217  116  216 1  
   218  117  217 ar 
   219  119  218 1  
   220  119  219 1  
@<TRIPOS>SUBSTRUCTURE
     1 ACE         1

