3rkb_ligand
  -I-interpret- 

 39 41  0  0  0  0  0  0  0  0999 V2000
  -93.8840  -44.8330  -49.7350 C   0  0  0  0  0
  -93.3740  -45.5890  -50.7440 C   0  0  0  0  0
  -92.3210  -46.4070  -50.3590 N   0  0  0  0  0
  -92.0240  -46.2780  -49.0780 C   0  0  0  0  0
  -93.0280  -45.1410  -48.2220 S   0  0  0  0  0
  -95.0020  -43.8540  -49.8160 C   0  0  0  0  0
  -93.8170  -45.5820  -52.0490 N   0  0  0  0  0
  -91.0150  -46.9460  -48.4550 N   0  0  0  0  0
  -95.6690  -43.7890  -50.8710 O   0  0  0  0  0
  -96.0460  -41.2670  -46.5090 C   0  0  0  0  0
  -97.0290  -41.9190  -47.2130 N   0  0  0  0  0
  -96.6730  -42.7390  -48.2620 C   0  0  0  0  0
  -95.3090  -42.9460  -48.6590 C   0  0  0  0  0
  -94.2910  -42.2460  -47.9100 C   0  0  0  0  0
  -94.6550  -41.3980  -46.8200 C   0  0  0  0  0
  -89.0640  -45.4970  -45.5100 C   0  0  0  0  0
  -89.6220  -45.6220  -46.9480 C   0  0  0  0  0
  -90.5440  -46.8860  -47.0970 C   0  0  0  0  0
  -89.7510  -48.1660  -46.7100 C   0  0  0  0  0
  -89.2370  -48.0590  -45.2460 C   0  0  0  0  0
  -88.3360  -46.8030  -45.0650 C   0  0  0  0  0
  -94.5890  -44.9739  -52.3223 H   0  0  0  0  0
  -93.3729  -46.1849  -52.7416 H   0  0  0  0  0
  -90.5072  -47.5993  -49.0515 H   0  0  0  0  0
  -96.3374  -40.6232  -45.6791 H   0  0  0  0  0
  -97.4606  -43.2522  -48.8137 H   0  0  0  0  0
  -93.2412  -42.3655  -48.1778 H   0  0  0  0  0
  -93.8975  -40.8673  -46.2432 H   0  0  0  0  0
  -89.8970  -45.3168  -44.8304 H   0  0  0  0  0
  -88.3467  -44.6766  -45.4876 H   0  0  0  0  0
  -88.7836  -45.7217  -47.6373 H   0  0  0  0  0
  -90.2140  -44.7337  -47.1682 H   0  0  0  0  0
  -91.4017  -46.8183  -46.4278 H   0  0  0  0  0
  -88.8980  -48.2729  -47.3802 H   0  0  0  0  0
  -90.4082  -49.0315  -46.7945 H   0  0  0  0  0
  -88.6503  -48.9479  -45.0143 H   0  0  0  0  0
  -90.0945  -47.9747  -44.5784 H   0  0  0  0  0
  -88.0848  -46.7116  -44.0083 H   0  0  0  0  0
  -87.4475  -46.9273  -45.6840 H   0  0  0  0  0
  1  2  4  0  0  0
  5  1  4  0  0  0
  1  6  1  0  0  0
  3  2  4  0  0  0
  2  7  1  0  0  0
  4  3  4  0  0  0
  4  5  4  0  0  0
  8  4  1  0  0  0
  6  9  2  0  0  0
  6 13  1  0  0  0
 18  8  1  0  0  0
 11 10  4  0  0  0
 15 10  4  0  0  0
 12 11  4  0  0  0
 13 12  4  0  0  0
 13 14  4  0  0  0
 14 15  4  0  0  0
 17 16  1  0  0  0
 16 21  1  0  0  0
 17 18  1  0  0  0
 18 19  1  0  0  0
 19 20  1  0  0  0
 20 21  1  0  0  0
  7 22  1  0  0  0
  7 23  1  0  0  0
  8 24  1  0  0  0
 10 25  1  0  0  0
 12 26  1  0  0  0
 14 27  1  0  0  0
 15 28  1  0  0  0
 16 29  1  0  0  0
 16 30  1  0  0  0
 17 31  1  0  0  0
 17 32  1  0  0  0
 18 33  1  0  0  0
 19 34  1  0  0  0
 19 35  1  0  0  0
 20 36  1  0  0  0
 20 37  1  0  0  0
 21 38  1  0  0  0
 21 39  1  0  0  0
M  END
$$$$
