6f8u_ligand
  -I-interpret- 

 58 60  0  0  0  0  0  0  0  0999 V2000
   27.4420  229.0840  152.8240 C   0  0  0  0  0
   33.7450  232.6310  150.8330 C   0  0  0  0  0
   31.6770  231.8790  150.0400 C   0  0  0  0  0
   34.1220  232.6240  144.3200 C   0  0  0  0  0
   24.3430  231.7730  152.0100 C   0  0  0  0  0
   27.2500  230.9230  154.6060 C   0  0  0  0  0
   27.4980  228.1110  150.3590 C   0  0  0  0  0
   26.8260  228.9690  151.4790 N   0  0  0  0  0
   27.9260  227.5500  148.0700 O   0  0  0  0  0
   26.8840  227.9720  148.9670 C   0  0  0  0  0
   28.8640  228.3080  147.5840 N   0  0  0  0  0
   32.7360  231.9120  148.1720 O   0  0  0  0  0
   25.5980  229.7110  151.2440 C   0  0  0  0  0
   33.6370  232.3220  145.6040 O   0  0  0  0  0
   29.3800  228.5200  146.4670 C   0  0  0  0  0
   25.3910  230.3590  153.4730 O   0  0  0  0  0
   25.5510  230.8840  152.1910 C   0  0  0  0  0
   28.5020  227.5070  150.5320 O   0  0  0  0  0
   30.5050  229.5260  146.2950 C   0  0  0  0  0
   31.0660  230.2260  147.3080 C   0  0  0  0  0
   26.5740  229.7660  153.9120 C   0  0  0  0  0
   32.1170  231.1650  147.1010 C   0  0  0  0  0
   32.6030  231.2740  149.4350 C   0  0  0  0  0
   33.8050  231.4090  150.4640 C   0  0  0  0  0
   32.3120  233.1480  150.6450 C   0  0  0  0  0
   32.5910  231.3770  145.7800 C   0  0  0  0  0
   32.0000  230.6530  144.7800 C   0  0  0  0  0
   30.9630  229.7490  145.0570 C   0  0  0  0  0
   34.7360  231.5130  143.8680 F   0  0  0  0  0
   33.3860  232.9270  143.7180 F   0  0  0  0  0
   28.3276  229.7079  152.7030 H   0  0  0  0  0
   27.6194  228.0650  153.1679 H   0  0  0  0  0
   34.4302  233.2279  150.2311 H   0  0  0  0  0
   34.0263  232.7092  151.8832 H   0  0  0  0  0
   31.2401  231.2509  150.8163 H   0  0  0  0  0
   30.8647  232.1335  149.3592 H   0  0  0  0  0
   34.8287  233.4534  144.3482 H   0  0  0  0  0
   24.3387  232.1763  150.9974 H   0  0  0  0  0
   23.4367  231.1901  152.1741 H   0  0  0  0  0
   24.3851  232.5917  152.7284 H   0  0  0  0  0
   27.4109  231.7300  153.8912 H   0  0  0  0  0
   26.6168  231.2773  155.4194 H   0  0  0  0  0
   28.2089  230.5945  155.0069 H   0  0  0  0  0
   26.4646  228.9237  148.6405 H   0  0  0  0  0
   26.0756  227.2410  148.9802 H   0  0  0  0  0
   24.7371  229.0643  151.4136 H   0  0  0  0  0
   25.5722  230.0663  150.2139 H   0  0  0  0  0
   29.0159  227.9722  145.5978 H   0  0  0  0  0
   26.4568  231.4642  152.0150 H   0  0  0  0  0
   30.6995  230.0651  148.3218 H   0  0  0  0  0
   26.3909  228.9025  154.5515 H   0  0  0  0  0
   32.4823  230.2196  149.1863 H   0  0  0  0  0
   33.7194  230.7151  151.3002 H   0  0  0  0  0
   34.7668  231.1533  150.0193 H   0  0  0  0  0
   32.2228  234.0447  150.0317 H   0  0  0  0  0
   31.8323  233.5151  151.5523 H   0  0  0  0  0
   32.3402  230.7806  143.7523 H   0  0  0  0  0
   30.5107  229.2047  144.2280 H   0  0  0  0  0
  8  1  1  0  0  0
  1 21  1  0  0  0
  2 24  1  0  0  0
 25  2  1  0  0  0
 23  3  1  0  0  0
  3 25  1  0  0  0
 14  4  1  0  0  0
  4 29  1  0  0  0
  4 30  1  0  0  0
 17  5  1  0  0  0
 21  6  1  0  0  0
  7  8  1  0  0  0
 10  7  1  0  0  0
  7 18  2  0  0  0
  8 13  1  0  0  0
  9 10  1  0  0  0
 11  9  1  0  0  0
 15 11  2  0  0  0
 22 12  1  0  0  0
 12 23  1  0  0  0
 13 17  1  0  0  0
 26 14  1  0  0  0
 19 15  1  0  0  0
 17 16  1  0  0  0
 21 16  1  0  0  0
 20 19  4  0  0  0
 19 28  4  0  0  0
 22 20  4  0  0  0
 22 26  4  0  0  0
 23 24  1  0  0  0
 26 27  4  0  0  0
 27 28  4  0  0  0
  1 31  1  0  0  0
  1 32  1  0  0  0
  2 33  1  0  0  0
  2 34  1  0  0  0
  3 35  1  0  0  0
  3 36  1  0  0  0
  4 37  1  0  0  0
  5 38  1  0  0  0
  5 39  1  0  0  0
  5 40  1  0  0  0
  6 41  1  0  0  0
  6 42  1  0  0  0
  6 43  1  0  0  0
 10 44  1  0  0  0
 10 45  1  0  0  0
 13 46  1  0  0  0
 13 47  1  0  0  0
 15 48  1  0  0  0
 17 49  1  0  0  0
 20 50  1  0  0  0
 21 51  1  0  0  0
 23 52  1  0  0  0
 24 53  1  0  0  0
 24 54  1  0  0  0
 25 55  1  0  0  0
 25 56  1  0  0  0
 27 57  1  0  0  0
 28 58  1  0  0  0
M  END
$$$$
