4mbf_ligand
  -I-interpret- 

 48 47  0  0  0  0  0  0  0  0999 V2000
   13.7680   33.0550    3.1290 O   0  0  0  0  0
   12.8370   33.8380    2.8850 C   0  0  0  0  0
   12.9960   35.0070    2.4620 O   0  0  0  0  0
   11.4150   33.3140    3.1860 C   0  0  0  0  0
   10.3130   33.9590    2.3170 C   0  0  0  0  0
   10.5440   33.6700    0.8270 C   0  0  0  0  0
    9.3910   34.2230   -0.0230 C   0  0  0  0  0
    9.3790   35.7510   -0.0310 C   0  0  0  0  0
   10.1760   36.3710   -0.7360 O   0  0  0  0  0
    8.4390   36.3000    0.7990 O   0  0  0  0  0
    8.4940   37.7140    1.0430 C   0  0  0  0  0
    7.3130   38.1690    1.9240 C   0  0  0  0  0
    6.0090   38.1270    1.1180 C   0  0  0  0  0
    7.6150   40.0120    2.4520 S   0  0  0  0  0
    8.1790   40.7000    1.2170 O   0  0  0  0  0
    8.7010   40.0450    3.5270 O   0  0  0  0  0
    7.1960   37.2800    3.1840 C   0  0  0  0  0
    6.0410   37.7640    4.0760 C   0  0  0  0  0
    6.2530   38.7500    4.8270 O   0  0  0  0  0
    4.9640   37.1380    4.0000 O   0  0  0  0  0
    8.4470   37.3520    3.9570 N   0  0  0  0  0
    8.7950   36.3610    4.7670 C   0  0  0  0  0
    7.9530   35.1230    4.8110 C   0  0  0  0  0
    8.5190   34.0630    5.7330 C   0  0  0  0  0
    9.5240   34.2010    6.4190 O   0  0  0  0  0
   12.1389   35.4235    2.3459 H   0  0  0  0  0
   11.1929   33.5581    4.2248 H   0  0  0  0  0
   11.4117   32.2451    2.9728 H   0  0  0  0  0
   10.3347   35.0379    2.4704 H   0  0  0  0  0
    9.3496   33.5404    2.6082 H   0  0  0  0  0
   10.5993   32.5909    0.6835 H   0  0  0  0  0
   11.4712   34.1514    0.5160 H   0  0  0  0  0
    8.4508   33.8739    0.4039 H   0  0  0  0  0
    9.5213   33.8747   -1.0476 H   0  0  0  0  0
    8.4392   38.2361    0.0878 H   0  0  0  0  0
    9.4253   37.9436    1.5607 H   0  0  0  0  0
    5.1878   38.4849    1.7390 H   0  0  0  0  0
    6.1060   38.7642    0.2390 H   0  0  0  0  0
    5.8096   37.1021    0.8051 H   0  0  0  0  0
    6.5041   40.5834    2.9083 H   0  0  0  0  0
    7.0058   36.2547    2.8667 H   0  0  0  0  0
    7.1546   39.0560    4.7046 H   0  0  0  0  0
    8.3129   38.1495    4.5786 H   0  0  0  0  0
    8.7243   36.7823    5.7698 H   0  0  0  0  0
    9.7644   36.0262    4.3978 H   0  0  0  0  0
    7.9177   34.7065    3.8043 H   0  0  0  0  0
    6.9682   35.4014    5.1862 H   0  0  0  0  0
    7.9944   33.1093    5.7900 H   0  0  0  0  0
  1  2  2  0  0  0
  2  3  1  0  0  0
  2  4  1  0  0  0
  4  5  1  0  0  0
  5  6  1  0  0  0
  6  7  1  0  0  0
  7  8  1  0  0  0
  8  9  2  0  0  0
  8 10  1  0  0  0
 10 11  1  0  0  0
 11 12  1  0  0  0
 12 13  1  0  0  0
 12 14  1  0  0  0
 12 17  1  0  0  0
 14 15  2  0  0  0
 14 16  2  0  0  0
 17 18  1  0  0  0
 17 21  1  0  0  0
 18 19  1  0  0  0
 18 20  2  0  0  0
 21 22  1  0  0  0
 22 23  1  0  0  0
 23 24  1  0  0  0
 24 25  2  0  0  0
  3 26  1  0  0  0
  4 27  1  0  0  0
  4 28  1  0  0  0
  5 29  1  0  0  0
  5 30  1  0  0  0
  6 31  1  0  0  0
  6 32  1  0  0  0
  7 33  1  0  0  0
  7 34  1  0  0  0
 11 35  1  0  0  0
 11 36  1  0  0  0
 13 37  1  0  0  0
 13 38  1  0  0  0
 13 39  1  0  0  0
 14 40  1  0  0  0
 17 41  1  0  0  0
 19 42  1  0  0  0
 21 43  1  0  0  0
 22 44  1  0  0  0
 22 45  1  0  0  0
 23 46  1  0  0  0
 23 47  1  0  0  0
 24 48  1  0  0  0
M  END
$$$$
