2oym_ligand
  -I-interpret- 

 46 47  0  0  0  0  0  0  0  0999 V2000
   25.3250   58.5110  -32.7080 O   0  0  0  0  0
   24.6690   57.5440  -32.3470 C   0  0  0  0  0
   24.8110   56.2730  -33.1330 C   0  0  0  0  0
   24.1070   55.1120  -32.8110 C   0  0  0  0  0
   24.2660   53.9600  -33.5690 C   0  0  0  0  0
   25.1150   53.9530  -34.6800 C   0  0  0  0  0
   25.2750   52.8330  -35.4470 N   0  0  0  0  0
   26.1610   52.8410  -36.6020 C   0  0  0  0  0
   24.5750   51.6060  -35.1180 C   0  0  0  0  0
   25.8000   55.1190  -35.0010 C   0  0  0  0  0
   25.6530   56.2640  -34.2340 C   0  0  0  0  0
   23.9110   57.6250  -31.2440 N   0  0  0  0  0
   23.6830   58.8600  -30.5000 C   0  0  0  0  0
   24.1770   58.9690  -29.0740 C   0  0  0  0  0
   23.7900   57.8450  -28.2380 N   0  3  0  0  0
   24.9040   57.4260  -27.4190 C   0  0  0  0  0
   24.4910   57.0810  -25.9990 C   0  0  0  0  0
   23.4210   56.1360  -26.0670 O   0  0  0  0  0
   25.8960   58.5690  -27.5330 C   0  0  0  0  0
   27.2480   58.1760  -27.2870 O   0  0  0  0  0
   25.6790   59.0260  -28.9600 C   0  0  0  0  0
   26.2270   60.3270  -29.2000 O   0  0  0  0  0
   23.4277   55.1097  -31.9586 H   0  0  0  0  0
   23.7249   53.0540  -33.2961 H   0  0  0  0  0
   26.9485   52.1011  -36.4593 H   0  0  0  0  0
   25.5900   52.5976  -37.4980 H   0  0  0  0  0
   26.6055   53.8303  -36.7105 H   0  0  0  0  0
   23.9421   51.3143  -35.9562 H   0  0  0  0  0
   25.3007   50.8178  -34.9175 H   0  0  0  0  0
   23.9580   51.7670  -34.2340 H   0  0  0  0  0
   26.4614   55.1331  -35.8673 H   0  0  0  0  0
   26.2047   57.1659  -34.4991 H   0  0  0  0  0
   23.4668   56.7720  -30.9042 H   0  0  0  0  0
   22.5987   58.9433  -30.4255 H   0  0  0  0  0
   24.2411   59.6204  -31.0462 H   0  0  0  0  0
   23.7133   59.8968  -28.7390 H   0  0  0  0  0
   23.5030   57.0686  -28.8340 H   0  0  0  0  0
   23.0189   58.1283  -27.6334 H   0  0  0  0  0
   25.3506   56.4903  -27.7552 H   0  0  0  0  0
   24.1673   57.9788  -25.4725 H   0  0  0  0  0
   25.3343   56.6563  -25.4544 H   0  0  0  0  0
   23.1438   55.9036  -25.1778 H   0  0  0  0  0
   25.7362   59.3478  -26.7873 H   0  0  0  0  0
   27.8230   58.9399  -27.3739 H   0  0  0  0  0
   26.1833   58.4162  -29.7096 H   0  0  0  0  0
   27.1823   60.2919  -29.1118 H   0  0  0  0  0
  1  2  2  0  0  0
  2  3  1  0  0  0
  2 12  1  0  0  0
  3  4  4  0  0  0
  3 11  4  0  0  0
  4  5  4  0  0  0
  5  6  4  0  0  0
  6  7  1  0  0  0
  6 10  4  0  0  0
  7  8  1  0  0  0
  7  9  1  0  0  0
 10 11  4  0  0  0
 12 13  1  0  0  0
 13 14  1  0  0  0
 14 15  1  0  0  0
 14 21  1  0  0  0
 15 16  1  0  0  0
 16 17  1  0  0  0
 16 19  1  0  0  0
 17 18  1  0  0  0
 19 20  1  0  0  0
 19 21  1  0  0  0
 21 22  1  0  0  0
  4 23  1  0  0  0
  5 24  1  0  0  0
  8 25  1  0  0  0
  8 26  1  0  0  0
  8 27  1  0  0  0
  9 28  1  0  0  0
  9 29  1  0  0  0
  9 30  1  0  0  0
 10 31  1  0  0  0
 11 32  1  0  0  0
 12 33  1  0  0  0
 13 34  1  0  0  0
 13 35  1  0  0  0
 14 36  1  0  0  0
 15 37  1  0  0  0
 15 38  1  0  0  0
 16 39  1  0  0  0
 17 40  1  0  0  0
 17 41  1  0  0  0
 18 42  1  0  0  0
 19 43  1  0  0  0
 20 44  1  0  0  0
 21 45  1  0  0  0
 22 46  1  0  0  0
M  END
$$$$
