### 
### Created by X-TOOL on Mon Sep 10 21:13:13 2018
### 

@<TRIPOS>MOLECULE
3w2t_ligand
   50    53     1     0     0
SMALL
GAST_HUCK


@<TRIPOS>ATOM
      1 O20        57.1700   63.0460   35.5880 O.2       1 LF7        -0.3908
      2 C14        56.7870   64.0630   36.1730 C.2       1 LF7         0.2271
      3 N15        57.1580   64.2780   37.4880 N.am      1 LF7        -0.2461
      4 C19        57.1170   65.6730   37.9470 C.3       1 LF7         0.0382
      5 C18        58.0270   65.7030   39.1640 C.3       1 LF7        -0.0272
      6 C17        59.0990   64.6710   38.8510 C.3       1 LF7        -0.0096
      7 C16        58.4260   63.6620   37.9440 C.3       1 LF7         0.1037
      8 C20        58.0630   62.4880   38.8100 C.2       1 LF7         0.0209
      9 N2         56.8540   62.3750   39.1960 N.2       1 LF7        -0.3619
     10 C13        55.8330   65.0430   35.4920 C.3       1 LF7         0.0570
     11 N12        55.1020   64.4610   34.3580 N.4       1 LF7         0.2484
     12 C7         53.8000   63.7760   34.4750 C.3       1 LF7        -0.0068
     13 C8         53.8400   62.7430   35.6230 C.3       1 LF7        -0.0038
     14 C1         52.4890   62.0350   35.7860 C.3       1 LF7        -0.0328
     15 C2         51.3650   63.0660   36.0110 C.3       1 LF7        -0.0468
     16 C10        51.2980   64.0550   34.8400 C.3       1 LF7        -0.0328
     17 C9         52.6610   64.7690   34.7610 C.3       1 LF7        -0.0038
     18 C5         51.0340   63.2850   33.5280 C.3       1 LF7        -0.0207
     19 C21        52.2290   61.2820   34.4790 C.3       1 LF7        -0.0207
     20 C3         52.1690   62.2640   33.3080 C.3       1 LF7         0.0720
     21 O4         51.9400   61.4640   32.1510 O.3       1 LF7        -0.3883
     22 C6         53.4910   63.0300   33.1620 C.3       1 LF7         0.0221
     23 H1         56.0917   65.9615   38.2216 H         1 LF7         0.0525
     24 H2         57.4916   66.3502   37.1653 H         1 LF7         0.0525
     25 H3         57.4726   65.4267   40.0730 H         1 LF7         0.0288
     26 H4         58.4717   66.7006   39.2946 H         1 LF7         0.0288
     27 H5         59.4492   64.1864   39.7743 H         1 LF7         0.0324
     28 H6         59.9505   65.1425   38.3386 H         1 LF7         0.0324
     29 H7         59.0685   63.3696   37.1004 H         1 LF7         0.0842
     30 H8         58.8133   61.7538   39.0997 H         1 LF7         0.1225
     31 H9         56.5811   61.5982   39.7775 H         1 LF7         0.1054
     32 H10        56.4177   65.8998   35.1258 H         1 LF7         0.1062
     33 H11        55.1011   65.3898   36.2363 H         1 LF7         0.1062
     34 H12        55.7286   63.7868   33.9470 H         1 LF7         0.2038
     35 H13        54.9535   65.2197   33.7112 H         1 LF7         0.2038
     36 H14        54.0885   63.2602   36.5614 H         1 LF7         0.0325
     37 H15        54.6131   61.9923   35.4022 H         1 LF7         0.0325
     38 H16        52.5257   61.3346   36.6334 H         1 LF7         0.0304
     39 H17        51.5627   63.6194   36.9408 H         1 LF7         0.0271
     40 H18        50.4029   62.5395   36.0951 H         1 LF7         0.0271
     41 H19        50.4954   64.7883   35.0077 H         1 LF7         0.0304
     42 H20        52.6271   65.5164   33.9546 H         1 LF7         0.0325
     43 H21        52.8573   65.2722   35.7193 H         1 LF7         0.0325
     44 H22        51.0049   63.9913   32.6853 H         1 LF7         0.0296
     45 H23        50.0715   62.7571   33.5974 H         1 LF7         0.0296
     46 H24        51.2716   60.7454   34.5528 H         1 LF7         0.0296
     47 H25        53.0414   60.5606   34.3072 H         1 LF7         0.0296
     48 H26        51.8928   62.0235   31.3848 H         1 LF7         0.2102
     49 H27        54.3032   62.3212   32.9430 H         1 LF7         0.0351
     50 H28        53.4056   63.7553   32.3395 H         1 LF7         0.0351
@<TRIPOS>BOND
     1    1    2 2  
     2    2    3 am 
     3    2   10 1  
     4    3    4 1  
     5    3    7 1  
     6    4    5 1  
     7    5    6 1  
     8    6    7 1  
     9    7    8 1  
    10    8    9 2  
    11   10   11 1  
    12   11   12 1  
    13   12   13 1  
    14   12   17 1  
    15   12   22 1  
    16   13   14 1  
    17   14   15 1  
    18   14   19 1  
    19   15   16 1  
    20   16   17 1  
    21   16   18 1  
    22   18   20 1  
    23   19   20 1  
    24   20   21 1  
    25   20   22 1  
    26    4   23 1  
    27    4   24 1  
    28    5   25 1  
    29    5   26 1  
    30    6   27 1  
    31    6   28 1  
    32    7   29 1  
    33    8   30 1  
    34    9   31 1  
    35   10   32 1  
    36   10   33 1  
    37   11   34 1  
    38   11   35 1  
    39   13   36 1  
    40   13   37 1  
    41   14   38 1  
    42   15   39 1  
    43   15   40 1  
    44   16   41 1  
    45   17   42 1  
    46   17   43 1  
    47   18   44 1  
    48   18   45 1  
    49   19   46 1  
    50   19   47 1  
    51   21   48 1  
    52   22   49 1  
    53   22   50 1  
@<TRIPOS>SUBSTRUCTURE
     1 LF7         1

