3w2t_ligand
  -I-interpret- 

 50 53  0  0  0  0  0  0  0  0999 V2000
   57.1700   63.0460   35.5880 O   0  0  0  0  0
   56.7870   64.0630   36.1730 C   0  0  0  0  0
   57.1580   64.2780   37.4880 N   0  0  0  0  0
   57.1170   65.6730   37.9470 C   0  0  0  0  0
   58.0270   65.7030   39.1640 C   0  0  0  0  0
   59.0990   64.6710   38.8510 C   0  0  0  0  0
   58.4260   63.6620   37.9440 C   0  0  0  0  0
   58.0630   62.4880   38.8100 C   0  0  0  0  0
   56.8540   62.3750   39.1960 N   0  0  0  0  0
   55.8330   65.0430   35.4920 C   0  0  0  0  0
   55.1020   64.4610   34.3580 N   0  3  0  0  0
   53.8000   63.7760   34.4750 C   0  0  0  0  0
   53.8400   62.7430   35.6230 C   0  0  0  0  0
   52.4890   62.0350   35.7860 C   0  0  0  0  0
   51.3650   63.0660   36.0110 C   0  0  0  0  0
   51.2980   64.0550   34.8400 C   0  0  0  0  0
   52.6610   64.7690   34.7610 C   0  0  0  0  0
   51.0340   63.2850   33.5280 C   0  0  0  0  0
   52.2290   61.2820   34.4790 C   0  0  0  0  0
   52.1690   62.2640   33.3080 C   0  0  0  0  0
   51.9400   61.4640   32.1510 O   0  0  0  0  0
   53.4910   63.0300   33.1620 C   0  0  0  0  0
   56.1033   65.9931   38.1881 H   0  0  0  0  0
   57.4476   66.3664   37.1737 H   0  0  0  0  0
   57.4910   65.4740   40.0851 H   0  0  0  0  0
   58.4472   66.6932   39.3401 H   0  0  0  0  0
   59.4838   64.2033   39.7573 H   0  0  0  0  0
   59.9671   65.1251   38.3731 H   0  0  0  0  0
   59.0578   63.3707   37.1049 H   0  0  0  0  0
   58.8140   61.7531   39.0999 H   0  0  0  0  0
   56.1623   63.0706   38.9166 H   0  0  0  0  0
   56.4324   65.8674   35.1058 H   0  0  0  0  0
   55.0953   65.3495   36.2336 H   0  0  0  0  0
   55.7226   63.7111   34.0531 H   0  0  0  0  0
   54.8738   65.2803   33.7949 H   0  0  0  0  0
   54.0711   63.2657   36.5512 H   0  0  0  0  0
   54.5971   61.9945   35.3890 H   0  0  0  0  0
   52.5082   61.3626   36.6437 H   0  0  0  0  0
   51.5700   63.6178   36.9284 H   0  0  0  0  0
   50.4129   62.5405   36.0847 H   0  0  0  0  0
   50.4942   64.7766   34.9862 H   0  0  0  0  0
   52.6241   65.4959   33.9496 H   0  0  0  0  0
   52.8549   65.2510   35.7192 H   0  0  0  0  0
   51.0009   63.9837   32.6920 H   0  0  0  0  0
   50.0787   62.7643   33.5932 H   0  0  0  0  0
   51.2773   60.7559   34.5531 H   0  0  0  0  0
   53.0383   60.5720   34.3087 H   0  0  0  0  0
   52.6635   60.8420   32.0451 H   0  0  0  0  0
   54.2959   62.3277   32.9449 H   0  0  0  0  0
   53.4065   63.7487   32.3469 H   0  0  0  0  0
  1  2  2  0  0  0
  2  3  1  0  0  0
  2 10  1  0  0  0
  3  4  1  0  0  0
  3  7  1  0  0  0
  4  5  1  0  0  0
  5  6  1  0  0  0
  6  7  1  0  0  0
  7  8  1  0  0  0
  8  9  2  0  0  0
 10 11  1  0  0  0
 11 12  1  0  0  0
 12 13  1  0  0  0
 12 17  1  0  0  0
 12 22  1  0  0  0
 13 14  1  0  0  0
 14 15  1  0  0  0
 14 19  1  0  0  0
 15 16  1  0  0  0
 16 17  1  0  0  0
 16 18  1  0  0  0
 18 20  1  0  0  0
 19 20  1  0  0  0
 20 21  1  0  0  0
 20 22  1  0  0  0
  4 23  1  0  0  0
  4 24  1  0  0  0
  5 25  1  0  0  0
  5 26  1  0  0  0
  6 27  1  0  0  0
  6 28  1  0  0  0
  7 29  1  0  0  0
  8 30  1  0  0  0
  9 31  1  0  0  0
 10 32  1  0  0  0
 10 33  1  0  0  0
 11 34  1  0  0  0
 11 35  1  0  0  0
 13 36  1  0  0  0
 13 37  1  0  0  0
 14 38  1  0  0  0
 15 39  1  0  0  0
 15 40  1  0  0  0
 16 41  1  0  0  0
 17 42  1  0  0  0
 17 43  1  0  0  0
 18 44  1  0  0  0
 18 45  1  0  0  0
 19 46  1  0  0  0
 19 47  1  0  0  0
 21 48  1  0  0  0
 22 49  1  0  0  0
 22 50  1  0  0  0
M  END
$$$$
