1o3j_ligand
  -I-interpret- 

 33 35  0  0  0  0  0  0  0  0999 V2000
   44.1980   -3.0840   26.0990 C   0  0  0  0  0
   44.6300   -1.7460   26.1740 C   0  0  0  0  0
   44.5890   -1.0420   27.3690 C   0  0  0  0  0
   44.1150   -1.6840   28.4810 C   0  0  0  0  0
   43.6790   -2.9550   28.4740 C   0  0  0  0  0
   43.7050   -3.7020   27.2840 C   0  0  0  0  0
   44.2690   -3.7640   24.8580 C   0  0  0  0  0
   43.8920   -5.0210   24.7680 N   0  0  0  0  0
   44.7160   -3.1280   23.7960 N   0  0  0  0  0
   43.9770   -1.2760   29.6820 N   0  0  0  0  0
   43.2690   -3.3480   29.6670 N   0  0  0  0  0
   43.4790   -2.2480   30.3870 C   0  0  0  0  0
   43.2550   -2.0950   31.7790 C   0  0  0  0  0
   42.9140   -3.1900   32.5880 C   0  0  0  0  0
   42.6990   -3.0160   33.9660 C   0  0  0  0  0
   42.3240   -4.1950   34.8770 C   0  0  0  0  0
   42.8260   -1.7580   34.5460 C   0  0  0  0  0
   43.1690   -0.6520   33.7620 C   0  0  0  0  0
   43.3760   -0.8220   32.3860 C   0  0  0  0  0
   43.6720    0.2990   31.6290 O   0  0  0  0  0
   43.4270    1.1160   34.5720 Br  0  0  0  0  0
   45.0038   -1.2538   25.2762 H   0  0  0  0  0
   44.9250   -0.0064   27.4207 H   0  0  0  0  0
   43.3548   -4.7341   27.2680 H   0  0  0  0  0
   43.9455   -5.5066   23.8726 H   0  0  0  0  0
   44.7711   -3.6098   22.8986 H   0  0  0  0  0
   45.0073   -2.1533   23.8703 H   0  0  0  0  0
   42.8153   -4.1810   32.1451 H   0  0  0  0  0
   41.3878   -4.6347   34.5332 H   0  0  0  0  0
   43.1139   -4.9453   34.8417 H   0  0  0  0  0
   42.2053   -3.8385   35.9002 H   0  0  0  0  0
   42.6575   -1.6339   35.6157 H   0  0  0  0  0
   43.7149    1.0683   32.2017 H   0  0  0  0  0
  1  2  4  0  0  0
  1  6  4  0  0  0
  1  7  1  0  0  0
  2  3  4  0  0  0
  3  4  4  0  0  0
  4  5  4  0  0  0
  4 10  4  0  0  0
  5  6  4  0  0  0
  5 11  4  0  0  0
  7  8  2  0  0  0
  7  9  1  0  0  0
 10 12  4  0  0  0
 11 12  4  0  0  0
 12 13  1  0  0  0
 13 14  4  0  0  0
 13 19  4  0  0  0
 14 15  4  0  0  0
 15 16  1  0  0  0
 15 17  4  0  0  0
 17 18  4  0  0  0
 18 19  4  0  0  0
 18 21  1  0  0  0
 19 20  1  0  0  0
  2 22  1  0  0  0
  3 23  1  0  0  0
  6 24  1  0  0  0
  8 25  1  0  0  0
  9 26  1  0  0  0
  9 27  1  0  0  0
 14 28  1  0  0  0
 16 29  1  0  0  0
 16 30  1  0  0  0
 16 31  1  0  0  0
 17 32  1  0  0  0
 20 33  1  0  0  0
M  END
$$$$
