2oyl_ligand
  -I-interpret- 

 47 49  0  0  0  0  0  0  0  0999 V2000
   28.6580   59.0970  -26.4550 C   0  0  0  0  0
   29.6170   59.8630  -25.5440 C   0  0  0  0  0
   31.0650   59.6880  -26.0140 C   0  0  0  0  0
   31.4030   58.2110  -26.1100 C   0  0  0  0  0
   30.3640   57.4790  -26.9800 C   0  0  0  0  0
   30.6090   55.9670  -26.9480 C   0  0  0  0  0
   29.3000   61.2320  -25.5330 O   0  0  0  0  0
   31.9270   60.3160  -25.0700 O   0  0  0  0  0
   32.7210   58.0680  -26.6760 O   0  0  0  0  0
   29.0110   57.7000  -26.4710 O   0  0  0  0  0
   30.3900   55.4390  -25.6330 O   0  0  0  0  0
   24.1230   58.2290  -28.4830 C   0  0  0  0  0
   24.4830   57.1950  -27.3960 C   0  0  0  0  0
   25.3330   57.8290  -26.2930 C   0  0  0  0  0
   26.3640   58.7810  -26.8970 C   0  0  0  0  0
   25.5960   59.9910  -27.4510 C   0  0  0  0  0
   26.5310   61.0610  -28.0110 C   0  0  0  0  0
   23.3330   56.5350  -26.8220 O   0  0  0  0  0
   25.9930   56.7910  -25.5530 O   0  0  0  0  0
   27.3320   59.1620  -25.9120 O   0  0  0  0  0
   24.6780   59.5290  -28.5060 N   0  0  0  0  0
   27.3190   60.5550  -29.0880 O   0  0  0  0  0
   23.3520   58.1390  -29.5630 N   0  0  0  0  0
   23.3950   59.3050  -30.2150 C   0  0  0  0  0
   24.1950   60.1500  -29.5720 C   0  0  0  0  0
   28.7119   59.5347  -27.4518 H   0  0  0  0  0
   29.5135   59.4591  -24.5369 H   0  0  0  0  0
   31.1920   60.1412  -26.9972 H   0  0  0  0  0
   31.3840   57.7675  -25.1145 H   0  0  0  0  0
   30.4624   57.8700  -27.9927 H   0  0  0  0  0
   31.6427   55.7740  -27.2348 H   0  0  0  0  0
   29.9161   55.4857  -27.6381 H   0  0  0  0  0
   28.3934   61.3470  -25.2391 H   0  0  0  0  0
   31.7104   61.2494  -25.0120 H   0  0  0  0  0
   33.3569   58.5287  -26.1237 H   0  0  0  0  0
   30.5494   54.4924  -25.6388 H   0  0  0  0  0
   25.0641   56.4249  -27.9034 H   0  0  0  0  0
   24.6890   58.4010  -25.6250 H   0  0  0  0  0
   26.9203   58.3013  -27.7023 H   0  0  0  0  0
   25.0410   60.4460  -26.6306 H   0  0  0  0  0
   27.2015   61.3848  -27.2149 H   0  0  0  0  0
   25.9260   61.8873  -28.3842 H   0  0  0  0  0
   23.6246   55.9078  -26.1563 H   0  0  0  0  0
   26.5277   57.1844  -24.8595 H   0  0  0  0  0
   27.8940   61.2501  -29.4164 H   0  0  0  0  0
   22.8555   59.5293  -31.1352 H   0  0  0  0  0
   24.4152   61.1751  -29.8699 H   0  0  0  0  0
  1  2  1  0  0  0
  1 10  1  0  0  0
 20  1  1  0  0  0
  2  3  1  0  0  0
  2  7  1  0  0  0
  3  4  1  0  0  0
  3  8  1  0  0  0
  5  4  1  0  0  0
  4  9  1  0  0  0
  5  6  1  0  0  0
 10  5  1  0  0  0
  6 11  1  0  0  0
 13 12  1  0  0  0
 12 21  4  0  0  0
 12 23  4  0  0  0
 14 13  1  0  0  0
 13 18  1  0  0  0
 15 14  1  0  0  0
 14 19  1  0  0  0
 15 16  1  0  0  0
 15 20  1  0  0  0
 16 17  1  0  0  0
 16 21  1  0  0  0
 17 22  1  0  0  0
 21 25  4  0  0  0
 23 24  4  0  0  0
 24 25  4  0  0  0
  1 26  1  0  0  0
  2 27  1  0  0  0
  3 28  1  0  0  0
  4 29  1  0  0  0
  5 30  1  0  0  0
  6 31  1  0  0  0
  6 32  1  0  0  0
  7 33  1  0  0  0
  8 34  1  0  0  0
  9 35  1  0  0  0
 11 36  1  0  0  0
 13 37  1  0  0  0
 14 38  1  0  0  0
 15 39  1  0  0  0
 16 40  1  0  0  0
 17 41  1  0  0  0
 17 42  1  0  0  0
 18 43  1  0  0  0
 19 44  1  0  0  0
 22 45  1  0  0  0
 24 46  1  0  0  0
 25 47  1  0  0  0
M  END
$$$$
