### 
### Created by X-TOOL on Mon Sep 10 21:13:29 2018
### 

@<TRIPOS>MOLECULE
5iok_ligand
  127   126     1     0     0
SMALL
GAST_HUCK


@<TRIPOS>ATOM
      1 C          32.8390   31.1560   -4.9940 C.2       1 ACE         0.1751
      2 O          33.9810   30.7030   -4.8950 O.2       1 ACE        -0.3972
      3 CH3        32.6120   32.6300   -5.2820 C.3       1 ACE         0.0258
      4 N          31.7480   30.4060   -4.8730 N.am      1 GLN        -0.2657
      5 CA         31.8310   28.9810   -4.5470 C.3       1 GLN         0.1329
      6 C          32.4000   28.1230   -5.6850 C.2       1 GLN         0.2041
      7 O          32.8940   27.0100   -5.4450 O.2       1 GLN        -0.3944
      8 CB         30.4540   28.4640   -4.1280 C.3       1 GLN         0.0045
      9 CG         29.9950   29.0580   -2.7950 C.3       1 GLN         0.0412
     10 CD         28.5480   28.7300   -2.4570 C.2       1 GLN         0.1737
     11 OE1        28.2750   27.8540   -1.6250 O.2       1 GLN        -0.3973
     12 NE2        27.6090   29.4360   -3.0950 N.am      1 GLN        -0.3009
     13 N          32.3570   28.6420   -6.9110 N.am      1 THR        -0.2613
     14 CA         32.9460   27.9280   -8.0460 C.3       1 THR         0.1565
     15 C          34.3370   28.4390   -8.4190 C.2       1 THR         0.2065
     16 O          34.8760   28.0480   -9.4600 O.2       1 THR        -0.3943
     17 CB         32.0670   28.0140   -9.3150 C.3       1 THR         0.0924
     18 OG1        31.9690   29.3770   -9.7410 O.3       1 THR        -0.3874
     19 CG2        30.6720   27.4530   -9.0540 C.3       1 THR        -0.0346
     20 N          34.9110   29.3050   -7.5840 N.am      1 ALA        -0.2639
     21 CA         36.2550   29.8330   -7.8360 C.3       1 ALA         0.1282
     22 C          37.3130   28.7150   -7.9270 C.2       1 ALA         0.2036
     23 O          37.4090   27.8690   -7.0420 O.2       1 ALA        -0.3944
     24 CB         36.6320   30.8440   -6.7540 C.3       1 ALA        -0.0244
     25 N          38.0880   28.7170   -9.0140 N.am      1 ARG        -0.2637
     26 CA         39.1300   27.7140   -9.2480 C.3       1 ARG         0.1311
     27 C          40.4030   28.2990   -9.8690 C.2       1 ARG         0.2039
     28 O          40.3540   29.3170  -10.5460 O.2       1 ARG        -0.3944
     29 CB         38.6090   26.5950  -10.1520 C.3       1 ARG        -0.0092
     30 CG         37.4130   25.8440   -9.6050 C.3       1 ARG        -0.0156
     31 CD         37.0420   24.6930  -10.5280 C.3       1 ARG         0.0627
     32 NE         38.1020   23.6890  -10.5860 N.pl3     1 ARG        -0.2723
     33 CZ         38.3210   22.7820   -9.6340 C.cat     1 ARG         0.2882
     34 NH1        37.5510   22.7630   -8.5440 N.pl3     1 ARG        -0.2849
     35 NH2        39.3090   21.8990   -9.7700 N.pl3     1 ARG        -0.2849
     36 N          41.5280   27.6190   -9.6480 N.am      1 KCR        -0.2637
     37 CA         42.8070   27.9990  -10.1580 C.3       1 KCR         0.1310
     38 CB         43.8820   27.5010   -9.2060 C.3       1 KCR        -0.0123
     39 CG         43.7400   28.1380   -7.8310 C.3       1 KCR        -0.0470
     40 CD         45.0090   27.8690   -7.0250 C.3       1 KCR        -0.0327
     41 CE         44.7630   28.4230   -5.6280 C.3       1 KCR         0.0295
     42 NZ         45.9850   28.8660   -4.9960 N.am      1 KCR        -0.2917
     43 CH         45.8810   29.7190   -3.8350 C.2       1 KCR         0.1759
     44 OH         44.7860   30.0480   -3.4130 O.2       1 KCR        -0.4012
     45 CX         47.1610   30.1960   -3.1480 C.2       1 KCR        -0.0032
     46 CY         47.1320   30.8190   -1.9360 C.2       1 KCR        -0.0626
     47 CH3        48.4510   31.2550   -1.3330 C.3       1 KCR        -0.0267
     48 C          43.1500   27.2950  -11.4630 C.2       1 KCR         0.2040
     49 O          42.3870   26.4060  -11.9440 O.2       1 KCR        -0.3944
     50 N          44.3060   27.6480  -12.0270 N.am      1 SER        -0.2616
     51 CA         44.8220   27.0160  -13.2400 C.3       1 SER         0.1539
     52 C          45.6110   25.7490  -12.9010 C.2       1 SER         0.2057
     53 O          45.5430   25.2590  -11.7780 O.2       1 SER        -0.3943
     54 CB         45.7020   28.0050  -14.0090 C.3       1 SER         0.0843
     55 OG         44.9530   29.1480  -14.4130 O.3       1 SER        -0.3903
     56 N          46.3330   25.2050  -13.8790 N.am      1 THR        -0.2669
     57 CA         47.2930   24.1160  -13.6400 C.3       1 THR         0.1198
     58 C          48.5210   24.3230  -14.5170 C.2       1 THR         0.0626
     59 O          48.4700   25.1010  -15.4750 O.co2     1 THR        -0.5665
     60 CB         46.6940   22.7050  -13.9270 C.3       1 THR         0.0869
     61 OG1        45.6020   22.4320  -13.0260 O.3       1 THR        -0.3880
     62 CG2        47.7790   21.6100  -13.7940 C.3       1 THR        -0.0352
     63 OXT        49.5660   23.7120  -14.2690 O.co2     1 THR        -0.5665
     64 H1         31.5318   32.8317   -5.3317 H         1 ACE         0.0467
     65 H2         33.0785   32.8919   -6.2431 H         1 ACE         0.0467
     66 H3         33.0612   33.2338   -4.4798 H         1 ACE         0.0467
     67 H4         30.8500   30.8248   -5.0077 H         1 GLN         0.1883
     68 H5         32.5102   28.8783   -3.6879 H         1 GLN         0.0801
     69 H6         30.5011   27.3694   -4.0305 H         1 GLN         0.0337
     70 H7         29.7234   28.7318   -4.9055 H         1 GLN         0.0337
     71 H8         30.1028   30.1516   -2.8443 H         1 GLN         0.0504
     72 H9         30.6387   28.6617   -1.9959 H         1 GLN         0.0504
     73 H10        26.6415   29.2620   -2.9113 H         1 GLN         0.1814
     74 H11        27.8741   30.1381   -3.7559 H         1 GLN         0.1814
     75 H12        31.9180   29.5284   -7.0580 H         1 THR         0.1884
     76 H13        33.0341   26.8705   -7.7562 H         1 THR         0.0826
     77 H14        32.5406   27.4233  -10.1130 H         1 THR         0.0639
     78 H15        31.5765   29.8964   -9.0491 H         1 THR         0.2101
     79 H16        30.0697   27.5266   -9.9715 H         1 THR         0.0257
     80 H17        30.1892   28.0295   -8.2512 H         1 THR         0.0257
     81 H18        30.7516   26.3985   -8.7513 H         1 THR         0.0257
     82 H19        34.4141   29.6008   -6.7682 H         1 ALA         0.1883
     83 H20        36.2361   30.3565   -8.8033 H         1 ALA         0.0797
     84 H21        37.6413   31.2338   -6.9522 H         1 ALA         0.0277
     85 H22        36.6157   30.3517   -5.7705 H         1 ALA         0.0277
     86 H23        35.9105   31.6743   -6.7605 H         1 ALA         0.0277
     87 H24        37.9515   29.4338   -9.6978 H         1 ARG         0.1883
     88 H25        39.3972   27.2787   -8.2738 H         1 ARG         0.0800
     89 H26        39.4243   25.8733  -10.3084 H         1 ARG         0.0313
     90 H27        38.3225   27.0393  -11.1166 H         1 ARG         0.0313
     91 H28        36.5591   26.5326   -9.5231 H         1 ARG         0.0301
     92 H29        37.6594   25.4455   -8.6098 H         1 ARG         0.0301
     93 H30        36.8684   25.0881  -11.5398 H         1 ARG         0.0689
     94 H31        36.1214   24.2194  -10.1563 H         1 ARG         0.0689
     95 H32        38.7170   23.6816  -11.4122 H         1 ARG         0.2642
     96 H33        37.7186   22.0630   -7.8072 H         1 ARG         0.2615
     97 H34        36.7892   23.4483   -8.4396 H         1 ARG         0.2615
     98 H35        39.9021   21.9154  -10.6120 H         1 ARG         0.2615
     99 H36        39.4799   21.1998   -9.0332 H         1 ARG         0.2615
    100 H37        41.4731   26.7909   -9.0902 H         1 KCR         0.1883
    101 H38        42.8480   29.0914  -10.2804 H         1 KCR         0.0800
    102 H39        44.8703   27.7534   -9.6176 H         1 KCR         0.0312
    103 H40        43.7944   26.4091   -9.1059 H         1 KCR         0.0312
    104 H41        42.8737   27.7033   -7.3108 H         1 KCR         0.0268
    105 H42        43.5956   29.2230   -7.9403 H         1 KCR         0.0268
    106 H43        45.8678   28.3764   -7.4886 H         1 KCR         0.0285
    107 H44        45.2050   26.7878   -6.9753 H         1 KCR         0.0285
    108 H45        44.3089   27.6353   -5.0089 H         1 KCR         0.0518
    109 H46        44.0722   29.2759   -5.7012 H         1 KCR         0.0518
    110 H47        46.8775   28.5897   -5.3525 H         1 KCR         0.1831
    111 H48        48.1194   30.0340   -3.6391 H         1 KCR         0.0472
    112 H49        46.1908   30.9974   -1.4181 H         1 KCR         0.0843
    113 H50        48.2682   31.7389   -0.3622 H         1 KCR         0.0453
    114 H51        48.9462   31.9667   -2.0099 H         1 KCR         0.0453
    115 H52        49.0966   30.3761   -1.1888 H         1 KCR         0.0453
    116 H53        44.8430   28.3765  -11.6017 H         1 SER         0.1884
    117 H54        43.9705   26.7351  -13.8772 H         1 SER         0.0823
    118 H55        46.1075   27.5067  -14.9019 H         1 SER         0.0606
    119 H56        46.5303   28.3283  -13.3615 H         1 SER         0.0606
    120 H57        45.5197   29.7452  -14.8870 H         1 SER         0.2097
    121 H58        46.2183   25.5496  -14.8107 H         1 THR         0.1876
    122 H59        47.5979   24.1525  -12.5837 H         1 THR         0.0752
    123 H60        46.3100   22.6926  -14.9577 H         1 THR         0.0632
    124 H61        45.2473   21.5706  -13.2120 H         1 THR         0.2100
    125 H62        47.3337   20.6256  -14.0005 H         1 THR         0.0256
    126 H63        48.1875   21.6206  -12.7727 H         1 THR         0.0256
    127 H64        48.5872   21.8052  -14.5142 H         1 THR         0.0256
@<TRIPOS>BOND
     1    1    2 2  
     2    1    3 1  
     3    1    4 am 
     4    4    5 1  
     5    5    6 1  
     6    5    8 1  
     7    6    7 2  
     8    6   13 am 
     9    8    9 1  
    10    9   10 1  
    11   10   11 2  
    12   10   12 am 
    13   13   14 1  
    14   14   15 1  
    15   14   17 1  
    16   15   16 2  
    17   15   20 am 
    18   17   18 1  
    19   17   19 1  
    20   20   21 1  
    21   21   22 1  
    22   21   24 1  
    23   22   23 2  
    24   22   25 am 
    25   25   26 1  
    26   26   27 1  
    27   26   29 1  
    28   27   28 2  
    29   27   36 am 
    30   29   30 1  
    31   30   31 1  
    32   31   32 1  
    33   32   33 ar 
    34   33   34 ar 
    35   33   35 ar 
    36   36   37 1  
    37   37   38 1  
    38   37   48 1  
    39   38   39 1  
    40   39   40 1  
    41   40   41 1  
    42   41   42 1  
    43   42   43 am 
    44   43   44 2  
    45   43   45 1  
    46   45   46 2  
    47   46   47 1  
    48   48   49 2  
    49   48   50 am 
    50   50   51 1  
    51   51   52 1  
    52   51   54 1  
    53   52   53 2  
    54   52   56 am 
    55   54   55 1  
    56   56   57 1  
    57   57   58 1  
    58   57   60 1  
    59   58   59 ar 
    60   58   63 ar 
    61   60   61 1  
    62   60   62 1  
    63    3   64 1  
    64    3   65 1  
    65    3   66 1  
    66    4   67 1  
    67    5   68 1  
    68    8   69 1  
    69    8   70 1  
    70    9   71 1  
    71    9   72 1  
    72   12   73 1  
    73   12   74 1  
    74   13   75 1  
    75   14   76 1  
    76   17   77 1  
    77   18   78 1  
    78   19   79 1  
    79   19   80 1  
    80   19   81 1  
    81   20   82 1  
    82   21   83 1  
    83   24   84 1  
    84   24   85 1  
    85   24   86 1  
    86   25   87 1  
    87   26   88 1  
    88   29   89 1  
    89   29   90 1  
    90   30   91 1  
    91   30   92 1  
    92   31   93 1  
    93   31   94 1  
    94   32   95 1  
    95   34   96 1  
    96   34   97 1  
    97   35   98 1  
    98   35   99 1  
    99   36  100 1  
   100   37  101 1  
   101   38  102 1  
   102   38  103 1  
   103   39  104 1  
   104   39  105 1  
   105   40  106 1  
   106   40  107 1  
   107   41  108 1  
   108   41  109 1  
   109   42  110 1  
   110   45  111 1  
   111   46  112 1  
   112   47  113 1  
   113   47  114 1  
   114   47  115 1  
   115   50  116 1  
   116   51  117 1  
   117   54  118 1  
   118   54  119 1  
   119   55  120 1  
   120   56  121 1  
   121   57  122 1  
   122   60  123 1  
   123   61  124 1  
   124   62  125 1  
   125   62  126 1  
   126   62  127 1  
@<TRIPOS>SUBSTRUCTURE
     1 ACE         1

