5iok_ligand
  -I-interpret- 

127126  0  0  0  0  0  0  0  0999 V2000
   32.8390   31.1560   -4.9940 C   0  0  0  0  0
   33.9810   30.7030   -4.8950 O   0  0  0  0  0
   32.6120   32.6300   -5.2820 C   0  0  0  0  0
   31.7480   30.4060   -4.8730 N   0  0  0  0  0
   31.8310   28.9810   -4.5470 C   0  0  0  0  0
   32.4000   28.1230   -5.6850 C   0  0  0  0  0
   32.8940   27.0100   -5.4450 O   0  0  0  0  0
   30.4540   28.4640   -4.1280 C   0  0  0  0  0
   29.9950   29.0580   -2.7950 C   0  0  0  0  0
   28.5480   28.7300   -2.4570 C   0  0  0  0  0
   28.2750   27.8540   -1.6250 O   0  0  0  0  0
   27.6090   29.4360   -3.0950 N   0  0  0  0  0
   32.3570   28.6420   -6.9110 N   0  0  0  0  0
   32.9460   27.9280   -8.0460 C   0  0  0  0  0
   34.3370   28.4390   -8.4190 C   0  0  0  0  0
   34.8760   28.0480   -9.4600 O   0  0  0  0  0
   32.0670   28.0140   -9.3150 C   0  0  0  0  0
   31.9690   29.3770   -9.7410 O   0  0  0  0  0
   30.6720   27.4530   -9.0540 C   0  0  0  0  0
   34.9110   29.3050   -7.5840 N   0  0  0  0  0
   36.2550   29.8330   -7.8360 C   0  0  0  0  0
   37.3130   28.7150   -7.9270 C   0  0  0  0  0
   37.4090   27.8690   -7.0420 O   0  0  0  0  0
   36.6320   30.8440   -6.7540 C   0  0  0  0  0
   38.0880   28.7170   -9.0140 N   0  0  0  0  0
   39.1300   27.7140   -9.2480 C   0  0  0  0  0
   40.4030   28.2990   -9.8690 C   0  0  0  0  0
   40.3540   29.3170  -10.5460 O   0  0  0  0  0
   38.6090   26.5950  -10.1520 C   0  0  0  0  0
   37.4130   25.8440   -9.6050 C   0  0  0  0  0
   37.0420   24.6930  -10.5280 C   0  0  0  0  0
   38.1020   23.6890  -10.5860 N   0  0  0  0  0
   38.3210   22.7820   -9.6340 C   0  0  0  0  0
   37.5510   22.7630   -8.5440 N   0  0  0  0  0
   39.3090   21.8990   -9.7700 N   0  0  0  0  0
   41.5280   27.6190   -9.6480 N   0  0  0  0  0
   42.8070   27.9990  -10.1580 C   0  0  0  0  0
   43.8820   27.5010   -9.2060 C   0  0  0  0  0
   43.7400   28.1380   -7.8310 C   0  0  0  0  0
   45.0090   27.8690   -7.0250 C   0  0  0  0  0
   44.7630   28.4230   -5.6280 C   0  0  0  0  0
   45.9850   28.8660   -4.9960 N   0  0  0  0  0
   45.8810   29.7190   -3.8350 C   0  0  0  0  0
   44.7860   30.0480   -3.4130 O   0  0  0  0  0
   47.1610   30.1960   -3.1480 C   0  0  0  0  0
   47.1320   30.8190   -1.9360 C   0  0  0  0  0
   48.4510   31.2550   -1.3330 C   0  0  0  0  0
   43.1500   27.2950  -11.4630 C   0  0  0  0  0
   42.3870   26.4060  -11.9440 O   0  0  0  0  0
   44.3060   27.6480  -12.0270 N   0  0  0  0  0
   44.8220   27.0160  -13.2400 C   0  0  0  0  0
   45.6110   25.7490  -12.9010 C   0  0  0  0  0
   45.5430   25.2590  -11.7780 O   0  0  0  0  0
   45.7020   28.0050  -14.0090 C   0  0  0  0  0
   44.9530   29.1480  -14.4130 O   0  0  0  0  0
   46.3330   25.2050  -13.8790 N   0  0  0  0  0
   47.2930   24.1160  -13.6400 C   0  0  0  0  0
   48.5210   24.3230  -14.5170 C   0  0  0  0  0
   48.4700   25.1010  -15.4750 O   0  0  0  0  0
   46.6940   22.7050  -13.9270 C   0  0  0  0  0
   45.6020   22.4320  -13.0260 O   0  0  0  0  0
   47.7790   21.6100  -13.7940 C   0  0  0  0  0
   49.5660   23.7120  -14.2690 O   0  0  0  0  0
   33.0576   33.2272   -4.4864 H   0  0  0  0  0
   33.0747   32.8882   -6.2345 H   0  0  0  0  0
   31.5414   32.8286   -5.3310 H   0  0  0  0  0
   30.8320   30.8331   -5.0104 H   0  0  0  0  0
   32.5342   28.8897   -3.7191 H   0  0  0  0  0
   30.5185   27.3820   -4.0129 H   0  0  0  0  0
   29.7351   28.7543   -4.8942 H   0  0  0  0  0
   30.0781   30.1422   -2.8712 H   0  0  0  0  0
   30.6213   28.6320   -2.0112 H   0  0  0  0  0
   26.6223   29.2622   -2.9037 H   0  0  0  0  0
   27.8793   30.1485   -3.7730 H   0  0  0  0  0
   31.9092   29.5461   -7.0609 H   0  0  0  0  0
   33.0171   26.8952   -7.7048 H   0  0  0  0  0
   32.5342   27.4171  -10.0983 H   0  0  0  0  0
   31.4227   29.4264  -10.5288 H   0  0  0  0  0
   30.7522   26.4081   -8.7541 H   0  0  0  0  0
   30.1947   28.0251   -8.2584 H   0  0  0  0  0
   30.0762   27.5265   -9.9638 H   0  0  0  0  0
   34.4042   29.6067   -6.7519 H   0  0  0  0  0
   36.2362   30.3328   -8.8045 H   0  0  0  0  0
   35.9163   31.6661   -6.7615 H   0  0  0  0  0
   36.6154   30.3550   -5.7800 H   0  0  0  0  0
   37.6322   31.2295   -6.9514 H   0  0  0  0  0
   37.9487   29.4481   -9.7115 H   0  0  0  0  0
   39.3897   27.3204   -8.2653 H   0  0  0  0  0
   39.4168   25.8709  -10.2579 H   0  0  0  0  0
   38.2908   27.0624  -11.0839 H   0  0  0  0  0
   36.5672   26.5278   -9.5326 H   0  0  0  0  0
   37.6638   25.4444   -8.6224 H   0  0  0  0  0
   36.8885   25.0909  -11.5311 H   0  0  0  0  0
   36.1389   24.2194  -10.1430 H   0  0  0  0  0
   38.7110   23.6817  -11.4042 H   0  0  0  0  0
   37.7186   22.0715   -7.8132 H   0  0  0  0  0
   36.7950   23.4400   -8.4418 H   0  0  0  0  0
   39.8980   21.9169  -10.6026 H   0  0  0  0  0
   41.4720   26.7743   -9.0790 H   0  0  0  0  0
   42.7688   29.0807  -10.2870 H   0  0  0  0  0
   44.8572   27.7677   -9.6133 H   0  0  0  0  0
   43.7794   26.4210   -9.1007 H   0  0  0  0  0
   42.8797   27.7114   -7.3153 H   0  0  0  0  0
   43.5929   29.2128   -7.9372 H   0  0  0  0  0
   45.8724   28.3477   -7.4871 H   0  0  0  0  0
   45.2274   26.8018   -6.9876 H   0  0  0  0  0
   44.3333   27.6285   -5.0179 H   0  0  0  0  0
   44.0950   29.2800   -5.7148 H   0  0  0  0  0
   46.8953   28.5842   -5.3597 H   0  0  0  0  0
   48.1203   30.0339   -3.6396 H   0  0  0  0  0
   46.1900   30.9976   -1.4176 H   0  0  0  0  0
   49.0897   30.3833   -1.1906 H   0  0  0  0  0
   48.9407   31.9601   -2.0047 H   0  0  0  0  0
   48.2686   31.7343   -0.3712 H   0  0  0  0  0
   44.8537   28.3911  -11.5932 H   0  0  0  0  0
   43.9785   26.7294  -13.8680 H   0  0  0  0  0
   46.0903   27.5091  -14.8986 H   0  0  0  0  0
   46.5132   28.3308  -13.3579 H   0  0  0  0  0
   45.5257   29.7515  -14.8920 H   0  0  0  0  0
   46.2160   25.5565  -14.8293 H   0  0  0  0  0
   47.5570   24.1489  -12.5830 H   0  0  0  0  0
   46.3189   22.6962  -14.9504 H   0  0  0  0  0
   45.2435   21.5615  -13.2139 H   0  0  0  0  0
   48.5792   21.8046  -14.5081 H   0  0  0  0  0
   48.1829   21.6216  -12.7817 H   0  0  0  0  0
   47.3366   20.6351  -13.9989 H   0  0  0  0  0
   49.4344   23.1548  -13.4984 H   0  0  0  0  0
  1  2  2  0  0  0
  1  3  1  0  0  0
  1  4  1  0  0  0
  4  5  1  0  0  0
  5  6  1  0  0  0
  5  8  1  0  0  0
  6  7  2  0  0  0
  6 13  1  0  0  0
  8  9  1  0  0  0
  9 10  1  0  0  0
 10 11  2  0  0  0
 10 12  1  0  0  0
 13 14  1  0  0  0
 14 15  1  0  0  0
 14 17  1  0  0  0
 15 16  2  0  0  0
 15 20  1  0  0  0
 17 18  1  0  0  0
 17 19  1  0  0  0
 20 21  1  0  0  0
 21 22  1  0  0  0
 21 24  1  0  0  0
 22 23  2  0  0  0
 22 25  1  0  0  0
 25 26  1  0  0  0
 26 27  1  0  0  0
 26 29  1  0  0  0
 27 28  2  0  0  0
 27 36  1  0  0  0
 29 30  1  0  0  0
 30 31  1  0  0  0
 31 32  1  0  0  0
 32 33  1  0  0  0
 33 34  1  0  0  0
 33 35  2  0  0  0
 36 37  1  0  0  0
 37 38  1  0  0  0
 37 48  1  0  0  0
 38 39  1  0  0  0
 39 40  1  0  0  0
 40 41  1  0  0  0
 41 42  1  0  0  0
 42 43  1  0  0  0
 43 44  2  0  0  0
 43 45  1  0  0  0
 45 46  2  0  0  0
 46 47  1  0  0  0
 48 49  2  0  0  0
 48 50  1  0  0  0
 50 51  1  0  0  0
 51 52  1  0  0  0
 51 54  1  0  0  0
 52 53  2  0  0  0
 52 56  1  0  0  0
 54 55  1  0  0  0
 56 57  1  0  0  0
 57 58  1  0  0  0
 57 60  1  0  0  0
 58 59  2  0  0  0
 58 63  1  0  0  0
 60 61  1  0  0  0
 60 62  1  0  0  0
  3 64  1  0  0  0
  3 65  1  0  0  0
  3 66  1  0  0  0
  4 67  1  0  0  0
  5 68  1  0  0  0
  8 69  1  0  0  0
  8 70  1  0  0  0
  9 71  1  0  0  0
  9 72  1  0  0  0
 12 73  1  0  0  0
 12 74  1  0  0  0
 13 75  1  0  0  0
 14 76  1  0  0  0
 17 77  1  0  0  0
 18 78  1  0  0  0
 19 79  1  0  0  0
 19 80  1  0  0  0
 19 81  1  0  0  0
 20 82  1  0  0  0
 21 83  1  0  0  0
 24 84  1  0  0  0
 24 85  1  0  0  0
 24 86  1  0  0  0
 25 87  1  0  0  0
 26 88  1  0  0  0
 29 89  1  0  0  0
 29 90  1  0  0  0
 30 91  1  0  0  0
 30 92  1  0  0  0
 31 93  1  0  0  0
 31 94  1  0  0  0
 32 95  1  0  0  0
 34 96  1  0  0  0
 34 97  1  0  0  0
 35 98  1  0  0  0
 36 99  1  0  0  0
 37100  1  0  0  0
 38101  1  0  0  0
 38102  1  0  0  0
 39103  1  0  0  0
 39104  1  0  0  0
 40105  1  0  0  0
 40106  1  0  0  0
 41107  1  0  0  0
 41108  1  0  0  0
 42109  1  0  0  0
 45110  1  0  0  0
 46111  1  0  0  0
 47112  1  0  0  0
 47113  1  0  0  0
 47114  1  0  0  0
 50115  1  0  0  0
 51116  1  0  0  0
 54117  1  0  0  0
 54118  1  0  0  0
 55119  1  0  0  0
 56120  1  0  0  0
 57121  1  0  0  0
 60122  1  0  0  0
 61123  1  0  0  0
 62124  1  0  0  0
 62125  1  0  0  0
 62126  1  0  0  0
 63127  1  0  0  0
M  END
$$$$
