5a85_ligand
  -I-interpret- 

 58 61  0  0  0  0  0  0  0  0999 V2000
   10.8890    5.3610   12.6890 C   0  0  0  0  0
   11.8790    5.3740   11.5510 C   0  0  0  0  0
   12.6850    4.3130   11.3850 C   0  0  0  0  0
   13.6390    4.3060   10.3070 C   0  0  0  0  0
   14.5180    3.2570   10.0510 C   0  0  0  0  0
   15.3860    3.3780    8.9880 C   0  0  0  0  0
   15.4360    4.4440    8.1710 N   0  0  0  0  0
   14.5990    5.4850    8.3660 C   0  0  0  0  0
   14.7050    6.5310    7.5180 N   0  0  0  0  0
   15.2290    6.4770    6.1590 C   0  0  0  0  0
   15.5010    7.8850    5.6280 C   0  0  0  0  0
   16.0750    7.7900    4.2330 C   0  0  0  0  0
   15.1040    7.1520    3.3400 N   0  3  0  0  0
   14.7820    5.7920    3.7760 C   0  0  0  0  0
   14.2960    5.7110    5.2190 C   0  0  0  0  0
   14.2180    4.3550    5.6920 O   0  0  0  0  0
   13.6740    3.3760    4.8010 C   0  0  0  0  0
   12.5900    2.5710    5.4730 C   0  0  0  0  0
   13.1350    1.7740    6.6500 C   0  0  0  0  0
   12.0810    0.8780    7.2900 C   0  0  0  0  0
   11.4670   -0.0610    6.2710 C   0  0  0  0  0
   10.8950    0.7160    5.1030 C   0  0  0  0  0
   11.9480    1.6180    4.4710 C   0  0  0  0  0
   13.6930    5.4170    9.4570 C   0  0  0  0  0
   12.8390    6.4790    9.6810 N   0  0  0  0  0
   11.9270    6.5390   10.6770 C   0  0  0  0  0
   11.2070    7.5280   10.7890 O   0  0  0  0  0
   10.2121    4.5149   12.5704 H   0  0  0  0  0
   11.4247    5.2697   13.6339 H   0  0  0  0  0
   10.3173    6.2890   12.6822 H   0  0  0  0  0
   12.6173    3.4619   12.0626 H   0  0  0  0  0
   14.5194    2.3635   10.6753 H   0  0  0  0  0
   16.0765    2.5565    8.7973 H   0  0  0  0  0
   14.3904    7.4394    7.8590 H   0  0  0  0  0
   16.1724    5.9321    6.1938 H   0  0  0  0  0
   16.2118    8.3907    6.2816 H   0  0  0  0  0
   14.5701    8.4515    5.6019 H   0  0  0  0  0
   16.9875    7.1944    4.2582 H   0  0  0  0  0
   16.2987    8.7917    3.8660 H   0  0  0  0  0
   15.5098    7.1029    2.4055 H   0  0  0  0  0
   14.2467    7.7045    3.3492 H   0  0  0  0  0
   15.6958    5.2019    3.7058 H   0  0  0  0  0
   13.9759    5.4275    3.1393 H   0  0  0  0  0
   13.3001    6.1541    5.2225 H   0  0  0  0  0
   14.4728    2.6994    4.4973 H   0  0  0  0  0
   13.2443    3.8888    3.9405 H   0  0  0  0  0
   11.8435    3.2710    5.8483 H   0  0  0  0  0
   13.4764    2.4821    7.4051 H   0  0  0  0  0
   13.9376    1.1360    6.2800 H   0  0  0  0  0
   11.2925    1.5081    7.7017 H   0  0  0  0  0
   12.5573    0.2825    8.0689 H   0  0  0  0  0
   10.6635   -0.6221    6.7482 H   0  0  0  0  0
   12.2404   -0.7342    5.9013 H   0  0  0  0  0
   10.0774    1.3384    5.4667 H   0  0  0  0  0
   10.5478    0.0074    4.3510 H   0  0  0  0  0
   12.7341    0.9802    4.0668 H   0  0  0  0  0
   11.4562    2.2197    3.7067 H   0  0  0  0  0
   12.9010    7.2767    9.0484 H   0  0  0  0  0
  1  2  1  0  0  0
  2  3  2  0  0  0
  2 26  1  0  0  0
  3  4  1  0  0  0
  4  5  4  0  0  0
  4 24  4  0  0  0
  5  6  4  0  0  0
  6  7  4  0  0  0
  7  8  4  0  0  0
  8  9  1  0  0  0
  8 24  4  0  0  0
  9 10  1  0  0  0
 10 11  1  0  0  0
 10 15  1  0  0  0
 11 12  1  0  0  0
 12 13  1  0  0  0
 13 14  1  0  0  0
 14 15  1  0  0  0
 15 16  1  0  0  0
 16 17  1  0  0  0
 17 18  1  0  0  0
 18 19  1  0  0  0
 18 23  1  0  0  0
 19 20  1  0  0  0
 20 21  1  0  0  0
 21 22  1  0  0  0
 22 23  1  0  0  0
 24 25  1  0  0  0
 25 26  1  0  0  0
 26 27  2  0  0  0
  1 28  1  0  0  0
  1 29  1  0  0  0
  1 30  1  0  0  0
  3 31  1  0  0  0
  5 32  1  0  0  0
  6 33  1  0  0  0
  9 34  1  0  0  0
 10 35  1  0  0  0
 11 36  1  0  0  0
 11 37  1  0  0  0
 12 38  1  0  0  0
 12 39  1  0  0  0
 13 40  1  0  0  0
 13 41  1  0  0  0
 14 42  1  0  0  0
 14 43  1  0  0  0
 15 44  1  0  0  0
 17 45  1  0  0  0
 17 46  1  0  0  0
 18 47  1  0  0  0
 19 48  1  0  0  0
 19 49  1  0  0  0
 20 50  1  0  0  0
 20 51  1  0  0  0
 21 52  1  0  0  0
 21 53  1  0  0  0
 22 54  1  0  0  0
 22 55  1  0  0  0
 23 56  1  0  0  0
 23 57  1  0  0  0
 25 58  1  0  0  0
M  END
$$$$
