4gq6_ligand
  -I-interpret- 

196200  0  0  0  0  0  0  0  0999 V2000
   -7.0750   20.5640   -5.8480 N   0  3  0  0  0
   -6.8240   19.0630   -5.7530 C   0  0  0  0  0
   -7.3470   18.4670   -4.4360 C   0  0  0  0  0
   -7.1700   19.0560   -3.3540 O   0  0  0  0  0
   -5.3330   18.7030   -5.9220 C   0  0  0  0  0
   -4.8840   18.8860   -7.2700 O   0  0  0  0  0
   -7.9850   17.2950   -4.5420 N   0  0  0  0  0
   -8.5200   16.5760   -3.3730 C   0  0  0  0  0
   -7.3840   16.1920   -2.3630 C   0  0  0  0  0
   -6.2660   15.8730   -2.7620 O   0  0  0  0  0
   -9.3170   15.3530   -3.8360 C   0  0  0  0  0
   -7.6480   16.2460   -1.0640 N   0  0  0  0  0
   -6.6010   15.8620   -0.0890 C   0  0  0  0  0
   -7.0390   14.7230    0.8510 C   0  0  0  0  0
   -8.2100   14.4640    1.0470 O   0  0  0  0  0
   -6.1240   17.0210    0.7900 C   0  0  0  0  0
   -6.3770   18.4250    0.3040 C   0  0  0  0  0
   -6.5740   19.3670    1.4830 C   0  0  0  0  0
   -7.1610   20.6410    1.0400 N   0  0  0  0  0
   -6.6770   21.8580    1.2870 C   0  0  0  0  0
   -5.5860   22.0320    2.0290 N   0  0  0  0  0
   -7.3110   22.9260    0.8050 N   0  0  0  0  0
   -6.0610   14.0910    1.4620 N   0  0  0  0  0
   -6.2880   13.1960    2.6150 C   0  0  0  0  0
   -6.7290   13.8750    3.8920 C   0  0  0  0  0
   -6.1060   14.8530    4.3340 O   0  0  0  0  0
   -4.9280   12.5780    2.9400 C   0  0  0  0  0
   -5.0300   11.6280    4.0490 C   0  0  0  0  0
   -5.7770   10.4560    4.0470 C   0  0  0  0  0
   -4.5080   11.7630    5.4120 C   0  0  0  0  0
   -5.7140    9.8210    5.2680 N   0  0  0  0  0
   -4.9290   10.5440    6.1240 C   0  0  0  0  0
   -3.7590   12.7090    6.0760 C   0  0  0  0  0
   -4.6440   10.3250    7.4530 C   0  0  0  0  0
   -3.4210   12.4480    7.4190 C   0  0  0  0  0
   -3.8530   11.2880    8.0910 C   0  0  0  0  0
   -7.6890   13.2620    4.6100 N   0  0  0  0  0
   -7.9250   13.5790    6.0520 C   0  0  0  0  0
   -8.1200   12.3350    6.8200 C   0  0  0  0  0
   -8.6260   11.3700    6.2710 O   0  0  0  0  0
   -9.1430   14.4640    6.3450 C   0  0  0  0  0
   -8.5740   15.8110    6.7870 C   0  0  0  0  0
   -9.4040   16.9930    6.3880 C   0  0  0  0  0
  -10.3700   17.3190    7.4340 N   0  0  0  0  0
  -10.1880   18.2020    8.4070 C   0  0  0  0  0
   -9.0500   18.8780    8.5250 N   0  0  0  0  0
  -11.1740   18.4410    9.2450 N   0  0  0  0  0
   -7.7370   12.3500    8.0940 N   0  0  0  0  0
   -7.8670   11.1650    8.9270 C   0  0  0  0  0
   -9.2950   10.6830    8.8760 C   0  0  0  0  0
  -10.2350   11.4590    8.9860 O   0  0  0  0  0
   -7.4800   11.4620   10.3930 C   0  0  0  0  0
   -7.3100   10.2330   11.2640 C   0  0  0  0  0
   -8.3410    9.7490   12.0160 C   0  0  0  0  0
   -6.1640    9.4980   11.2450 C   0  0  0  0  0
   -8.1910    8.6430   12.8070 C   0  0  0  0  0
   -6.0050    8.3670   12.0260 C   0  0  0  0  0
   -7.0490    7.9190   12.8150 C   0  0  0  0  0
   -9.5210    9.3580    8.7560 N   0  0  0  0  0
  -10.8930    8.9140    8.5260 C   0  0  0  0  0
  -11.8670    9.3200    9.6410 C   0  0  0  0  0
  -11.5790    9.0990   10.7810 O   0  0  0  0  0
  -10.7540    7.3850    8.4740 C   0  0  0  0  0
   -9.3940    7.2210    7.7680 C   0  0  0  0  0
   -8.5350    8.3130    8.4100 C   0  0  0  0  0
  -12.9710    9.9080    9.2010 N   0  0  0  0  0
  -14.0840   10.3230   10.0880 C   0  0  0  0  0
  -13.6810   11.4800   11.0330 C   0  0  0  0  0
  -14.4370   11.7460   11.9460 O   0  0  0  0  0
  -14.6800    9.1590   10.8680 C   0  0  0  0  0
  -12.6170   12.1910   10.7220 N   0  0  0  0  0
  -12.3650   13.4680   11.4160 C   0  0  0  0  0
  -13.4600   14.4520   10.9710 C   0  0  0  0  0
  -13.7910   14.5250    9.7710 O   0  0  0  0  0
  -10.9840   13.9190   11.0580 C   0  0  0  0  0
  -10.5880   15.2590   11.5510 C   0  0  0  0  0
   -9.2990   15.6840   10.9210 C   0  0  0  0  0
   -8.9260   16.9330   11.5410 N   0  0  0  0  0
   -7.7170   17.4110   11.5190 C   0  0  0  0  0
   -6.8060   16.7990   10.8230 N   0  0  0  0  0
   -7.4460   18.5770   12.1160 N   0  0  0  0  0
  -14.0300   15.2060   11.8970 N   0  0  0  0  0
  -15.0920   16.1320   11.4880 C   0  0  0  0  0
  -14.5740   17.3110   10.6750 C   0  0  0  0  0
  -13.3950   17.5760   10.7040 O   0  0  0  0  0
  -15.6840   16.6100   12.8310 C   0  0  0  0  0
  -14.5020   16.4570   13.7920 C   0  0  0  0  0
  -13.8200   15.1940   13.3480 C   0  0  0  0  0
  -15.4620   18.0320   10.0050 N   0  0  0  0  0
  -15.0380   19.3130    9.3220 C   0  0  0  0  0
  -14.4280   19.0320    7.9830 C   0  0  0  0  0
  -14.3320   17.8610    7.5710 O   0  0  0  0  0
  -13.9640   20.0760    7.2980 N   0  0  0  0  0
  -13.4800   19.9310    5.9060 C   0  0  0  0  0
  -12.0650   20.4890    5.8040 C   0  0  0  0  0
  -11.5386   21.0205    6.8179 O   0  0  0  0  0
  -14.4380   20.6420    4.9220 C   0  0  0  0  0
  -14.0340   20.3880    3.5650 O   0  0  0  0  0
  -14.4870   22.1570    5.2040 C   0  0  0  0  0
  -11.4292   20.4195    4.7184 O   0  0  0  0  0
   -8.0711   20.7490   -5.7303 H   0  0  0  0  0
   -6.5503   21.0423   -5.1157 H   0  0  0  0  0
   -6.7709   20.9012   -6.7613 H   0  0  0  0  0
   -7.3814   18.6240   -6.5804 H   0  0  0  0  0
   -5.2051   17.6526   -5.6606 H   0  0  0  0  0
   -4.7494   19.3599   -5.2771 H   0  0  0  0  0
   -3.9550   18.6518   -7.3312 H   0  0  0  0  0
   -8.1053   16.8841   -5.4678 H   0  0  0  0  0
   -9.1970   17.2387   -2.8340 H   0  0  0  0  0
  -10.1428   15.6775   -4.4692 H   0  0  0  0  0
   -8.6639   14.6879   -4.4010 H   0  0  0  0  0
   -9.7096   14.8262   -2.9663 H   0  0  0  0  0
   -8.5658   16.5499   -0.7388 H   0  0  0  0  0
   -5.7807   15.5277   -0.7242 H   0  0  0  0  0
   -5.0396   16.9216    0.8377 H   0  0  0  0  0
   -6.6858   16.9302    1.7197 H   0  0  0  0  0
   -7.2777   18.4313   -0.3099 H   0  0  0  0  0
   -5.5182   18.7594   -0.2780 H   0  0  0  0  0
   -5.6047   19.5663    1.9399 H   0  0  0  0  0
   -7.2495   18.8984    2.1987 H   0  0  0  0  0
   -8.0196   20.5880    0.4920 H   0  0  0  0  0
   -5.1022   21.2245    2.4218 H   0  0  0  0  0
   -6.9590   23.8620    1.0062 H   0  0  0  0  0
   -8.1484   22.8077    0.2348 H   0  0  0  0  0
   -5.1071   14.2242    1.1262 H   0  0  0  0  0
   -7.0819   12.5087    2.3228 H   0  0  0  0  0
   -4.2429   13.3757    3.2270 H   0  0  0  0  0
   -4.5675   12.0471    2.0590 H   0  0  0  0  0
   -6.3401   10.0868    3.1899 H   0  0  0  0  0
   -3.4394   13.6260    5.5809 H   0  0  0  0  0
   -5.0152    9.4469    7.9814 H   0  0  0  0  0
   -2.8041   13.1685    7.9561 H   0  0  0  0  0
   -3.5650   11.1366    9.1313 H   0  0  0  0  0
   -8.2732   12.5597    4.1562 H   0  0  0  0  0
   -7.0338   14.1339    6.3451 H   0  0  0  0  0
   -9.7774   14.0268    7.1160 H   0  0  0  0  0
   -9.7801   14.5690    5.4669 H   0  0  0  0  0
   -7.6036   15.9231    6.3034 H   0  0  0  0  0
   -8.5346   15.8002    7.8762 H   0  0  0  0  0
   -9.9431   16.7530    5.4716 H   0  0  0  0  0
   -8.7478   17.8496    6.2336 H   0  0  0  0  0
  -11.2620   16.8247    7.4146 H   0  0  0  0  0
   -8.9456   19.5762    9.2612 H   0  0  0  0  0
   -8.2810   18.6986    7.8794 H   0  0  0  0  0
  -12.0621   17.9502    9.1409 H   0  0  0  0  0
   -7.3469   13.2043    8.4920 H   0  0  0  0  0
   -7.1910   10.3995    8.5459 H   0  0  0  0  0
   -8.2929   12.0465   10.8238 H   0  0  0  0  0
   -6.5163   11.9707   10.3701 H   0  0  0  0  0
   -9.3058   10.2552   11.9856 H   0  0  0  0  0
   -5.3469    9.8101   10.5946 H   0  0  0  0  0
   -9.0163    8.3364   13.4497 H   0  0  0  0  0
   -5.0570    7.8291   12.0195 H   0  0  0  0  0
   -6.9548    7.0171   13.4199 H   0  0  0  0  0
  -11.3116    9.3656    7.6266 H   0  0  0  0  0
  -11.5758    6.8906    7.9560 H   0  0  0  0  0
  -10.7955    6.9105    9.4544 H   0  0  0  0  0
   -9.4664    7.3241    6.6853 H   0  0  0  0  0
   -8.9715    6.2242    7.8941 H   0  0  0  0  0
   -7.9792    7.9556    9.2769 H   0  0  0  0  0
   -7.7518    8.6773    7.7452 H   0  0  0  0  0
  -13.0591   10.0839    8.2002 H   0  0  0  0  0
  -14.8654   10.6970    9.4265 H   0  0  0  0  0
  -15.0675    8.4164   10.1705 H   0  0  0  0  0
  -13.9076    8.7068   11.4901 H   0  0  0  0  0
  -15.4900    9.5235   11.4998 H   0  0  0  0  0
  -11.9708   11.8605   10.0053 H   0  0  0  0  0
  -12.4087   13.3859   12.5020 H   0  0  0  0  0
  -10.9527   13.9724    9.9698 H   0  0  0  0  0
  -10.3006   13.2084   11.5228 H   0  0  0  0  0
  -10.4585   15.2164   12.6324 H   0  0  0  0  0
  -11.3651   15.9778   11.2911 H   0  0  0  0  0
   -9.4144   15.8044    9.8438 H   0  0  0  0  0
   -8.5263   14.9300   11.0711 H   0  0  0  0  0
   -9.6488   17.4687   12.0216 H   0  0  0  0  0
   -7.0434   15.9544   10.3027 H   0  0  0  0  0
   -6.5186   18.9923   12.0268 H   0  0  0  0  0
   -8.1667   19.0508   12.6605 H   0  0  0  0  0
  -15.8171   15.6496   10.8326 H   0  0  0  0  0
  -16.5591   16.0374   13.1382 H   0  0  0  0  0
  -16.0684   17.6291   12.7880 H   0  0  0  0  0
  -14.8242   16.4044   14.8320 H   0  0  0  0  0
  -13.8331   17.3170   13.7583 H   0  0  0  0  0
  -12.7662   15.1605   13.6244 H   0  0  0  0  0
  -14.2229   14.3023   13.8282 H   0  0  0  0  0
  -16.4323   17.7225    9.9501 H   0  0  0  0  0
  -14.2967   19.8127    9.9457 H   0  0  0  0  0
  -15.9175   19.9411    9.1804 H   0  0  0  0  0
  -13.9416   20.9943    7.7415 H   0  0  0  0  0
  -13.4593   18.8753    5.6354 H   0  0  0  0  0
  -15.4417   20.2418    5.0655 H   0  0  0  0  0
  -14.6356   20.8340    2.9644 H   0  0  0  0  0
  -14.8397   22.3246    6.2217 H   0  0  0  0  0
  -13.4885   22.5790    5.0900 H   0  0  0  0  0
  -15.1674   22.6347    4.4990 H   0  0  0  0  0
  -11.9747   19.9884    4.0564 H   0  0  0  0  0
  1  2  1  0  0  0
  2  3  1  0  0  0
  2  5  1  0  0  0
  3  4  2  0  0  0
  3  7  1  0  0  0
  5  6  1  0  0  0
  7  8  1  0  0  0
  8  9  1  0  0  0
  8 11  1  0  0  0
  9 10  2  0  0  0
  9 12  1  0  0  0
 12 13  1  0  0  0
 13 14  1  0  0  0
 13 16  1  0  0  0
 14 15  2  0  0  0
 14 23  1  0  0  0
 16 17  1  0  0  0
 17 18  1  0  0  0
 18 19  1  0  0  0
 19 20  1  0  0  0
 20 21  2  0  0  0
 20 22  1  0  0  0
 23 24  1  0  0  0
 24 25  1  0  0  0
 24 27  1  0  0  0
 25 26  2  0  0  0
 25 37  1  0  0  0
 27 28  1  0  0  0
 28 29  4  0  0  0
 28 30  4  0  0  0
 29 31  4  0  0  0
 30 32  4  0  0  0
 30 33  4  0  0  0
 31 32  4  0  0  0
 32 34  4  0  0  0
 33 35  4  0  0  0
 34 36  4  0  0  0
 35 36  4  0  0  0
 37 38  1  0  0  0
 38 39  1  0  0  0
 38 41  1  0  0  0
 39 40  2  0  0  0
 39 48  1  0  0  0
 41 42  1  0  0  0
 42 43  1  0  0  0
 43 44  1  0  0  0
 44 45  1  0  0  0
 45 46  1  0  0  0
 45 47  2  0  0  0
 48 49  1  0  0  0
 49 50  1  0  0  0
 49 52  1  0  0  0
 50 51  2  0  0  0
 50 59  1  0  0  0
 52 53  1  0  0  0
 53 54  4  0  0  0
 53 55  4  0  0  0
 54 56  4  0  0  0
 55 57  4  0  0  0
 56 58  4  0  0  0
 57 58  4  0  0  0
 59 60  1  0  0  0
 59 65  1  0  0  0
 60 61  1  0  0  0
 60 63  1  0  0  0
 61 62  2  0  0  0
 61 66  1  0  0  0
 63 64  1  0  0  0
 64 65  1  0  0  0
 66 67  1  0  0  0
 67 68  1  0  0  0
 67 70  1  0  0  0
 68 69  2  0  0  0
 68 71  1  0  0  0
 71 72  1  0  0  0
 72 73  1  0  0  0
 72 75  1  0  0  0
 73 74  2  0  0  0
 73 82  1  0  0  0
 75 76  1  0  0  0
 76 77  1  0  0  0
 77 78  1  0  0  0
 78 79  1  0  0  0
 79 80  2  0  0  0
 79 81  1  0  0  0
 82 83  1  0  0  0
 82 88  1  0  0  0
 83 84  1  0  0  0
 83 86  1  0  0  0
 84 85  2  0  0  0
 84 89  1  0  0  0
 86 87  1  0  0  0
 87 88  1  0  0  0
 89 90  1  0  0  0
 90 91  1  0  0  0
 91 92  2  0  0  0
 91 93  1  0  0  0
 93 94  1  0  0  0
 94 95  1  0  0  0
 94 97  1  0  0  0
 95 96  2  0  0  0
 97 98  1  0  0  0
 97 99  1  0  0  0
 95100  1  0  0  0
  1101  1  0  0  0
  1102  1  0  0  0
  1103  1  0  0  0
  2104  1  0  0  0
  5105  1  0  0  0
  5106  1  0  0  0
  6107  1  0  0  0
  7108  1  0  0  0
  8109  1  0  0  0
 11110  1  0  0  0
 11111  1  0  0  0
 11112  1  0  0  0
 12113  1  0  0  0
 13114  1  0  0  0
 16115  1  0  0  0
 16116  1  0  0  0
 17117  1  0  0  0
 17118  1  0  0  0
 18119  1  0  0  0
 18120  1  0  0  0
 19121  1  0  0  0
 21122  1  0  0  0
 22123  1  0  0  0
 22124  1  0  0  0
 23125  1  0  0  0
 24126  1  0  0  0
 27127  1  0  0  0
 27128  1  0  0  0
 29129  1  0  0  0
 33130  1  0  0  0
 34131  1  0  0  0
 35132  1  0  0  0
 36133  1  0  0  0
 37134  1  0  0  0
 38135  1  0  0  0
 41136  1  0  0  0
 41137  1  0  0  0
 42138  1  0  0  0
 42139  1  0  0  0
 43140  1  0  0  0
 43141  1  0  0  0
 44142  1  0  0  0
 46143  1  0  0  0
 46144  1  0  0  0
 47145  1  0  0  0
 48146  1  0  0  0
 49147  1  0  0  0
 52148  1  0  0  0
 52149  1  0  0  0
 54150  1  0  0  0
 55151  1  0  0  0
 56152  1  0  0  0
 57153  1  0  0  0
 58154  1  0  0  0
 60155  1  0  0  0
 63156  1  0  0  0
 63157  1  0  0  0
 64158  1  0  0  0
 64159  1  0  0  0
 65160  1  0  0  0
 65161  1  0  0  0
 66162  1  0  0  0
 67163  1  0  0  0
 70164  1  0  0  0
 70165  1  0  0  0
 70166  1  0  0  0
 71167  1  0  0  0
 72168  1  0  0  0
 75169  1  0  0  0
 75170  1  0  0  0
 76171  1  0  0  0
 76172  1  0  0  0
 77173  1  0  0  0
 77174  1  0  0  0
 78175  1  0  0  0
 80176  1  0  0  0
 81177  1  0  0  0
 81178  1  0  0  0
 83179  1  0  0  0
 86180  1  0  0  0
 86181  1  0  0  0
 87182  1  0  0  0
 87183  1  0  0  0
 88184  1  0  0  0
 88185  1  0  0  0
 89186  1  0  0  0
 90187  1  0  0  0
 90188  1  0  0  0
 93189  1  0  0  0
 94190  1  0  0  0
 97191  1  0  0  0
 98192  1  0  0  0
 99193  1  0  0  0
 99194  1  0  0  0
 99195  1  0  0  0
100196  1  0  0  0
M  END
$$$$
