### 
### Created by X-TOOL on Mon Sep 10 21:13:08 2018
### 

@<TRIPOS>MOLECULE
4gq6_ligand
  199   203     1     0     0
SMALL
GAST_HUCK


@<TRIPOS>ATOM
      1 N          -7.0750   20.5640   -5.8480 N.4       1 SER         0.2396
      2 CA         -6.8240   19.0630   -5.7530 C.3       1 SER         0.0885
      3 C          -7.3470   18.4670   -4.4360 C.2       1 SER         0.2290
      4 O          -7.1700   19.0560   -3.3540 O.2       1 SER        -0.3906
      5 CB         -5.3330   18.7030   -5.9220 C.3       1 SER         0.1041
      6 OG         -4.8840   18.8860   -7.2700 O.3       1 SER        -0.3870
      7 N          -7.9850   17.2950   -4.5420 N.am      1 ALA        -0.2612
      8 CA         -8.5200   16.5760   -3.3730 C.3       1 ALA         0.1283
      9 C          -7.3840   16.1920   -2.3630 C.2       1 ALA         0.2036
     10 O          -6.2660   15.8730   -2.7620 O.2       1 ALA        -0.3944
     11 CB         -9.3170   15.3530   -3.8360 C.3       1 ALA        -0.0244
     12 N          -7.6480   16.2460   -1.0640 N.am      1 ARG        -0.2637
     13 CA         -6.6010   15.8620   -0.0890 C.3       1 ARG         0.1311
     14 C          -7.0390   14.7230    0.8510 C.2       1 ARG         0.2040
     15 O          -8.2100   14.4640    1.0470 O.2       1 ARG        -0.3944
     16 CB         -6.1240   17.0210    0.7900 C.3       1 ARG        -0.0092
     17 CG         -6.3770   18.4250    0.3040 C.3       1 ARG        -0.0156
     18 CD         -6.5740   19.3670    1.4830 C.3       1 ARG         0.0627
     19 NE         -7.1610   20.6410    1.0400 N.pl3     1 ARG        -0.2723
     20 CZ         -6.6770   21.8580    1.2870 C.cat     1 ARG         0.2882
     21 NH1        -5.5860   22.0320    2.0290 N.pl3     1 ARG        -0.2849
     22 NH2        -7.3110   22.9260    0.8050 N.pl3     1 ARG        -0.2849
     23 N          -6.0610   14.0910    1.4620 N.am      1 TRP        -0.2627
     24 CA         -6.2880   13.1960    2.6150 C.3       1 TRP         0.1352
     25 C          -6.7290   13.8750    3.8920 C.2       1 TRP         0.2052
     26 O          -6.1060   14.8530    4.3340 O.2       1 TRP        -0.3942
     27 CB         -4.9280   12.5780    2.9400 C.3       1 TRP         0.0042
     28 CG         -5.0300   11.6280    4.0490 C.2       1 TRP        -0.0418
     29 CD1        -5.7770   10.4560    4.0470 C.2       1 TRP         0.0167
     30 CD2        -4.5080   11.7630    5.4120 C.ar      1 TRP        -0.0214
     31 NE1        -5.7140    9.8210    5.2680 N.pl3     1 TRP        -0.2890
     32 CE2        -4.9290   10.5440    6.1240 C.ar      1 TRP         0.0603
     33 CE3        -3.7590   12.7090    6.0760 C.ar      1 TRP        -0.0747
     34 CZ2        -4.6440   10.3250    7.4530 C.ar      1 TRP        -0.0443
     35 CZ3        -3.4210   12.4480    7.4190 C.ar      1 TRP        -0.0792
     36 CH2        -3.8530   11.2880    8.0910 C.ar      1 TRP        -0.0768
     37 N          -7.6890   13.2620    4.6100 N.am      1 ARG        -0.2636
     38 CA         -7.9250   13.5790    6.0520 C.3       1 ARG         0.1311
     39 C          -8.1200   12.3350    6.8200 C.2       1 ARG         0.2040
     40 O          -8.6260   11.3700    6.2710 O.2       1 ARG        -0.3944
     41 CB         -9.1430   14.4640    6.3450 C.3       1 ARG        -0.0092
     42 CG         -8.5740   15.8110    6.7870 C.3       1 ARG        -0.0156
     43 CD         -9.4040   16.9930    6.3880 C.3       1 ARG         0.0627
     44 NE        -10.3700   17.3190    7.4340 N.pl3     1 ARG        -0.2723
     45 CZ        -10.1880   18.2020    8.4070 C.cat     1 ARG         0.2882
     46 NH1        -9.0500   18.8780    8.5250 N.pl3     1 ARG        -0.2849
     47 NH2       -11.1740   18.4410    9.2450 N.pl3     1 ARG        -0.2849
     48 N          -7.7370   12.3500    8.0940 N.am      1 PHE        -0.2619
     49 CA         -7.8670   11.1650    8.9270 C.3       1 PHE         0.1406
     50 C          -9.2950   10.6830    8.8760 C.2       1 PHE         0.2085
     51 O         -10.2350   11.4590    8.9860 O.2       1 PHE        -0.3940
     52 CB         -7.4800   11.4620   10.3930 C.3       1 PHE         0.0214
     53 CG         -7.3100   10.2330   11.2640 C.ar      1 PHE        -0.0386
     54 CD1        -8.3410    9.7490   12.0160 C.ar      1 PHE        -0.0601
     55 CD2        -6.1640    9.4980   11.2450 C.ar      1 PHE        -0.0601
     56 CE1        -8.1910    8.6430   12.8070 C.ar      1 PHE        -0.0686
     57 CE2        -6.0050    8.3670   12.0260 C.ar      1 PHE        -0.0686
     58 CZ         -7.0490    7.9190   12.8150 C.ar      1 PHE        -0.0687
     59 N          -9.5210    9.3580    8.7560 N.am      1 PRO        -0.2497
     60 CA        -10.8930    8.9140    8.5260 C.3       1 PRO         0.1338
     61 C         -11.8670    9.3200    9.6410 C.2       1 PRO         0.2041
     62 O         -11.5790    9.0990   10.7810 O.2       1 PRO        -0.3944
     63 CB        -10.7540    7.3850    8.4740 C.3       1 PRO        -0.0104
     64 CG         -9.3940    7.2210    7.7680 C.3       1 PRO        -0.0281
     65 CD         -8.5350    8.3130    8.4100 C.3       1 PRO         0.0369
     66 N         -12.9710    9.9080    9.2010 N.am      1 ALA        -0.2640
     67 CA        -14.0840   10.3230   10.0880 C.3       1 ALA         0.1282
     68 C         -13.6810   11.4800   11.0330 C.2       1 ALA         0.2036
     69 O         -14.4370   11.7460   11.9460 O.2       1 ALA        -0.3944
     70 CB        -14.6800    9.1590   10.8680 C.3       1 ALA        -0.0244
     71 N         -12.6170   12.1910   10.7220 N.am      1 ARG        -0.2637
     72 CA        -12.3650   13.4680   11.4160 C.3       1 ARG         0.1313
     73 C         -13.4600   14.4520   10.9710 C.2       1 ARG         0.2064
     74 O         -13.7910   14.5250    9.7710 O.2       1 ARG        -0.3942
     75 CB        -10.9840   13.9190   11.0580 C.3       1 ARG        -0.0092
     76 CG        -10.5880   15.2590   11.5510 C.3       1 ARG        -0.0156
     77 CD         -9.2990   15.6840   10.9210 C.3       1 ARG         0.0627
     78 NE         -8.9260   16.9330   11.5410 N.pl3     1 ARG        -0.2723
     79 CZ         -7.7170   17.4110   11.5190 C.cat     1 ARG         0.2882
     80 NH1        -6.8060   16.7990   10.8230 N.pl3     1 ARG        -0.2849
     81 NH2        -7.4460   18.5770   12.1160 N.pl3     1 ARG        -0.2849
     82 N         -14.0300   15.2060   11.8970 N.am      1 PRO        -0.2498
     83 CA        -15.0920   16.1320   11.4880 C.3       1 PRO         0.1338
     84 C         -14.5740   17.3110   10.6750 C.2       1 PRO         0.2039
     85 O         -13.3950   17.5760   10.7040 O.2       1 PRO        -0.3944
     86 CB        -15.6840   16.6100   12.8310 C.3       1 PRO        -0.0104
     87 CG        -14.5020   16.4570   13.7920 C.3       1 PRO        -0.0281
     88 CD        -13.8200   15.1940   13.3480 C.3       1 PRO         0.0369
     89 N         -15.4620   18.0320   10.0050 N.am      1 GLY        -0.2664
     90 CA        -15.0380   19.3130    9.3220 C.3       1 GLY         0.1201
     91 C         -14.4280   19.0320    7.9830 C.2       1 GLY         0.2003
     92 O         -14.3320   17.8610    7.5710 O.2       1 GLY        -0.3947
     93 N         -13.9640   20.0760    7.2980 N.am      1 THR        -0.2672
     94 CA        -13.4800   19.9310    5.9060 C.3       1 THR         0.1198
     95 C         -12.0650   20.4890    5.8040 C.2       1 THR         0.0626
     96 O         -11.5386   21.0205    6.8179 O.co2     1 THR        -0.5665
     97 CB        -14.4380   20.6420    4.9220 C.3       1 THR         0.0869
     98 OG1       -14.0340   20.3880    3.5650 O.3       1 THR        -0.3880
     99 CG2       -14.4870   22.1570    5.2040 C.3       1 THR        -0.0352
    100 O         -11.4292   20.4195    4.7184 O.co2     1 THR        -0.5665
    101 H1         -6.7168   20.9097   -6.7245 H         1 SER         0.2016
    102 H2         -6.6085   21.0316   -5.0866 H         1 SER         0.2016
    103 H3         -8.0656   20.7430   -5.7958 H         1 SER         0.2016
    104 H4         -7.3773   18.5896   -6.5775 H         1 SER         0.1122
    105 H5         -5.1882   17.6497   -5.6399 H         1 SER         0.0640
    106 H6         -4.7355   19.3458   -5.2588 H         1 SER         0.0640
    107 H7         -3.9647   18.6542   -7.3306 H         1 SER         0.2099
    108 H8         -8.1029   16.8921   -5.4496 H         1 ALA         0.1884
    109 H9         -9.2132   17.2505   -2.8491 H         1 ALA         0.0797
    110 H10        -9.7138   14.8205   -2.9591 H         1 ALA         0.0277
    111 H11        -8.6590   14.6809   -4.4063 H         1 ALA         0.0277
    112 H12       -10.1508   15.6791   -4.4751 H         1 ALA         0.0277
    113 H13        -8.5478   16.5439   -0.7452 H         1 ARG         0.1883
    114 H14        -5.7397   15.5065   -0.6737 H         1 ARG         0.0800
    115 H15        -5.0372   16.9095    0.9178 H         1 ARG         0.0313
    116 H16        -6.6205   16.9178    1.7661 H         1 ARG         0.0313
    117 H17        -7.2812   18.4344   -0.3224 H         1 ARG         0.0301
    118 H18        -5.5156   18.7636   -0.2904 H         1 ARG         0.0301
    119 H19        -5.5999   19.5633    1.9547 H         1 ARG         0.0689
    120 H20        -7.2468   18.8946    2.2138 H         1 ARG         0.0689
    121 H21        -8.0281   20.5875    0.4866 H         1 ARG         0.2642
    122 H22        -5.2301   22.9821    2.2066 H         1 ARG         0.2615
    123 H23        -5.0975   21.2166    2.4256 H         1 ARG         0.2615
    124 H24        -8.1566   22.8066    0.2292 H         1 ARG         0.2615
    125 H25        -6.9555   23.8711    1.0081 H         1 ARG         0.2615
    126 H26        -5.1258   14.2216    1.1328 H         1 TRP         0.1884
    127 H27        -7.0230   12.4260    2.3377 H         1 TRP         0.0815
    128 H28        -4.2268   13.3790    3.2170 H         1 TRP         0.0397
    129 H29        -4.5510   12.0520    2.0505 H         1 TRP         0.0397
    130 H30        -6.3396   10.0871    3.1906 H         1 TRP         0.0795
    131 H31        -6.1864    8.9359    5.5011 H         1 TRP         0.2216
    132 H32        -3.4411   13.6209    5.5836 H         1 TRP         0.0540
    133 H33        -5.0131    9.4517    7.9785 H         1 TRP         0.0541
    134 H34        -2.8075   13.1645    7.9531 H         1 TRP         0.0510
    135 H35        -3.5666   11.1374    9.1256 H         1 TRP         0.0530
    136 H36        -8.2618   12.5735    4.1651 H         1 ARG         0.1883
    137 H37        -7.0292   14.0973    6.4248 H         1 ARG         0.0800
    138 H38        -9.7540   14.0235    7.1466 H         1 ARG         0.0313
    139 H39        -9.7568   14.5846    5.4402 H         1 ARG         0.0313
    140 H40        -7.5749   15.9257    6.3413 H         1 ARG         0.0301
    141 H41        -8.4879   15.8053    7.8836 H         1 ARG         0.0301
    142 H42        -9.9431   16.7590    5.4582 H         1 ARG         0.0689
    143 H43        -8.7451   17.8580    6.2220 H         1 ARG         0.0689
    144 H44       -11.2708   16.8199    7.4144 H         1 ARG         0.2642
    145 H45        -8.9321   19.5586    9.2891 H         1 ARG         0.2615
    146 H46        -8.2858   18.7213    7.8524 H         1 ARG         0.2615
    147 H47       -12.0593   17.9213    9.1603 H         1 ARG         0.2615
    148 H48       -11.0605   19.1477    9.9857 H         1 ARG         0.2615
    149 H49        -7.3545   13.1875    8.4842 H         1 PHE         0.1885
    150 H50        -7.2033   10.3797    8.5362 H         1 PHE         0.0823
    151 H51        -8.2681   12.0891   10.8353 H         1 PHE         0.0474
    152 H52        -6.5291   12.0150   10.3912 H         1 PHE         0.0474
    153 H53        -9.3005   10.2524   11.9858 H         1 PHE         0.0557
    154 H54        -5.3514    9.8084   10.5982 H         1 PHE         0.0557
    155 H55        -9.0117    8.3381   13.4461 H         1 PHE         0.0599
    156 H56        -5.0622    7.8320   12.0195 H         1 PHE         0.0599
    157 H57        -6.9553    7.0221   13.4165 H         1 PHE         0.0559
    158 H58       -11.2651    9.3081    7.5688 H         1 PRO         0.0802
    159 H59       -11.5667    6.9277    7.8906 H         1 PRO         0.0313
    160 H60       -10.7371    6.9489    9.4837 H         1 PRO         0.0313
    161 H61        -9.4901    7.3807    6.6839 H         1 PRO         0.0287
    162 H62        -8.9696    6.2237    7.9555 H         1 PRO         0.0287
    163 H63        -8.0266    7.9368    9.3100 H         1 PRO         0.0524
    164 H64        -7.7875    8.6956    7.6995 H         1 PRO         0.0524
    165 H65       -13.0573   10.0805    8.2198 H         1 ALA         0.1883
    166 H66       -14.8800   10.7077    9.4335 H         1 ALA         0.0797
    167 H67       -15.4976    9.5256   11.5060 H         1 ALA         0.0277
    168 H68       -13.9015    8.7017   11.4963 H         1 ALA         0.0277
    169 H69       -15.0715    8.4088   10.1652 H         1 ALA         0.0277
    170 H70       -11.9835   11.8670   10.0194 H         1 ARG         0.1883
    171 H71       -12.4259   13.3283   12.5054 H         1 ARG         0.0800
    172 H72       -10.9073   13.9284    9.9607 H         1 ARG         0.0313
    173 H73       -10.2739   13.1863   11.4690 H         1 ARG         0.0313
    174 H74       -10.4630   15.2215   12.6432 H         1 ARG         0.0301
    175 H75       -11.3733   15.9860   11.2965 H         1 ARG         0.0301
    176 H76        -9.4342   15.8238    9.8383 H         1 ARG         0.0689
    177 H77        -8.5221   14.9258   11.0987 H         1 ARG         0.0689
    178 H78        -9.6559   17.4740   12.0263 H         1 ARG         0.2642
    179 H79        -5.8443   17.1668   10.7968 H         1 ARG         0.2615
    180 H80        -7.0457   15.9461   10.2976 H         1 ARG         0.2615
    181 H81        -8.1738   19.0555   12.6658 H         1 ARG         0.2615
    182 H82        -6.5095   18.9963   12.0259 H         1 ARG         0.2615
    183 H83       -15.8519   15.6009   10.8959 H         1 PRO         0.0802
    184 H84       -16.5302   15.9782   13.1390 H         1 PRO         0.0313
    185 H85       -16.0122   17.6581   12.7694 H         1 PRO         0.0313
    186 H86       -14.8538   16.3650   14.8301 H         1 PRO         0.0287
    187 H87       -13.8204   17.3166   13.7106 H         1 PRO         0.0287
    188 H88       -12.7480   15.2149   13.5937 H         1 PRO         0.0524
    189 H89       -14.2846   14.3097   13.8086 H         1 PRO         0.0524
    190 H90       -16.4133   17.7285    9.9511 H         1 GLY         0.1881
    191 H91       -14.2990   19.8291    9.9525 H         1 GLY         0.0763
    192 H92       -15.9192   19.9575    9.1875 H         1 GLY         0.0763
    193 H93       -13.9421   20.9763    7.7328 H         1 THR         0.1876
    194 H94       -13.4538   18.8613    5.6508 H         1 THR         0.0752
    195 H95       -15.4487   20.2322    5.0652 H         1 THR         0.0632
    196 H96       -13.1519   20.7147    3.4320 H         1 THR         0.2100
    197 H97       -15.1734   22.6402    4.4931 H         1 THR         0.0256
    198 H98       -13.4798   22.5841    5.0892 H         1 THR         0.0256
    199 H99       -14.8428   22.3276    6.2308 H         1 THR         0.0256
@<TRIPOS>BOND
     1    1    2 1  
     2    2    3 1  
     3    2    5 1  
     4    3    4 2  
     5    3    7 am 
     6    5    6 1  
     7    7    8 1  
     8    8    9 1  
     9    8   11 1  
    10    9   10 2  
    11    9   12 am 
    12   12   13 1  
    13   13   14 1  
    14   13   16 1  
    15   14   15 2  
    16   14   23 am 
    17   16   17 1  
    18   17   18 1  
    19   18   19 1  
    20   19   20 ar 
    21   20   21 ar 
    22   20   22 ar 
    23   23   24 1  
    24   24   25 1  
    25   24   27 1  
    26   25   26 2  
    27   25   37 am 
    28   27   28 1  
    29   28   29 2  
    30   28   30 1  
    31   29   31 1  
    32   30   32 ar 
    33   30   33 ar 
    34   31   32 1  
    35   32   34 ar 
    36   33   35 ar 
    37   34   36 ar 
    38   35   36 ar 
    39   37   38 1  
    40   38   39 1  
    41   38   41 1  
    42   39   40 2  
    43   39   48 am 
    44   41   42 1  
    45   42   43 1  
    46   43   44 1  
    47   44   45 ar 
    48   45   46 ar 
    49   45   47 ar 
    50   48   49 1  
    51   49   50 1  
    52   49   52 1  
    53   50   51 2  
    54   50   59 am 
    55   52   53 1  
    56   53   54 ar 
    57   53   55 ar 
    58   54   56 ar 
    59   55   57 ar 
    60   56   58 ar 
    61   57   58 ar 
    62   59   60 1  
    63   59   65 1  
    64   60   61 1  
    65   60   63 1  
    66   61   62 2  
    67   61   66 am 
    68   63   64 1  
    69   64   65 1  
    70   66   67 1  
    71   67   68 1  
    72   67   70 1  
    73   68   69 2  
    74   68   71 am 
    75   71   72 1  
    76   72   73 1  
    77   72   75 1  
    78   73   74 2  
    79   73   82 am 
    80   75   76 1  
    81   76   77 1  
    82   77   78 1  
    83   78   79 ar 
    84   79   80 ar 
    85   79   81 ar 
    86   82   83 1  
    87   82   88 1  
    88   83   84 1  
    89   83   86 1  
    90   84   85 2  
    91   84   89 am 
    92   86   87 1  
    93   87   88 1  
    94   89   90 1  
    95   90   91 1  
    96   91   92 2  
    97   91   93 am 
    98   93   94 1  
    99   94   95 1  
   100   94   97 1  
   101   95   96 ar 
   102   97   98 1  
   103   97   99 1  
   104   95  100 ar 
   105    1  101 1  
   106    1  102 1  
   107    1  103 1  
   108    2  104 1  
   109    5  105 1  
   110    5  106 1  
   111    6  107 1  
   112    7  108 1  
   113    8  109 1  
   114   11  110 1  
   115   11  111 1  
   116   11  112 1  
   117   12  113 1  
   118   13  114 1  
   119   16  115 1  
   120   16  116 1  
   121   17  117 1  
   122   17  118 1  
   123   18  119 1  
   124   18  120 1  
   125   19  121 1  
   126   21  122 1  
   127   21  123 1  
   128   22  124 1  
   129   22  125 1  
   130   23  126 1  
   131   24  127 1  
   132   27  128 1  
   133   27  129 1  
   134   29  130 1  
   135   31  131 1  
   136   33  132 1  
   137   34  133 1  
   138   35  134 1  
   139   36  135 1  
   140   37  136 1  
   141   38  137 1  
   142   41  138 1  
   143   41  139 1  
   144   42  140 1  
   145   42  141 1  
   146   43  142 1  
   147   43  143 1  
   148   44  144 1  
   149   46  145 1  
   150   46  146 1  
   151   47  147 1  
   152   47  148 1  
   153   48  149 1  
   154   49  150 1  
   155   52  151 1  
   156   52  152 1  
   157   54  153 1  
   158   55  154 1  
   159   56  155 1  
   160   57  156 1  
   161   58  157 1  
   162   60  158 1  
   163   63  159 1  
   164   63  160 1  
   165   64  161 1  
   166   64  162 1  
   167   65  163 1  
   168   65  164 1  
   169   66  165 1  
   170   67  166 1  
   171   70  167 1  
   172   70  168 1  
   173   70  169 1  
   174   71  170 1  
   175   72  171 1  
   176   75  172 1  
   177   75  173 1  
   178   76  174 1  
   179   76  175 1  
   180   77  176 1  
   181   77  177 1  
   182   78  178 1  
   183   80  179 1  
   184   80  180 1  
   185   81  181 1  
   186   81  182 1  
   187   83  183 1  
   188   86  184 1  
   189   86  185 1  
   190   87  186 1  
   191   87  187 1  
   192   88  188 1  
   193   88  189 1  
   194   89  190 1  
   195   90  191 1  
   196   90  192 1  
   197   93  193 1  
   198   94  194 1  
   199   97  195 1  
   200   98  196 1  
   201   99  197 1  
   202   99  198 1  
   203   99  199 1  
@<TRIPOS>SUBSTRUCTURE
     1 SER         1

