6qho_ligand
  -I-interpret- 

 38 40  0  0  0  0  0  0  0  0999 V2000
   85.1000   76.4430    4.8140 C   0  0  0  0  0
   85.2840   75.1580    5.5010 C   0  0  0  0  0
   84.6660   73.9830    4.8330 C   0  0  0  0  0
   83.9980   74.1810    3.6720 N   0  0  0  0  0
   83.8780   75.4000    3.1160 C   0  0  0  0  0
   85.0070   82.8200    5.3380 O   0  0  0  0  0
   84.6050   81.8260    5.9160 C   0  0  0  0  0
   83.1270   81.6330    6.1350 C   0  0  0  0  0
   82.6220   82.8890    6.8120 C   0  0  0  0  0
   86.0480   75.3300    6.7050 C   0  0  0  0  0
   85.9450   78.7740    5.5180 C   0  0  0  0  0
   87.4200   79.0950    5.7320 C   0  0  0  0  0
   87.6380   80.6020    5.7220 C   0  0  0  0  0
   86.7840   81.2520    6.7990 C   0  0  0  0  0
   85.0910   79.4990    6.5580 C   0  0  0  0  0
   84.4070   76.5120    3.6540 N   0  0  0  0  0
   85.7380   77.3040    5.6100 N   0  0  0  0  0
   86.3080   76.6690    6.7400 N   0  0  0  0  0
   84.7720   72.7420    5.3670 N   0  0  0  0  0
   85.4340   80.9050    6.3980 N   0  0  0  0  0
   83.3236   75.4904    2.1819 H   0  0  0  0  0
   82.9365   80.7549    6.7520 H   0  0  0  0  0
   82.6119   81.4670    5.1889 H   0  0  0  0  0
   83.1416   83.0228    7.7608 H   0  0  0  0  0
   82.8110   83.7482    6.1684 H   0  0  0  0  0
   81.5510   82.7973    6.9926 H   0  0  0  0  0
   86.3499   74.5681    7.4236 H   0  0  0  0  0
   85.6425   79.1145    4.5277 H   0  0  0  0  0
   88.0029   78.6452    4.9283 H   0  0  0  0  0
   87.7355   78.6956    6.6958 H   0  0  0  0  0
   87.3554   81.0010    4.7478 H   0  0  0  0  0
   88.6889   80.8158    5.9169 H   0  0  0  0  0
   86.9403   82.3284    6.8698 H   0  0  0  0  0
   87.0300   80.9023    7.8017 H   0  0  0  0  0
   85.2899   79.1431    7.5689 H   0  0  0  0  0
   84.0264   79.3193    6.4085 H   0  0  0  0  0
   85.2817   72.6041    6.2397 H   0  0  0  0  0
   84.3421   71.9458    4.8962 H   0  0  0  0  0
  1  2  4  0  0  0
  1 16  4  0  0  0
 17  1  4  0  0  0
  2  3  4  0  0  0
  2 10  4  0  0  0
  3  4  4  0  0  0
  3 19  1  0  0  0
  5  4  4  0  0  0
 16  5  4  0  0  0
  7  6  2  0  0  0
  7  8  1  0  0  0
 20  7  1  0  0  0
  8  9  1  0  0  0
 10 18  4  0  0  0
 12 11  1  0  0  0
 11 15  1  0  0  0
 11 17  1  0  0  0
 13 12  1  0  0  0
 14 13  1  0  0  0
 14 20  1  0  0  0
 15 20  1  0  0  0
 17 18  4  0  0  0
  5 21  1  0  0  0
  8 22  1  0  0  0
  8 23  1  0  0  0
  9 24  1  0  0  0
  9 25  1  0  0  0
  9 26  1  0  0  0
 10 27  1  0  0  0
 11 28  1  0  0  0
 12 29  1  0  0  0
 12 30  1  0  0  0
 13 31  1  0  0  0
 13 32  1  0  0  0
 14 33  1  0  0  0
 14 34  1  0  0  0
 15 35  1  0  0  0
 15 36  1  0  0  0
 19 37  1  0  0  0
 19 38  1  0  0  0
M  END
$$$$
