### 
### Created by X-TOOL on Mon Sep 10 21:13:24 2018
### 

@<TRIPOS>MOLECULE
4xc2_ligand
  174   177     1     0     0
SMALL
GAST_HUCK


@<TRIPOS>ATOM
      1 N          17.6880    5.9830   10.4210 N.4       1 SER         0.2396
      2 CA         18.9150    6.8180   10.2410 C.3       1 SER         0.0885
      3 C          19.9160    6.3580    9.1590 C.2       1 SER         0.2291
      4 O          20.8520    7.0950    8.8570 O.2       1 SER        -0.3906
      5 CB         19.6450    7.0150   11.5800 C.3       1 SER         0.1041
      6 OG         20.3900    5.8730   11.9580 O.3       1 SER        -0.3870
      7 N          19.7180    5.1970    8.5370 N.am      1 ASP        -0.2594
      8 CA         20.4950    4.8820    7.3340 C.3       1 ASP         0.1424
      9 C          20.0270    5.7800    6.1820 C.2       1 ASP         0.2057
     10 O          18.8310    5.8230    5.8630 O.2       1 ASP        -0.3943
     11 CB         20.3630    3.4000    6.9550 C.3       1 ASP         0.0406
     12 CG         21.1200    3.0380    5.6690 C.2       1 ASP         0.0393
     13 OD1        22.1240    3.7050    5.3450 O.co2     1 ASP        -0.5688
     14 OD2        20.7200    2.0660    4.9820 O.co2     1 ASP        -0.5688
     15 N          20.9650    6.5190    5.5920 N.am      1 ASP        -0.2621
     16 CA         20.6880    7.3620    4.4340 C.3       1 ASP         0.1423
     17 C          21.5110    7.0030    3.1770 C.2       1 ASP         0.2057
     18 O          21.6920    7.8390    2.3040 O.2       1 ASP        -0.3943
     19 CB         20.9530    8.8140    4.8040 C.3       1 ASP         0.0406
     20 CG         22.4190    9.1540    4.7620 C.2       1 ASP         0.0393
     21 OD1        23.2200    8.2150    4.6320 O.co2     1 ASP        -0.5688
     22 OD2        22.7590   10.3500    4.7910 O.co2     1 ASP        -0.5688
     23 N          21.9580    5.7520    3.0590 N.am      1 ASP        -0.2621
     24 CA         22.7730    5.3270    1.9070 C.3       1 ASP         0.1423
     25 C          22.0090    5.2670    0.5870 C.2       1 ASP         0.2057
     26 O          22.5850    5.4580   -0.4740 O.2       1 ASP        -0.3943
     27 CB         23.3750    3.9510    2.1720 C.3       1 ASP         0.0406
     28 CG         24.6290    4.0260    3.0040 C.2       1 ASP         0.0393
     29 OD1        25.1760    5.1410    3.1560 O.co2     1 ASP        -0.5688
     30 OD2        25.0600    2.9740    3.5050 O.co2     1 ASP        -0.5688
     31 N          20.7520    4.8560    0.6420 N.am      1 PHE        -0.2618
     32 CA         20.0070    4.6180   -0.5710 C.3       1 PHE         0.1404
     33 C          18.5370    4.9090   -0.3610 C.2       1 PHE         0.2060
     34 O          18.0550    4.9700    0.7710 O.2       1 PHE        -0.3942
     35 CB         20.2040    3.1770   -1.0680 C.3       1 PHE         0.0214
     36 CG         19.6650    2.1270   -0.1510 C.ar      1 PHE        -0.0386
     37 CD1        18.3280    1.7480   -0.2120 C.ar      1 PHE        -0.0601
     38 CD2        20.5170    1.4280    0.6940 C.ar      1 PHE        -0.0601
     39 CE1        17.8320    0.7480    0.6140 C.ar      1 PHE        -0.0686
     40 CE2        20.0320    0.4310    1.5240 C.ar      1 PHE        -0.0686
     41 CZ         18.6920    0.0740    1.4670 C.ar      1 PHE        -0.0687
     42 N          17.8530    5.1190   -1.4730 N.am      1 TRP        -0.2625
     43 CA         16.4490    5.4290   -1.4770 C.3       1 TRP         0.1352
     44 C          15.6650    4.1390   -1.5100 C.2       1 TRP         0.2052
     45 O          15.8320    3.3350   -2.4220 O.2       1 TRP        -0.3942
     46 CB         16.0990    6.2370   -2.7320 C.3       1 TRP         0.0042
     47 CG         16.6960    7.5840   -2.7610 C.2       1 TRP        -0.0418
     48 CD1        17.8700    7.9430   -3.3430 C.2       1 TRP         0.0167
     49 CD2        16.1440    8.7780   -2.2020 C.ar      1 TRP        -0.0214
     50 NE1        18.0890    9.2790   -3.1770 N.pl3     1 TRP        -0.2890
     51 CE2        17.0580    9.8150   -2.4560 C.ar      1 TRP         0.0603
     52 CE3        14.9670    9.0740   -1.5240 C.ar      1 TRP        -0.0747
     53 CZ2        16.8340   11.1260   -2.0530 C.ar      1 TRP        -0.0443
     54 CZ3        14.7760   10.3780   -1.0650 C.ar      1 TRP        -0.0792
     55 CH2        15.6890   11.3880   -1.3670 C.ar      1 TRP        -0.0768
     56 N          14.6780    4.0480   -0.6310 N.am      1 VAL        -0.2634
     57 CA         13.8370    2.8920   -0.5230 C.3       1 VAL         0.1333
     58 C          12.7750    2.9820   -1.6050 C.2       1 VAL         0.2041
     59 O          12.0070    3.9480   -1.6420 O.2       1 VAL        -0.3944
     60 CB         13.1610    2.8780    0.8530 C.3       1 VAL        -0.0063
     61 CG1        12.0100    1.8800    0.8800 C.3       1 VAL        -0.0584
     62 CG2        14.1900    2.6170    1.9380 C.3       1 VAL        -0.0584
     63 N          12.8170    2.0770   -2.5760 N.am      1 ARG        -0.2637
     64 CA         11.8080    2.1070   -3.6230 C.3       1 ARG         0.1311
     65 C          10.5380    1.5440   -3.0630 C.2       1 ARG         0.2039
     66 O          10.3960    0.3430   -2.9840 O.2       1 ARG        -0.3944
     67 CB         12.2370    1.2970   -4.8540 C.3       1 ARG        -0.0092
     68 CG         11.2240    1.3580   -6.0010 C.3       1 ARG        -0.0156
     69 CD         11.6000    0.4140   -7.1320 C.3       1 ARG         0.0627
     70 NE         12.8180    0.8660   -7.8010 N.pl3     1 ARG        -0.2723
     71 CZ         14.0030    0.2880   -7.6740 C.cat     1 ARG         0.2882
     72 NH1        14.1300   -0.8240   -6.9610 N.pl3     1 ARG        -0.2849
     73 NH2        15.0550    0.8050   -8.2990 N.pl3     1 ARG        -0.2849
     74 N           9.5990    2.4060   -2.7030 N.am      1 VAL        -0.2635
     75 CA          8.2820    1.9650   -2.2550 C.3       1 VAL         0.1332
     76 C           7.3610    1.3950   -3.3640 C.2       1 VAL         0.2041
     77 O           7.0670    2.0530   -4.3640 O.2       1 VAL        -0.3944
     78 CB          7.5440    3.1210   -1.5560 C.3       1 VAL        -0.0063
     79 CG1         6.1870    2.6440   -1.0640 C.3       1 VAL        -0.0584
     80 CG2         8.3580    3.6840   -0.3950 C.3       1 VAL        -0.0584
     81 N           6.7620    0.2400   -3.0950 N.am      1 ALA        -0.2640
     82 CA          5.8710   -0.3990   -4.0630 C.3       1 ALA         0.1283
     83 C           4.6330    0.4740   -4.3110 C.2       1 ALA         0.2056
     84 O           4.0690    1.0270   -3.3720 O.2       1 ALA        -0.3942
     85 CB          5.4540   -1.7790   -3.5570 C.3       1 ALA        -0.0244
     86 N           4.1830    0.5690   -5.5720 N.am      1 PRO        -0.2556
     87 CA          2.9120    1.2550   -5.8380 C.3       1 PRO         0.0972
     88 C           1.6770    0.4050   -5.5230 C.2       1 PRO         0.0603
     89 O           1.8080   -0.7390   -5.0810 O.co2     1 PRO        -0.5666
     90 CB          2.9910    1.5760   -7.3310 C.3       1 PRO        -0.0159
     91 CG          3.9100    0.5480   -7.9010 C.3       1 PRO        -0.0288
     92 CD          4.8370    0.0930   -6.8050 C.3       1 PRO         0.0362
     93 OXT         0.5460    0.8610   -5.7100 O.co2     1 PRO        -0.5666
     94 H1         17.1154    6.3799   11.1495 H         1 SER         0.2016
     95 H2         17.9544    5.0450   10.6765 H         1 SER         0.2016
     96 H3         17.1669    5.9612    9.5584 H         1 SER         0.2016
     97 H4         18.5575    7.8074    9.9196 H         1 SER         0.1122
     98 H5         18.9001    7.2261   12.3614 H         1 SER         0.0640
     99 H6         20.3309    7.8699   11.4867 H         1 SER         0.0640
    100 H7         20.8225    6.0387   12.7874 H         1 SER         0.2099
    101 H8         19.0451    4.5456    8.8875 H         1 ASP         0.1886
    102 H9         21.5554    5.0927    7.5369 H         1 ASP         0.0819
    103 H10        19.2973    3.1690    6.8108 H         1 ASP         0.0478
    104 H11        20.7620    2.7908    7.7794 H         1 ASP         0.0478
    105 H12        21.8957    6.4951    5.9571 H         1 ASP         0.1884
    106 H13        19.6233    7.2483    4.1822 H         1 ASP         0.0819
    107 H14        20.5767    8.9944    5.8218 H         1 ASP         0.0478
    108 H15        20.4185    9.4633    4.0950 H         1 ASP         0.0478
    109 H16        21.7345    5.0855    3.7702 H         1 ASP         0.1884
    110 H17        23.5901    6.0544    1.7922 H         1 ASP         0.0819
    111 H18        23.6176    3.4795    1.2083 H         1 ASP         0.0478
    112 H19        22.6336    3.3370    2.7043 H         1 ASP         0.0478
    113 H20        20.3157    4.7094    1.5298 H         1 PHE         0.1885
    114 H21        20.3861    5.3019   -1.3447 H         1 PHE         0.0823
    115 H22        21.2824    3.0016   -1.1951 H         1 PHE         0.0474
    116 H23        19.6990    3.0765   -2.0401 H         1 PHE         0.0474
    117 H24        17.6643    2.2399   -0.9138 H         1 PHE         0.0557
    118 H25        21.5746    1.6656    0.7041 H         1 PHE         0.0557
    119 H26        16.7780    0.4958    0.5919 H         1 PHE         0.0599
    120 H27        20.6981   -0.0698    2.2172 H         1 PHE         0.0599
    121 H28        18.3182   -0.7313    2.0890 H         1 PHE         0.0559
    122 H29        18.3326    5.0597   -2.3485 H         1 TRP         0.1884
    123 H30        16.1917    6.0054   -0.5761 H         1 TRP         0.0815
    124 H31        15.0052    6.3419   -2.7825 H         1 TRP         0.0397
    125 H32        16.4551    5.6814   -3.6121 H         1 TRP         0.0397
    126 H33        18.5396    7.2622   -3.8665 H         1 TRP         0.0795
    127 H34        18.9009    9.8006   -3.5370 H         1 TRP         0.2216
    128 H35        14.2160    8.3106   -1.3560 H         1 TRP         0.0540
    129 H36        17.5463   11.9117   -2.2773 H         1 TRP         0.0541
    130 H37        13.9040   10.6095   -0.4641 H         1 TRP         0.0510
    131 H38        15.4818   12.4032   -1.0484 H         1 TRP         0.0530
    132 H39        14.5124    4.8191   -0.0162 H         1 VAL         0.1883
    133 H40        14.4338    1.9773   -0.6542 H         1 VAL         0.0802
    134 H41        12.7358    3.8765    1.0321 H         1 VAL         0.0343
    135 H42        11.5414    1.8877    1.8752 H         1 VAL         0.0234
    136 H43        12.3934    0.8721    0.6631 H         1 VAL         0.0234
    137 H44        11.2642    2.1598    0.1214 H         1 VAL         0.0234
    138 H45        14.9932    3.3654    1.8692 H         1 VAL         0.0234
    139 H46        14.6143    1.6107    1.8066 H         1 VAL         0.0234
    140 H47        13.7082    2.6859    2.9245 H         1 VAL         0.0234
    141 H48        13.5355    1.3816   -2.5872 H         1 ARG         0.1883
    142 H49        11.6413    3.1503   -3.9292 H         1 ARG         0.0800
    143 H50        12.3625    0.2461   -4.5543 H         1 ARG         0.0313
    144 H51        13.1978    1.6926   -5.2151 H         1 ARG         0.0313
    145 H52        11.1883    2.3858   -6.3912 H         1 ARG         0.0301
    146 H53        10.2324    1.0770   -5.6166 H         1 ARG         0.0301
    147 H54        10.7783    0.3809   -7.8625 H         1 ARG         0.0689
    148 H55        11.7664   -0.5928   -6.7213 H         1 ARG         0.0689
    149 H56        12.7503    1.6912   -8.4137 H         1 ARG         0.2642
    150 H57        15.0528   -1.2711   -6.8641 H         1 ARG         0.2615
    151 H58        13.3057   -1.2400   -6.5045 H         1 ARG         0.2615
    152 H59        14.9528    1.6682   -8.8515 H         1 ARG         0.2615
    153 H60        15.9729    0.3426   -8.2311 H         1 ARG         0.2615
    154 H61         9.7979    3.3854   -2.7392 H         1 VAL         0.1883
    155 H62         8.4445    1.1630   -1.5199 H         1 VAL         0.0802
    156 H63         7.3880    3.9257   -2.2895 H         1 VAL         0.0343
    157 H64         5.6651    3.4743   -0.5658 H         1 VAL         0.0234
    158 H65         6.3251    1.8175   -0.3514 H         1 VAL         0.0234
    159 H66         5.5889    2.2952   -1.9187 H         1 VAL         0.0234
    160 H67         9.3363    4.0251   -0.7645 H         1 VAL         0.0234
    161 H68         8.5052    2.9009    0.3634 H         1 VAL         0.0234
    162 H69         7.8195    4.5320    0.0532 H         1 VAL         0.0234
    163 H70         6.9237   -0.2016   -2.2125 H         1 ALA         0.1883
    164 H71         6.4116   -0.5200   -5.0133 H         1 ALA         0.0797
    165 H72         4.7846   -2.2517   -4.2908 H         1 ALA         0.0277
    166 H73         4.9290   -1.6740   -2.5961 H         1 ALA         0.0277
    167 H74         6.3481   -2.4049   -3.4199 H         1 ALA         0.0277
    168 H75         2.8558    2.1816   -5.2480 H         1 PRO         0.0728
    169 H76         3.3967    2.5863   -7.4879 H         1 PRO         0.0306
    170 H77         1.9961    1.5043   -7.7947 H         1 PRO         0.0306
    171 H78         4.4928    0.9845   -8.7255 H         1 PRO         0.0286
    172 H79         3.3276   -0.3065   -8.2759 H         1 PRO         0.0286
    173 H80         4.9310   -1.0030   -6.8009 H         1 PRO         0.0524
    174 H81         5.8327    0.5460   -6.9206 H         1 PRO         0.0524
@<TRIPOS>BOND
     1    1    2 1  
     2    2    3 1  
     3    2    5 1  
     4    3    4 2  
     5    3    7 am 
     6    5    6 1  
     7    7    8 1  
     8    8    9 1  
     9    8   11 1  
    10    9   10 2  
    11    9   15 am 
    12   11   12 1  
    13   12   13 ar 
    14   12   14 ar 
    15   15   16 1  
    16   16   17 1  
    17   16   19 1  
    18   17   18 2  
    19   17   23 am 
    20   19   20 1  
    21   20   21 ar 
    22   20   22 ar 
    23   23   24 1  
    24   24   25 1  
    25   24   27 1  
    26   25   26 2  
    27   25   31 am 
    28   27   28 1  
    29   28   29 ar 
    30   28   30 ar 
    31   31   32 1  
    32   32   33 1  
    33   32   35 1  
    34   33   34 2  
    35   33   42 am 
    36   35   36 1  
    37   36   37 ar 
    38   36   38 ar 
    39   37   39 ar 
    40   38   40 ar 
    41   39   41 ar 
    42   40   41 ar 
    43   42   43 1  
    44   43   44 1  
    45   43   46 1  
    46   44   45 2  
    47   44   56 am 
    48   46   47 1  
    49   47   48 2  
    50   47   49 1  
    51   48   50 1  
    52   49   51 ar 
    53   49   52 ar 
    54   50   51 1  
    55   51   53 ar 
    56   52   54 ar 
    57   53   55 ar 
    58   54   55 ar 
    59   56   57 1  
    60   57   58 1  
    61   57   60 1  
    62   58   59 2  
    63   58   63 am 
    64   60   61 1  
    65   60   62 1  
    66   63   64 1  
    67   64   65 1  
    68   64   67 1  
    69   65   66 2  
    70   65   74 am 
    71   67   68 1  
    72   68   69 1  
    73   69   70 1  
    74   70   71 ar 
    75   71   72 ar 
    76   71   73 ar 
    77   74   75 1  
    78   75   76 1  
    79   75   78 1  
    80   76   77 2  
    81   76   81 am 
    82   78   79 1  
    83   78   80 1  
    84   81   82 1  
    85   82   83 1  
    86   82   85 1  
    87   83   84 2  
    88   83   86 am 
    89   86   87 1  
    90   86   92 1  
    91   87   88 1  
    92   87   90 1  
    93   88   89 ar 
    94   88   93 ar 
    95   90   91 1  
    96   91   92 1  
    97    1   94 1  
    98    1   95 1  
    99    1   96 1  
   100    2   97 1  
   101    5   98 1  
   102    5   99 1  
   103    6  100 1  
   104    7  101 1  
   105    8  102 1  
   106   11  103 1  
   107   11  104 1  
   108   15  105 1  
   109   16  106 1  
   110   19  107 1  
   111   19  108 1  
   112   23  109 1  
   113   24  110 1  
   114   27  111 1  
   115   27  112 1  
   116   31  113 1  
   117   32  114 1  
   118   35  115 1  
   119   35  116 1  
   120   37  117 1  
   121   38  118 1  
   122   39  119 1  
   123   40  120 1  
   124   41  121 1  
   125   42  122 1  
   126   43  123 1  
   127   46  124 1  
   128   46  125 1  
   129   48  126 1  
   130   50  127 1  
   131   52  128 1  
   132   53  129 1  
   133   54  130 1  
   134   55  131 1  
   135   56  132 1  
   136   57  133 1  
   137   60  134 1  
   138   61  135 1  
   139   61  136 1  
   140   61  137 1  
   141   62  138 1  
   142   62  139 1  
   143   62  140 1  
   144   63  141 1  
   145   64  142 1  
   146   67  143 1  
   147   67  144 1  
   148   68  145 1  
   149   68  146 1  
   150   69  147 1  
   151   69  148 1  
   152   70  149 1  
   153   72  150 1  
   154   72  151 1  
   155   73  152 1  
   156   73  153 1  
   157   74  154 1  
   158   75  155 1  
   159   78  156 1  
   160   79  157 1  
   161   79  158 1  
   162   79  159 1  
   163   80  160 1  
   164   80  161 1  
   165   80  162 1  
   166   81  163 1  
   167   82  164 1  
   168   85  165 1  
   169   85  166 1  
   170   85  167 1  
   171   87  168 1  
   172   90  169 1  
   173   90  170 1  
   174   91  171 1  
   175   91  172 1  
   176   92  173 1  
   177   92  174 1  
@<TRIPOS>SUBSTRUCTURE
     1 SER         1

