4xc2_ligand
  -I-interpret- 

176179  0  0  0  0  0  0  0  0999 V2000
   17.6880    5.9830   10.4210 N   0  3  0  0  0
   18.9150    6.8180   10.2410 C   0  0  0  0  0
   19.9160    6.3580    9.1590 C   0  0  0  0  0
   20.8520    7.0950    8.8570 O   0  0  0  0  0
   19.6450    7.0150   11.5800 C   0  0  0  0  0
   20.3900    5.8730   11.9580 O   0  0  0  0  0
   19.7180    5.1970    8.5370 N   0  0  0  0  0
   20.4950    4.8820    7.3340 C   0  0  0  0  0
   20.0270    5.7800    6.1820 C   0  0  0  0  0
   18.8310    5.8230    5.8630 O   0  0  0  0  0
   20.3630    3.4000    6.9550 C   0  0  0  0  0
   21.1200    3.0380    5.6690 C   0  0  0  0  0
   22.1240    3.7050    5.3450 O   0  0  0  0  0
   20.7200    2.0660    4.9820 O   0  0  0  0  0
   20.9650    6.5190    5.5920 N   0  0  0  0  0
   20.6880    7.3620    4.4340 C   0  0  0  0  0
   21.5110    7.0030    3.1770 C   0  0  0  0  0
   21.6920    7.8390    2.3040 O   0  0  0  0  0
   20.9530    8.8140    4.8040 C   0  0  0  0  0
   22.4190    9.1540    4.7620 C   0  0  0  0  0
   23.2200    8.2150    4.6320 O   0  0  0  0  0
   22.7590   10.3500    4.7910 O   0  0  0  0  0
   21.9580    5.7520    3.0590 N   0  0  0  0  0
   22.7730    5.3270    1.9070 C   0  0  0  0  0
   22.0090    5.2670    0.5870 C   0  0  0  0  0
   22.5850    5.4580   -0.4740 O   0  0  0  0  0
   23.3750    3.9510    2.1720 C   0  0  0  0  0
   24.6290    4.0260    3.0040 C   0  0  0  0  0
   25.1760    5.1410    3.1560 O   0  0  0  0  0
   25.0600    2.9740    3.5050 O   0  0  0  0  0
   20.7520    4.8560    0.6420 N   0  0  0  0  0
   20.0070    4.6180   -0.5710 C   0  0  0  0  0
   18.5370    4.9090   -0.3610 C   0  0  0  0  0
   18.0550    4.9700    0.7710 O   0  0  0  0  0
   20.2040    3.1770   -1.0680 C   0  0  0  0  0
   19.6650    2.1270   -0.1510 C   0  0  0  0  0
   18.3280    1.7480   -0.2120 C   0  0  0  0  0
   20.5170    1.4280    0.6940 C   0  0  0  0  0
   17.8320    0.7480    0.6140 C   0  0  0  0  0
   20.0320    0.4310    1.5240 C   0  0  0  0  0
   18.6920    0.0740    1.4670 C   0  0  0  0  0
   17.8530    5.1190   -1.4730 N   0  0  0  0  0
   16.4490    5.4290   -1.4770 C   0  0  0  0  0
   15.6650    4.1390   -1.5100 C   0  0  0  0  0
   15.8320    3.3350   -2.4220 O   0  0  0  0  0
   16.0990    6.2370   -2.7320 C   0  0  0  0  0
   16.6960    7.5840   -2.7610 C   0  0  0  0  0
   17.8700    7.9430   -3.3430 C   0  0  0  0  0
   16.1440    8.7780   -2.2020 C   0  0  0  0  0
   18.0890    9.2790   -3.1770 N   0  0  0  0  0
   17.0580    9.8150   -2.4560 C   0  0  0  0  0
   14.9670    9.0740   -1.5240 C   0  0  0  0  0
   16.8340   11.1260   -2.0530 C   0  0  0  0  0
   14.7760   10.3780   -1.0650 C   0  0  0  0  0
   15.6890   11.3880   -1.3670 C   0  0  0  0  0
   14.6780    4.0480   -0.6310 N   0  0  0  0  0
   13.8370    2.8920   -0.5230 C   0  0  0  0  0
   12.7750    2.9820   -1.6050 C   0  0  0  0  0
   12.0070    3.9480   -1.6420 O   0  0  0  0  0
   13.1610    2.8780    0.8530 C   0  0  0  0  0
   12.0100    1.8800    0.8800 C   0  0  0  0  0
   14.1900    2.6170    1.9380 C   0  0  0  0  0
   12.8170    2.0770   -2.5760 N   0  0  0  0  0
   11.8080    2.1070   -3.6230 C   0  0  0  0  0
   10.5380    1.5440   -3.0630 C   0  0  0  0  0
   10.3960    0.3430   -2.9840 O   0  0  0  0  0
   12.2370    1.2970   -4.8540 C   0  0  0  0  0
   11.2240    1.3580   -6.0010 C   0  0  0  0  0
   11.6000    0.4140   -7.1320 C   0  0  0  0  0
   12.8180    0.8660   -7.8010 N   0  0  0  0  0
   14.0030    0.2880   -7.6740 C   0  0  0  0  0
   14.1300   -0.8240   -6.9610 N   0  0  0  0  0
   15.0550    0.8050   -8.2990 N   0  0  0  0  0
    9.5990    2.4060   -2.7030 N   0  0  0  0  0
    8.2820    1.9650   -2.2550 C   0  0  0  0  0
    7.3610    1.3950   -3.3640 C   0  0  0  0  0
    7.0670    2.0530   -4.3640 O   0  0  0  0  0
    7.5440    3.1210   -1.5560 C   0  0  0  0  0
    6.1870    2.6440   -1.0640 C   0  0  0  0  0
    8.3580    3.6840   -0.3950 C   0  0  0  0  0
    6.7620    0.2400   -3.0950 N   0  0  0  0  0
    5.8710   -0.3990   -4.0630 C   0  0  0  0  0
    4.6330    0.4740   -4.3110 C   0  0  0  0  0
    4.0690    1.0270   -3.3720 O   0  0  0  0  0
    5.4540   -1.7790   -3.5570 C   0  0  0  0  0
    4.1830    0.5690   -5.5720 N   0  0  0  0  0
    2.9120    1.2550   -5.8380 C   0  0  0  0  0
    1.6770    0.4050   -5.5230 C   0  0  0  0  0
    1.8080   -0.7390   -5.0810 O   0  0  0  0  0
    2.9910    1.5760   -7.3310 C   0  0  0  0  0
    3.9100    0.5480   -7.9010 C   0  0  0  0  0
    4.8370    0.0930   -6.8050 C   0  0  0  0  0
    0.5460    0.8610   -5.7100 O   0  0  0  0  0
   17.2222    5.8668    9.5210 H   0  0  0  0  0
   17.9512    5.0690   10.7895 H   0  0  0  0  0
   17.0564    6.4455   11.0749 H   0  0  0  0  0
   18.5229    7.7627    9.8643 H   0  0  0  0  0
   18.8958    7.2003   12.3497 H   0  0  0  0  0
   20.3377    7.8491   11.4682 H   0  0  0  0  0
   20.8271    6.0405   12.7962 H   0  0  0  0  0
   19.0316    4.5326    8.8945 H   0  0  0  0  0
   21.5491    5.0708    7.5372 H   0  0  0  0  0
   19.3060    3.1939    6.7866 H   0  0  0  0  0
   20.7889    2.8110    7.7672 H   0  0  0  0  0
   19.9401    1.6851    5.3922 H   0  0  0  0  0
   21.9143    6.4946    5.9644 H   0  0  0  0  0
   19.6429    7.1942    4.1739 H   0  0  0  0  0
   20.5969    8.9748    5.8216 H   0  0  0  0  0
   20.4375    9.4472    4.0819 H   0  0  0  0  0
   21.9799   10.9005    4.8983 H   0  0  0  0  0
   21.7300    5.0722    3.7844 H   0  0  0  0  0
   23.5434    6.0908    1.8010 H   0  0  0  0  0
   23.6325    3.5039    1.2118 H   0  0  0  0  0
   22.6406    3.3604    2.7197 H   0  0  0  0  0
   24.6747    5.8092    2.6830 H   0  0  0  0  0
   20.3070    4.7065    1.5475 H   0  0  0  0  0
   20.3884    5.2946   -1.3357 H   0  0  0  0  0
   21.2783    3.0107   -1.1475 H   0  0  0  0  0
   19.6625    3.0871   -2.0097 H   0  0  0  0  0
   17.6606    2.2427   -0.9177 H   0  0  0  0  0
   21.5804    1.6669    0.7041 H   0  0  0  0  0
   16.7721    0.4944    0.5917 H   0  0  0  0  0
   20.7018   -0.0726    2.2211 H   0  0  0  0  0
   18.3162   -0.7357    2.0925 H   0  0  0  0  0
   18.3422    5.0585   -2.3660 H   0  0  0  0  0
   16.2053    6.0068   -0.5855 H   0  0  0  0  0
   15.0163    6.3620   -2.7454 H   0  0  0  0  0
   16.4913    5.6901   -3.5894 H   0  0  0  0  0
   18.5402    7.2616   -3.8670 H   0  0  0  0  0
   14.2118    8.3064   -1.3550 H   0  0  0  0  0
   17.5502   11.9161   -2.2786 H   0  0  0  0  0
   13.8992   10.6108   -0.4608 H   0  0  0  0  0
   15.4807   12.4088   -1.0466 H   0  0  0  0  0
   14.5091    4.8345   -0.0039 H   0  0  0  0  0
   14.4253    1.9818   -0.6396 H   0  0  0  0  0
   12.7257    3.8576    1.0506 H   0  0  0  0  0
   11.2718    2.1583    0.1279 H   0  0  0  0  0
   12.3912    0.8818    0.6649 H   0  0  0  0  0
   11.5465    1.8885    1.8665 H   0  0  0  0  0
   14.6644    1.6515    1.7623 H   0  0  0  0  0
   14.9447    3.4032    1.9179 H   0  0  0  0  0
   13.6971    2.6096    2.9102 H   0  0  0  0  0
   13.5499    1.3677   -2.5874 H   0  0  0  0  0
   11.6681    3.1379   -3.9483 H   0  0  0  0  0
   12.3266    0.2546   -4.5481 H   0  0  0  0  0
   13.1731    1.7207   -5.2178 H   0  0  0  0  0
   11.2086    2.3751   -6.3926 H   0  0  0  0  0
   10.2489    1.0611   -5.6149 H   0  0  0  0  0
   10.7871    0.3933   -7.8578 H   0  0  0  0  0
   11.7740   -0.5792   -6.7180 H   0  0  0  0  0
   12.7510    1.6832   -8.4078 H   0  0  0  0  0
   13.3137   -1.2360   -6.5089 H   0  0  0  0  0
   15.9640    0.3471   -8.2317 H   0  0  0  0  0
   14.9538    1.6598   -8.8462 H   0  0  0  0  0
    9.8019    3.4049   -2.7399 H   0  0  0  0  0
    8.4877    1.1410   -1.5718 H   0  0  0  0  0
    7.4054    3.9221   -2.2821 H   0  0  0  0  0
    5.5954    2.2986   -1.9118 H   0  0  0  0  0
    6.3252    1.8250   -0.3581 H   0  0  0  0  0
    5.6708    3.4675   -0.5705 H   0  0  0  0  0
    8.5377    2.8964    0.3367 H   0  0  0  0  0
    9.3109    4.0585   -0.7689 H   0  0  0  0  0
    7.8050    4.4979    0.0738 H   0  0  0  0  0
    6.9269   -0.2104   -2.1948 H   0  0  0  0  0
    6.4045   -0.5152   -5.0064 H   0  0  0  0  0
    6.3408   -2.3981   -3.4215 H   0  0  0  0  0
    4.9340   -1.6736   -2.6049 H   0  0  0  0  0
    4.7908   -2.2463   -4.2849 H   0  0  0  0  0
    2.7922    2.1317   -5.2015 H   0  0  0  0  0
    3.3581    2.5871   -7.5072 H   0  0  0  0  0
    2.0088    1.5447   -7.8027 H   0  0  0  0  0
    4.4823    0.9710   -8.7266 H   0  0  0  0  0
    3.3381   -0.2967   -8.2851 H   0  0  0  0  0
    4.9837   -0.9871   -6.8069 H   0  0  0  0  0
    5.8447    0.4919   -6.9212 H   0  0  0  0  0
    0.6153    1.7547   -6.0536 H   0  0  0  0  0
  1  2  1  0  0  0
  2  3  1  0  0  0
  2  5  1  0  0  0
  3  4  2  0  0  0
  3  7  1  0  0  0
  5  6  1  0  0  0
  7  8  1  0  0  0
  8  9  1  0  0  0
  8 11  1  0  0  0
  9 10  2  0  0  0
  9 15  1  0  0  0
 11 12  1  0  0  0
 12 13  2  0  0  0
 12 14  1  0  0  0
 15 16  1  0  0  0
 16 17  1  0  0  0
 16 19  1  0  0  0
 17 18  2  0  0  0
 17 23  1  0  0  0
 19 20  1  0  0  0
 20 21  2  0  0  0
 20 22  1  0  0  0
 23 24  1  0  0  0
 24 25  1  0  0  0
 24 27  1  0  0  0
 25 26  2  0  0  0
 25 31  1  0  0  0
 27 28  1  0  0  0
 28 29  1  0  0  0
 28 30  2  0  0  0
 31 32  1  0  0  0
 32 33  1  0  0  0
 32 35  1  0  0  0
 33 34  2  0  0  0
 33 42  1  0  0  0
 35 36  1  0  0  0
 36 37  4  0  0  0
 36 38  4  0  0  0
 37 39  4  0  0  0
 38 40  4  0  0  0
 39 41  4  0  0  0
 40 41  4  0  0  0
 42 43  1  0  0  0
 43 44  1  0  0  0
 43 46  1  0  0  0
 44 45  2  0  0  0
 44 56  1  0  0  0
 46 47  1  0  0  0
 47 48  4  0  0  0
 47 49  4  0  0  0
 48 50  4  0  0  0
 49 51  4  0  0  0
 49 52  4  0  0  0
 50 51  4  0  0  0
 51 53  4  0  0  0
 52 54  4  0  0  0
 53 55  4  0  0  0
 54 55  4  0  0  0
 56 57  1  0  0  0
 57 58  1  0  0  0
 57 60  1  0  0  0
 58 59  2  0  0  0
 58 63  1  0  0  0
 60 61  1  0  0  0
 60 62  1  0  0  0
 63 64  1  0  0  0
 64 65  1  0  0  0
 64 67  1  0  0  0
 65 66  2  0  0  0
 65 74  1  0  0  0
 67 68  1  0  0  0
 68 69  1  0  0  0
 69 70  1  0  0  0
 70 71  1  0  0  0
 71 72  2  0  0  0
 71 73  1  0  0  0
 74 75  1  0  0  0
 75 76  1  0  0  0
 75 78  1  0  0  0
 76 77  2  0  0  0
 76 81  1  0  0  0
 78 79  1  0  0  0
 78 80  1  0  0  0
 81 82  1  0  0  0
 82 83  1  0  0  0
 82 85  1  0  0  0
 83 84  2  0  0  0
 83 86  1  0  0  0
 86 87  1  0  0  0
 86 92  1  0  0  0
 87 88  1  0  0  0
 87 90  1  0  0  0
 88 89  2  0  0  0
 88 93  1  0  0  0
 90 91  1  0  0  0
 91 92  1  0  0  0
  1 94  1  0  0  0
  1 95  1  0  0  0
  1 96  1  0  0  0
  2 97  1  0  0  0
  5 98  1  0  0  0
  5 99  1  0  0  0
  6100  1  0  0  0
  7101  1  0  0  0
  8102  1  0  0  0
 11103  1  0  0  0
 11104  1  0  0  0
 14105  1  0  0  0
 15106  1  0  0  0
 16107  1  0  0  0
 19108  1  0  0  0
 19109  1  0  0  0
 22110  1  0  0  0
 23111  1  0  0  0
 24112  1  0  0  0
 27113  1  0  0  0
 27114  1  0  0  0
 29115  1  0  0  0
 31116  1  0  0  0
 32117  1  0  0  0
 35118  1  0  0  0
 35119  1  0  0  0
 37120  1  0  0  0
 38121  1  0  0  0
 39122  1  0  0  0
 40123  1  0  0  0
 41124  1  0  0  0
 42125  1  0  0  0
 43126  1  0  0  0
 46127  1  0  0  0
 46128  1  0  0  0
 48129  1  0  0  0
 52130  1  0  0  0
 53131  1  0  0  0
 54132  1  0  0  0
 55133  1  0  0  0
 56134  1  0  0  0
 57135  1  0  0  0
 60136  1  0  0  0
 61137  1  0  0  0
 61138  1  0  0  0
 61139  1  0  0  0
 62140  1  0  0  0
 62141  1  0  0  0
 62142  1  0  0  0
 63143  1  0  0  0
 64144  1  0  0  0
 67145  1  0  0  0
 67146  1  0  0  0
 68147  1  0  0  0
 68148  1  0  0  0
 69149  1  0  0  0
 69150  1  0  0  0
 70151  1  0  0  0
 72152  1  0  0  0
 73153  1  0  0  0
 73154  1  0  0  0
 74155  1  0  0  0
 75156  1  0  0  0
 78157  1  0  0  0
 79158  1  0  0  0
 79159  1  0  0  0
 79160  1  0  0  0
 80161  1  0  0  0
 80162  1  0  0  0
 80163  1  0  0  0
 81164  1  0  0  0
 82165  1  0  0  0
 85166  1  0  0  0
 85167  1  0  0  0
 85168  1  0  0  0
 87169  1  0  0  0
 90170  1  0  0  0
 90171  1  0  0  0
 91172  1  0  0  0
 91173  1  0  0  0
 92174  1  0  0  0
 92175  1  0  0  0
 93176  1  0  0  0
M  END
$$$$
