1wbg_ligand
  -I-interpret- 

 21 22  0  0  0  0  0  0  0  0999 V2000
    7.5190   20.2210   53.0210 C   0  0  0  0  0
    8.5770   18.8600   52.4570 S   0  0  0  0  0
    9.3840   19.5630   51.0620 C   0  0  0  0  0
   10.1790   18.9490   50.2190 N   0  0  0  0  0
   10.5760   19.7780   49.3130 N   0  0  0  0  0
   10.0870   20.9810   49.5620 C   0  0  0  0  0
    9.2790   20.8610   50.6640 N   0  0  0  0  0
   10.2170   22.1840   48.7220 C   0  0  0  0  0
   11.1470   22.2490   47.6720 C   0  0  0  0  0
   11.1690   23.3750   46.8460 C   0  0  0  0  0
   10.2670   24.4170   47.0440 C   0  0  0  0  0
   10.2920   25.8450   46.0240 Cl  0  0  0  0  0
    9.3370   24.3230   48.0760 C   0  0  0  0  0
    9.2980   23.2200   48.9040 C   0  0  0  0  0
    8.1396   21.0796   53.2777 H   0  0  0  0  0
    6.8275   20.4960   52.2246 H   0  0  0  0  0
    6.9563   19.9025   53.8985 H   0  0  0  0  0
   11.8448   21.4288   47.5032 H   0  0  0  0  0
   11.8989   23.4386   46.0390 H   0  0  0  0  0
    8.6272   25.1352   48.2325 H   0  0  0  0  0
    8.5529   23.1573   49.6971 H   0  0  0  0  0
  1  2  1  0  0  0
  2  3  1  0  0  0
  3  4  4  0  0  0
  3  7  4  0  0  0
  4  5  4  0  0  0
  5  6  4  0  0  0
  6  7  4  0  0  0
  6  8  1  0  0  0
  8  9  4  0  0  0
  8 14  4  0  0  0
  9 10  4  0  0  0
 10 11  4  0  0  0
 11 12  1  0  0  0
 11 13  4  0  0  0
 13 14  4  0  0  0
  1 15  1  0  0  0
  1 16  1  0  0  0
  1 17  1  0  0  0
  9 18  1  0  0  0
 10 19  1  0  0  0
 13 20  1  0  0  0
 14 21  1  0  0  0
M  END
$$$$
