4o9w_ligand
  -I-interpret- 

 89 88  0  0  0  0  0  0  0  0999 V2000
    4.1940   15.9780   19.1400 N   0  3  0  0  0
    3.8470   15.8230   17.7330 C   0  0  0  0  0
    3.0050   14.5520   17.4990 C   0  0  0  0  0
    2.9620   13.6450   18.3370 O   0  0  0  0  0
    5.1120   15.8800   16.8310 C   0  0  0  0  0
    5.9120   14.5950   16.9190 C   0  0  0  0  0
    4.7530   16.2060   15.3890 C   0  0  0  0  0
    2.3050   14.5160   16.3720 N   0  0  0  0  0
    1.3300   13.4750   16.0900 C   0  0  0  0  0
    1.6690   12.8430   14.7600 C   0  0  0  0  0
    2.3370   13.4580   13.9290 O   0  0  0  0  0
   -0.0650   14.0950   15.9500 C   0  0  0  0  0
   -0.5520   15.0810   17.0040 C   0  0  0  0  0
   -1.7650   15.7930   16.4770 C   0  0  0  0  0
   -0.9070   14.3360   18.2470 C   0  0  0  0  0
    1.1670   11.6350   14.5420 N   0  0  0  0  0
    1.1430   11.0640   13.2040 C   0  0  0  0  0
    0.1000   11.8220   12.3870 C   0  0  0  0  0
   -0.4980   12.7860   12.8820 O   0  0  0  0  0
    0.8520    9.5630   13.2300 C   0  0  0  0  0
   -0.3960    9.2530   13.8440 O   0  0  0  0  0
   -0.1070   11.3950   11.1440 N   0  0  0  0  0
   -0.9280   12.1300   10.1790 C   0  0  0  0  0
   -0.8400   11.4510    8.8020 C   0  0  0  0  0
   -1.7160   12.2140    7.8110 C   0  0  0  0  0
    0.5180   11.5800    8.3870 O   0  0  0  0  0
    1.3410   10.1820    8.3080 P   0  0  0  0  0
    2.6820   10.6300    7.8650 O   0  0  0  0  0
    1.3750    9.4760    9.7460 O   0  0  0  0  0
    0.6410    9.2450    7.2070 O   0  0  0  0  0
   -2.3830   12.2940   10.6280 C   0  0  0  0  0
   -3.0260   11.3300   11.0780 O   0  0  0  0  0
   -2.8820   13.5280   10.5430 N   0  0  0  0  0
   -4.2470   13.8170   10.9860 C   0  0  0  0  0
   -5.2570   13.2370   10.0170 C   0  0  0  0  0
   -4.9860   13.1360    8.8140 O   0  0  0  0  0
   -4.4860   15.3230   11.1100 C   0  0  0  0  0
   -3.5430   16.1330   11.9870 C   0  0  0  0  0
   -4.1600   17.4910   12.2790 C   0  0  0  0  0
   -3.2500   15.4090   13.2620 C   0  0  0  0  0
   -6.4160   12.8490   10.5420 N   0  0  0  0  0
    3.3456   15.9364   19.7048 H   0  0  0  0  0
    4.8260   15.2271   19.4178 H   0  0  0  0  0
    4.6524   16.8786   19.2787 H   0  0  0  0  0
    3.2203   16.6666   17.4437 H   0  0  0  0  0
    5.7415   16.6878   17.2044 H   0  0  0  0  0
    5.3229   13.7732   16.5121 H   0  0  0  0  0
    6.8331   14.7020   16.3461 H   0  0  0  0  0
    6.1531   14.3893   17.9619 H   0  0  0  0  0
    5.6666   16.3235   14.8061 H   0  0  0  0  0
    4.1563   15.3946   14.9721 H   0  0  0  0  0
    4.1798   17.1326   15.3592 H   0  0  0  0  0
    2.4569   15.2468   15.6769 H   0  0  0  0  0
    1.3456   12.7445   16.8989 H   0  0  0  0  0
   -0.7524   13.2519   16.0191 H   0  0  0  0  0
   -0.0210   14.6734   15.0272 H   0  0  0  0  0
    0.2301   15.8058   17.2300 H   0  0  0  0  0
   -1.5030   16.3272   15.5637 H   0  0  0  0  0
   -2.5472   15.0650   16.2620 H   0  0  0  0  0
   -2.1220   16.5017   17.2243 H   0  0  0  0  0
   -1.6961   13.6174   18.0255 H   0  0  0  0  0
   -0.0274   13.8092   18.6171 H   0  0  0  0  0
   -1.2559   15.0391   19.0033 H   0  0  0  0  0
    0.7921   11.0982   15.3241 H   0  0  0  0  0
    2.1254   11.1701   12.7439 H   0  0  0  0  0
    1.6385    9.0805   13.8103 H   0  0  0  0  0
    0.8127    9.2127   12.1986 H   0  0  0  0  0
   -0.5288    8.3023   13.8341 H   0  0  0  0  0
    0.3244   10.5185   10.8506 H   0  0  0  0  0
   -0.5263   13.1410   10.1106 H   0  0  0  0  0
   -1.1640   10.4112    8.8470 H   0  0  0  0  0
   -2.7488   12.2051    8.1593 H   0  0  0  0  0
   -1.3654   13.2433    7.7357 H   0  0  0  0  0
   -1.6569   11.7363    6.8331 H   0  0  0  0  0
    0.4869    9.2043    9.9889 H   0  0  0  0  0
   -0.2234    8.9724    7.5233 H   0  0  0  0  0
   -2.3054   14.2796   10.1647 H   0  0  0  0  0
   -4.3717   13.3569   11.9662 H   0  0  0  0  0
   -5.4662   15.4202   11.5768 H   0  0  0  0  0
   -4.3518   15.7184   10.1032 H   0  0  0  0  0
   -2.6016   16.2727   11.4557 H   0  0  0  0  0
   -4.3293   18.0209   11.3416 H   0  0  0  0  0
   -5.1093   17.3536   12.7967 H   0  0  0  0  0
   -3.4824   18.0690   12.9073 H   0  0  0  0  0
   -4.1800   15.2422   13.8056 H   0  0  0  0  0
   -2.7833   14.4505   13.0350 H   0  0  0  0  0
   -2.5739   16.0084   13.8716 H   0  0  0  0  0
   -7.1364   12.4438    9.9443 H   0  0  0  0  0
   -6.5843   12.9567   11.5422 H   0  0  0  0  0
  1  2  1  0  0  0
  2  3  1  0  0  0
  2  5  1  0  0  0
  3  4  2  0  0  0
  3  8  1  0  0  0
  5  6  1  0  0  0
  5  7  1  0  0  0
  8  9  1  0  0  0
  9 10  1  0  0  0
  9 12  1  0  0  0
 10 11  2  0  0  0
 10 16  1  0  0  0
 12 13  1  0  0  0
 13 14  1  0  0  0
 13 15  1  0  0  0
 16 17  1  0  0  0
 17 18  1  0  0  0
 17 20  1  0  0  0
 18 19  2  0  0  0
 18 22  1  0  0  0
 20 21  1  0  0  0
 22 23  1  0  0  0
 23 24  1  0  0  0
 23 31  1  0  0  0
 24 25  1  0  0  0
 24 26  1  0  0  0
 26 27  1  0  0  0
 27 28  2  0  0  0
 27 29  1  0  0  0
 27 30  1  0  0  0
 31 32  2  0  0  0
 31 33  1  0  0  0
 33 34  1  0  0  0
 34 35  1  0  0  0
 34 37  1  0  0  0
 35 36  2  0  0  0
 35 41  1  0  0  0
 37 38  1  0  0  0
 38 39  1  0  0  0
 38 40  1  0  0  0
  1 42  1  0  0  0
  1 43  1  0  0  0
  1 44  1  0  0  0
  2 45  1  0  0  0
  5 46  1  0  0  0
  6 47  1  0  0  0
  6 48  1  0  0  0
  6 49  1  0  0  0
  7 50  1  0  0  0
  7 51  1  0  0  0
  7 52  1  0  0  0
  8 53  1  0  0  0
  9 54  1  0  0  0
 12 55  1  0  0  0
 12 56  1  0  0  0
 13 57  1  0  0  0
 14 58  1  0  0  0
 14 59  1  0  0  0
 14 60  1  0  0  0
 15 61  1  0  0  0
 15 62  1  0  0  0
 15 63  1  0  0  0
 16 64  1  0  0  0
 17 65  1  0  0  0
 20 66  1  0  0  0
 20 67  1  0  0  0
 21 68  1  0  0  0
 22 69  1  0  0  0
 23 70  1  0  0  0
 24 71  1  0  0  0
 25 72  1  0  0  0
 25 73  1  0  0  0
 25 74  1  0  0  0
 29 75  1  0  0  0
 30 76  1  0  0  0
 33 77  1  0  0  0
 34 78  1  0  0  0
 37 79  1  0  0  0
 37 80  1  0  0  0
 38 81  1  0  0  0
 39 82  1  0  0  0
 39 83  1  0  0  0
 39 84  1  0  0  0
 40 85  1  0  0  0
 40 86  1  0  0  0
 40 87  1  0  0  0
 41 88  1  0  0  0
 41 89  1  0  0  0
M  END
$$$$
