5lyr_ligand
  -I-interpret- 

 46 47  0  0  0  0  0  0  0  0999 V2000
    3.0130   21.7440    6.8940 C   0  0  0  0  0
    2.0670   21.7450    8.0860 C   0  0  0  0  0
    2.6200   22.5430    9.2570 C   0  0  0  0  0
    4.0280   22.0570    9.5850 C   0  0  0  0  0
    4.8910   22.1820    8.3450 C   0  0  0  0  0
    6.3100   21.6560    8.5960 C   0  0  0  0  0
    1.8600   20.3690    8.4450 O   0  0  0  0  0
    1.7510   22.4140   10.4010 O   0  0  0  0  0
    4.5490   22.8690   10.6360 O   0  0  0  0  0
    4.3250   21.3680    7.3150 O   0  0  0  0  0
    7.1380   21.8540    7.4630 O   0  0  0  0  0
    3.4520   23.1130    4.9680 C   0  0  0  0  0
    4.9860   23.3340    4.9500 C   0  0  0  0  0
    2.7180   24.2410    4.2400 C   0  0  0  0  0
    2.9670   23.0720    6.3230 O   0  0  0  0  0
    5.2500   24.5700    5.6030 O   0  0  0  0  0
    5.3900   23.4070    3.5410 N   0  3  0  0  0
    1.3310   23.8370    4.1170 O   0  0  0  0  0
    3.2750   24.4200    2.8260 C   0  0  0  0  0
    2.7020   25.6440    2.1140 C   0  0  0  0  0
    4.7980   24.5180    2.8200 C   0  0  0  0  0
    2.9610   26.8620    2.7860 O   0  0  0  0  0
    2.7191   21.0173    6.1366 H   0  0  0  0  0
    1.1270   22.2295    7.8219 H   0  0  0  0  0
    2.6685   23.5980    8.9874 H   0  0  0  0  0
    4.0158   21.0146    9.9034 H   0  0  0  0  0
    4.9336   23.2355    8.0684 H   0  0  0  0  0
    6.2533   20.5873    8.8029 H   0  0  0  0  0
    6.7381   22.1986    9.4388 H   0  0  0  0  0
    1.5116   19.8911    7.6888 H   0  0  0  0  0
    0.8725   22.7253   10.1709 H   0  0  0  0  0
    3.9930   22.7797   11.4135 H   0  0  0  0  0
    8.0175   21.5164    7.6479 H   0  0  0  0  0
    3.2594   22.1662    4.4634 H   0  0  0  0  0
    5.5304   22.5353    5.4538 H   0  0  0  0  0
    2.8351   25.1731    4.7928 H   0  0  0  0  0
    6.1960   24.7331    5.6066 H   0  0  0  0  0
    5.0753   22.5484    3.0891 H   0  0  0  0  0
    6.4017   23.5352    3.5205 H   0  0  0  0  0
    0.8378   24.5241    3.6628 H   0  0  0  0  0
    2.9660   23.5263    2.2839 H   0  0  0  0  0
    1.6201   25.5192    2.0683 H   0  0  0  0  0
    3.1755   25.7039    1.1340 H   0  0  0  0  0
    5.1472   24.4925    1.7878 H   0  0  0  0  0
    5.0917   25.4483    3.3062 H   0  0  0  0  0
    2.5765   27.5881    2.2895 H   0  0  0  0  0
  1  2  1  0  0  0
  1 10  1  0  0  0
 15  1  1  0  0  0
  2  3  1  0  0  0
  2  7  1  0  0  0
  3  4  1  0  0  0
  3  8  1  0  0  0
  5  4  1  0  0  0
  4  9  1  0  0  0
  5  6  1  0  0  0
 10  5  1  0  0  0
  6 11  1  0  0  0
 12 13  1  0  0  0
 12 14  1  0  0  0
 12 15  1  0  0  0
 13 16  1  0  0  0
 13 17  1  0  0  0
 14 18  1  0  0  0
 14 19  1  0  0  0
 17 21  1  0  0  0
 19 20  1  0  0  0
 19 21  1  0  0  0
 20 22  1  0  0  0
  1 23  1  0  0  0
  2 24  1  0  0  0
  3 25  1  0  0  0
  4 26  1  0  0  0
  5 27  1  0  0  0
  6 28  1  0  0  0
  6 29  1  0  0  0
  7 30  1  0  0  0
  8 31  1  0  0  0
  9 32  1  0  0  0
 11 33  1  0  0  0
 12 34  1  0  0  0
 13 35  1  0  0  0
 14 36  1  0  0  0
 16 37  1  0  0  0
 17 38  1  0  0  0
 17 39  1  0  0  0
 18 40  1  0  0  0
 19 41  1  0  0  0
 20 42  1  0  0  0
 20 43  1  0  0  0
 21 44  1  0  0  0
 21 45  1  0  0  0
 22 46  1  0  0  0
M  END
$$$$
