1fzm_ligand
  -I-interpret- 

135136  0  0  0  0  0  0  0  0999 V2000
   50.4940   57.5700    4.4450 N   0  3  0  0  0
   49.1170   58.1030    4.2320 C   0  0  0  0  0
   48.6510   57.9380    2.7910 C   0  0  0  0  0
   49.4540   57.9230    1.8570 O   0  0  0  0  0
   49.0360   59.5750    4.6570 C   0  0  0  0  0
   49.9950   60.5080    3.9670 C   0  0  0  0  0
   49.6730   61.9510    4.3400 C   0  0  0  0  0
   49.3790   62.0890    5.7660 N   0  0  0  0  0
   48.9820   63.2210    6.3450 C   0  0  0  0  0
   48.8290   64.3240    5.6230 N   0  0  0  0  0
   48.7310   63.2510    7.6480 N   0  0  0  0  0
   47.3350   57.8330    2.6220 N   0  0  0  0  0
   46.7590   57.6070    1.3120 C   0  0  0  0  0
   46.6870   58.7250    0.2950 C   0  0  0  0  0
   46.9080   59.8920    0.5970 O   0  0  0  0  0
   46.3340   58.3390   -0.9240 N   0  0  0  0  0
   46.2180   59.2450   -2.0550 C   0  0  0  0  0
   44.7570   59.6140   -2.2900 C   0  0  0  0  0
   43.8500   58.9310   -1.8160 O   0  0  0  0  0
   46.7610   58.5480   -3.3070 C   0  0  0  0  0
   46.9150   59.4030   -4.5420 C   0  0  0  0  0
   47.8130   60.4790   -4.5620 C   0  0  0  0  0
   46.2140   59.1090   -5.7130 C   0  0  0  0  0
   48.0110   61.2270   -5.7080 C   0  0  0  0  0
   46.4040   59.8580   -6.8740 C   0  0  0  0  0
   47.3130   60.9210   -6.8590 C   0  0  0  0  0
   47.5280   61.6670   -7.9930 O   0  0  0  0  0
   44.5410   60.7150   -2.9990 N   0  0  0  0  0
   43.1920   61.1390   -3.3690 C   0  0  0  0  0
   43.1760   60.8270   -4.8600 C   0  0  0  0  0
   43.8280   61.5040   -5.6570 O   0  0  0  0  0
   42.9630   62.6550   -3.1320 C   0  0  0  0  0
   41.6090   63.0660   -3.6950 C   0  0  0  0  0
   43.0140   62.9600   -1.6420 C   0  0  0  0  0
   42.4530   59.7710   -5.2350 N   0  0  0  0  0
   42.3960   59.3320   -6.6230 C   0  0  0  0  0
   41.6610   60.2220   -7.6180 C   0  0  0  0  0
   40.7240   60.9360   -7.2670 O   0  0  0  0  0
   41.8360   57.9020   -6.6920 C   0  0  0  0  0
   42.6530   56.9240   -5.8710 C   0  0  0  0  0
   42.4300   56.7770   -4.5090 C   0  0  0  0  0
   43.6990   56.2020   -6.4480 C   0  0  0  0  0
   43.2320   55.9390   -3.7290 C   0  0  0  0  0
   44.5090   55.3600   -5.6760 C   0  0  0  0  0
   44.2710   55.2400   -4.3260 C   0  0  0  0  0
   45.0800   54.4470   -3.5450 O   0  0  0  0  0
   42.1170   60.1610   -8.8640 N   0  0  0  0  0
   41.5600   60.9320   -9.9750 C   0  0  0  0  0
   40.4710   60.1370  -10.7000 C   0  0  0  0  0
   40.6090   58.9290  -10.8980 O   0  0  0  0  0
   42.6810   61.2750  -10.9620 C   0  0  0  0  0
   42.2720   62.1910  -12.1010 C   0  0  0  0  0
   41.8830   63.5670  -11.6050 C   0  0  0  0  0
   40.7090   63.9470  -11.6300 O   0  0  0  0  0
   42.8690   64.3180  -11.1300 N   0  0  0  0  0
   39.3980   60.8120  -11.1050 N   0  0  0  0  0
   38.3220   60.1280  -11.8130 C   0  0  0  0  0
   38.6950   59.5160  -13.1590 C   0  0  0  0  0
   39.5040   60.0710  -13.9040 O   0  0  0  0  0
   38.0950   58.3680  -13.4800 N   0  0  0  0  0
   38.3660   57.6730  -14.7430 C   0  0  0  0  0
   37.6520   58.2980  -15.9450 C   0  0  0  0  0
   36.7000   59.0840  -15.7280 O   0  0  0  0  0
   37.9480   56.2010  -14.6330 C   0  0  0  0  0
   38.5740   55.3810  -13.5120 C   0  0  0  0  0
   38.0060   53.9610  -13.5490 C   0  0  0  0  0
   40.0940   55.3700  -13.6800 C   0  0  0  0  0
   38.0400   57.9840  -17.0960 O   0  0  0  0  0
   50.5271   56.5921    4.1570 H   0  0  0  0  0
   51.1566   58.1117    3.8901 H   0  0  0  0  0
   50.7365   57.6431    5.4330 H   0  0  0  0  0
   48.4455   57.5154    4.8580 H   0  0  0  0  0
   49.2864   59.6041    5.7174 H   0  0  0  0  0
   48.0336   59.9161    4.3981 H   0  0  0  0  0
   49.9020   60.3860    2.8878 H   0  0  0  0  0
   51.0126   60.2740    4.2799 H   0  0  0  0  0
   48.7937   62.2631    3.7765 H   0  0  0  0  0
   50.5412   62.5676    4.1073 H   0  0  0  0  0
   49.4850   61.2639    6.3562 H   0  0  0  0  0
   49.0156   64.3072    4.6204 H   0  0  0  0  0
   48.4227   64.1180    8.0882 H   0  0  0  0  0
   48.8464   62.4071    8.2092 H   0  0  0  0  0
   46.7194   57.9133    3.4313 H   0  0  0  0  0
   47.4206   56.8721    0.8534 H   0  0  0  0  0
   45.7159   57.3665    1.5176 H   0  0  0  0  0
   46.1326   57.3508   -1.0764 H   0  0  0  0  0
   46.7859   60.1515   -1.8456 H   0  0  0  0  0
   46.0336   57.7775   -3.5625 H   0  0  0  0  0
   47.7635   58.2055   -3.0505 H   0  0  0  0  0
   48.3658   60.7309   -3.6570 H   0  0  0  0  0
   45.5062   58.2801   -5.7200 H   0  0  0  0  0
   48.7173   62.0572   -5.7025 H   0  0  0  0  0
   45.8509   59.6179   -7.7820 H   0  0  0  0  0
   46.9738   61.3348   -8.7030 H   0  0  0  0  0
   45.3374   61.2802   -3.2935 H   0  0  0  0  0
   42.4132   60.6479   -2.7856 H   0  0  0  0  0
   43.7479   63.2169   -3.6383 H   0  0  0  0  0
   41.5842   62.8599   -4.7651 H   0  0  0  0  0
   40.8225   62.4996   -3.1963 H   0  0  0  0  0
   41.4546   64.1316   -3.5252 H   0  0  0  0  0
   42.2360   62.3939   -1.1297 H   0  0  0  0  0
   43.9901   62.6773   -1.2478 H   0  0  0  0  0
   42.8523   64.0264   -1.4850 H   0  0  0  0  0
   41.9251   59.2562   -4.5302 H   0  0  0  0  0
   43.4340   59.3897   -6.9507 H   0  0  0  0  0
   41.8650   57.5773   -7.7321 H   0  0  0  0  0
   40.8225   57.9160   -6.2911 H   0  0  0  0  0
   41.6139   57.3255   -4.0386 H   0  0  0  0  0
   43.8885   56.2951   -7.5174 H   0  0  0  0  0
   43.0426   55.8356   -2.6606 H   0  0  0  0  0
   45.3225   54.8034   -6.1413 H   0  0  0  0  0
   45.7473   54.0316   -4.0962 H   0  0  0  0  0
   42.9023   59.5395   -9.0575 H   0  0  0  0  0
   41.1152   61.8445   -9.5779 H   0  0  0  0  0
   43.0029   60.3361  -11.4124 H   0  0  0  0  0
   43.4502   61.8001  -10.3956 H   0  0  0  0  0
   41.4093   61.7509  -12.6012 H   0  0  0  0  0
   43.1211   62.2979  -12.7760 H   0  0  0  0  0
   42.6704   65.2500  -10.7661 H   0  0  0  0  0
   43.8253   63.9631  -11.1289 H   0  0  0  0  0
   39.3278   61.8125  -10.9194 H   0  0  0  0  0
   38.0116   59.3007  -11.1748 H   0  0  0  0  0
   37.5616   60.8815  -12.0183 H   0  0  0  0  0
   37.4265   57.9608  -12.8261 H   0  0  0  0  0
   39.4386   57.7631  -14.9147 H   0  0  0  0  0
   38.2738   55.7309  -15.5608 H   0  0  0  0  0
   36.8773   56.2120  -14.4290 H   0  0  0  0  0
   38.3384   55.8230  -12.5439 H   0  0  0  0  0
   36.9250   53.9998  -13.4146 H   0  0  0  0  0
   38.2376   53.5033  -14.5108 H   0  0  0  0  0
   38.4521   53.3716  -12.7479 H   0  0  0  0  0
   40.3487   54.9266  -14.6426 H   0  0  0  0  0
   40.4703   56.3922  -13.6385 H   0  0  0  0  0
   40.5426   54.7835  -12.8783 H   0  0  0  0  0
   38.7778   57.3735  -17.0283 H   0  0  0  0  0
  3  2  1  0  0  0
  2  5  1  0  0  0
  2  1  1  0  0  0
  5  6  1  0  0  0
  6  7  1  0  0  0
  7  8  1  0  0  0
  8  9  1  0  0  0
  9 10  2  0  0  0
  9 11  1  0  0  0
  3  4  2  0  0  0
 14 13  1  0  0  0
 13 12  1  0  0  0
 14 15  2  0  0  0
 18 17  1  0  0  0
 17 20  1  0  0  0
 17 16  1  0  0  0
 20 21  1  0  0  0
 21 23  4  0  0  0
 21 22  4  0  0  0
 22 24  4  0  0  0
 24 26  4  0  0  0
 26 27  1  0  0  0
 25 26  4  0  0  0
 23 25  4  0  0  0
 18 19  2  0  0  0
 30 29  1  0  0  0
 29 32  1  0  0  0
 29 28  1  0  0  0
 32 33  1  0  0  0
 32 34  1  0  0  0
 30 31  2  0  0  0
 37 36  1  0  0  0
 36 39  1  0  0  0
 36 35  1  0  0  0
 39 40  1  0  0  0
 40 42  4  0  0  0
 40 41  4  0  0  0
 41 43  4  0  0  0
 43 45  4  0  0  0
 45 46  1  0  0  0
 44 45  4  0  0  0
 42 44  4  0  0  0
 37 38  2  0  0  0
 49 48  1  0  0  0
 48 51  1  0  0  0
 48 47  1  0  0  0
 51 52  1  0  0  0
 52 53  1  0  0  0
 53 54  2  0  0  0
 53 55  1  0  0  0
 49 50  2  0  0  0
 58 57  1  0  0  0
 57 56  1  0  0  0
 58 59  2  0  0  0
 61 62  1  0  0  0
 61 64  1  0  0  0
 60 61  1  0  0  0
 64 65  1  0  0  0
 65 67  1  0  0  0
 65 66  1  0  0  0
 62 68  1  0  0  0
 62 63  2  0  0  0
 12  3  1  0  0  0
 16 14  1  0  0  0
 28 18  1  0  0  0
 35 30  1  0  0  0
 47 37  1  0  0  0
 56 49  1  0  0  0
 58 60  1  0  0  0
  1 69  1  0  0  0
  1 70  1  0  0  0
  1 71  1  0  0  0
  2 72  1  0  0  0
  5 73  1  0  0  0
  5 74  1  0  0  0
  6 75  1  0  0  0
  6 76  1  0  0  0
  7 77  1  0  0  0
  7 78  1  0  0  0
  8 79  1  0  0  0
 10 80  1  0  0  0
 11 81  1  0  0  0
 11 82  1  0  0  0
 12 83  1  0  0  0
 13 84  1  0  0  0
 13 85  1  0  0  0
 16 86  1  0  0  0
 17 87  1  0  0  0
 20 88  1  0  0  0
 20 89  1  0  0  0
 22 90  1  0  0  0
 23 91  1  0  0  0
 24 92  1  0  0  0
 25 93  1  0  0  0
 27 94  1  0  0  0
 28 95  1  0  0  0
 29 96  1  0  0  0
 32 97  1  0  0  0
 33 98  1  0  0  0
 33 99  1  0  0  0
 33100  1  0  0  0
 34101  1  0  0  0
 34102  1  0  0  0
 34103  1  0  0  0
 35104  1  0  0  0
 36105  1  0  0  0
 39106  1  0  0  0
 39107  1  0  0  0
 41108  1  0  0  0
 42109  1  0  0  0
 43110  1  0  0  0
 44111  1  0  0  0
 46112  1  0  0  0
 47113  1  0  0  0
 48114  1  0  0  0
 51115  1  0  0  0
 51116  1  0  0  0
 52117  1  0  0  0
 52118  1  0  0  0
 55119  1  0  0  0
 55120  1  0  0  0
 56121  1  0  0  0
 57122  1  0  0  0
 57123  1  0  0  0
 60124  1  0  0  0
 61125  1  0  0  0
 64126  1  0  0  0
 64127  1  0  0  0
 65128  1  0  0  0
 66129  1  0  0  0
 66130  1  0  0  0
 66131  1  0  0  0
 67132  1  0  0  0
 67133  1  0  0  0
 67134  1  0  0  0
 68135  1  0  0  0
M  END
$$$$
