5c29_ligand
  -I-interpret- 

 31 32  0  0  0  0  0  0  0  0999 V2000
    4.8620   12.5830   43.4110 C   0  0  0  0  0
    4.5790   14.4130   40.1590 C   0  0  0  0  0
    4.9200   15.8480   39.7370 C   0  0  0  0  0
    8.5560   10.5320   42.1220 C   0  0  0  0  0
    7.5880   11.1960   43.1000 C   0  0  0  0  0
    6.2090   10.5290   43.0670 C   0  0  0  0  0
    3.6910   14.5570   43.7410 C   0  0  0  0  0
    3.7470   14.9190   42.4540 N   0  0  0  0  0
    4.4260   14.0960   41.6270 C   0  0  0  0  0
    4.9680   12.9440   42.0950 N   0  0  0  0  0
    4.1960   13.4030   44.3420 C   0  0  0  0  0
    3.5350   15.2710   39.4330 C   0  0  0  0  0
    4.0380   13.0760   45.8210 C   0  0  0  0  0
    2.8110   15.7030   44.6720 Cl  0  0  0  0  0
    5.4140   11.4470   43.8980 N   0  0  0  0  0
    5.0089   13.4262   39.9869 H   0  0  0  0  0
    5.7164   16.3787   39.2153 H   0  0  0  0  0
    5.3520   16.7476   40.1753 H   0  0  0  0  0
    8.6743    9.4813   42.3869 H   0  0  0  0  0
    8.1588   10.6104   41.1100 H   0  0  0  0  0
    9.5230   11.0323   42.1739 H   0  0  0  0  0
    7.4723   12.2415   42.8144 H   0  0  0  0  0
    7.9941   11.0987   44.1068 H   0  0  0  0  0
    6.2135    9.5030   43.4351 H   0  0  0  0  0
    5.8124   10.4005   42.0599 H   0  0  0  0  0
    2.4888   15.5549   39.5469 H   0  0  0  0  0
    2.8532   15.1859   38.5868 H   0  0  0  0  0
    3.4946   12.1372   45.9282 H   0  0  0  0  0
    5.0230   12.9813   46.2781 H   0  0  0  0  0
    3.4838   13.8762   46.3115 H   0  0  0  0  0
    5.2730   11.2178   44.8819 H   0  0  0  0  0
  1 10  4  0  0  0
 11  1  4  0  0  0
  1 15  1  0  0  0
  2  3  1  0  0  0
  9  2  1  0  0  0
  2 12  1  0  0  0
 12  3  1  0  0  0
  5  4  1  0  0  0
  6  5  1  0  0  0
 15  6  1  0  0  0
  8  7  4  0  0  0
  7 11  4  0  0  0
  7 14  1  0  0  0
  8  9  4  0  0  0
  9 10  4  0  0  0
 11 13  1  0  0  0
  2 16  1  0  0  0
  3 17  1  0  0  0
  3 18  1  0  0  0
  4 19  1  0  0  0
  4 20  1  0  0  0
  4 21  1  0  0  0
  5 22  1  0  0  0
  5 23  1  0  0  0
  6 24  1  0  0  0
  6 25  1  0  0  0
 12 26  1  0  0  0
 12 27  1  0  0  0
 13 28  1  0  0  0
 13 29  1  0  0  0
 13 30  1  0  0  0
 15 31  1  0  0  0
M  END
$$$$
