2p2i_ligand
  -I-interpret- 

 50 53  0  0  0  0  0  0  0  0999 V2000
   39.0830   38.0740   10.2210 C   0  0  0  0  0
   38.4520   36.8620   10.6480 C   0  0  0  0  0
   37.5400   36.9260   11.7810 C   0  0  0  0  0
   37.2160   38.1350   12.5220 C   0  0  0  0  0
   37.8490   39.3560   12.0980 C   0  0  0  0  0
   38.7700   39.2990   10.9530 C   0  0  0  0  0
   39.9550   29.0860   11.2910 C   0  0  0  0  0
   40.3640   27.9400   11.9980 N   0  0  0  0  0
   39.4910   30.1940   12.0660 C   0  0  0  0  0
   39.5020   29.9880   13.5080 C   0  0  0  0  0
   39.9310   28.7730   14.1930 C   0  0  0  0  0
   40.3810   27.7150   13.3640 C   0  0  0  0  0
   36.6970   33.5070   12.7930 C   0  0  0  0  0
   35.3090   33.5010   12.3840 C   0  0  0  0  0
   34.4750   32.3620   12.5770 C   0  0  0  0  0
   35.0560   31.2070   13.1990 C   0  0  0  0  0
   36.3690   31.2060   13.5950 N   0  0  0  0  0
   37.1910   32.3220   13.4080 C   0  0  0  0  0
   38.4940   32.2980   13.8100 N   0  0  0  0  0
   39.0620   31.1190   14.4470 C   0  0  0  0  0
   37.5690   34.6710   12.5260 C   0  0  0  0  0
   36.9230   35.8070   12.2220 N   0  0  0  0  0
   38.7950   34.6450   12.5520 O   0  0  0  0  0
   39.4620   40.4250   10.4230 O   0  0  0  0  0
   39.1060   43.8750   11.8670 C   0  0  0  0  0
   38.3180   44.4460   10.7820 C   0  0  0  0  0
   37.8980   43.7040    9.5990 C   0  0  0  0  0
   38.2810   42.3120    9.4800 C   0  0  0  0  0
   39.0680   41.7400   10.5530 C   0  0  0  0  0
   39.4850   42.4880   11.7400 C   0  0  0  0  0
   39.7739   38.0826    9.3779 H   0  0  0  0  0
   38.6488   35.9182   10.1394 H   0  0  0  0  0
   36.5229   38.1170   13.3631 H   0  0  0  0  0
   37.6512   40.2970   12.6114 H   0  0  0  0  0
   39.9904   29.1269   10.2023 H   0  0  0  0  0
   39.1535   31.1252   11.6110 H   0  0  0  0  0
   39.9068   28.6842   15.2791 H   0  0  0  0  0
   40.7243   26.7688   13.7822 H   0  0  0  0  0
   34.8902   34.3917   11.9157 H   0  0  0  0  0
   33.4313   32.3679   12.2628 H   0  0  0  0  0
   34.4455   30.3183   13.3590 H   0  0  0  0  0
   39.0800   33.1196   13.6618 H   0  0  0  0  0
   39.9621   31.4548   14.9620 H   0  0  0  0  0
   38.2747   30.7036   15.0761 H   0  0  0  0  0
   35.9089   35.8274   12.3298 H   0  0  0  0  0
   39.3958   44.4680   12.7344 H   0  0  0  0  0
   38.0243   45.4928   10.8597 H   0  0  0  0  0
   37.3079   44.1869    8.8201 H   0  0  0  0  0
   37.9878   41.7171    8.6150 H   0  0  0  0  0
   40.0745   42.0036   12.5185 H   0  0  0  0  0
  1  2  4  0  0  0
  6  1  4  0  0  0
  2  3  4  0  0  0
  4  3  4  0  0  0
  3 22  1  0  0  0
  5  4  4  0  0  0
  6  5  4  0  0  0
 24  6  1  0  0  0
  7  8  4  0  0  0
  9  7  4  0  0  0
 12  8  4  0  0  0
 10  9  4  0  0  0
 10 11  4  0  0  0
 20 10  1  0  0  0
 11 12  4  0  0  0
 13 14  4  0  0  0
 13 18  4  0  0  0
 21 13  1  0  0  0
 14 15  4  0  0  0
 15 16  4  0  0  0
 17 16  4  0  0  0
 18 17  4  0  0  0
 18 19  1  0  0  0
 19 20  1  0  0  0
 22 21  1  0  0  0
 21 23  2  0  0  0
 29 24  1  0  0  0
 26 25  4  0  0  0
 25 30  4  0  0  0
 27 26  4  0  0  0
 28 27  4  0  0  0
 28 29  4  0  0  0
 29 30  4  0  0  0
  1 31  1  0  0  0
  2 32  1  0  0  0
  4 33  1  0  0  0
  5 34  1  0  0  0
  7 35  1  0  0  0
  9 36  1  0  0  0
 11 37  1  0  0  0
 12 38  1  0  0  0
 14 39  1  0  0  0
 15 40  1  0  0  0
 16 41  1  0  0  0
 19 42  1  0  0  0
 20 43  1  0  0  0
 20 44  1  0  0  0
 22 45  1  0  0  0
 25 46  1  0  0  0
 26 47  1  0  0  0
 27 48  1  0  0  0
 28 49  1  0  0  0
 30 50  1  0  0  0
M  END
$$$$
