5lo5_ligand
  -I-interpret- 

 55 58  0  0  0  0  0  0  0  0999 V2000
    0.5100   33.7950   25.3510 C   0  0  0  0  0
   -0.6870   33.4170   26.0550 C   0  0  0  0  0
    1.6270   33.4200   26.2310 C   0  0  0  0  0
    1.0540   32.8550   27.3720 C   0  0  0  0  0
    3.1190   33.6010   25.9780 C   0  0  0  0  0
   -0.8540   34.6200   23.4870 C   0  0  0  0  0
   -2.0390   34.2480   24.2000 C   0  0  0  0  0
    3.5660   32.9680   24.6450 C   0  0  0  0  0
   -0.9630   35.2150   22.1870 C   0  0  0  0  0
    3.5350   31.4380   24.7380 C   0  0  0  0  0
    4.2280   30.8200   23.5120 C   0  0  0  0  0
    6.4120   30.3520   24.5190 C   0  0  0  0  0
    7.7130   31.3930   22.1280 C   0  0  0  0  0
    7.8740   30.8140   24.5420 C   0  0  0  0  0
   10.6490   31.1530   24.2650 C   0  0  0  0  0
   11.9530   30.7140   21.7920 C   0  0  0  0  0
    0.4180   34.3960   24.0660 C   0  0  0  0  0
   -0.3110   32.8600   27.2560 N   0  0  0  0  0
   -1.9520   33.6540   25.4670 C   0  0  0  0  0
   -3.2550   34.4690   23.6440 O   0  0  0  0  0
   -1.0640   35.6660   21.1500 N   0  0  0  0  0
    5.6700   31.1410   23.5010 N   0  3  0  0  0
    6.2370   30.9450   22.1400 C   0  0  0  0  0
    8.4620   30.6430   23.1780 N   0  0  0  0  0
    9.8800   30.7960   23.1100 C   0  0  0  0  0
   10.5600   30.5800   21.8710 C   0  0  0  0  0
   12.0390   31.2850   24.1840 C   0  0  0  0  0
   12.7040   31.0650   22.9480 C   0  0  0  0  0
   14.1280   31.1880   22.8760 C   0  0  0  0  0
   15.2590   31.2660   22.8340 N   0  0  0  0  0
    1.6092   32.4681   28.2265 H   0  0  0  0  0
    3.6615   33.1091   26.7853 H   0  0  0  0  0
    3.3275   34.6699   25.9321 H   0  0  0  0  0
    4.5845   33.2882   24.4256 H   0  0  0  0  0
    2.8855   33.2880   23.8559 H   0  0  0  0  0
    2.4984   31.1024   24.7700 H   0  0  0  0  0
    4.0584   31.1238   25.6410 H   0  0  0  0  0
    3.7721   31.2281   22.6100 H   0  0  0  0  0
    4.1112   29.7371   23.5532 H   0  0  0  0  0
    5.9632   30.5046   25.5005 H   0  0  0  0  0
    6.3657   29.2924   24.2676 H   0  0  0  0  0
    7.7723   32.4625   22.3299 H   0  0  0  0  0
    8.1495   31.1880   21.1505 H   0  0  0  0  0
    8.4359   30.2179   25.2611 H   0  0  0  0  0
    7.9227   31.8631   24.8336 H   0  0  0  0  0
   10.1455   31.3235   25.2166 H   0  0  0  0  0
   12.4621   30.5488   20.8424 H   0  0  0  0  0
    1.3224   34.6828   23.5294 H   0  0  0  0  0
   -2.8606   33.3742   26.0001 H   0  0  0  0  0
   -3.9400   34.1659   24.2444 H   0  0  0  0  0
    5.7769   32.1244   23.7499 H   0  0  0  0  0
    6.1752   29.8910   21.8691 H   0  0  0  0  0
    5.6714   31.5388   21.4220 H   0  0  0  0  0
    9.9911   30.3092   20.9815 H   0  0  0  0  0
   12.6126   31.5569   25.0700 H   0  0  0  0  0
  1  2  4  0  0  0
  3  1  4  0  0  0
  1 17  4  0  0  0
 18  2  4  0  0  0
  2 19  4  0  0  0
  3  4  4  0  0  0
  5  3  1  0  0  0
  4 18  4  0  0  0
  8  5  1  0  0  0
  6  7  4  0  0  0
  6  9  1  0  0  0
 17  6  4  0  0  0
 19  7  4  0  0  0
  7 20  1  0  0  0
 10  8  1  0  0  0
  9 21  3  0  0  0
 11 10  1  0  0  0
 22 11  1  0  0  0
 14 12  1  0  0  0
 12 22  1  0  0  0
 13 23  1  0  0  0
 24 13  1  0  0  0
 24 14  1  0  0  0
 25 15  4  0  0  0
 15 27  4  0  0  0
 26 16  4  0  0  0
 16 28  4  0  0  0
 23 22  1  0  0  0
 25 24  1  0  0  0
 25 26  4  0  0  0
 27 28  4  0  0  0
 28 29  1  0  0  0
 29 30  3  0  0  0
  4 31  1  0  0  0
  5 32  1  0  0  0
  5 33  1  0  0  0
  8 34  1  0  0  0
  8 35  1  0  0  0
 10 36  1  0  0  0
 10 37  1  0  0  0
 11 38  1  0  0  0
 11 39  1  0  0  0
 12 40  1  0  0  0
 12 41  1  0  0  0
 13 42  1  0  0  0
 13 43  1  0  0  0
 14 44  1  0  0  0
 14 45  1  0  0  0
 15 46  1  0  0  0
 16 47  1  0  0  0
 17 48  1  0  0  0
 19 49  1  0  0  0
 20 50  1  0  0  0
 22 51  1  0  0  0
 23 52  1  0  0  0
 23 53  1  0  0  0
 26 54  1  0  0  0
 27 55  1  0  0  0
M  END
$$$$
