4zx0_ligand
  -I-interpret- 

 53 54  0  0  0  0  0  0  0  0999 V2000
   -2.1120    5.2750   11.9850 C   0  0  0  0  0
   -0.7750    5.8950   11.9330 C   0  0  0  0  0
    0.1990    5.1520   11.0810 C   0  0  0  0  0
   -0.0080    3.7460   10.6720 C   0  0  0  0  0
   -1.1050    3.0430   11.4630 C   0  0  0  0  0
   -1.3690    1.7160   11.1600 C   0  0  0  0  0
   -0.8440    7.3450   11.6640 O   0  0  0  0  0
    1.0560    5.8550   10.1590 O   0  0  0  0  0
    0.1590    3.4160    9.3270 O   0  0  0  0  0
   -2.6110    1.3990   11.7020 O   0  0  0  0  0
   -3.3830    0.4860   11.0030 C   0  0  0  0  0
   -3.2210    0.2870    9.8670 O   0  0  0  0  0
   -4.4310   -0.2420   11.8440 C   0  0  0  0  0
   -2.1550    3.8720   12.0900 O   0  0  0  0  0
   -2.8810    5.7780   13.5760 S   0  0  0  0  0
   -1.8170    5.8150   14.6920 O   0  0  0  0  0
   -3.4730    7.1430   13.1820 O   0  0  0  0  0
   -3.9370    4.9210   13.9680 N   0  0  0  0  0
   -3.7270    3.9060   14.5620 C   0  0  0  0  0
   -5.1730    3.1400   14.5860 C   0  0  0  0  0
   -4.9830    1.7090   15.0960 O   0  0  0  0  0
   -5.6870    1.0490   16.4810 S   0  0  0  0  0
   -4.7970    1.5760   17.5790 O   0  0  0  0  0
   -7.1810    1.3700   16.6650 O   0  0  0  0  0
   -5.2550   -0.4960   16.4730 N   0  0  0  0  0
   -5.5250    3.2560   13.4790 C   0  0  0  0  0
   -5.0470    4.6570   13.0340 C   0  0  0  0  0
   -6.1490    5.6680   13.1830 C   0  0  0  0  0
   -6.6220    5.8290   14.1980 O   0  0  0  0  0
   -6.4760    6.3960   12.0660 O   0  0  0  0  0
   -7.3360    7.4680   12.1820 C   0  0  0  0  0
   -2.5832    5.5865   11.0528 H   0  0  0  0  0
   -0.3554    5.8060   12.9350 H   0  0  0  0  0
    0.7400    5.0571   12.0225 H   0  0  0  0  0
    0.9013    3.2460   11.0055 H   0  0  0  0  0
   -0.7210    1.0428   10.5988 H   0  0  0  0  0
   -1.4894    7.7476   12.2497 H   0  0  0  0  0
    1.1677    6.7613   10.4552 H   0  0  0  0  0
    0.8799    3.9323    8.9591 H   0  0  0  0  0
   -5.4222   -0.0494   11.4335 H   0  0  0  0  0
   -4.2302   -1.3132   11.8248 H   0  0  0  0  0
   -4.3854    0.1192   12.8714 H   0  0  0  0  0
   -3.3456    4.0912   15.5662 H   0  0  0  0  0
   -2.9537    3.3048   14.0838 H   0  0  0  0  0
   -5.9313    3.5344   15.2624 H   0  0  0  0  0
   -4.5439   -0.8301   17.1235 H   0  0  0  0  0
   -5.6915   -1.1442   15.8175 H   0  0  0  0  0
   -6.6073    3.1590   13.3933 H   0  0  0  0  0
   -5.1084    2.4734   12.8449 H   0  0  0  0  0
   -4.7497    4.7131   11.9868 H   0  0  0  0  0
   -8.2949    7.1227   12.5686 H   0  0  0  0  0
   -6.9098    8.2017   12.8663 H   0  0  0  0  0
   -7.4806    7.9238   11.2025 H   0  0  0  0  0
  1  2  1  0  0  0
  1 14  1  0  0  0
  1 15  1  0  0  0
  2  3  1  0  0  0
  2  7  1  0  0  0
  3  4  1  0  0  0
  3  8  1  0  0  0
  4  5  1  0  0  0
  4  9  1  0  0  0
  5  6  2  0  0  0
  5 14  1  0  0  0
  6 10  1  0  0  0
 10 11  1  0  0  0
 11 12  2  0  0  0
 11 13  1  0  0  0
 15 16  2  0  0  0
 15 17  2  0  0  0
 15 18  1  0  0  0
 18 19  1  0  0  0
 18 27  1  0  0  0
 19 20  1  0  0  0
 20 21  1  0  0  0
 20 26  1  0  0  0
 21 22  1  0  0  0
 22 23  2  0  0  0
 22 24  2  0  0  0
 22 25  1  0  0  0
 26 27  1  0  0  0
 27 28  1  0  0  0
 28 29  2  0  0  0
 28 30  1  0  0  0
 30 31  1  0  0  0
  1 32  1  0  0  0
  2 33  1  0  0  0
  3 34  1  0  0  0
  4 35  1  0  0  0
  6 36  1  0  0  0
  7 37  1  0  0  0
  8 38  1  0  0  0
  9 39  1  0  0  0
 13 40  1  0  0  0
 13 41  1  0  0  0
 13 42  1  0  0  0
 19 43  1  0  0  0
 19 44  1  0  0  0
 20 45  1  0  0  0
 25 46  1  0  0  0
 25 47  1  0  0  0
 26 48  1  0  0  0
 26 49  1  0  0  0
 27 50  1  0  0  0
 31 51  1  0  0  0
 31 52  1  0  0  0
 31 53  1  0  0  0
M  END
$$$$
