3wtl_ligand
  -I-interpret- 

 28 29  0  0  0  0  0  0  0  0999 V2000
   28.8470  -23.9490  -33.6410 Cl  0  0  0  0  0
   29.5030  -24.9020  -32.3930 C   0  0  0  0  0
   30.1050  -24.2000  -31.3710 N   0  0  0  0  0
   30.6600  -24.9380  -30.3450 C   0  0  0  0  0
   30.6410  -26.3590  -30.2890 C   0  0  0  0  0
   31.2740  -27.1620  -29.1540 C   0  0  0  0  0
   30.7630  -26.8810  -27.8110 N   0  0  0  0  0
   29.9980  -27.0260  -31.3750 C   0  0  0  0  0
   29.4190  -26.2990  -32.4440 C   0  0  0  0  0
   29.5730  -27.2800  -27.1910 C   0  0  0  0  0
   28.6110  -28.0460  -27.7510 C   0  0  0  0  0
   29.5680  -26.7520  -25.9240 N   0  0  0  0  0
   30.7400  -25.9720  -25.6060 C   0  0  0  0  0
   31.5810  -26.0510  -26.9020 C   0  0  0  0  0
   27.3890  -28.4380  -27.0760 N   0  0  0  0  0
   27.1540  -28.0770  -25.9030 O   0  0  0  0  0
   26.6330  -29.1370  -27.7540 O   0  0  0  0  0
   31.1417  -24.3995  -29.5289 H   0  0  0  0  0
   32.3312  -26.8969  -29.1423 H   0  0  0  0  0
   31.0489  -28.2093  -29.3556 H   0  0  0  0  0
   29.9517  -28.1150  -31.3818 H   0  0  0  0  0
   28.9274  -26.8069  -33.2737 H   0  0  0  0  0
   28.7630  -28.3907  -28.7738 H   0  0  0  0  0
   28.8032  -26.8981  -25.2651 H   0  0  0  0  0
   31.2739  -26.3520  -24.7350 H   0  0  0  0  0
   30.4987  -24.9472  -25.3237 H   0  0  0  0  0
   31.7900  -25.0658  -27.3189 H   0  0  0  0  0
   32.5679  -26.4797  -26.7279 H   0  0  0  0  0
  1  2  1  0  0  0
  2  3  4  0  0  0
  2  9  4  0  0  0
  3  4  4  0  0  0
  4  5  4  0  0  0
  5  6  1  0  0  0
  5  8  4  0  0  0
  6  7  1  0  0  0
  7 10  1  0  0  0
  7 14  1  0  0  0
  8  9  4  0  0  0
 10 11  2  0  0  0
 10 12  1  0  0  0
 11 15  1  0  0  0
 12 13  1  0  0  0
 13 14  1  0  0  0
 15 16  2  0  0  0
 15 17  2  0  0  0
  4 18  1  0  0  0
  6 19  1  0  0  0
  6 20  1  0  0  0
  8 21  1  0  0  0
  9 22  1  0  0  0
 11 23  1  0  0  0
 12 24  1  0  0  0
 13 25  1  0  0  0
 13 26  1  0  0  0
 14 27  1  0  0  0
 14 28  1  0  0  0
M  END
$$$$
