5h9p_ligand
  -I-interpret- 

 75 80  0  0  0  0  0  0  0  0999 V2000
  -20.2110    9.0800   -1.1850 C   0  0  0  0  0
  -18.7240    9.2830   -0.9690 C   0  0  0  0  0
  -17.9600    8.0440   -1.2040 C   0  0  0  0  0
  -18.4500    6.8610   -0.4770 C   0  0  0  0  0
  -19.9290    6.6460   -0.7200 C   0  0  0  0  0
  -20.4760    5.5710    0.1180 C   0  0  0  0  0
  -14.4200    8.3190   -1.7470 N   0  0  0  0  0
  -28.3730    8.6840    3.6960 C   0  0  0  0  0
  -28.9340    9.3350    4.7610 C   0  0  0  0  0
  -29.7820    8.6300    5.6480 C   0  0  0  0  0
  -22.8120    9.9560   -0.8300 C   0  0  0  0  0
  -21.1350   10.3990   -0.4910 S   0  0  0  0  0
  -20.7530    7.8550   -0.5670 O   0  0  0  0  0
  -23.2860   10.5740   -2.1010 O   0  0  0  0  0
  -24.6600   10.1430   -2.4180 C   0  0  0  0  0
  -25.1400   10.8870   -3.6270 C   0  0  0  0  0
  -21.7560    5.3220   -0.3340 O   0  0  0  0  0
  -24.3050   10.5260   -4.6890 O   0  0  0  0  0
  -25.6110   10.3420   -1.2650 C   0  0  0  0  0
  -18.2360    7.0250    0.9160 O   0  0  0  0  0
  -25.9140   11.7700   -1.0860 O   0  0  0  0  0
  -25.0780    9.7510   -0.0160 C   0  0  0  0  0
  -23.7160   10.2500    0.3140 C   0  0  0  0  0
  -23.2110    9.5920    1.5230 O   0  0  0  0  0
  -18.2180   10.3350   -1.7790 O   0  0  0  0  0
  -26.0090    9.9000    1.1350 N   0  0  0  0  0
  -26.7070    8.8570    1.7040 C   0  0  0  0  0
  -27.4480    9.4300    2.7480 C   0  0  0  0  0
  -27.1410   10.7640    2.7460 N   0  0  0  0  0
  -26.2840   10.9930    1.7680 N   0  0  0  0  0
  -16.5040    8.2260   -1.0960 N   0  0  0  0  0
  -15.6460    8.1180   -2.1370 N   0  0  0  0  0
  -14.4230    8.5710   -0.4110 C   0  0  0  0  0
  -15.8200    8.4990    0.0140 C   0  0  0  0  0
  -30.0440    7.2390    5.4350 C   0  0  0  0  0
  -29.4830    6.5940    4.3870 C   0  0  0  0  0
  -28.6260    7.3080    3.4880 C   0  0  0  0  0
  -13.2010    8.8500    0.4360 C   0  0  0  0  0
  -12.0150    9.2920   -0.1960 C   0  0  0  0  0
  -10.8620    9.5480    0.5670 C   0  0  0  0  0
  -10.8930    9.3640    1.9320 C   0  0  0  0  0
  -12.0570    8.9290    2.5540 C   0  0  0  0  0
  -13.2300    8.6660    1.7790 C   0  0  0  0  0
  -30.3420    9.2670    6.6920 F   0  0  0  0  0
  -12.0750    8.7500    3.8960 F   0  0  0  0  0
  -20.3088    9.0170   -2.2688 H   0  0  0  0  0
  -18.5964    9.5634    0.0766 H   0  0  0  0  0
  -18.1597    7.8127   -2.2503 H   0  0  0  0  0
  -17.8997    5.9940   -0.8425 H   0  0  0  0  0
  -19.9845    6.3547   -1.7689 H   0  0  0  0  0
  -20.4871    5.8663    1.1672 H   0  0  0  0  0
  -19.8599    4.6745    0.0477 H   0  0  0  0  0
  -28.7285   10.3927    4.9255 H   0  0  0  0  0
  -22.8410    8.8749   -0.9657 H   0  0  0  0  0
  -24.6377    9.0719   -2.6191 H   0  0  0  0  0
  -25.1033   11.9630   -3.4568 H   0  0  0  0  0
  -26.1767   10.6336   -3.8488 H   0  0  0  0  0
  -22.1491    4.6214    0.1916 H   0  0  0  0  0
  -24.5838   10.9856   -5.4844 H   0  0  0  0  0
  -26.5390    9.8217   -1.5020 H   0  0  0  0  0
  -17.3003    7.1621    1.0809 H   0  0  0  0  0
  -26.5197   11.8775   -0.3490 H   0  0  0  0  0
  -24.9883    8.6823   -0.2107 H   0  0  0  0  0
  -23.7561   11.3240    0.4960 H   0  0  0  0  0
  -23.7968    9.7840    2.2589 H   0  0  0  0  0
  -18.7239   11.1345   -1.6161 H   0  0  0  0  0
  -26.6874    7.8087    1.4059 H   0  0  0  0  0
  -16.2157    8.6384    1.0200 H   0  0  0  0  0
  -30.6975    6.6981    6.1194 H   0  0  0  0  0
  -29.6822    5.5344    4.2269 H   0  0  0  0  0
  -28.1691    6.7911    2.6441 H   0  0  0  0  0
  -11.9950    9.4344   -1.2765 H   0  0  0  0  0
   -9.9484    9.8903    0.0810 H   0  0  0  0  0
  -10.0008    9.5605    2.5265 H   0  0  0  0  0
  -14.1420    8.3196    2.2652 H   0  0  0  0  0
  2  1  1  0  0  0
  1 12  1  0  0  0
  1 13  1  0  0  0
  3  2  1  0  0  0
  2 25  1  0  0  0
  3  4  1  0  0  0
 31  3  1  0  0  0
  4  5  1  0  0  0
  4 20  1  0  0  0
  5  6  1  0  0  0
  5 13  1  0  0  0
  6 17  1  0  0  0
 32  7  4  0  0  0
  7 33  4  0  0  0
  8  9  4  0  0  0
 28  8  1  0  0  0
  8 37  4  0  0  0
  9 10  4  0  0  0
 10 35  4  0  0  0
 10 44  1  0  0  0
 12 11  1  0  0  0
 11 14  1  0  0  0
 11 23  1  0  0  0
 14 15  1  0  0  0
 15 16  1  0  0  0
 15 19  1  0  0  0
 16 18  1  0  0  0
 19 21  1  0  0  0
 22 19  1  0  0  0
 23 22  1  0  0  0
 22 26  1  0  0  0
 23 24  1  0  0  0
 26 27  4  0  0  0
 26 30  4  0  0  0
 27 28  4  0  0  0
 29 28  4  0  0  0
 30 29  4  0  0  0
 31 32  4  0  0  0
 31 34  4  0  0  0
 33 34  4  0  0  0
 33 38  1  0  0  0
 35 36  4  0  0  0
 36 37  4  0  0  0
 38 39  4  0  0  0
 38 43  4  0  0  0
 39 40  4  0  0  0
 40 41  4  0  0  0
 41 42  4  0  0  0
 42 43  4  0  0  0
 42 45  1  0  0  0
  1 46  1  0  0  0
  2 47  1  0  0  0
  3 48  1  0  0  0
  4 49  1  0  0  0
  5 50  1  0  0  0
  6 51  1  0  0  0
  6 52  1  0  0  0
  9 53  1  0  0  0
 11 54  1  0  0  0
 15 55  1  0  0  0
 16 56  1  0  0  0
 16 57  1  0  0  0
 17 58  1  0  0  0
 18 59  1  0  0  0
 19 60  1  0  0  0
 20 61  1  0  0  0
 21 62  1  0  0  0
 22 63  1  0  0  0
 23 64  1  0  0  0
 24 65  1  0  0  0
 25 66  1  0  0  0
 27 67  1  0  0  0
 34 68  1  0  0  0
 35 69  1  0  0  0
 36 70  1  0  0  0
 37 71  1  0  0  0
 39 72  1  0  0  0
 40 73  1  0  0  0
 41 74  1  0  0  0
 43 75  1  0  0  0
M  END
$$$$
