6dki_ligand
  -I-interpret- 

 52 54  0  0  0  0  0  0  0  0999 V2000
  -19.0520    6.7680  -25.6360 C   0  0  0  0  0
  -20.6650    6.5210  -23.4430 C   0  0  0  0  0
  -19.7560    7.5780  -23.5860 C   0  0  0  0  0
  -21.0130    6.0510  -18.4120 C   0  0  0  0  0
  -20.6060    6.1800  -13.8090 C   0  0  0  0  0
  -19.5750    7.0920  -13.6190 C   0  0  0  0  0
  -19.2570    7.9910  -14.6180 C   0  0  0  0  0
  -19.8940    5.6660  -25.5600 C   0  0  0  0  0
  -20.0040    4.5590  -26.5690 C   0  0  0  0  0
  -20.7170    5.5590  -24.4410 C   0  0  0  0  0
  -18.9660    7.6950  -24.6740 N   0  0  0  0  0
  -21.5620    6.5910  -22.3960 O   0  0  0  0  0
  -22.0690    5.4030  -21.8120 C   0  0  0  0  0
  -19.6970    8.5440  -22.6620 N   0  0  0  0  0
  -21.1830    5.0240  -20.6260 C   0  0  0  0  0
  -23.4540    5.7780  -21.1690 C   0  0  0  0  0
  -21.7000    5.8630  -19.5510 N   0  0  0  0  0
  -23.0300    6.3980  -19.8410 C   0  0  0  0  0
  -21.6620    6.9490  -17.3750 C   0  0  0  0  0
  -19.9250    5.5330  -18.2350 O   0  0  0  0  0
  -20.9530    7.0240  -16.0420 C   0  0  0  0  0
  -21.2860    6.1550  -15.0140 C   0  0  0  0  0
  -19.9470    7.9540  -15.8210 C   0  0  0  0  0
  -18.8600    7.1650  -12.4090 O   0  0  0  0  0
  -18.1710    6.0880  -11.9940 C   0  0  0  0  0
  -17.4540    6.4070  -10.9580 F   0  0  0  0  0
  -17.3410    5.5660  -12.8480 F   0  0  0  0  0
  -18.9390    5.1170  -11.6060 F   0  0  0  0  0
  -24.2670    4.6860  -21.0000 F   0  0  0  0  0
  -24.1510    6.6620  -21.9370 F   0  0  0  0  0
  -20.7840    3.6250  -26.3990 O   0  0  0  0  0
  -19.2580    4.6420  -27.6690 N   0  0  0  0  0
  -19.4090    3.6950  -28.7610 C   0  0  0  0  0
  -18.4300    6.8839  -26.5235 H   0  0  0  0  0
  -20.8779    5.4874  -13.0125 H   0  0  0  0  0
  -18.4675    8.7262  -14.4620 H   0  0  0  0  0
  -21.4035    4.7173  -24.3495 H   0  0  0  0  0
  -22.1234    4.6070  -22.5547 H   0  0  0  0  0
  -20.3146    8.5123  -21.8509 H   0  0  0  0  0
  -19.0344    9.3121  -22.7688 H   0  0  0  0  0
  -20.1232    5.1899  -20.8197 H   0  0  0  0  0
  -21.2244    3.9607  -20.3899 H   0  0  0  0  0
  -23.7357    6.1515  -19.0477 H   0  0  0  0  0
  -23.0126    7.4862  -19.9017 H   0  0  0  0  0
  -22.6494    6.5315  -17.1778 H   0  0  0  0  0
  -21.6520    7.9575  -17.7885 H   0  0  0  0  0
  -22.0966    5.4405  -15.1574 H   0  0  0  0  0
  -19.6947    8.6673  -16.6057 H   0  0  0  0  0
  -18.5653    5.3867  -27.7468 H   0  0  0  0  0
  -19.2062    2.6877  -28.3973 H   0  0  0  0  0
  -20.4276    3.7455  -29.1458 H   0  0  0  0  0
  -18.7061    3.9440  -29.5560 H   0  0  0  0  0
  8  1  4  0  0  0
 11  1  4  0  0  0
  2  3  4  0  0  0
  2 10  4  0  0  0
 12  2  1  0  0  0
  3 11  4  0  0  0
  3 14  1  0  0  0
  4 17  1  0  0  0
 19  4  1  0  0  0
  4 20  2  0  0  0
  5  6  4  0  0  0
 22  5  4  0  0  0
  6  7  4  0  0  0
  6 24  1  0  0  0
  7 23  4  0  0  0
  8  9  1  0  0  0
 10  8  4  0  0  0
  9 31  2  0  0  0
  9 32  1  0  0  0
 13 12  1  0  0  0
 15 13  1  0  0  0
 16 13  1  0  0  0
 17 15  1  0  0  0
 18 16  1  0  0  0
 16 29  1  0  0  0
 16 30  1  0  0  0
 17 18  1  0  0  0
 21 19  1  0  0  0
 21 22  4  0  0  0
 21 23  4  0  0  0
 24 25  1  0  0  0
 25 26  1  0  0  0
 25 27  1  0  0  0
 25 28  1  0  0  0
 32 33  1  0  0  0
  1 34  1  0  0  0
  5 35  1  0  0  0
  7 36  1  0  0  0
 10 37  1  0  0  0
 13 38  1  0  0  0
 14 39  1  0  0  0
 14 40  1  0  0  0
 15 41  1  0  0  0
 15 42  1  0  0  0
 18 43  1  0  0  0
 18 44  1  0  0  0
 19 45  1  0  0  0
 19 46  1  0  0  0
 22 47  1  0  0  0
 23 48  1  0  0  0
 32 49  1  0  0  0
 33 50  1  0  0  0
 33 51  1  0  0  0
 33 52  1  0  0  0
M  END
$$$$
