1vkj_ligand
  -I-interpret- 

 42 44  0  0  0  0  0  0  0  0999 V2000
   18.9850   85.5140   28.6730 P   0  0  0  0  0
   19.0000   86.0600   30.0970 O   0  0  0  0  0
   19.6970   84.1740   28.6080 O   0  0  0  0  0
   17.6240   85.4170   28.0210 O   0  0  0  0  0
   20.8180   88.6690   22.5970 P   0  0  0  0  0
   22.1350   89.1370   21.9970 O   0  0  0  0  0
   19.7360   89.7240   22.4470 O   0  0  0  0  0
   20.3500   87.3010   22.1140 O   0  0  0  0  0
   21.1260   88.5330   24.2000 O   0  0  0  0  0
   20.0680   88.1380   25.0920 C   0  0  0  0  0
   20.4570   88.4020   26.5140 C   0  0  0  0  0
   20.4640   89.8180   26.7630 O   0  0  0  0  0
   19.5210   87.8500   27.5760 C   0  0  0  0  0
   19.9300   86.5220   27.8410 O   0  0  0  0  0
   19.7730   88.7740   28.7720 C   0  0  0  0  0
   20.6440   88.1730   29.6860 O   0  0  0  0  0
   20.4720   89.9970   28.1510 C   0  0  0  0  0
   19.8770   91.3010   28.4570 N   0  0  0  0  0
   20.5720   92.4700   28.6470 C   0  0  0  0  0
   19.8140   93.5010   28.9460 N   0  0  0  0  0
   18.5370   92.9750   28.9510 C   0  0  0  0  0
   17.2990   93.5530   29.2310 C   0  0  0  0  0
   17.1690   94.8130   29.6470 N   0  0  0  0  0
   16.1910   92.7810   29.0990 N   0  0  0  0  0
   16.3560   91.4960   28.7640 C   0  0  0  0  0
   17.4910   90.8140   28.5450 N   0  0  0  0  0
   18.5550   91.6260   28.6360 C   0  0  0  0  0
   19.9036   86.0823   30.4205 H   0  0  0  0  0
   20.5584   84.2500   29.0249 H   0  0  0  0  0
   22.7972   88.4507   22.1069 H   0  0  0  0  0
   21.0594   86.6638   22.2249 H   0  0  0  0  0
   19.8791   87.0717   24.9680 H   0  0  0  0  0
   19.1724   88.7130   24.8567 H   0  0  0  0  0
   21.4245   87.9073   26.5999 H   0  0  0  0  0
   18.4642   87.8228   27.3103 H   0  0  0  0  0
   18.8538   89.0142   29.3062 H   0  0  0  0  0
   20.7887   88.7667   30.4264 H   0  0  0  0  0
   21.4697   90.0346   28.5884 H   0  0  0  0  0
   21.6563   92.5368   28.5577 H   0  0  0  0  0
   17.9961   95.3965   29.7725 H   0  0  0  0  0
   16.2424   95.1934   29.8397 H   0  0  0  0  0
   15.4368   90.9207   28.6531 H   0  0  0  0  0
  1  2  1  0  0  0
  1  3  1  0  0  0
  1  4  2  0  0  0
 14  1  1  0  0  0
  5  6  1  0  0  0
  5  7  2  0  0  0
  5  8  1  0  0  0
  9  5  1  0  0  0
 10  9  1  0  0  0
 11 10  1  0  0  0
 11 12  1  0  0  0
 13 11  1  0  0  0
 12 17  1  0  0  0
 13 14  1  0  0  0
 13 15  1  0  0  0
 15 16  1  0  0  0
 15 17  1  0  0  0
 17 18  1  0  0  0
 18 19  4  0  0  0
 18 27  4  0  0  0
 19 20  4  0  0  0
 20 21  4  0  0  0
 21 22  4  0  0  0
 21 27  4  0  0  0
 22 23  1  0  0  0
 22 24  4  0  0  0
 24 25  4  0  0  0
 25 26  4  0  0  0
 26 27  4  0  0  0
  2 28  1  0  0  0
  3 29  1  0  0  0
  6 30  1  0  0  0
  8 31  1  0  0  0
 10 32  1  0  0  0
 10 33  1  0  0  0
 11 34  1  0  0  0
 13 35  1  0  0  0
 15 36  1  0  0  0
 16 37  1  0  0  0
 17 38  1  0  0  0
 19 39  1  0  0  0
 23 40  1  0  0  0
 23 41  1  0  0  0
 25 42  1  0  0  0
M  END
$$$$
