1nzq_ligand
  -I-interpret- 

 68 70  0  0  0  0  0  0  0  0999 V2000
   10.1960   21.2160   24.3680 N   0  0  0  0  0
   11.0810   22.1810   24.0600 C   0  0  0  0  0
   11.0320   23.3550   24.7010 N   0  0  0  0  0
   12.0940   21.9700   23.0090 C   0  0  0  0  0
   12.5350   20.7590   22.4820 N   0  0  0  0  0
   12.0890   19.4010   22.8550 C   0  0  0  0  0
   13.4670   21.0240   21.5430 C   0  0  0  0  0
   12.7820   22.9660   22.3700 C   0  0  0  0  0
   13.6410   22.3610   21.4520 C   0  0  0  0  0
   14.6040   23.0750   20.5230 C   0  0  0  0  0
   16.0090   22.8310   20.9630 N   0  0  0  0  0
   16.6940   21.7070   20.5950 C   0  0  0  0  0
   16.1710   20.8500   19.8900 O   0  0  0  0  0
   18.1070   21.4900   21.0880 C   0  0  0  0  0
   19.0890   21.5310   19.9410 C   0  0  0  0  0
   19.7600   20.4080   19.8760 C   0  0  0  0  0
   19.3130   19.4720   20.9700 C   0  0  0  0  0
   18.1970   20.1370   21.6970 N   0  0  0  0  0
   17.4130   19.6270   22.7030 C   0  0  0  0  0
   16.5320   20.3120   23.1870 O   0  0  0  0  0
   17.6080   18.2190   23.2290 C   0  0  0  0  0
   18.2220   18.2510   24.6530 C   0  0  0  0  0
   19.6100   18.9040   24.6510 C   0  0  0  0  0
   19.8920   19.5320   26.0300 C   0  0  0  0  0
   21.2730   20.2400   26.0150 C   0  0  0  0  0
   22.3940   19.2370   25.6420 C   0  0  0  0  0
   22.0830   18.5470   24.2870 C   0  0  0  0  0
   20.6970   17.8530   24.3330 C   0  0  0  0  0
   16.2780   17.5780   23.2610 N   0  3  0  0  0
   16.3760   16.1250   23.4350 C   0  0  0  0  0
   14.9790   15.5680   23.5110 C   0  0  0  0  0
   14.8070   14.3900   23.7850 O   0  0  0  0  0
   14.0160   16.2950   23.2970 O   0  0  0  0  0
    9.4917   21.3806   25.0872 H   0  0  0  0  0
   10.2292   20.3196   23.8824 H   0  0  0  0  0
   11.6919   24.0949   24.4613 H   0  0  0  0  0
   12.2923   19.2308   23.9123 H   0  0  0  0  0
   11.0189   19.3077   22.6698 H   0  0  0  0  0
   12.6279   18.6660   22.2572 H   0  0  0  0  0
   13.9962   20.2772   20.9511 H   0  0  0  0  0
   12.6778   24.0366   22.5462 H   0  0  0  0  0
   14.4003   24.1455   20.5475 H   0  0  0  0  0
   14.4736   22.6958   19.5094 H   0  0  0  0  0
   16.4707   23.5219   21.5545 H   0  0  0  0  0
   18.3446   22.2754   21.8055 H   0  0  0  0  0
   19.2205   22.3749   19.2638 H   0  0  0  0  0
   20.5299   20.1829   19.1380 H   0  0  0  0  0
   20.1376   19.2577   21.6499 H   0  0  0  0  0
   18.9823   18.5226   20.5488 H   0  0  0  0  0
   18.2922   17.6621   22.5888 H   0  0  0  0  0
   18.3229   17.2257   25.0090 H   0  0  0  0  0
   17.5663   18.8347   25.2991 H   0  0  0  0  0
   19.6304   19.6792   23.8850 H   0  0  0  0  0
   19.8977   18.7484   26.7877 H   0  0  0  0  0
   19.1158   20.2625   26.2581 H   0  0  0  0  0
   21.4747   20.6432   27.0074 H   0  0  0  0  0
   21.2527   21.0395   25.2744 H   0  0  0  0  0
   22.4586   18.4753   26.4190 H   0  0  0  0  0
   23.3363   19.7778   25.5543 H   0  0  0  0  0
   22.8477   17.7957   24.0896 H   0  0  0  0  0
   22.0741   19.3015   23.5004 H   0  0  0  0  0
   20.4875   17.3920   23.3678 H   0  0  0  0  0
   20.6991   17.0848   25.1062 H   0  0  0  0  0
   15.8119   17.7633   22.3728 H   0  0  0  0  0
   15.7573   17.9605   24.0503 H   0  0  0  0  0
   16.9237   15.8919   24.3481 H   0  0  0  0  0
   16.9123   15.6814   22.5962 H   0  0  0  0  0
   14.3242   17.1822   23.0981 H   0  0  0  0  0
  1  2  1  0  0  0
  2  3  2  0  0  0
  2  4  1  0  0  0
  4  5  4  0  0  0
  4  8  4  0  0  0
  5  6  1  0  0  0
  5  7  4  0  0  0
  7  9  4  0  0  0
  8  9  4  0  0  0
  9 10  1  0  0  0
 10 11  1  0  0  0
 11 12  1  0  0  0
 12 13  2  0  0  0
 12 14  1  0  0  0
 14 15  1  0  0  0
 14 18  1  0  0  0
 15 16  2  0  0  0
 16 17  1  0  0  0
 17 18  1  0  0  0
 18 19  1  0  0  0
 19 20  2  0  0  0
 19 21  1  0  0  0
 21 22  1  0  0  0
 21 29  1  0  0  0
 22 23  1  0  0  0
 23 24  1  0  0  0
 23 28  1  0  0  0
 24 25  1  0  0  0
 25 26  1  0  0  0
 26 27  1  0  0  0
 27 28  1  0  0  0
 29 30  1  0  0  0
 30 31  1  0  0  0
 31 32  2  0  0  0
 31 33  1  0  0  0
  1 34  1  0  0  0
  1 35  1  0  0  0
  3 36  1  0  0  0
  6 37  1  0  0  0
  6 38  1  0  0  0
  6 39  1  0  0  0
  7 40  1  0  0  0
  8 41  1  0  0  0
 10 42  1  0  0  0
 10 43  1  0  0  0
 11 44  1  0  0  0
 14 45  1  0  0  0
 15 46  1  0  0  0
 16 47  1  0  0  0
 17 48  1  0  0  0
 17 49  1  0  0  0
 21 50  1  0  0  0
 22 51  1  0  0  0
 22 52  1  0  0  0
 23 53  1  0  0  0
 24 54  1  0  0  0
 24 55  1  0  0  0
 25 56  1  0  0  0
 25 57  1  0  0  0
 26 58  1  0  0  0
 26 59  1  0  0  0
 27 60  1  0  0  0
 27 61  1  0  0  0
 28 62  1  0  0  0
 28 63  1  0  0  0
 29 64  1  0  0  0
 29 65  1  0  0  0
 30 66  1  0  0  0
 30 67  1  0  0  0
 33 68  1  0  0  0
M  END
$$$$
