3i81_ligand
  -I-interpret- 

 55 60  0  0  0  0  0  0  0  0999 V2000
  -18.3780    3.4520   13.7700 N   0  0  0  0  0
  -17.6390    3.7730   12.6790 C   0  0  0  0  0
  -17.2040    2.5050   12.1730 C   0  0  0  0  0
  -17.7180    1.4640   13.0040 C   0  0  0  0  0
  -18.4220    2.1130   13.9560 N   0  0  0  0  0
  -17.4110    5.1500   12.2280 N   0  0  0  0  0
  -17.5350   -0.0710   12.8850 C   0  0  0  0  0
  -18.6680   -0.1660   11.9120 C   0  0  0  0  0
  -17.2610   -0.2710   11.4390 C   0  0  0  0  0
  -15.8040    8.8640   10.0900 C   0  0  0  0  0
  -16.5430    9.2850   11.2170 C   0  0  0  0  0
  -17.0310    8.1530   11.8650 C   0  0  0  0  0
  -16.5550    7.0380   11.0830 C   0  0  0  0  0
  -15.8110    7.5010   10.0080 N   0  0  0  0  0
  -16.6790    5.6400   11.1720 C   0  0  0  0  0
  -16.1060    4.7940   10.2630 N   0  0  0  0  0
  -15.2490    6.6110    9.1110 N   0  0  0  0  0
  -15.3930    5.2770    9.2330 C   0  0  0  0  0
  -13.8850    4.9180    7.3560 C   0  0  0  0  0
  -13.2930    3.6710    6.7320 C   0  0  0  0  0
  -14.3100    2.5760    7.0490 C   0  0  0  0  0
  -15.1380    3.0050    8.2610 C   0  0  0  0  0
  -14.8300    4.4390    8.3370 N   0  0  0  0  0
  -14.6090    2.0970    9.4260 C   0  0  0  0  0
  -13.5470    2.6210   10.1150 N   0  0  0  0  0
  -15.1490    1.0140    9.6510 O   0  0  0  0  0
  -16.6560    2.8120    8.0030 C   0  0  0  0  0
  -12.8020    1.9700   11.0410 C   0  0  0  0  0
  -11.3870    2.0410   11.0840 C   0  0  0  0  0
  -10.6260    1.3750   12.0340 C   0  0  0  0  0
  -11.3330    0.6180   12.9630 C   0  0  0  0  0
  -12.7050    0.5260   12.9520 N   0  0  0  0  0
  -13.4300    1.1870   12.0130 C   0  0  0  0  0
  -10.5700   -0.0180   13.8730 F   0  0  0  0  0
  -16.5790    2.3582   11.2922 H   0  0  0  0  0
  -17.8727    5.8635   12.7921 H   0  0  0  0  0
  -17.1324   -0.5326   13.7867 H   0  0  0  0  0
  -19.7378   -0.1616   11.7032 H   0  0  0  0  0
  -16.5483   -0.4004   10.6245 H   0  0  0  0  0
  -15.3015    9.5296    9.3882 H   0  0  0  0  0
  -16.7038   10.3177   11.5264 H   0  0  0  0  0
  -17.6407    8.1172   12.7678 H   0  0  0  0  0
  -14.3659    5.5511    6.6103 H   0  0  0  0  0
  -13.1167    5.5438    7.8101 H   0  0  0  0  0
  -12.3040    3.4418    7.1287 H   0  0  0  0  0
  -13.1304    3.7843    5.6602 H   0  0  0  0  0
  -13.7907    1.6432    7.2690 H   0  0  0  0  0
  -14.9648    2.4217    6.1913 H   0  0  0  0  0
  -13.2944    3.5883    9.9127 H   0  0  0  0  0
  -16.9570    3.4141    7.1457 H   0  0  0  0  0
  -16.8577    1.7605    7.7988 H   0  0  0  0  0
  -17.2158    3.1263    8.8839 H   0  0  0  0  0
  -10.8734    2.6462   10.3369 H   0  0  0  0  0
   -9.5381    1.4410   12.0515 H   0  0  0  0  0
  -14.5169    1.1056   12.0177 H   0  0  0  0  0
  2  1  4  0  0  0
  1  5  4  0  0  0
  2  3  4  0  0  0
  6  2  1  0  0  0
  3  4  4  0  0  0
  4  5  4  0  0  0
  4  7  1  0  0  0
 15  6  1  0  0  0
  7  8  1  0  0  0
  7  9  1  0  0  0
  9  8  2  0  0  0
 10 11  4  0  0  0
 14 10  4  0  0  0
 12 11  4  0  0  0
 13 12  4  0  0  0
 14 13  4  0  0  0
 15 13  4  0  0  0
 17 14  4  0  0  0
 16 15  4  0  0  0
 18 16  4  0  0  0
 18 17  4  0  0  0
 23 18  1  0  0  0
 19 20  1  0  0  0
 19 23  1  0  0  0
 20 21  1  0  0  0
 21 22  1  0  0  0
 22 23  1  0  0  0
 22 24  1  0  0  0
 22 27  1  0  0  0
 24 25  1  0  0  0
 24 26  2  0  0  0
 25 28  1  0  0  0
 28 29  4  0  0  0
 28 33  4  0  0  0
 29 30  4  0  0  0
 30 31  4  0  0  0
 31 32  4  0  0  0
 31 34  1  0  0  0
 32 33  4  0  0  0
  3 35  1  0  0  0
  6 36  1  0  0  0
  7 37  1  0  0  0
  8 38  1  0  0  0
  9 39  1  0  0  0
 10 40  1  0  0  0
 11 41  1  0  0  0
 12 42  1  0  0  0
 19 43  1  0  0  0
 19 44  1  0  0  0
 20 45  1  0  0  0
 20 46  1  0  0  0
 21 47  1  0  0  0
 21 48  1  0  0  0
 25 49  1  0  0  0
 27 50  1  0  0  0
 27 51  1  0  0  0
 27 52  1  0  0  0
 29 53  1  0  0  0
 30 54  1  0  0  0
 33 55  1  0  0  0
M  END
$$$$
