5mw3_ligand
  -I-interpret- 

 31 33  0  0  0  0  0  0  0  0999 V2000
   37.0260    3.4140   18.4200 C   0  0  0  0  0
   35.3170    1.8200   18.9780 C   0  0  0  0  0
   34.4300    2.9170   19.1600 C   0  0  0  0  0
   34.8930    4.2180   18.9790 C   0  0  0  0  0
   32.7820    4.4680   19.5560 C   0  0  0  0  0
   34.9980    0.4980   19.1430 N   0  0  0  0  0
   33.6350   -0.0510   19.0760 C   0  0  0  0  0
   33.2630   -0.4230   20.5480 C   0  0  0  0  0
   34.2730   -1.4820   21.0980 C   0  0  0  0  0
   35.7680   -1.0380   20.9330 C   0  0  0  0  0
   36.6020    2.1390   18.6420 N   0  0  0  0  0
   36.1810    4.4540   18.6160 N   0  0  0  0  0
   33.8950    5.0830   19.2410 N   0  0  0  0  0
   32.9820    3.1420   19.5390 C   0  0  0  0  0
   36.0440   -0.4690   19.5090 C   0  0  0  0  0
   36.7030   -2.1610   21.1930 N   0  3  0  0  0
   38.0466    3.5976   18.0842 H   0  0  0  0  0
   31.8385    4.9586   19.7951 H   0  0  0  0  0
   33.5857   -0.9197   18.4195 H   0  0  0  0  0
   32.9337    0.6703   18.6565 H   0  0  0  0  0
   32.2560   -0.8395   20.5710 H   0  0  0  0  0
   33.3064    0.4725   21.1680 H   0  0  0  0  0
   34.1334   -2.4026   20.5313 H   0  0  0  0  0
   34.0777   -1.6084   22.1629 H   0  0  0  0  0
   35.9381   -0.2532   21.6701 H   0  0  0  0  0
   32.2419    2.3720   19.7569 H   0  0  0  0  0
   37.0126    0.0309   19.5038 H   0  0  0  0  0
   36.0437   -1.2875   18.7892 H   0  0  0  0  0
   37.6630   -1.8364   21.0768 H   0  0  0  0  0
   36.5701   -2.4988   22.1462 H   0  0  0  0  0
   36.5163   -2.9168   20.5340 H   0  0  0  0  0
 11  1  4  0  0  0
  1 12  4  0  0  0
  2  3  4  0  0  0
  2  6  1  0  0  0
  2 11  4  0  0  0
  3  4  4  0  0  0
  3 14  4  0  0  0
  4 12  4  0  0  0
  4 13  4  0  0  0
 13  5  4  0  0  0
  5 14  4  0  0  0
  6  7  1  0  0  0
  6 15  1  0  0  0
  7  8  1  0  0  0
  8  9  1  0  0  0
  9 10  1  0  0  0
 10 15  1  0  0  0
 10 16  1  0  0  0
  1 17  1  0  0  0
  5 18  1  0  0  0
  7 19  1  0  0  0
  7 20  1  0  0  0
  8 21  1  0  0  0
  8 22  1  0  0  0
  9 23  1  0  0  0
  9 24  1  0  0  0
 10 25  1  0  0  0
 14 26  1  0  0  0
 15 27  1  0  0  0
 15 28  1  0  0  0
 16 29  1  0  0  0
 16 30  1  0  0  0
 16 31  1  0  0  0
M  END
$$$$
