4j46_ligand
  -I-interpret- 

 63 63  0  0  0  0  0  0  0  0999 V2000
   25.1840   37.8700    6.9680 N   0  3  0  0  0
   25.7180   37.7980    8.3350 C   0  0  0  0  0
   26.7600   36.6950    8.4660 C   0  0  0  0  0
   26.8130   35.8270    7.5730 O   0  0  0  0  0
   24.5900   37.5530    9.3810 C   0  0  0  0  0
   27.4380   36.7170    9.5960 N   0  0  0  0  0
   28.5030   35.8090    9.9810 C   0  0  0  0  0
   28.0030   34.8410   11.0730 C   0  0  0  0  0
   27.5370   35.2630   12.1340 O   0  0  0  0  0
   29.7080   36.6100   10.5230 C   0  0  0  0  0
   30.7610   35.7110   11.1680 C   0  0  0  0  0
   30.2710   37.4860    9.3890 C   0  0  0  0  0
   28.1850   33.5220   10.8390 N   0  0  0  0  0
   27.7360   32.5370   11.8310 C   0  0  0  0  0
   28.7910   32.1690   12.8760 C   0  0  0  0  0
   30.0040   32.1610   12.5900 O   0  0  0  0  0
   27.3410   31.3550   10.9400 C   0  0  0  0  0
   28.2580   31.4140    9.7590 C   0  0  0  0  0
   28.4650   32.9030    9.5170 C   0  0  0  0  0
   28.3980   31.9450   14.1070 N   0  0  0  0  0
   29.2390   31.3490   15.1650 C   0  0  0  0  0
   28.5810   30.1150   15.7750 C   0  0  0  0  0
   27.3940   30.1790   16.0720 O   0  0  0  0  0
   29.5400   32.3570   16.2850 C   0  0  0  0  0
   30.2330   33.5920   15.7370 C   0  0  0  0  0
   30.3620   31.7540   17.4150 C   0  0  0  0  0
   30.6860   34.4980   16.8520 C   0  0  0  0  0
   29.2040   29.0340   16.0520 O   0  0  0  0  0
   25.9495   38.0307    6.3133 H   0  0  0  0  0
   24.7183   36.9918    6.7395 H   0  0  0  0  0
   24.5149   38.6373    6.9056 H   0  0  0  0  0
   26.1852   38.7622    8.5352 H   0  0  0  0  0
   24.1273   36.5839    9.1942 H   0  0  0  0  0
   25.0171   37.5659   10.3838 H   0  0  0  0  0
   23.8391   38.3384    9.2944 H   0  0  0  0  0
   27.1897   37.4443   10.2666 H   0  0  0  0  0
   28.8101   35.2385    9.1045 H   0  0  0  0  0
   29.3742   37.2626   11.3297 H   0  0  0  0  0
   30.3134   35.1694   12.0013 H   0  0  0  0  0
   31.1325   35.0009   10.4292 H   0  0  0  0  0
   31.5859   36.3234   11.5322 H   0  0  0  0  0
   30.5906   36.8491    8.5642 H   0  0  0  0  0
   29.4971   38.1708    9.0422 H   0  0  0  0  0
   31.1225   38.0561    9.7606 H   0  0  0  0  0
   26.9280   32.9108   12.4599 H   0  0  0  0  0
   26.2963   31.4183   10.6357 H   0  0  0  0  0
   27.4367   30.4077   11.4707 H   0  0  0  0  0
   27.8378   30.9113    8.8879 H   0  0  0  0  0
   29.1980   30.8937    9.9431 H   0  0  0  0  0
   29.4694   33.1285    9.1586 H   0  0  0  0  0
   27.8141   33.2894    8.7327 H   0  0  0  0  0
   27.4415   32.2011   14.3518 H   0  0  0  0  0
   30.1738   31.0578   14.6859 H   0  0  0  0  0
   28.5755   32.6448   16.7034 H   0  0  0  0  0
   29.5292   34.1372   15.1081 H   0  0  0  0  0
   31.1065   33.2777   15.1657 H   0  0  0  0  0
   29.8157   30.9196   17.8548 H   0  0  0  0  0
   31.3141   31.3990   17.0206 H   0  0  0  0  0
   30.5429   32.5130   18.1761 H   0  0  0  0  0
   29.8216   34.8126   17.4367 H   0  0  0  0  0
   31.3844   33.9609   17.4938 H   0  0  0  0  0
   31.1786   35.3737   16.4294 H   0  0  0  0  0
   30.1185   29.1119   15.7706 H   0  0  0  0  0
  1  2  1  0  0  0
  2  3  1  0  0  0
  2  5  1  0  0  0
  3  4  2  0  0  0
  3  6  1  0  0  0
  6  7  1  0  0  0
  7  8  1  0  0  0
  7 10  1  0  0  0
  8  9  2  0  0  0
  8 13  1  0  0  0
 10 11  1  0  0  0
 10 12  1  0  0  0
 13 14  1  0  0  0
 13 19  1  0  0  0
 14 15  1  0  0  0
 14 17  1  0  0  0
 15 16  2  0  0  0
 15 20  1  0  0  0
 17 18  1  0  0  0
 18 19  1  0  0  0
 20 21  1  0  0  0
 21 22  1  0  0  0
 21 24  1  0  0  0
 22 23  2  0  0  0
 22 28  1  0  0  0
 24 25  1  0  0  0
 24 26  1  0  0  0
 25 27  1  0  0  0
  1 29  1  0  0  0
  1 30  1  0  0  0
  1 31  1  0  0  0
  2 32  1  0  0  0
  5 33  1  0  0  0
  5 34  1  0  0  0
  5 35  1  0  0  0
  6 36  1  0  0  0
  7 37  1  0  0  0
 10 38  1  0  0  0
 11 39  1  0  0  0
 11 40  1  0  0  0
 11 41  1  0  0  0
 12 42  1  0  0  0
 12 43  1  0  0  0
 12 44  1  0  0  0
 14 45  1  0  0  0
 17 46  1  0  0  0
 17 47  1  0  0  0
 18 48  1  0  0  0
 18 49  1  0  0  0
 19 50  1  0  0  0
 19 51  1  0  0  0
 20 52  1  0  0  0
 21 53  1  0  0  0
 24 54  1  0  0  0
 25 55  1  0  0  0
 25 56  1  0  0  0
 26 57  1  0  0  0
 26 58  1  0  0  0
 26 59  1  0  0  0
 27 60  1  0  0  0
 27 61  1  0  0  0
 27 62  1  0  0  0
 28 63  1  0  0  0
M  END
$$$$
