4z6h_ligand
  -I-interpret- 

 38 40  0  0  0  0  0  0  0  0999 V2000
  113.2390  141.0420    7.5730 O   0  0  0  0  0
  112.7460  141.2860    6.4690 C   0  0  0  0  0
  112.8850  142.6130    5.9360 C   0  0  0  0  0
  111.6860  142.9900    5.0120 C   0  0  0  0  0
  111.8060  141.9480    3.8550 C   0  0  0  0  0
  111.4730  140.5610    4.4200 C   0  0  0  0  0
  112.0950  140.2970    5.7710 N   0  0  0  0  0
  111.8400  139.0140    6.2160 C   0  0  0  0  0
  110.5360  138.7420    6.6600 C   0  0  0  0  0
  110.1020  137.4860    7.1080 C   0  0  0  0  0
  108.8160  137.3060    7.5290 N   0  0  0  0  0
  107.7710  138.3970    7.5980 C   0  0  0  0  0
  108.4360  136.0770    7.9300 C   0  0  0  0  0
  107.2910  135.9170    8.2790 O   0  0  0  0  0
  109.3420  134.9930    7.9210 C   0  0  0  0  0
  110.6550  135.1430    7.5160 C   0  0  0  0  0
  111.5760  134.0410    7.5410 C   0  0  0  0  0
  111.0550  136.4310    7.1050 C   0  0  0  0  0
  112.3740  136.6820    6.6480 C   0  0  0  0  0
  112.7670  137.9590    6.1950 C   0  0  0  0  0
  113.8003  142.6525    5.3454 H   0  0  0  0  0
  112.9129  143.3168    6.7679 H   0  0  0  0  0
  111.7259  144.0215    4.6620 H   0  0  0  0  0
  110.7245  142.9492    5.5239 H   0  0  0  0  0
  112.8179  141.9538    3.4499 H   0  0  0  0  0
  111.1144  142.2003    3.0512 H   0  0  0  0  0
  111.8695  139.8201    3.7258 H   0  0  0  0  0
  110.3911  140.5070    4.5407 H   0  0  0  0  0
  109.8149  139.5594    6.6562 H   0  0  0  0  0
  108.1114  139.1822    8.2730 H   0  0  0  0  0
  107.6162  138.8136    6.6027 H   0  0  0  0  0
  106.8348  137.9788    7.9679 H   0  0  0  0  0
  108.9958  134.0107    8.2425 H   0  0  0  0  0
  111.6697  133.6705    8.5618 H   0  0  0  0  0
  111.2047  133.2442    6.8966 H   0  0  0  0  0
  112.5500  134.3750    7.1835 H   0  0  0  0  0
  113.1007  135.8696    6.6467 H   0  0  0  0  0
  113.7812  138.1254    5.8319 H   0  0  0  0  0
  1  2  2  0  0  0
  2  3  1  0  0  0
  2  7  1  0  0  0
  3  4  1  0  0  0
  4  5  1  0  0  0
  5  6  1  0  0  0
  6  7  1  0  0  0
  7  8  1  0  0  0
  8  9  4  0  0  0
  8 20  4  0  0  0
  9 10  4  0  0  0
 10 11  1  0  0  0
 10 18  4  0  0  0
 11 12  1  0  0  0
 11 13  1  0  0  0
 13 14  2  0  0  0
 13 15  1  0  0  0
 15 16  2  0  0  0
 16 17  1  0  0  0
 16 18  1  0  0  0
 18 19  4  0  0  0
 19 20  4  0  0  0
  3 21  1  0  0  0
  3 22  1  0  0  0
  4 23  1  0  0  0
  4 24  1  0  0  0
  5 25  1  0  0  0
  5 26  1  0  0  0
  6 27  1  0  0  0
  6 28  1  0  0  0
  9 29  1  0  0  0
 12 30  1  0  0  0
 12 31  1  0  0  0
 12 32  1  0  0  0
 15 33  1  0  0  0
 17 34  1  0  0  0
 17 35  1  0  0  0
 17 36  1  0  0  0
 19 37  1  0  0  0
 20 38  1  0  0  0
M  END
$$$$
