4c4e_ligand
  -I-interpret- 

 40 43  0  0  0  0  0  0  0  0999 V2000
    2.9850   45.9160  124.9080 C   0  0  0  0  0
    1.6880   46.1390  125.4780 O   0  0  0  0  0
    1.6040   45.8380  126.8260 C   0  0  0  0  0
    1.5650   44.4880  127.2440 C   0  0  0  0  0
    1.3950   44.1870  128.5860 C   0  0  0  0  0
    1.2370   45.2290  129.5500 C   0  0  0  0  0
    1.3030   46.5840  129.1580 C   0  0  0  0  0
    1.4910   46.8900  127.7940 C   0  0  0  0  0
    1.6160   48.2020  127.3740 O   0  0  0  0  0
    0.3840   48.9170  127.2070 C   0  0  0  0  0
    0.9240   44.9950  130.9200 N   0  0  0  0  0
    0.0320   44.0400  131.4860 C   0  0  0  0  0
   -0.5510   43.0380  130.6520 C   0  0  0  0  0
   -1.3430   42.0870  131.2900 C   0  0  0  0  0
   -2.0070   41.0200  130.7640 N   0  0  0  0  0
   -2.6740   40.3730  131.8260 C   0  0  0  0  0
   -2.4340   41.0410  133.0050 C   0  0  0  0  0
   -1.5840   42.1180  132.6930 C   0  0  0  0  0
   -0.9800   43.1330  133.4280 C   0  0  0  0  0
   -0.1910   44.0850  132.8720 N   0  0  0  0  0
   -3.3870   39.1510  131.6160 C   0  0  0  0  0
   -3.4310   38.0630  132.5490 C   0  0  0  0  0
   -4.0700   37.0030  131.9910 N   0  0  0  0  0
   -4.4370   37.4040  130.7430 N   0  0  0  0  0
   -4.0520   38.7120  130.4720 C   0  0  0  0  0
    3.7182   46.5372  125.4224 H   0  0  0  0  0
    3.2541   44.8657  125.0202 H   0  0  0  0  0
    2.9650   46.1762  123.8497 H   0  0  0  0  0
    1.6683   43.6862  126.5128 H   0  0  0  0  0
    1.3817   43.1459  128.9087 H   0  0  0  0  0
    1.2102   47.3799  129.8969 H   0  0  0  0  0
   -0.2295   48.4118  126.4610 H   0  0  0  0  0
   -0.1488   48.9472  128.1574 H   0  0  0  0  0
    0.5973   49.9334  126.8761 H   0  0  0  0  0
    1.4062   45.5954  131.5889 H   0  0  0  0  0
   -0.3850   43.0187  129.5749 H   0  0  0  0  0
   -2.8262   40.7854  133.9893 H   0  0  0  0  0
   -1.1495   43.1644  134.5043 H   0  0  0  0  0
   -3.0138   38.0839  133.5558 H   0  0  0  0  0
   -4.2323   39.2761  129.5569 H   0  0  0  0  0
  1  2  1  0  0  0
  2  3  1  0  0  0
  3  4  4  0  0  0
  3  8  4  0  0  0
  4  5  4  0  0  0
  5  6  4  0  0  0
  6  7  4  0  0  0
  6 11  1  0  0  0
  7  8  4  0  0  0
  8  9  1  0  0  0
  9 10  1  0  0  0
 11 12  1  0  0  0
 12 13  4  0  0  0
 12 20  4  0  0  0
 13 14  4  0  0  0
 14 15  4  0  0  0
 14 18  4  0  0  0
 15 16  4  0  0  0
 16 17  4  0  0  0
 16 21  1  0  0  0
 17 18  4  0  0  0
 18 19  4  0  0  0
 19 20  4  0  0  0
 21 22  4  0  0  0
 21 25  4  0  0  0
 22 23  4  0  0  0
 23 24  4  0  0  0
 24 25  4  0  0  0
  1 26  1  0  0  0
  1 27  1  0  0  0
  1 28  1  0  0  0
  4 29  1  0  0  0
  5 30  1  0  0  0
  7 31  1  0  0  0
 10 32  1  0  0  0
 10 33  1  0  0  0
 10 34  1  0  0  0
 11 35  1  0  0  0
 13 36  1  0  0  0
 17 37  1  0  0  0
 19 38  1  0  0  0
 22 39  1  0  0  0
 25 40  1  0  0  0
M  END
$$$$
