5x4n_ligand
  -I-interpret- 

 24 25  0  0  0  0  0  0  0  0999 V2000
   39.7760   -6.7790  -14.2440 C   0  0  0  0  0
   39.7180   -8.8500  -15.4080 C   0  0  0  0  0
   37.4070   -8.8730   -9.9590 C   0  0  0  0  0
   39.2590   -8.0640  -14.3840 C   0  0  0  0  0
   37.3080   -8.9780  -11.3250 C   0  0  0  0  0
   39.4380   -7.9120  -10.1780 C   0  0  0  0  0
   39.4310   -7.9620  -11.5160 N   0  0  0  0  0
   41.1820   -7.0850  -16.1570 C   0  0  0  0  0
   40.7280   -6.3010  -15.1210 C   0  0  0  0  0
   40.6670   -8.3610  -16.2830 C   0  0  0  0  0
   38.3470   -8.4960  -12.0950 C   0  0  0  0  0
   38.4700   -8.3360   -9.3530 N   0  0  0  0  0
   40.5620   -7.3620   -9.6000 N   0  0  0  0  0
   38.2880   -8.5570  -13.4910 N   0  0  0  0  0
   35.8940   -9.6940  -11.9840 Cl  0  0  0  0  0
   39.4245   -6.1428  -13.4317 H   0  0  0  0  0
   39.3335   -9.8624  -15.5318 H   0  0  0  0  0
   36.5857   -9.2424   -9.3449 H   0  0  0  0  0
   41.9271   -6.7098  -16.8586 H   0  0  0  0  0
   41.1239   -5.2937  -14.9921 H   0  0  0  0  0
   41.0193   -8.9979  -17.0944 H   0  0  0  0  0
   41.3239   -7.0234  -10.1876 H   0  0  0  0  0
   40.6319   -7.2936   -8.5847 H   0  0  0  0  0
   37.4653   -8.9997  -13.9004 H   0  0  0  0  0
  4  1  4  0  0  0
  1  9  4  0  0  0
  4  2  4  0  0  0
  2 10  4  0  0  0
  5  3  4  0  0  0
  3 12  4  0  0  0
 14  4  1  0  0  0
 11  5  4  0  0  0
  5 15  1  0  0  0
  7  6  4  0  0  0
  6 12  4  0  0  0
  6 13  1  0  0  0
 11  7  4  0  0  0
  9  8  4  0  0  0
 10  8  4  0  0  0
 11 14  1  0  0  0
  1 16  1  0  0  0
  2 17  1  0  0  0
  3 18  1  0  0  0
  8 19  1  0  0  0
  9 20  1  0  0  0
 10 21  1  0  0  0
 13 22  1  0  0  0
 13 23  1  0  0  0
 14 24  1  0  0  0
M  END
$$$$
