3vtd_ligand
  -I-interpret- 

 91 96  0  0  0  0  0  0  0  0999 V2000
    9.3500   -2.8450   27.9920 C   0  0  0  0  0
    8.7310   -2.9410   29.4380 C   0  0  0  0  0
    7.5440   -1.9260   29.5840 C   0  0  0  0  0
    8.0790   -0.4630   29.3640 C   0  0  0  0  0
    8.6910   -0.3380   27.9350 C   0  0  0  0  0
    9.8610   -1.3670   27.7830 C   0  0  0  0  0
    8.2180   -3.1220   26.9260 C   0  0  0  0  0
    6.4380   -2.2590   28.5170 C   0  0  0  0  0
    7.5910   -0.6450   26.8710 C   0  0  0  0  0
    7.0400   -2.1040   27.0820 C   0  0  0  0  0
   10.4790   -3.9100   27.7140 C   0  0  0  0  0
   11.6460   -4.1850   28.7290 C   0  0  0  0  0
   12.5780   -3.0860   28.6570 C   0  0  0  0  0
   13.3010   -2.1640   28.5930 C   0  0  0  0  0
   14.1560   -0.9990   28.5130 C   0  0  0  0  0
   13.4140    0.3070   28.1280 C   0  0  0  0  0
   14.3720    1.4100   27.5190 C   0  0  0  0  0
   12.7020    0.7540   29.4230 C   0  0  0  0  0
   11.2140   -4.2900   30.0830 O   0  0  0  0  0
   13.7740    2.7060   26.8810 C   0  0  0  0  0
   15.0850    3.2680   26.2180 C   0  0  0  0  0
   15.6710    2.0590   25.4840 C   0  0  0  0  0
   15.3170    0.8800   26.3900 C   0  0  0  0  0
   13.2930    3.7790   27.9140 C   0  0  0  0  0
   13.0590    5.1760   27.2790 C   0  0  0  0  0
   14.2410    5.6420   26.3950 C   0  0  0  0  0
   14.7190    4.5490   25.4310 C   0  0  0  0  0
   12.6240    2.3600   25.8360 C   0  0  0  0  0
   14.8540    4.6400   24.1000 C   0  0  0  0  0
   14.5860    5.7890   23.2470 C   0  0  0  0  0
   14.3650    5.7340   21.9190 C   0  0  0  0  0
   14.1490    7.0310   21.1510 C   0  0  0  0  0
   14.7910    7.0360   19.7370 C   0  0  0  0  0
   14.3920    5.7890   18.9620 C   0  0  0  0  0
   14.9010    4.5310   19.6310 C   0  0  0  0  0
   14.3460    4.4440   21.0710 C   0  0  0  0  0
   13.6310    5.7650   17.8470 C   0  0  0  0  0
   14.4950    3.3990   18.8800 O   0  0  0  0  0
   16.2110    7.0350   19.8660 O   0  0  0  0  0
    9.4994   -2.7012   30.1729 H   0  0  0  0  0
    8.3592   -3.9525   29.6018 H   0  0  0  0  0
    7.1131   -2.0039   30.5822 H   0  0  0  0  0
    8.8459   -0.2427   30.1066 H   0  0  0  0  0
    7.2550    0.2430   29.4677 H   0  0  0  0  0
    9.0697    0.6732   27.7861 H   0  0  0  0  0
   10.2732   -1.2798   26.7777 H   0  0  0  0  0
   10.6164   -1.1496   28.5381 H   0  0  0  0  0
    7.8320   -4.1298   27.0795 H   0  0  0  0  0
    8.6433   -3.0146   25.9282 H   0  0  0  0  0
    5.5984   -1.5742   28.6362 H   0  0  0  0  0
    6.0913   -3.2827   28.6584 H   0  0  0  0  0
    8.0212   -0.5625   25.8729 H   0  0  0  0  0
    6.7743    0.0686   26.9800 H   0  0  0  0  0
    6.2630   -2.2959   26.3420 H   0  0  0  0  0
   10.9932   -3.5108   26.8397 H   0  0  0  0  0
    9.9355   -4.8546   27.6918 H   0  0  0  0  0
   12.0888   -5.1405   28.4477 H   0  0  0  0  0
   14.8925   -1.1929   27.7332 H   0  0  0  0  0
   14.5851   -0.8457   29.5032 H   0  0  0  0  0
   12.6993    0.1415   27.3218 H   0  0  0  0  0
   14.8568    1.6710   28.4597 H   0  0  0  0  0
   12.0097   -0.0248   29.7429 H   0  0  0  0  0
   13.4436    0.9255   30.2032 H   0  0  0  0  0
   12.1518    1.6757   29.2340 H   0  0  0  0  0
   11.9722   -4.4573   30.6476 H   0  0  0  0  0
   15.8768    3.6357   26.8707 H   0  0  0  0  0
   16.7449    2.1512   25.3214 H   0  0  0  0  0
   15.2668    1.9468   24.4779 H   0  0  0  0  0
   14.8191    0.0984   25.8162 H   0  0  0  0  0
   16.2207    0.4516   26.8235 H   0  0  0  0  0
   14.0729    3.8850   28.6681 H   0  0  0  0  0
   12.3424    3.4393   28.3252 H   0  0  0  0  0
   12.9462    5.8955   28.0900 H   0  0  0  0  0
   12.1751    5.1093   26.6446 H   0  0  0  0  0
   15.0721    5.8983   27.0520 H   0  0  0  0  0
   13.9026    6.4906   25.8005 H   0  0  0  0  0
   13.0334    1.7383   25.0397 H   0  0  0  0  0
   11.8234    1.8219   26.3436 H   0  0  0  0  0
   12.2305    3.2837   25.4116 H   0  0  0  0  0
   15.2084    3.7421   23.5938 H   0  0  0  0  0
   14.5623    6.7708   23.7198 H   0  0  0  0  0
   14.6186    7.8304   21.7242 H   0  0  0  0  0
   13.0741    7.1565   21.0206 H   0  0  0  0  0
   14.4458    7.9237   19.2070 H   0  0  0  0  0
   15.9898    4.5568   19.6756 H   0  0  0  0  0
   13.2945    4.1769   20.9654 H   0  0  0  0  0
   14.9927    3.7390   21.5934 H   0  0  0  0  0
   13.2467    6.6956   17.4293 H   0  0  0  0  0
   13.4009    4.8151   17.3645 H   0  0  0  0  0
   14.8184    2.6014   19.3053 H   0  0  0  0  0
   16.6105    7.0381   18.9931 H   0  0  0  0  0
  1  2  1  0  0  0
  1  6  1  0  0  0
  1  7  1  0  0  0
  1 11  1  0  0  0
  2  3  1  0  0  0
  3  4  1  0  0  0
  3  8  1  0  0  0
  4  5  1  0  0  0
  5  6  1  0  0  0
  5  9  1  0  0  0
  7 10  1  0  0  0
  8 10  1  0  0  0
  9 10  1  0  0  0
 11 12  1  0  0  0
 12 13  1  0  0  0
 12 19  1  0  0  0
 13 14  3  0  0  0
 14 15  1  0  0  0
 15 16  1  0  0  0
 16 17  1  0  0  0
 16 18  1  0  0  0
 17 20  1  0  0  0
 17 23  1  0  0  0
 20 21  1  0  0  0
 20 24  1  0  0  0
 20 28  1  0  0  0
 21 22  1  0  0  0
 21 27  1  0  0  0
 22 23  1  0  0  0
 24 25  1  0  0  0
 25 26  1  0  0  0
 26 27  1  0  0  0
 27 29  2  0  0  0
 29 30  1  0  0  0
 30 31  2  0  0  0
 31 32  1  0  0  0
 31 36  1  0  0  0
 32 33  1  0  0  0
 33 34  1  0  0  0
 33 39  1  0  0  0
 34 35  1  0  0  0
 34 37  2  0  0  0
 35 36  1  0  0  0
 35 38  1  0  0  0
  2 40  1  0  0  0
  2 41  1  0  0  0
  3 42  1  0  0  0
  4 43  1  0  0  0
  4 44  1  0  0  0
  5 45  1  0  0  0
  6 46  1  0  0  0
  6 47  1  0  0  0
  7 48  1  0  0  0
  7 49  1  0  0  0
  8 50  1  0  0  0
  8 51  1  0  0  0
  9 52  1  0  0  0
  9 53  1  0  0  0
 10 54  1  0  0  0
 11 55  1  0  0  0
 11 56  1  0  0  0
 12 57  1  0  0  0
 15 58  1  0  0  0
 15 59  1  0  0  0
 16 60  1  0  0  0
 17 61  1  0  0  0
 18 62  1  0  0  0
 18 63  1  0  0  0
 18 64  1  0  0  0
 19 65  1  0  0  0
 21 66  1  0  0  0
 22 67  1  0  0  0
 22 68  1  0  0  0
 23 69  1  0  0  0
 23 70  1  0  0  0
 24 71  1  0  0  0
 24 72  1  0  0  0
 25 73  1  0  0  0
 25 74  1  0  0  0
 26 75  1  0  0  0
 26 76  1  0  0  0
 28 77  1  0  0  0
 28 78  1  0  0  0
 28 79  1  0  0  0
 29 80  1  0  0  0
 30 81  1  0  0  0
 32 82  1  0  0  0
 32 83  1  0  0  0
 33 84  1  0  0  0
 35 85  1  0  0  0
 36 86  1  0  0  0
 36 87  1  0  0  0
 37 88  1  0  0  0
 37 89  1  0  0  0
 38 90  1  0  0  0
 39 91  1  0  0  0
M  END
$$$$
