5ul5_ligand
  -I-interpret- 

 50 50  0  0  0  0  0  0  0  0999 V2000
  -38.4720  134.8650    9.2530 C   0  0  0  0  0
  -38.7660  134.9730   12.0030 C   0  0  0  0  0
  -39.3810  135.7600    9.8330 C   0  0  0  0  0
  -40.1090  136.6000    7.6290 C   0  0  0  0  0
  -44.6660  136.3200    8.0120 C   0  0  0  0  0
  -43.1960  136.2530    7.5630 C   0  0  0  0  0
  -35.5050  133.6930    9.0140 O   0  0  0  0  0
  -36.6750  133.0410    9.5030 C   0  0  0  0  0
  -37.2420  132.2860    8.3000 C   0  0  0  0  0
  -36.2560  131.2160    7.8220 C   0  0  0  0  0
  -35.0250  131.7520    7.2200 N   0  3  0  0  0
  -37.7070  134.0140   10.0610 C   0  0  0  0  0
  -37.8630  134.0930   11.4360 C   0  0  0  0  0
  -39.5360  135.8030   11.2080 C   0  0  0  0  0
  -40.1560  136.6030    9.0630 O   0  0  0  0  0
  -41.0780  137.6480    7.1250 C   0  0  0  0  0
  -42.4780  137.5580    7.7550 C   0  0  0  0  0
  -40.4770  139.0490    7.3270 C   0  0  0  0  0
  -41.3800  140.2100    6.8770 C   0  0  0  0  0
  -40.7300  141.5440    6.9710 C   0  0  0  0  0
  -38.3598  134.8309    8.1693 H   0  0  0  0  0
  -38.8723  135.0132   13.0871 H   0  0  0  0  0
  -40.3851  135.6176    7.2459 H   0  0  0  0  0
  -39.0994  136.8255    7.2856 H   0  0  0  0  0
  -44.7099  136.5762    9.0705 H   0  0  0  0  0
  -45.1878  137.0804    7.4309 H   0  0  0  0  0
  -45.1381  135.3507    7.8516 H   0  0  0  0  0
  -43.1789  136.0122    6.5001 H   0  0  0  0  0
  -42.6927  135.4992    8.1685 H   0  0  0  0  0
  -35.0959  134.1902    9.7260 H   0  0  0  0  0
  -36.4269  132.3839   10.3365 H   0  0  0  0  0
  -37.4163  132.9933    7.4892 H   0  0  0  0  0
  -38.1735  131.8021    8.5936 H   0  0  0  0  0
  -36.7626  130.6344    7.0518 H   0  0  0  0  0
  -35.9596  130.6390    8.6980 H   0  0  0  0  0
  -34.4256  130.9794    6.9298 H   0  0  0  0  0
  -35.2648  132.3213    6.4084 H   0  0  0  0  0
  -34.5342  132.3255    7.9060 H   0  0  0  0  0
  -37.2637  133.4505   12.0811 H   0  0  0  0  0
  -40.2574  136.4839   11.6597 H   0  0  0  0  0
  -41.2246  137.4533    6.0626 H   0  0  0  0  0
  -42.3413  137.6799    8.8295 H   0  0  0  0  0
  -43.0858  138.3195    7.2664 H   0  0  0  0  0
  -39.5740  139.0965    6.7183 H   0  0  0  0  0
  -40.3141  139.1718    8.3977 H   0  0  0  0  0
  -42.2474  140.2229    7.5370 H   0  0  0  0  0
  -41.6290  140.0419    5.8292 H   0  0  0  0  0
  -40.4451  141.7358    8.0055 H   0  0  0  0  0
  -39.8418  141.5593    6.3394 H   0  0  0  0  0
  -41.4283  142.3113    6.6368 H   0  0  0  0  0
  3  1  4  0  0  0
  1 12  4  0  0  0
  2 13  4  0  0  0
 14  2  4  0  0  0
  3 14  4  0  0  0
 15  3  1  0  0  0
  4 15  1  0  0  0
 16  4  1  0  0  0
  6  5  1  0  0  0
 17  6  1  0  0  0
  8  7  1  0  0  0
  8  9  1  0  0  0
 12  8  1  0  0  0
  9 10  1  0  0  0
 10 11  1  0  0  0
 12 13  4  0  0  0
 16 17  1  0  0  0
 16 18  1  0  0  0
 18 19  1  0  0  0
 19 20  1  0  0  0
  1 21  1  0  0  0
  2 22  1  0  0  0
  4 23  1  0  0  0
  4 24  1  0  0  0
  5 25  1  0  0  0
  5 26  1  0  0  0
  5 27  1  0  0  0
  6 28  1  0  0  0
  6 29  1  0  0  0
  7 30  1  0  0  0
  8 31  1  0  0  0
  9 32  1  0  0  0
  9 33  1  0  0  0
 10 34  1  0  0  0
 10 35  1  0  0  0
 11 36  1  0  0  0
 11 37  1  0  0  0
 11 38  1  0  0  0
 13 39  1  0  0  0
 14 40  1  0  0  0
 16 41  1  0  0  0
 17 42  1  0  0  0
 17 43  1  0  0  0
 18 44  1  0  0  0
 18 45  1  0  0  0
 19 46  1  0  0  0
 19 47  1  0  0  0
 20 48  1  0  0  0
 20 49  1  0  0  0
 20 50  1  0  0  0
M  END
$$$$
