3kec_ligand
  -I-interpret- 

 54 57  0  0  0  0  0  0  0  0999 V2000
   82.0980    9.6500   35.7790 C   0  0  0  0  0
   82.7220   10.8580   36.0090 C   0  0  0  0  0
   86.2950    9.9820   35.6580 C   0  0  0  0  0
   86.9950    8.9940   35.0160 N   0  0  0  0  0
   88.4260    9.1780   34.9210 C   0  0  0  0  0
   89.7000   10.9030   31.2400 C   0  0  0  0  0
   90.1860    9.6850   31.6570 C   0  0  0  0  0
   89.7650    9.1390   32.8490 C   0  0  0  0  0
   88.8550    9.8030   33.6370 C   0  0  0  0  0
   88.3670   11.0240   33.2210 C   0  0  0  0  0
   88.7870   11.5710   32.0270 C   0  0  0  0  0
   82.8550    8.5290   35.5030 C   0  0  0  0  0
   84.0950   10.9380   35.9650 C   0  0  0  0  0
   84.8380    9.8150   35.6910 C   0  0  0  0  0
   84.2340    8.6000   35.4580 C   0  0  0  0  0
   86.7990   10.9750   36.1690 O   0  0  0  0  0
   90.1690   11.4700   29.9610 C   0  0  0  0  0
   90.1810   12.7300   29.8510 O   0  0  0  0  0
   90.5280   10.6420   29.0800 O   0  0  0  0  0
   80.6850   12.2450   36.0680 N   0  0  0  0  0
   80.5640   13.4890   36.5520 N   0  0  0  0  0
   81.6710   14.0570   37.0550 N   0  0  0  0  0
   82.6070   13.1310   36.9020 N   0  0  0  0  0
   81.9900   12.0560   36.3110 C   0  0  0  0  0
   79.3030   14.1920   36.5280 C   0  0  0  0  0
   79.3940   17.4220   33.7590 C   0  0  0  0  0
   78.5060   17.4310   34.8210 C   0  0  0  0  0
   78.4990   16.3730   35.7050 C   0  0  0  0  0
   79.3630   15.3110   35.5430 C   0  0  0  0  0
   80.2510   15.3110   34.4800 C   0  0  0  0  0
   80.2670   16.3680   33.5890 C   0  0  0  0  0
   79.4330   18.4670   32.8370 O   0  0  0  0  0
   78.2980   19.3070   33.0240 C   0  0  0  0  0
   81.0108    9.5805   35.8150 H   0  0  0  0  0
   86.5315    8.1732   34.6263 H   0  0  0  0  0
   88.8899    8.1934   34.9798 H   0  0  0  0  0
   88.7273    9.8444   35.7292 H   0  0  0  0  0
   90.9080    9.1496   31.0405 H   0  0  0  0  0
   90.1560    8.1735   33.1700 H   0  0  0  0  0
   87.6459   11.5591   33.8390 H   0  0  0  0  0
   88.3953   12.5356   31.7043 H   0  0  0  0  0
   82.3587    7.5763   35.3183 H   0  0  0  0  0
   84.5924   11.8906   36.1472 H   0  0  0  0  0
   84.8306    7.7136   35.2428 H   0  0  0  0  0
   89.8583   13.1242   30.6647 H   0  0  0  0  0
   79.0985   14.5966   37.5192 H   0  0  0  0  0
   78.5118   13.5005   36.2383 H   0  0  0  0  0
   77.8191   18.2663   34.9570 H   0  0  0  0  0
   77.8015   16.3763   36.5426 H   0  0  0  0  0
   80.9386   14.4760   34.3457 H   0  0  0  0  0
   80.9679   16.3683   32.7542 H   0  0  0  0  0
   77.3884   18.7248   32.8763 H   0  0  0  0  0
   78.3108   19.7131   34.0355 H   0  0  0  0  0
   78.3293   20.1237   32.3028 H   0  0  0  0  0
  2  1  4  0  0  0
  1 12  4  0  0  0
  2 13  4  0  0  0
 24  2  1  0  0  0
  3  4  1  0  0  0
 14  3  1  0  0  0
  3 16  2  0  0  0
  4  5  1  0  0  0
  5  9  1  0  0  0
  7  6  4  0  0  0
 11  6  4  0  0  0
  6 17  1  0  0  0
  8  7  4  0  0  0
  9  8  4  0  0  0
  9 10  4  0  0  0
 10 11  4  0  0  0
 12 15  4  0  0  0
 13 14  4  0  0  0
 14 15  4  0  0  0
 17 18  1  0  0  0
 17 19  2  0  0  0
 21 20  4  0  0  0
 20 24  4  0  0  0
 21 22  4  0  0  0
 25 21  1  0  0  0
 22 23  4  0  0  0
 23 24  4  0  0  0
 29 25  1  0  0  0
 27 26  4  0  0  0
 26 31  4  0  0  0
 26 32  1  0  0  0
 28 27  4  0  0  0
 28 29  4  0  0  0
 29 30  4  0  0  0
 30 31  4  0  0  0
 32 33  1  0  0  0
  1 34  1  0  0  0
  4 35  1  0  0  0
  5 36  1  0  0  0
  5 37  1  0  0  0
  7 38  1  0  0  0
  8 39  1  0  0  0
 10 40  1  0  0  0
 11 41  1  0  0  0
 12 42  1  0  0  0
 13 43  1  0  0  0
 15 44  1  0  0  0
 18 45  1  0  0  0
 25 46  1  0  0  0
 25 47  1  0  0  0
 27 48  1  0  0  0
 28 49  1  0  0  0
 30 50  1  0  0  0
 31 51  1  0  0  0
 33 52  1  0  0  0
 33 53  1  0  0  0
 33 54  1  0  0  0
M  END
$$$$
