5ne5_ligand
  -I-interpret- 

 28 29  0  0  0  0  0  0  0  0999 V2000
   23.9050   18.7540   47.9100 C   0  0  0  0  0
   22.9670   18.3270   46.9040 O   0  0  0  0  0
   24.9420   17.6260   48.1550 C   0  0  0  0  0
   25.7330   17.8770   49.3440 O   0  0  0  0  0
   25.9520   17.5000   46.9900 C   0  0  0  0  0
   26.9220   16.5120   47.3720 O   0  0  0  0  0
   26.6140   18.8580   46.7500 C   0  0  0  0  0
   27.4300   18.9130   45.5050 N   0  0  0  0  0
   26.9180   19.7870   44.6440 C   0  0  0  0  0
   27.3710   20.0300   43.4970 O   0  0  0  0  0
   25.6920   20.4130   45.2330 C   0  0  0  0  0
   24.9820   21.2800   44.7290 O   0  0  0  0  0
   25.5880   19.8690   46.4850 N   0  0  0  0  0
   24.5210   20.0880   47.4930 C   0  0  0  0  0
   25.0170   20.8800   48.7010 C   0  0  0  0  0
   25.8060   22.0260   48.3480 O   0  0  0  0  0
   23.4113   18.9302   48.8657 H   0  0  0  0  0
   22.5791   17.4885   47.1650 H   0  0  0  0  0
   24.3521   16.7150   48.2562 H   0  0  0  0  0
   25.1504   17.9640   50.1021 H   0  0  0  0  0
   25.4630   17.1978   46.0639 H   0  0  0  0  0
   26.4812   15.6714   47.5161 H   0  0  0  0  0
   27.2203   19.0242   47.6404 H   0  0  0  0  0
   28.2676   18.3559   45.3361 H   0  0  0  0  0
   23.7457   20.6962   47.0272 H   0  0  0  0  0
   25.6484   20.2163   49.2917 H   0  0  0  0  0
   24.1404   21.2387   49.2405 H   0  0  0  0  0
   26.0859   22.4788   49.1469 H   0  0  0  0  0
  1  2  1  0  0  0
  1  3  1  0  0  0
  1 14  1  0  0  0
  3  4  1  0  0  0
  3  5  1  0  0  0
  5  6  1  0  0  0
  5  7  1  0  0  0
  7  8  1  0  0  0
  7 13  1  0  0  0
  8  9  1  0  0  0
  9 10  2  0  0  0
  9 11  1  0  0  0
 11 12  2  0  0  0
 11 13  1  0  0  0
 13 14  1  0  0  0
 14 15  1  0  0  0
 15 16  1  0  0  0
  1 17  1  0  0  0
  2 18  1  0  0  0
  3 19  1  0  0  0
  4 20  1  0  0  0
  5 21  1  0  0  0
  6 22  1  0  0  0
  7 23  1  0  0  0
  8 24  1  0  0  0
 14 25  1  0  0  0
 15 26  1  0  0  0
 15 27  1  0  0  0
 16 28  1  0  0  0
M  END
$$$$
