4j7i_ligand
  -I-interpret- 

 81 80  0  0  0  0  0  0  0  0999 V2000
   45.9770   -4.6030  -18.8350 N   0  3  0  0  0
   47.4440   -4.7590  -19.1040 C   0  0  0  0  0
   48.1810   -5.6270  -18.0610 C   0  0  0  0  0
   48.7090   -6.6820  -18.4100 O   0  0  0  0  0
   48.1380   -3.3790  -19.2660 C   0  0  0  0  0
   49.4040   -3.4950  -19.9140 O   0  0  0  0  0
   48.2420   -5.1850  -16.7970 N   0  0  0  0  0
   49.1110   -5.8610  -15.8110 C   0  0  0  0  0
   48.4230   -7.0190  -14.9730 C   0  0  0  0  0
   48.5150   -7.0700  -13.7490 O   0  0  0  0  0
   49.9000   -4.8270  -14.9560 C   0  0  0  0  0
   47.7680   -7.9640  -15.6660 N   0  0  0  0  0
   46.9950   -9.0460  -15.0100 C   0  0  0  0  0
   46.6970  -10.1660  -15.9900 C   0  0  0  0  0
   46.5680   -9.9040  -17.1790 O   0  0  0  0  0
   45.6690   -8.5160  -14.4820 C   0  0  0  0  0
   44.9080   -7.9740  -15.5340 O   0  0  0  0  0
   46.5390  -11.3940  -15.4760 N   0  0  0  0  0
   46.4230  -12.5880  -16.2990 C   0  0  0  0  0
   45.2080  -12.5650  -17.2480 C   0  0  0  0  0
   44.1550  -11.9520  -16.9550 O   0  0  0  0  0
   46.3340  -13.8260  -15.4070 C   0  0  0  0  0
   47.5110  -14.0310  -14.4740 C   0  0  0  0  0
   47.2000  -15.0300  -13.3540 C   0  0  0  0  0
   48.3450  -15.0980  -12.3220 C   0  0  0  0  0
   48.1180  -16.0260  -11.1450 N   0  3  0  0  0
   45.3590  -13.2140  -18.4040 N   0  0  0  0  0
   44.2000  -13.7130  -19.1470 C   0  0  0  0  0
   43.1740  -12.6210  -19.6440 C   0  0  0  0  0
   41.9790  -12.9060  -19.7690 O   0  0  0  0  0
   43.5440  -14.8470  -18.3000 C   0  0  0  0  0
   42.3680  -15.5140  -18.9910 C   0  0  0  0  0
   42.5840  -16.2850  -19.9470 O   0  0  0  0  0
   41.2140  -15.2800  -18.5500 O   0  0  0  0  0
   43.6560  -11.4100  -20.0020 N   0  0  0  0  0
   42.7900  -10.3200  -20.6110 C   0  0  0  0  0
   41.9950  -10.6850  -21.9100 C   0  0  0  0  0
   42.5430  -11.2060  -22.8950 O   0  0  0  0  0
   43.5830   -9.0110  -20.8240 C   0  0  0  0  0
   40.7595  -10.4422  -21.9572 O   0  0  0  0  0
   45.5512   -5.5244  -18.7338 H   0  0  0  0  0
   45.8450   -4.0699  -17.9755 H   0  0  0  0  0
   45.5405   -4.1090  -19.6134 H   0  0  0  0  0
   47.5121   -5.3002  -20.0477 H   0  0  0  0  0
   48.2985   -2.9578  -18.2736 H   0  0  0  0  0
   47.4974   -2.7431  -19.8771 H   0  0  0  0  0
   49.8012   -2.6249  -19.9960 H   0  0  0  0  0
   47.6859   -4.3781  -16.5142 H   0  0  0  0  0
   49.8434   -6.4184  -16.3950 H   0  0  0  0  0
   50.5232   -4.2168  -15.6098 H   0  0  0  0  0
   49.1973   -4.1878  -14.4214 H   0  0  0  0  0
   50.5301   -5.3548  -14.2401 H   0  0  0  0  0
   47.8035   -7.9366  -16.6850 H   0  0  0  0  0
   47.6014   -9.4235  -14.1867 H   0  0  0  0  0
   45.8645   -7.7369  -13.7452 H   0  0  0  0  0
   45.1138   -9.3356  -14.0258 H   0  0  0  0  0
   44.0756   -7.6438  -15.1882 H   0  0  0  0  0
   46.4983  -11.4958  -14.4619 H   0  0  0  0  0
   47.3171  -12.6180  -16.9217 H   0  0  0  0  0
   46.3050  -14.6901  -16.0708 H   0  0  0  0  0
   45.4532  -13.6974  -14.7780 H   0  0  0  0  0
   47.7487  -13.0716  -14.0144 H   0  0  0  0  0
   48.3408  -14.4273  -15.0592 H   0  0  0  0  0
   47.0761  -16.0180  -13.7975 H   0  0  0  0  0
   46.2939  -14.7045  -12.8431 H   0  0  0  0  0
   48.4462  -14.0948  -11.9080 H   0  0  0  0  0
   49.2159  -15.4820  -12.8533 H   0  0  0  0  0
   48.9299  -15.9958  -10.5283 H   0  0  0  0  0
   47.2887  -15.7263  -10.6323 H   0  0  0  0  0
   47.9832  -16.9781  -11.4853 H   0  0  0  0  0
   46.2966  -13.3649  -18.7761 H   0  0  0  0  0
   44.5603  -14.1077  -20.0970 H   0  0  0  0  0
   43.1714  -14.3959  -17.3803 H   0  0  0  0  0
   44.3025  -15.6116  -18.1318 H   0  0  0  0  0
   41.2719  -14.6629  -17.8169 H   0  0  0  0  0
   44.6473  -11.2189  -19.8566 H   0  0  0  0  0
   42.0195  -10.1817  -19.8525 H   0  0  0  0  0
   43.9588   -8.6551  -19.8647 H   0  0  0  0  0
   44.4201   -9.2001  -21.4960 H   0  0  0  0  0
   42.9276   -8.2577  -21.2610 H   0  0  0  0  0
   40.4811  -10.0431  -21.1297 H   0  0  0  0  0
  1  2  1  0  0  0
  2  3  1  0  0  0
  2  5  1  0  0  0
  3  4  2  0  0  0
  3  7  1  0  0  0
  5  6  1  0  0  0
  7  8  1  0  0  0
  8  9  1  0  0  0
  8 11  1  0  0  0
  9 10  2  0  0  0
  9 12  1  0  0  0
 12 13  1  0  0  0
 13 14  1  0  0  0
 13 16  1  0  0  0
 14 15  2  0  0  0
 14 18  1  0  0  0
 16 17  1  0  0  0
 18 19  1  0  0  0
 19 20  1  0  0  0
 19 22  1  0  0  0
 20 21  2  0  0  0
 20 27  1  0  0  0
 22 23  1  0  0  0
 23 24  1  0  0  0
 24 25  1  0  0  0
 25 26  1  0  0  0
 27 28  1  0  0  0
 28 29  1  0  0  0
 28 31  1  0  0  0
 29 30  2  0  0  0
 29 35  1  0  0  0
 31 32  1  0  0  0
 32 33  2  0  0  0
 32 34  1  0  0  0
 35 36  1  0  0  0
 36 37  1  0  0  0
 36 39  1  0  0  0
 37 38  2  0  0  0
 37 40  1  0  0  0
  1 41  1  0  0  0
  1 42  1  0  0  0
  1 43  1  0  0  0
  2 44  1  0  0  0
  5 45  1  0  0  0
  5 46  1  0  0  0
  6 47  1  0  0  0
  7 48  1  0  0  0
  8 49  1  0  0  0
 11 50  1  0  0  0
 11 51  1  0  0  0
 11 52  1  0  0  0
 12 53  1  0  0  0
 13 54  1  0  0  0
 16 55  1  0  0  0
 16 56  1  0  0  0
 17 57  1  0  0  0
 18 58  1  0  0  0
 19 59  1  0  0  0
 22 60  1  0  0  0
 22 61  1  0  0  0
 23 62  1  0  0  0
 23 63  1  0  0  0
 24 64  1  0  0  0
 24 65  1  0  0  0
 25 66  1  0  0  0
 25 67  1  0  0  0
 26 68  1  0  0  0
 26 69  1  0  0  0
 26 70  1  0  0  0
 27 71  1  0  0  0
 28 72  1  0  0  0
 31 73  1  0  0  0
 31 74  1  0  0  0
 34 75  1  0  0  0
 35 76  1  0  0  0
 36 77  1  0  0  0
 39 78  1  0  0  0
 39 79  1  0  0  0
 39 80  1  0  0  0
 40 81  1  0  0  0
M  END
$$$$
