### 
### Created by X-TOOL on Mon Sep 10 21:12:52 2018
### 

@<TRIPOS>MOLECULE
1yk7_ligand
   54    55     1     0     0
SMALL
GAST_HUCK


@<TRIPOS>ATOM
      1 C1         75.6310 -127.7220   35.3020 C.3       1 NBL        -0.0625
      2 C2         75.9270 -128.3570   33.9360 C.3       1 NBL        -0.0425
      3 C3         77.1090 -129.3030   34.0550 C.3       1 NBL        -0.0625
      4 C4         74.7220 -129.1260   33.4770 C.3       1 NBL        -0.0101
      5 C5         73.6750 -128.1510   32.9370 C.3       1 NBL         0.1329
      6 N6         72.4840 -128.9390   32.4950 N.am      1 NBL        -0.2411
      7 C7         71.6040 -128.4930   31.5260 C.2       1 NBL         0.3239
      8 O8         71.3750 -127.2920   31.3780 O.2       1 NBL        -0.3773
      9 O9         70.9930 -129.3780   30.7590 O.3       1 NBL        -0.2506
     10 C10        69.7650 -128.9060   30.2370 C.3       1 NBL         0.1113
     11 C11        68.8570 -130.0860   29.9870 C.ar      1 NBL        -0.0130
     12 C12        69.3980 -131.3090   29.5860 C.ar      1 NBL        -0.0578
     13 C13        68.5670 -132.3930   29.3610 C.ar      1 NBL        -0.0685
     14 C14        67.1880 -132.2660   29.5350 C.ar      1 NBL        -0.0687
     15 C15        66.6480 -131.0530   29.9310 C.ar      1 NBL        -0.0685
     16 C16        67.4830 -129.9590   30.1590 C.ar      1 NBL        -0.0578
     17 C17        74.3020 -127.3170   31.7650 C.2       1 NBL         0.2019
     18 O18        74.8350 -127.8910   30.8150 O.2       1 NBL        -0.3945
     19 N19        74.2050 -125.9480   31.7990 N.am      1 NBL        -0.2799
     20 C20        75.3250 -125.0290   31.4400 C.3       1 NBL         0.0656
     21 C21        75.0190 -124.2750   30.1680 C.3       1 NBL        -0.0061
     22 C22        76.3710 -124.1160   29.4460 C.3       1 NBL         0.0402
     23 N23        77.3860 -124.7710   30.3020 N.pl3     1 NBL        -0.2768
     24 C24        76.6720 -125.7010   31.2170 C.3       1 NBL         0.0610
     25 C25        78.3670 -125.4100   29.5000 C.2       1 NBL         0.0781
     26 N26        78.9030 -124.7210   28.4870 N.2       1 NBL        -0.3728
     27 H1         76.5115 -127.1573   35.6423 H         1 NBL         0.0232
     28 H2         75.3980 -128.5121   36.0309 H         1 NBL         0.0232
     29 H3         74.7715 -127.0415   35.2115 H         1 NBL         0.0232
     30 H4         76.1607 -127.5673   33.2068 H         1 NBL         0.0298
     31 H5         77.3169 -129.7552   33.0740 H         1 NBL         0.0232
     32 H6         76.8732 -130.0949   34.7811 H         1 NBL         0.0232
     33 H7         77.9930 -128.7442   34.3959 H         1 NBL         0.0232
     34 H8         74.2995 -129.6867   34.3238 H         1 NBL         0.0315
     35 H9         75.0149 -129.8277   32.6822 H         1 NBL         0.0315
     36 H10        73.3688 -127.4608   33.7369 H         1 NBL         0.0799
     37 H11        72.3161 -129.8289   32.9192 H         1 NBL         0.1899
     38 H12        69.9456 -128.3719   29.2925 H         1 NBL         0.0776
     39 H13        69.2939 -128.2237   30.9598 H         1 NBL         0.0776
     40 H14        70.4688 -131.4097   29.4508 H         1 NBL         0.0557
     41 H15        68.9880 -133.3420   29.0492 H         1 NBL         0.0599
     42 H16        66.5392 -133.1167   29.3603 H         1 NBL         0.0559
     43 H17        65.5767 -130.9541   30.0636 H         1 NBL         0.0599
     44 H18        67.0609 -129.0103   30.4701 H         1 NBL         0.0557
     45 H19        73.3347 -125.5436   32.0802 H         1 NBL         0.1855
     46 H20        75.4334 -124.3103   32.2657 H         1 NBL         0.0578
     47 H21        74.5891 -123.2894   30.3997 H         1 NBL         0.0309
     48 H22        74.3149 -124.8446   29.5437 H         1 NBL         0.0309
     49 H23        76.6112 -123.0500   29.3201 H         1 NBL         0.0539
     50 H24        76.3346 -124.6026   28.4602 H         1 NBL         0.0539
     51 H25        76.5445 -126.6888   30.7502 H         1 NBL         0.0561
     52 H26        77.2166 -125.8116   32.1663 H         1 NBL         0.0561
     53 H27        78.6751 -126.4344   29.7041 H         1 NBL         0.1453
     54 H28        79.6021 -125.1491   27.9004 H         1 NBL         0.0810
@<TRIPOS>BOND
     1    1    2 1  
     2    2    3 1  
     3    2    4 1  
     4    4    5 1  
     5    5    6 1  
     6    5   17 1  
     7    6    7 am 
     8    7    8 2  
     9    7    9 1  
    10    9   10 1  
    11   10   11 1  
    12   11   12 ar 
    13   11   16 ar 
    14   12   13 ar 
    15   13   14 ar 
    16   14   15 ar 
    17   15   16 ar 
    18   17   18 2  
    19   17   19 am 
    20   19   20 1  
    21   20   21 1  
    22   20   24 1  
    23   21   22 1  
    24   22   23 1  
    25   23   24 1  
    26   23   25 1  
    27   25   26 2  
    28    1   27 1  
    29    1   28 1  
    30    1   29 1  
    31    2   30 1  
    32    3   31 1  
    33    3   32 1  
    34    3   33 1  
    35    4   34 1  
    36    4   35 1  
    37    5   36 1  
    38    6   37 1  
    39   10   38 1  
    40   10   39 1  
    41   12   40 1  
    42   13   41 1  
    43   14   42 1  
    44   15   43 1  
    45   16   44 1  
    46   19   45 1  
    47   20   46 1  
    48   21   47 1  
    49   21   48 1  
    50   22   49 1  
    51   22   50 1  
    52   24   51 1  
    53   24   52 1  
    54   25   53 1  
    55   26   54 1  
@<TRIPOS>SUBSTRUCTURE
     1 NBL         1

