1yk7_ligand
  -I-interpret- 

 54 55  0  0  0  0  0  0  0  0999 V2000
   75.6310 -127.7220   35.3020 C   0  0  0  0  0
   75.9270 -128.3570   33.9360 C   0  0  0  0  0
   77.1090 -129.3030   34.0550 C   0  0  0  0  0
   74.7220 -129.1260   33.4770 C   0  0  0  0  0
   73.6750 -128.1510   32.9370 C   0  0  0  0  0
   72.4840 -128.9390   32.4950 N   0  0  0  0  0
   71.6040 -128.4930   31.5260 C   0  0  0  0  0
   71.3750 -127.2920   31.3780 O   0  0  0  0  0
   70.9930 -129.3780   30.7590 O   0  0  0  0  0
   69.7650 -128.9060   30.2370 C   0  0  0  0  0
   68.8570 -130.0860   29.9870 C   0  0  0  0  0
   69.3980 -131.3090   29.5860 C   0  0  0  0  0
   68.5670 -132.3930   29.3610 C   0  0  0  0  0
   67.1880 -132.2660   29.5350 C   0  0  0  0  0
   66.6480 -131.0530   29.9310 C   0  0  0  0  0
   67.4830 -129.9590   30.1590 C   0  0  0  0  0
   74.3020 -127.3170   31.7650 C   0  0  0  0  0
   74.8350 -127.8910   30.8150 O   0  0  0  0  0
   74.2050 -125.9480   31.7990 N   0  0  0  0  0
   75.3250 -125.0290   31.4400 C   0  0  0  0  0
   75.0190 -124.2750   30.1680 C   0  0  0  0  0
   76.3710 -124.1160   29.4460 C   0  0  0  0  0
   77.3860 -124.7710   30.3020 N   0  0  0  0  0
   76.6720 -125.7010   31.2170 C   0  0  0  0  0
   78.3670 -125.4100   29.5000 C   0  0  0  0  0
   78.9030 -124.7210   28.4870 N   0  0  0  0  0
   74.7792 -127.0480   35.2110 H   0  0  0  0  0
   75.4002 -128.5059   36.0233 H   0  0  0  0  0
   76.5042 -127.1628   35.6382 H   0  0  0  0  0
   76.1628 -127.5731   33.2163 H   0  0  0  0  0
   76.8760 -130.0843   34.7785 H   0  0  0  0  0
   77.3109 -129.7541   33.0835 H   0  0  0  0  0
   77.9855 -128.7472   34.3882 H   0  0  0  0  0
   74.3036 -129.6828   34.3155 H   0  0  0  0  0
   75.0118 -129.8225   32.6902 H   0  0  0  0  0
   73.3549 -127.4462   33.7044 H   0  0  0  0  0
   72.3127 -129.8466   32.9277 H   0  0  0  0  0
   69.9415 -128.3714   29.3036 H   0  0  0  0  0
   69.2984 -128.2251   30.9489 H   0  0  0  0  0
   70.4747 -131.4103   29.4501 H   0  0  0  0  0
   68.9903 -133.3473   29.0474 H   0  0  0  0  0
   66.5356 -133.1214   29.3593 H   0  0  0  0  0
   65.5708 -130.9536   30.0644 H   0  0  0  0  0
   67.0586 -129.0050   30.4719 H   0  0  0  0  0
   73.3173 -125.5355   32.0858 H   0  0  0  0  0
   75.4040 -124.3792   32.3116 H   0  0  0  0  0
   74.5629 -123.3075   30.3779 H   0  0  0  0  0
   74.2979 -124.8107   29.5506 H   0  0  0  0  0
   76.6101 -123.0635   29.2938 H   0  0  0  0  0
   76.3410 -124.5738   28.4573 H   0  0  0  0  0
   76.5718 -126.7014   30.7961 H   0  0  0  0  0
   77.2138 -125.8635   32.1488 H   0  0  0  0  0
   78.6754 -126.4353   29.7043 H   0  0  0  0  0
   78.6045 -123.7623   28.3079 H   0  0  0  0  0
  1  2  1  0  0  0
  2  3  1  0  0  0
  2  4  1  0  0  0
  4  5  1  0  0  0
  5  6  1  0  0  0
  5 17  1  0  0  0
  6  7  1  0  0  0
  7  8  2  0  0  0
  7  9  1  0  0  0
  9 10  1  0  0  0
 10 11  1  0  0  0
 11 12  4  0  0  0
 11 16  4  0  0  0
 12 13  4  0  0  0
 13 14  4  0  0  0
 14 15  4  0  0  0
 15 16  4  0  0  0
 17 18  2  0  0  0
 17 19  1  0  0  0
 19 20  1  0  0  0
 20 21  1  0  0  0
 20 24  1  0  0  0
 21 22  1  0  0  0
 22 23  1  0  0  0
 23 24  1  0  0  0
 23 25  1  0  0  0
 25 26  2  0  0  0
  1 27  1  0  0  0
  1 28  1  0  0  0
  1 29  1  0  0  0
  2 30  1  0  0  0
  3 31  1  0  0  0
  3 32  1  0  0  0
  3 33  1  0  0  0
  4 34  1  0  0  0
  4 35  1  0  0  0
  5 36  1  0  0  0
  6 37  1  0  0  0
 10 38  1  0  0  0
 10 39  1  0  0  0
 12 40  1  0  0  0
 13 41  1  0  0  0
 14 42  1  0  0  0
 15 43  1  0  0  0
 16 44  1  0  0  0
 19 45  1  0  0  0
 20 46  1  0  0  0
 21 47  1  0  0  0
 21 48  1  0  0  0
 22 49  1  0  0  0
 22 50  1  0  0  0
 24 51  1  0  0  0
 24 52  1  0  0  0
 25 53  1  0  0  0
 26 54  1  0  0  0
M  END
$$$$
