5dls_ligand
  -I-interpret- 

 74 78  0  0  0  0  0  0  0  0999 V2000
    5.8700   -4.0460   18.0870 C   0  0  0  0  0
    6.4420   -2.9750   18.7530 C   0  0  0  0  0
    2.4350   -3.8330   19.4790 C   0  0  0  0  0
    1.6620   -4.8550   19.0900 C   0  0  0  0  0
   -1.9260   -4.7870   20.0640 C   0  0  0  0  0
   -6.3370   -8.0540   18.1840 C   0  0  0  0  0
    8.4330   -5.6000   15.7670 C   0  0  0  0  0
   -4.3700   -9.2590   17.3380 C   0  0  0  0  0
   -3.0490   -6.7380   19.5930 C   0  0  0  0  0
   -0.7860   -5.3450   19.4770 C   0  0  0  0  0
    3.7920   -3.5960   19.2320 C   0  0  0  0  0
    3.7620   -1.7910   20.7000 O   0  0  0  0  0
    0.4240   -3.4050   20.1800 C   0  0  0  0  0
    0.4050   -4.6290   19.5330 C   0  0  0  0  0
   -4.8850   -8.3020   18.3380 N   0  3  0  0  0
   -4.5030   -8.6950   19.7100 C   0  0  0  0  0
   -4.0170   -7.4740   20.4980 C   0  0  0  0  0
   -3.2030   -7.8980   21.7410 C   0  0  0  0  0
   -5.2170   -6.5660   20.8860 C   0  0  0  0  0
   -3.1470   -5.3800   20.0420 O   0  0  0  0  0
   -1.8910   -3.5610   20.6950 C   0  0  0  0  0
   -0.7070   -2.8630   20.7710 C   0  0  0  0  0
    1.6520   -2.9430   20.1230 N   0  0  0  0  0
    4.5320   -4.3600   18.3510 C   0  0  0  0  0
    4.3840   -2.5070   19.8820 C   0  0  0  0  0
    5.6950   -2.1720   19.6190 N   0  0  0  0  0
    6.5910   -4.8100   17.2340 N   0  0  0  0  0
    7.7590   -4.4970   16.5780 C   0  0  0  0  0
    8.3500   -3.4080   16.6940 O   0  0  0  0  0
    7.7300   -6.6760   15.3480 C   0  0  0  0  0
    9.7460   -5.7260   15.4120 C   0  0  0  0  0
    9.8720   -6.9100   14.7130 N   0  0  0  0  0
    8.5510   -7.5200   14.7150 N   0  0  0  0  0
    8.0470   -8.7760   14.1450 C   0  0  0  0  0
    8.6350   -9.9410   14.9340 C   0  0  0  0  0
    8.1590  -10.1990   16.2410 C   0  0  0  0  0
    8.6930  -11.2550   17.0040 C   0  0  0  0  0
    9.7060  -12.0420   16.4390 C   0  0  0  0  0
   10.1820  -11.7980   15.1330 C   0  0  0  0  0
    9.6490  -10.7430   14.3760 C   0  0  0  0  0
    7.4980   -2.7535   18.5983 H   0  0  0  0  0
    1.9901   -5.7207   18.5147 H   0  0  0  0  0
   -6.5312   -7.6442   17.1928 H   0  0  0  0  0
   -6.8792   -8.9920   18.3034 H   0  0  0  0  0
   -6.6655   -7.3439   18.9429 H   0  0  0  0  0
   -3.2822   -9.2943   17.3973 H   0  0  0  0  0
   -4.7785  -10.2491   17.5404 H   0  0  0  0  0
   -4.6705   -8.9375   16.3408 H   0  0  0  0  0
   -3.2937   -6.8499   18.5367 H   0  0  0  0  0
   -2.0337   -7.1294   19.6571 H   0  0  0  0  0
   -0.8298   -6.3178   18.9873 H   0  0  0  0  0
   -4.4360   -7.4035   18.1604 H   0  0  0  0  0
   -3.6983   -9.4284   19.6587 H   0  0  0  0  0
   -5.3716   -9.1201   20.2130 H   0  0  0  0  0
   -2.3824   -8.5458   21.4327 H   0  0  0  0  0
   -2.8026   -7.0108   22.2315 H   0  0  0  0  0
   -3.8518   -8.4355   22.4326 H   0  0  0  0  0
   -4.8490   -5.6841   21.4104 H   0  0  0  0  0
   -5.7457   -6.2594   19.9835 H   0  0  0  0  0
   -5.8950   -7.1199   21.5353 H   0  0  0  0  0
   -2.7989   -3.1458   21.1325 H   0  0  0  0  0
   -0.6596   -1.9033   21.2856 H   0  0  0  0  0
    4.0700   -5.2148   17.8571 H   0  0  0  0  0
    6.1144   -1.3486   20.0509 H   0  0  0  0  0
    6.2188   -5.7423   17.0533 H   0  0  0  0  0
    6.6621   -6.8310   15.5020 H   0  0  0  0  0
   10.5465   -5.0218   15.6387 H   0  0  0  0  0
    8.3407   -8.8519   13.0981 H   0  0  0  0  0
    6.9589   -8.7997   14.2049 H   0  0  0  0  0
    7.3711   -9.5741   16.6615 H   0  0  0  0  0
    8.3271  -11.4559   18.0109 H   0  0  0  0  0
   10.1346  -12.8587   17.0199 H   0  0  0  0  0
   10.9643  -12.4294   14.7118 H   0  0  0  0  0
   10.0156  -10.5469   13.3684 H   0  0  0  0  0
  1  2  2  0  0  0
  1 24  1  0  0  0
 27  1  1  0  0  0
  2 26  1  0  0  0
  3  4  4  0  0  0
 11  3  1  0  0  0
  3 23  4  0  0  0
  4 14  4  0  0  0
 10  5  4  0  0  0
  5 20  1  0  0  0
 21  5  4  0  0  0
 15  6  1  0  0  0
 28  7  1  0  0  0
  7 30  4  0  0  0
  7 31  4  0  0  0
 15  8  1  0  0  0
  9 17  1  0  0  0
 20  9  1  0  0  0
 14 10  4  0  0  0
 24 11  2  0  0  0
 11 25  1  0  0  0
 25 12  2  0  0  0
 13 14  4  0  0  0
 13 22  4  0  0  0
 23 13  4  0  0  0
 16 15  1  0  0  0
 17 16  1  0  0  0
 17 18  1  0  0  0
 17 19  1  0  0  0
 22 21  4  0  0  0
 26 25  1  0  0  0
 27 28  1  0  0  0
 28 29  2  0  0  0
 30 33  4  0  0  0
 31 32  4  0  0  0
 32 33  4  0  0  0
 33 34  1  0  0  0
 34 35  1  0  0  0
 35 36  4  0  0  0
 35 40  4  0  0  0
 36 37  4  0  0  0
 37 38  4  0  0  0
 38 39  4  0  0  0
 39 40  4  0  0  0
  2 41  1  0  0  0
  4 42  1  0  0  0
  6 43  1  0  0  0
  6 44  1  0  0  0
  6 45  1  0  0  0
  8 46  1  0  0  0
  8 47  1  0  0  0
  8 48  1  0  0  0
  9 49  1  0  0  0
  9 50  1  0  0  0
 10 51  1  0  0  0
 15 52  1  0  0  0
 16 53  1  0  0  0
 16 54  1  0  0  0
 18 55  1  0  0  0
 18 56  1  0  0  0
 18 57  1  0  0  0
 19 58  1  0  0  0
 19 59  1  0  0  0
 19 60  1  0  0  0
 21 61  1  0  0  0
 22 62  1  0  0  0
 24 63  1  0  0  0
 26 64  1  0  0  0
 27 65  1  0  0  0
 30 66  1  0  0  0
 31 67  1  0  0  0
 34 68  1  0  0  0
 34 69  1  0  0  0
 36 70  1  0  0  0
 37 71  1  0  0  0
 38 72  1  0  0  0
 39 73  1  0  0  0
 40 74  1  0  0  0
M  END
$$$$
