4es0_ligand
  -I-interpret- 

 89 88  0  0  0  0  0  0  0  0999 V2000
  -11.1080  -31.2260  -12.7000 N   0  3  0  0  0
   -9.9740  -30.3370  -12.9010 C   0  0  0  0  0
   -9.7330  -29.4290  -11.7080 C   0  0  0  0  0
   -8.6030  -29.0030  -11.4660 O   0  0  0  0  0
  -10.7880  -29.1230  -10.9540 N   0  0  0  0  0
  -10.6200  -28.3240   -9.7400 C   0  0  0  0  0
  -11.6340  -28.7310   -8.6790 C   0  0  0  0  0
  -12.6720  -29.3080   -8.9950 O   0  0  0  0  0
  -10.7170  -26.8170  -10.0380 C   0  0  0  0  0
  -12.3830  -26.1860  -10.3310 S   0  0  0  0  0
  -11.3280  -28.4240   -7.4230 N   0  0  0  0  0
  -12.1810  -28.8500   -6.3230 C   0  0  0  0  0
  -13.6220  -28.3610   -6.4650 C   0  0  0  0  0
  -14.5680  -29.1160   -6.2060 O   0  0  0  0  0
  -11.5860  -28.4300   -4.9930 C   0  0  0  0  0
  -13.8080  -27.1150   -6.8870 N   0  0  0  0  0
  -15.1740  -26.5920   -6.9800 C   0  0  0  0  0
  -16.0400  -27.2870   -8.0440 C   0  0  0  0  0
  -17.2290  -27.5380   -7.8170 O   0  0  0  0  0
  -15.1810  -25.0700   -7.1770 C   0  0  0  0  0
  -16.5860  -24.4700   -7.1000 C   0  0  0  0  0
  -16.5960  -22.9510   -7.2840 C   0  0  0  0  0
  -15.7370  -22.2630   -6.3160 N   0  0  0  0  0
  -16.1450  -21.7610   -5.1520 C   0  0  0  0  0
  -17.4210  -21.8580   -4.7720 N   0  0  0  0  0
  -15.2720  -21.1520   -4.3610 N   0  0  0  0  0
  -15.4580  -27.5920   -9.2020 N   0  0  0  0  0
  -16.2160  -28.2320  -10.2720 C   0  0  0  0  0
  -16.4190  -29.7180   -9.9950 C   0  0  0  0  0
  -17.2670  -30.3610  -10.6140 O   0  0  0  0  0
  -15.5400  -28.0250  -11.6320 C   0  0  0  0  0
  -14.2540  -28.6320  -11.6750 O   0  0  0  0  0
  -15.6490  -30.2550   -9.0570 N   0  0  0  0  0
  -15.7970  -31.6540   -8.6570 C   0  0  0  0  0
  -16.9690  -31.8080   -7.6990 C   0  0  0  0  0
  -17.6780  -32.8160   -7.7300 O   0  0  0  0  0
  -14.5260  -32.1810   -7.9840 C   0  0  0  0  0
  -13.4040  -32.5260   -8.9480 C   0  0  0  0  0
  -13.7700  -33.6580   -9.8960 C   0  0  0  0  0
  -14.0500  -34.7780   -9.4120 O   0  0  0  0  0
  -13.7790  -33.4240  -11.1240 O   0  0  0  0  0
  -17.1670  -30.8010   -6.8530 N   0  0  0  0  0
  -18.2190  -30.8330   -5.8560 C   0  0  0  0  0
  -18.0580  -31.9590   -4.8570 C   0  0  0  0  0
  -16.9470  -32.3010   -4.4660 O   0  0  0  0  0
  -19.0799  -32.5533   -4.4210 O   0  0  0  0  0
  -11.2286  -31.8132  -13.5253 H   0  0  0  0  0
  -10.9368  -31.8144  -11.8846 H   0  0  0  0  0
  -11.9508  -30.6714  -12.5497 H   0  0  0  0  0
  -10.1867  -29.7087  -13.7659 H   0  0  0  0  0
   -9.0847  -30.9510  -13.0430 H   0  0  0  0  0
  -11.7166  -29.4471  -11.2243 H   0  0  0  0  0
   -9.6202  -28.5204   -9.3528 H   0  0  0  0  0
  -10.1552  -26.6461  -10.9563 H   0  0  0  0  0
  -10.3417  -26.3017   -9.1539 H   0  0  0  0  0
  -12.3242  -24.8798  -10.5745 H   0  0  0  0  0
  -10.4855  -27.8834   -7.2273 H   0  0  0  0  0
  -12.2244  -29.9386   -6.3579 H   0  0  0  0  0
  -10.6031  -28.8864   -4.8758 H   0  0  0  0  0
  -11.4896  -27.3446   -4.9661 H   0  0  0  0  0
  -12.2391  -28.7582   -4.1844 H   0  0  0  0  0
  -13.0118  -26.5309   -7.1425 H   0  0  0  0  0
  -15.6360  -26.8240   -6.0204 H   0  0  0  0  0
  -14.7816  -24.8595   -8.1691 H   0  0  0  0  0
  -14.5842  -24.6270   -6.3797 H   0  0  0  0  0
  -16.9872  -24.6880   -6.1102 H   0  0  0  0  0
  -17.1788  -24.9065   -7.9038 H   0  0  0  0  0
  -17.6175  -22.6009   -7.1357 H   0  0  0  0  0
  -16.2204  -22.7307   -8.2832 H   0  0  0  0  0
  -14.7500  -22.1608   -6.5523 H   0  0  0  0  0
  -17.7184  -21.4652   -3.8789 H   0  0  0  0  0
  -18.0986  -22.3249   -5.3748 H   0  0  0  0  0
  -14.2959  -21.0708   -4.6458 H   0  0  0  0  0
  -14.4712  -27.3758   -9.3427 H   0  0  0  0  0
  -17.1966  -27.7572  -10.3048 H   0  0  0  0  0
  -15.4213  -26.9543  -11.7984 H   0  0  0  0  0
  -16.1632  -28.4834  -12.3998 H   0  0  0  0  0
  -13.8601  -28.4837  -12.5378 H   0  0  0  0  0
  -14.9384  -29.6795   -8.6051 H   0  0  0  0  0
  -15.9796  -32.2350   -9.5610 H   0  0  0  0  0
  -14.7962  -33.1005   -7.4647 H   0  0  0  0  0
  -14.1565  -31.3890   -7.3326 H   0  0  0  0  0
  -12.5448  -32.8476   -8.3594 H   0  0  0  0  0
  -13.1958  -31.6409   -9.5491 H   0  0  0  0  0
  -13.9817  -34.7380   -8.4553 H   0  0  0  0  0
  -16.5610  -29.9823   -6.9072 H   0  0  0  0  0
  -19.1641  -30.9858   -6.3771 H   0  0  0  0  0
  -18.1808  -29.8936   -5.3045 H   0  0  0  0  0
  -19.8652  -32.1716   -4.8199 H   0  0  0  0  0
  1  2  1  0  0  0
  2  3  1  0  0  0
  3  4  2  0  0  0
  3  5  1  0  0  0
  5  6  1  0  0  0
  6  7  1  0  0  0
  6  9  1  0  0  0
  7  8  2  0  0  0
  7 11  1  0  0  0
  9 10  1  0  0  0
 11 12  1  0  0  0
 12 13  1  0  0  0
 12 15  1  0  0  0
 13 14  2  0  0  0
 13 16  1  0  0  0
 16 17  1  0  0  0
 17 18  1  0  0  0
 17 20  1  0  0  0
 18 19  2  0  0  0
 18 27  1  0  0  0
 20 21  1  0  0  0
 21 22  1  0  0  0
 22 23  1  0  0  0
 23 24  1  0  0  0
 24 25  1  0  0  0
 24 26  2  0  0  0
 27 28  1  0  0  0
 28 29  1  0  0  0
 28 31  1  0  0  0
 29 30  2  0  0  0
 29 33  1  0  0  0
 31 32  1  0  0  0
 33 34  1  0  0  0
 34 35  1  0  0  0
 34 37  1  0  0  0
 35 36  2  0  0  0
 35 42  1  0  0  0
 37 38  1  0  0  0
 38 39  1  0  0  0
 39 40  1  0  0  0
 39 41  2  0  0  0
 42 43  1  0  0  0
 43 44  1  0  0  0
 44 45  2  0  0  0
 44 46  1  0  0  0
  1 47  1  0  0  0
  1 48  1  0  0  0
  1 49  1  0  0  0
  2 50  1  0  0  0
  2 51  1  0  0  0
  5 52  1  0  0  0
  6 53  1  0  0  0
  9 54  1  0  0  0
  9 55  1  0  0  0
 10 56  1  0  0  0
 11 57  1  0  0  0
 12 58  1  0  0  0
 15 59  1  0  0  0
 15 60  1  0  0  0
 15 61  1  0  0  0
 16 62  1  0  0  0
 17 63  1  0  0  0
 20 64  1  0  0  0
 20 65  1  0  0  0
 21 66  1  0  0  0
 21 67  1  0  0  0
 22 68  1  0  0  0
 22 69  1  0  0  0
 23 70  1  0  0  0
 25 71  1  0  0  0
 25 72  1  0  0  0
 26 73  1  0  0  0
 27 74  1  0  0  0
 28 75  1  0  0  0
 31 76  1  0  0  0
 31 77  1  0  0  0
 32 78  1  0  0  0
 33 79  1  0  0  0
 34 80  1  0  0  0
 37 81  1  0  0  0
 37 82  1  0  0  0
 38 83  1  0  0  0
 38 84  1  0  0  0
 40 85  1  0  0  0
 42 86  1  0  0  0
 43 87  1  0  0  0
 43 88  1  0  0  0
 46 89  1  0  0  0
M  END
$$$$
