### 
### Created by X-TOOL on Mon Sep 10 21:13:11 2018
### 

@<TRIPOS>MOLECULE
4es0_ligand
   88    87     1     0     0
SMALL
GAST_HUCK


@<TRIPOS>ATOM
      1 N         -11.1080  -31.2260  -12.7000 N.4       1 GLY         0.2357
      2 CA         -9.9740  -30.3370  -12.9010 C.3       1 GLY         0.0545
      3 C          -9.7330  -29.4290  -11.7080 C.2       1 GLY         0.2237
      4 O          -8.6030  -29.0030  -11.4660 O.2       1 GLY        -0.3910
      5 N         -10.7880  -29.1230  -10.9540 N.am      1 CYS        -0.2605
      6 CA        -10.6200  -28.3240   -9.7400 C.3       1 CYS         0.1397
      7 C         -11.6340  -28.7310   -8.6790 C.2       1 CYS         0.2047
      8 O         -12.6720  -29.3080   -8.9950 O.2       1 CYS        -0.3944
      9 CB        -10.7170  -26.8170  -10.0380 C.3       1 CYS         0.0311
     10 SG        -12.3830  -26.1860  -10.3310 S.3       1 CYS        -0.1735
     11 N         -11.3280  -28.4240   -7.4230 N.am      1 ALA        -0.2640
     12 CA        -12.1810  -28.8500   -6.3230 C.3       1 ALA         0.1282
     13 C         -13.6220  -28.3610   -6.4650 C.2       1 ALA         0.2036
     14 O         -14.5680  -29.1160   -6.2060 O.2       1 ALA        -0.3944
     15 CB        -11.5860  -28.4300   -4.9930 C.3       1 ALA        -0.0244
     16 N         -13.8080  -27.1150   -6.8870 N.am      1 ARG        -0.2637
     17 CA        -15.1740  -26.5920   -6.9800 C.3       1 ARG         0.1311
     18 C         -16.0400  -27.2870   -8.0440 C.2       1 ARG         0.2040
     19 O         -17.2290  -27.5380   -7.8170 O.2       1 ARG        -0.3944
     20 CB        -15.1810  -25.0700   -7.1770 C.3       1 ARG        -0.0092
     21 CG        -16.5860  -24.4700   -7.1000 C.3       1 ARG        -0.0156
     22 CD        -16.5960  -22.9510   -7.2840 C.3       1 ARG         0.0627
     23 NE        -15.7370  -22.2630   -6.3160 N.pl3     1 ARG        -0.2723
     24 CZ        -16.1450  -21.7610   -5.1520 C.cat     1 ARG         0.2882
     25 NH1       -17.4210  -21.8580   -4.7720 N.pl3     1 ARG        -0.2849
     26 NH2       -15.2720  -21.1520   -4.3610 N.pl3     1 ARG        -0.2849
     27 N         -15.4580  -27.5920   -9.2020 N.am      1 SER        -0.2616
     28 CA        -16.2160  -28.2320  -10.2720 C.3       1 SER         0.1539
     29 C         -16.4190  -29.7180   -9.9950 C.2       1 SER         0.2062
     30 O         -17.2670  -30.3610  -10.6140 O.2       1 SER        -0.3943
     31 CB        -15.5400  -28.0250  -11.6320 C.3       1 SER         0.0843
     32 OG        -14.2540  -28.6320  -11.6750 O.3       1 SER        -0.3903
     33 N         -15.6490  -30.2550   -9.0570 N.am      1 GLU        -0.2636
     34 CA        -15.7970  -31.6540   -8.6570 C.3       1 GLU         0.1324
     35 C         -16.9690  -31.8080   -7.6990 C.2       1 GLU         0.2033
     36 O         -17.6780  -32.8160   -7.7300 O.2       1 GLU        -0.3944
     37 CB        -14.5260  -32.1810   -7.9840 C.3       1 GLU        -0.0008
     38 CG        -13.4040  -32.5260   -8.9480 C.3       1 GLU         0.0044
     39 CD        -13.7700  -33.6580   -9.8960 C.2       1 GLU         0.0350
     40 OE1       -14.0500  -34.7780   -9.4120 O.co2     1 GLU        -0.5690
     41 OE2       -13.7790  -33.4240  -11.1240 O.co2     1 GLU        -0.5690
     42 N         -17.1670  -30.8010   -6.8530 N.am      1 GLY        -0.2697
     43 CA        -18.2190  -30.8330   -5.8560 C.3       1 GLY         0.1116
     44 C         -18.0580  -31.9590   -4.8570 C.2       1 GLY         0.2118
     45 O         -16.9470  -32.3010   -4.4660 O.co2     1 GLY        -0.4123
     46 H         -11.2281  -31.8068  -13.5150 H         1 GLY         0.2012
     47 H         -11.9416  -30.6791  -12.5514 H         1 GLY         0.2012
     48 H         -10.9400  -31.8081  -11.8944 H         1 GLY         0.2012
     49 H         -10.1663  -29.7135  -13.7865 H         1 GLY         0.1061
     50 H          -9.0733  -30.9456  -13.0696 H         1 GLY         0.1061
     51 H         -11.6984  -29.4408  -11.2190 H         1 CYS         0.1885
     52 H          -9.6142  -28.5242   -9.3422 H         1 CYS         0.0808
     53 H         -10.1140  -26.6096  -10.9343 H         1 CYS         0.0422
     54 H         -10.2957  -26.2742   -9.1790 H         1 CYS         0.0422
     55 H         -12.3384  -25.1960  -10.5156 H         1 CYS         0.1019
     56 H         -10.5020  -27.8940   -7.2311 H         1 ALA         0.1883
     57 H         -12.2098  -29.9495   -6.3405 H         1 ALA         0.0797
     58 H         -12.2443  -28.7606   -4.1761 H         1 ALA         0.0277
     59 H         -11.4882  -27.3347   -4.9646 H         1 ALA         0.0277
     60 H         -10.5940  -28.8900   -4.8735 H         1 ALA         0.0277
     61 H         -13.0274  -26.5424   -7.1375 H         1 ARG         0.1883
     62 H         -15.6503  -26.7931   -6.0091 H         1 ARG         0.0800
     63 H         -14.7546  -24.8413   -8.1649 H         1 ARG         0.0313
     64 H         -14.5593  -24.6112   -6.3941 H         1 ARG         0.0313
     65 H         -17.0154  -24.7070   -6.1154 H         1 ARG         0.0301
     66 H         -17.2048  -24.9230   -7.8886 H         1 ARG         0.0301
     67 H         -17.6270  -22.5875   -7.1616 H         1 ARG         0.0689
     68 H         -16.2424  -22.7162   -8.2988 H         1 ARG         0.0689
     69 H         -14.7403  -22.1598   -6.5546 H         1 ARG         0.2642
     70 H         -17.7206  -21.4645   -3.8685 H         1 ARG         0.2615
     71 H         -18.1059  -22.3264   -5.3823 H         1 ARG         0.2615
     72 H         -14.2857  -21.0730   -4.6470 H         1 ARG         0.2615
     73 H         -15.5803  -20.7580   -3.4607 H         1 ARG         0.2615
     74 H         -14.4905  -27.3801   -9.3400 H         1 SER         0.1884
     75 H         -17.2074  -27.7570  -10.3114 H         1 SER         0.0823
     76 H         -15.4318  -26.9460  -11.8164 H         1 SER         0.0606
     77 H         -16.1710  -28.4695  -12.4157 H         1 SER         0.0606
     78 H         -13.7017  -28.2491  -11.0035 H         1 SER         0.2097
     79 H         -14.9523  -29.6908   -8.6140 H         1 GLU         0.1883
     80 H         -15.9926  -32.2542   -9.5578 H         1 GLU         0.0801
     81 H         -14.7862  -33.0886   -7.4197 H         1 GLU         0.0330
     82 H         -14.1589  -31.4104   -7.2902 H         1 GLU         0.0330
     83 H         -12.5203  -32.8266   -8.3660 H         1 GLU         0.0433
     84 H         -13.1645  -31.6325   -9.5432 H         1 GLU         0.0433
     85 H         -16.5729  -29.9984   -6.9062 H         1 GLY         0.1874
     86 H         -19.1840  -30.9562   -6.3694 H         1 GLY         0.0714
     87 H         -18.2132  -29.8778   -5.3104 H         1 GLY         0.0714
     88 O1        -19.0799  -32.5533   -4.4210 O.co2     1 GLY        -0.4123
@<TRIPOS>BOND
     1    1    2 1  
     2    2    3 1  
     3    3    4 2  
     4    3    5 am 
     5    5    6 1  
     6    6    7 1  
     7    6    9 1  
     8    7    8 2  
     9    7   11 am 
    10    9   10 1  
    11   11   12 1  
    12   12   13 1  
    13   12   15 1  
    14   13   14 2  
    15   13   16 am 
    16   16   17 1  
    17   17   18 1  
    18   17   20 1  
    19   18   19 2  
    20   18   27 am 
    21   20   21 1  
    22   21   22 1  
    23   22   23 1  
    24   23   24 ar 
    25   24   25 ar 
    26   24   26 ar 
    27   27   28 1  
    28   28   29 1  
    29   28   31 1  
    30   29   30 2  
    31   29   33 am 
    32   31   32 1  
    33   33   34 1  
    34   34   35 1  
    35   34   37 1  
    36   35   36 2  
    37   35   42 am 
    38   37   38 1  
    39   38   39 1  
    40   39   40 ar 
    41   39   41 ar 
    42   42   43 1  
    43   43   44 1  
    44   44   45 ar 
    45    1   46 1  
    46    1   47 1  
    47    1   48 1  
    48    2   49 1  
    49    2   50 1  
    50    5   51 1  
    51    6   52 1  
    52    9   53 1  
    53    9   54 1  
    54   10   55 1  
    55   11   56 1  
    56   12   57 1  
    57   15   58 1  
    58   15   59 1  
    59   15   60 1  
    60   16   61 1  
    61   17   62 1  
    62   20   63 1  
    63   20   64 1  
    64   21   65 1  
    65   21   66 1  
    66   22   67 1  
    67   22   68 1  
    68   23   69 1  
    69   25   70 1  
    70   25   71 1  
    71   26   72 1  
    72   26   73 1  
    73   27   74 1  
    74   28   75 1  
    75   31   76 1  
    76   31   77 1  
    77   32   78 1  
    78   33   79 1  
    79   34   80 1  
    80   37   81 1  
    81   37   82 1  
    82   38   83 1  
    83   38   84 1  
    84   42   85 1  
    85   43   86 1  
    86   43   87 1  
    87   44   88 ar 
@<TRIPOS>SUBSTRUCTURE
     1 GLY         1

