4uj9_ligand
  -I-interpret- 

 47 50  0  0  0  0  0  0  0  0999 V2000
   20.7560   12.9120    1.4360 F   0  0  0  0  0
   21.9700   13.3680    1.3890 C   0  0  0  0  0
   22.4060   13.1520    2.5970 F   0  0  0  0  0
   22.0250   14.6600    1.2660 F   0  0  0  0  0
   22.7750   12.7090    0.3290 C   0  0  0  0  0
   23.0950   13.4300   -0.8230 C   0  0  0  0  0
   23.8670   12.8260   -1.8240 C   0  0  0  0  0
   24.3320   11.5160   -1.6400 C   0  0  0  0  0
   24.0150   10.7940   -0.5050 C   0  0  0  0  0
   23.2240   11.4070    0.4950 C   0  0  0  0  0
   25.1910   10.8150   -2.6790 C   0  0  0  0  0
   25.5350   11.4170   -3.7050 O   0  0  0  0  0
   25.6540    9.4060   -2.4940 C   0  0  0  0  0
   24.5330    8.4010   -2.6370 C   0  0  0  0  0
   25.2070    7.1810   -3.0690 N   0  3  0  0  0
   26.4930    7.6010   -3.6950 C   0  0  0  0  0
   26.5350    9.1280   -3.6570 C   0  0  0  0  0
   28.0010    9.3740   -3.6670 C   0  0  0  0  0
   28.7140    9.3500   -2.4650 C   0  0  0  0  0
   30.1230    9.5470   -2.4190 C   0  0  0  0  0
   30.8090    9.7800   -3.5840 C   0  0  0  0  0
   30.0870    9.8190   -4.8330 C   0  0  0  0  0
   28.6970    9.6260   -4.8720 C   0  0  0  0  0
   32.2980    9.9800   -3.5630 C   0  0  0  0  0
   32.9170   10.1460   -4.5960 O   0  0  0  0  0
   32.9340    9.9370   -2.3040 N   0  0  0  0  0
   32.2040    9.7160   -1.0940 C   0  0  0  0  0
   30.7740    9.5340   -1.1170 N   0  0  0  0  0
   22.7466   14.4558   -0.9428 H   0  0  0  0  0
   24.1042   13.3699   -2.7383 H   0  0  0  0  0
   24.3683    9.7701   -0.3824 H   0  0  0  0  0
   22.9666   10.8546    1.3987 H   0  0  0  0  0
   26.1057    9.3162   -1.5061 H   0  0  0  0  0
   23.7732    8.7273   -3.3471 H   0  0  0  0  0
   23.9814    8.2617   -1.7072 H   0  0  0  0  0
   24.6314    6.6634   -3.7332 H   0  0  0  0  0
   25.3738    6.5584   -2.2784 H   0  0  0  0  0
   26.5566    7.2402   -4.7216 H   0  0  0  0  0
   27.3398    7.1796   -3.1533 H   0  0  0  0  0
   26.1579    9.7951   -4.4322 H   0  0  0  0  0
   28.1744    9.1750   -1.5342 H   0  0  0  0  0
   30.6295   10.0012   -5.7607 H   0  0  0  0  0
   28.1606    9.6699   -5.8198 H   0  0  0  0  0
   33.9445   10.0674   -2.2554 H   0  0  0  0  0
   32.3458   10.6356   -0.5262 H   0  0  0  0  0
   32.5870    8.7656   -0.7223 H   0  0  0  0  0
   30.2410    9.4017   -0.2574 H   0  0  0  0  0
  1  2  1  0  0  0
  2  3  1  0  0  0
  2  4  1  0  0  0
  2  5  1  0  0  0
  5  6  4  0  0  0
  5 10  4  0  0  0
  6  7  4  0  0  0
  7  8  4  0  0  0
  8  9  4  0  0  0
  8 11  1  0  0  0
  9 10  4  0  0  0
 11 12  2  0  0  0
 11 13  1  0  0  0
 13 14  1  0  0  0
 13 17  1  0  0  0
 14 15  1  0  0  0
 15 16  1  0  0  0
 16 17  1  0  0  0
 17 18  1  0  0  0
 18 19  4  0  0  0
 18 23  4  0  0  0
 19 20  4  0  0  0
 20 21  4  0  0  0
 20 28  1  0  0  0
 21 22  4  0  0  0
 21 24  1  0  0  0
 22 23  4  0  0  0
 24 25  2  0  0  0
 24 26  1  0  0  0
 26 27  1  0  0  0
 27 28  1  0  0  0
  6 29  1  0  0  0
  7 30  1  0  0  0
  9 31  1  0  0  0
 10 32  1  0  0  0
 13 33  1  0  0  0
 14 34  1  0  0  0
 14 35  1  0  0  0
 15 36  1  0  0  0
 15 37  1  0  0  0
 16 38  1  0  0  0
 16 39  1  0  0  0
 17 40  1  0  0  0
 19 41  1  0  0  0
 22 42  1  0  0  0
 23 43  1  0  0  0
 26 44  1  0  0  0
 27 45  1  0  0  0
 27 46  1  0  0  0
 28 47  1  0  0  0
M  END
$$$$
