5ahu_ligand
  -I-interpret- 

 47 47  0  0  0  0  0  0  0  0999 V2000
   29.6660    8.2260   33.5610 C   0  0  0  0  0
   29.1120    8.5880   32.1910 C   0  0  0  0  0
   29.2910    7.4790   31.1720 C   0  0  0  0  0
   28.0840    6.5270   31.2190 C   0  0  0  0  0
   28.2820    5.2620   32.0570 C   0  0  0  0  0
   27.3980    4.1870   31.3280 C   0  0  0  0  0
   27.7610    2.7260   31.5940 C   0  0  0  0  0
   26.8020    1.8540   30.9610 N   0  3  0  0  0
   26.5830    0.5990   31.3040 C   0  0  0  0  0
   25.6190    0.0870   30.4880 C   0  0  0  0  0
   25.2670    1.0720   29.6420 N   0  0  0  0  0
   26.0030    2.1640   29.9100 C   0  0  0  0  0
   24.2600    1.0150   28.5610 C   0  0  0  0  0
   24.3870   -0.2460   27.6580 C   0  0  0  0  0
   25.9790   -0.4710   26.8240 P   0  0  0  0  0
   26.3110    0.7350   25.9340 O   0  0  0  0  0
   25.8550   -1.7720   25.9910 O   0  0  0  0  0
   26.9770   -0.7640   27.9600 O   0  0  0  0  0
   23.0300   -0.0660   26.4850 P   0  0  0  0  0
   23.1980    1.1830   25.6260 O   0  0  0  0  0
   21.7970   -0.1710   27.4090 O   0  0  0  0  0
   23.0380   -1.2810   25.5730 O   0  0  0  0  0
   29.1520    7.3415   33.9372 H   0  0  0  0  0
   30.7330    8.0195   33.4771 H   0  0  0  0  0
   29.5086    9.0585   34.2467 H   0  0  0  0  0
   29.6554    9.4619   31.8318 H   0  0  0  0  0
   28.0430    8.7704   32.3011 H   0  0  0  0  0
   30.1986    6.9212   31.4027 H   0  0  0  0  0
   29.3674    7.9145   30.1757 H   0  0  0  0  0
   27.9052    6.1986   30.1952 H   0  0  0  0  0
   27.2664    7.0818   31.6793 H   0  0  0  0  0
   27.9893    5.4035   33.0974 H   0  0  0  0  0
   29.3290    4.9652   32.1193 H   0  0  0  0  0
   27.5411    4.3476   30.2594 H   0  0  0  0  0
   26.3828    4.3223   31.7012 H   0  0  0  0  0
   27.7537    2.5455   32.6689 H   0  0  0  0  0
   28.7517    2.5237   31.1870 H   0  0  0  0  0
   27.0887    0.0614   32.1061 H   0  0  0  0  0
   25.2123   -0.9239   30.5155 H   0  0  0  0  0
   25.9650    3.1174   29.3830 H   0  0  0  0  0
   24.4116    1.8882   27.9265 H   0  0  0  0  0
   23.2771    0.9830   29.0310 H   0  0  0  0  0
   24.3358   -1.1483   28.2674 H   0  0  0  0  0
   25.6476   -2.5056   26.5744 H   0  0  0  0  0
   26.6809   -1.5318   28.4544 H   0  0  0  0  0
   23.1948    1.9603   26.1894 H   0  0  0  0  0
   21.7723    0.5888   27.9953 H   0  0  0  0  0
  1  2  1  0  0  0
  2  3  1  0  0  0
  3  4  1  0  0  0
  4  5  1  0  0  0
  5  6  1  0  0  0
  6  7  1  0  0  0
  7  8  1  0  0  0
  8  9  4  0  0  0
  8 12  4  0  0  0
  9 10  4  0  0  0
 10 11  4  0  0  0
 11 12  4  0  0  0
 11 13  1  0  0  0
 13 14  1  0  0  0
 14 15  1  0  0  0
 14 19  1  0  0  0
 15 16  2  0  0  0
 15 17  1  0  0  0
 15 18  1  0  0  0
 19 20  1  0  0  0
 19 21  1  0  0  0
 19 22  2  0  0  0
  1 23  1  0  0  0
  1 24  1  0  0  0
  1 25  1  0  0  0
  2 26  1  0  0  0
  2 27  1  0  0  0
  3 28  1  0  0  0
  3 29  1  0  0  0
  4 30  1  0  0  0
  4 31  1  0  0  0
  5 32  1  0  0  0
  5 33  1  0  0  0
  6 34  1  0  0  0
  6 35  1  0  0  0
  7 36  1  0  0  0
  7 37  1  0  0  0
  9 38  1  0  0  0
 10 39  1  0  0  0
 12 40  1  0  0  0
 13 41  1  0  0  0
 13 42  1  0  0  0
 14 43  1  0  0  0
 17 44  1  0  0  0
 18 45  1  0  0  0
 20 46  1  0  0  0
 21 47  1  0  0  0
M  END
$$$$
