### 
### Created by X-TOOL on Mon Sep 10 21:13:23 2018
### 

@<TRIPOS>MOLECULE
5ahu_ligand
   43    43     1     0     0
SMALL
GAST_HUCK


@<TRIPOS>ATOM
      1 C01        29.6660    8.2260   33.5610 C.3       1 G76        -0.0653
      2 C02        29.1120    8.5880   32.1910 C.3       1 G76        -0.0559
      3 C03        29.2910    7.4790   31.1720 C.3       1 G76        -0.0533
      4 C04        28.0840    6.5270   31.2190 C.3       1 G76        -0.0530
      5 C05        28.2820    5.2620   32.0570 C.3       1 G76        -0.0521
      6 C06        27.3980    4.1870   31.3280 C.3       1 G76        -0.0405
      7 C07        27.7610    2.7260   31.5940 C.3       1 G76         0.0206
      8 N08        26.8020    1.8540   30.9610 N.2       1 G76        -0.2706
      9 C09        26.5830    0.5990   31.3040 C.2       1 G76         0.1184
     10 C10        25.6190    0.0870   30.4880 C.2       1 G76         0.1817
     11 N11        25.2670    1.0720   29.6420 N.pl3     1 G76        -0.1350
     12 C12        26.0030    2.1640   29.9100 C.2       1 G76         0.1885
     13 C13        24.2600    1.0150   28.5610 C.3       1 G76         0.1205
     14 C14        24.3870   -0.2460   27.6580 C.3       1 G76         0.1317
     15 P15        25.9790   -0.4710   26.8240 P.3       1 G76         0.0808
     16 O16        26.3110    0.7350   25.9340 O.co2     1 G76        -0.5610
     17 O17        25.8550   -1.7720   25.9910 O.co2     1 G76        -0.5610
     18 O18        26.9770   -0.7640   27.9600 O.co2     1 G76        -0.5610
     19 P19        23.0300   -0.0660   26.4850 P.3       1 G76         0.0808
     20 O20        23.1980    1.1830   25.6260 O.co2     1 G76        -0.5610
     21 O21        21.7970   -0.1710   27.4090 O.co2     1 G76        -0.5610
     22 O22        23.0380   -1.2810   25.5730 O.co2     1 G76        -0.5610
     23 H1         29.5077    9.0655   34.2540 H         1 G76         0.0230
     24 H2         30.7428    8.0174   33.4777 H         1 G76         0.0230
     25 H3         29.1480    7.3335   33.9419 H         1 G76         0.0230
     26 H4         29.6326    9.4863   31.8276 H         1 G76         0.0263
     27 H5         28.0378    8.8023   32.2918 H         1 G76         0.0263
     28 H6         30.2083    6.9169   31.4016 H         1 G76         0.0265
     29 H7         29.3714    7.9170   30.1662 H         1 G76         0.0265
     30 H8         27.8533    6.2194   30.1884 H         1 G76         0.0265
     31 H9         27.2301    7.0809   31.6362 H         1 G76         0.0265
     32 H10        27.9369    5.4181   33.0897 H         1 G76         0.0266
     33 H11        29.3395    4.9592   32.0656 H         1 G76         0.0266
     34 H12        27.4805    4.3621   30.2452 H         1 G76         0.0276
     35 H13        26.3556    4.3375   31.6454 H         1 G76         0.0276
     36 H14        27.7594    2.5423   32.6785 H         1 G76         0.0418
     37 H15        28.7627    2.5203   31.1887 H         1 G76         0.0418
     38 H16        27.0882    0.0619   32.1054 H         1 G76         0.1406
     39 H17        25.2127   -0.9230   30.5154 H         1 G76         0.2017
     40 H18        25.9650    3.1165   29.3835 H         1 G76         0.1987
     41 H19        24.3765    1.9081   27.9296 H         1 G76         0.0689
     42 H20        23.2592    1.0166   29.0174 H         1 G76         0.0689
     43 H21        24.2194   -1.1394   28.2775 H         1 G76         0.0708
@<TRIPOS>BOND
     1    1    2 1  
     2    2    3 1  
     3    3    4 1  
     4    4    5 1  
     5    5    6 1  
     6    6    7 1  
     7    7    8 1  
     8    8    9 1  
     9    8   12 2  
    10    9   10 2  
    11   10   11 1  
    12   11   12 1  
    13   11   13 1  
    14   13   14 1  
    15   14   15 1  
    16   14   19 1  
    17   15   16 ar 
    18   15   17 ar 
    19   15   18 ar 
    20   19   20 ar 
    21   19   21 ar 
    22   19   22 ar 
    23    1   23 1  
    24    1   24 1  
    25    1   25 1  
    26    2   26 1  
    27    2   27 1  
    28    3   28 1  
    29    3   29 1  
    30    4   30 1  
    31    4   31 1  
    32    5   32 1  
    33    5   33 1  
    34    6   34 1  
    35    6   35 1  
    36    7   36 1  
    37    7   37 1  
    38    9   38 1  
    39   10   39 1  
    40   12   40 1  
    41   13   41 1  
    42   13   42 1  
    43   14   43 1  
@<TRIPOS>SUBSTRUCTURE
     1 G76         1

