4oi6_ligand
  -I-interpret- 

 21 20  0  0  0  0  0  0  0  0999 V2000
   11.0130    8.3360    0.4580 C   0  0  0  0  0
   10.6810    7.1880    0.0850 O   0  0  0  0  0
   11.8120    9.0030   -0.2480 O   0  0  0  0  0
   10.4660    8.8890    1.7540 C   0  0  0  0  0
   10.3540    7.7590    2.7830 C   0  0  0  0  0
    9.4340    6.7520    2.2950 O   0  0  0  0  0
    9.8930    8.3690    4.1150 C   0  0  0  0  0
    9.4170    7.3580    5.1420 C   0  0  0  0  0
    9.0290    7.7370    6.2810 O   0  0  0  0  0
    9.4240    6.1350    4.8790 O   0  0  0  0  0
   11.7270    7.1330    2.9220 C   0  0  0  0  0
   12.7360    7.8480    3.0560 O   0  0  0  0  0
   11.8650    5.8870    2.8780 O   0  0  0  0  0
   11.9684    9.8550    0.1659 H   0  0  0  0  0
    9.4804    9.3202    1.5784 H   0  0  0  0  0
   11.1368    9.6604    2.1323 H   0  0  0  0  0
    9.7595    6.3986    1.4639 H   0  0  0  0  0
    9.0463    9.0180    3.8915 H   0  0  0  0  0
   10.7544    8.8790    4.5463 H   0  0  0  0  0
    9.0797    8.6943    6.3329 H   0  0  0  0  0
   11.0046    5.4744    2.7729 H   0  0  0  0  0
  1  2  2  0  0  0
  1  3  1  0  0  0
  1  4  1  0  0  0
  4  5  1  0  0  0
  5  6  1  0  0  0
  5  7  1  0  0  0
  5 11  1  0  0  0
  7  8  1  0  0  0
  8  9  1  0  0  0
  8 10  2  0  0  0
 11 12  2  0  0  0
 11 13  1  0  0  0
  3 14  1  0  0  0
  4 15  1  0  0  0
  4 16  1  0  0  0
  6 17  1  0  0  0
  7 18  1  0  0  0
  7 19  1  0  0  0
  9 20  1  0  0  0
 13 21  1  0  0  0
M  END
$$$$
