4f8h_ligand
  -I-interpret- 

 33 34  0  0  0  0  0  0  0  0999 V2000
   18.9420  -14.7160   22.4970 C   0  0  0  0  0
   19.2480  -16.0430   22.2610 C   0  0  0  0  0
   18.3510  -14.3100   23.6900 C   0  0  0  0  0
   18.9590  -16.9600   23.2510 C   0  0  0  0  0
   18.0410  -15.2350   24.6960 C   0  0  0  0  0
   18.3710  -16.5810   24.4510 C   0  0  0  0  0
   16.6390  -13.3660   25.7790 C   0  0  0  0  0
   15.2190  -13.5020   25.2770 C   0  0  0  0  0
   14.3820  -14.3170   26.3040 C   0  0  0  0  0
   14.9370  -15.7550   26.3370 C   0  0  0  0  0
   16.4330  -15.7540   26.7590 C   0  0  0  0  0
   17.3780  -14.7130   26.0180 C   0  0  0  0  0
   18.1340  -14.1240   28.3500 C   0  0  0  0  0
   18.4440  -14.4290   26.9600 N   0  3  0  0  0
   17.1450  -12.2810   25.9970 O   0  0  0  0  0
   18.0480  -17.9030   25.6710 Cl  0  0  0  0  0
   19.1682  -13.9721   21.7331 H   0  0  0  0  0
   19.7037  -16.3557   21.3215 H   0  0  0  0  0
   18.1255  -13.2548   23.8444 H   0  0  0  0  0
   19.1987  -18.0105   23.0868 H   0  0  0  0  0
   15.2207  -14.0192   24.3175 H   0  0  0  0  0
   14.7803  -12.5117   25.1550 H   0  0  0  0  0
   13.3319  -14.3253   26.0119 H   0  0  0  0  0
   14.4532  -13.8632   27.2925 H   0  0  0  0  0
   14.8511  -16.1898   25.3412 H   0  0  0  0  0
   14.3663  -16.3375   27.0602 H   0  0  0  0  0
   16.8179  -16.7425   26.5086 H   0  0  0  0  0
   16.4490  -15.4787   27.8135 H   0  0  0  0  0
   17.5031  -13.2362   28.3939 H   0  0  0  0  0
   17.6080  -14.9675   28.7971 H   0  0  0  0  0
   19.0597  -13.9408   28.8956 H   0  0  0  0  0
   18.8752  -13.5759   26.6041 H   0  0  0  0  0
   18.9794  -15.2960   27.0048 H   0  0  0  0  0
  1  2  4  0  0  0
  3  1  4  0  0  0
  4  2  4  0  0  0
  5  3  4  0  0  0
  6  4  4  0  0  0
  5  6  4  0  0  0
 12  5  1  0  0  0
  6 16  1  0  0  0
  7  8  1  0  0  0
  7 12  1  0  0  0
  7 15  2  0  0  0
  8  9  1  0  0  0
  9 10  1  0  0  0
 10 11  1  0  0  0
 11 12  1  0  0  0
 12 14  1  0  0  0
 14 13  1  0  0  0
  1 17  1  0  0  0
  2 18  1  0  0  0
  3 19  1  0  0  0
  4 20  1  0  0  0
  8 21  1  0  0  0
  8 22  1  0  0  0
  9 23  1  0  0  0
  9 24  1  0  0  0
 10 25  1  0  0  0
 10 26  1  0  0  0
 11 27  1  0  0  0
 11 28  1  0  0  0
 13 29  1  0  0  0
 13 30  1  0  0  0
 13 31  1  0  0  0
 14 32  1  0  0  0
 14 33  1  0  0  0
M  END
$$$$
