6nv7_ligand
  -I-interpret- 

 91 93  0  0  0  0  0  0  0  0999 V2000
   -4.9910  -20.9700   40.8570 C   0  0  0  0  0
   -5.0160  -20.0870   42.1400 C   0  0  0  0  0
   -0.1380  -17.5710   31.7670 C   0  0  0  0  0
    0.8700  -17.3450   30.8110 C   0  0  0  0  0
    0.6570  -16.3020   29.7040 C   0  0  0  0  0
   -1.8270  -15.6380   29.2480 C   0  0  0  0  0
   -3.1970  -15.0070   31.3360 C   0  0  0  0  0
   -2.9150  -14.1140   33.5810 C   0  0  0  0  0
   -0.6810  -18.9740   34.9490 O   0  0  0  0  0
   -1.0700  -18.6950   33.7670 C   0  0  0  0  0
   -2.4260  -18.5660   33.5750 N   0  0  0  0  0
   -3.5660  -18.6160   34.5310 C   0  0  0  0  0
   -4.5980  -17.5940   33.9280 C   0  0  0  0  0
   -4.2200  -20.0560   34.8720 C   0  0  0  0  0
   -3.3040  -21.1890   35.0570 N   0  3  0  0  0
   -2.5540  -21.2850   36.3330 C   0  0  0  0  0
   -1.9770  -22.7090   36.6040 C   0  0  0  0  0
   -0.5980  -22.5360   36.6160 O   0  0  0  0  0
   -2.4620  -23.3260   37.9380 C   0  0  0  0  0
   -3.1560  -20.6040   37.6320 C   0  0  0  0  0
   -4.3410  -20.8770   38.3040 N   0  0  0  0  0
   -4.8010  -20.1280   39.5430 C   0  0  0  0  0
   -6.2530  -21.8350   40.8110 C   0  0  0  0  0
   -2.4290  -19.6890   38.1030 O   0  0  0  0  0
    0.0450  -18.5410   32.7800 C   0  0  0  0  0
   -0.4430  -15.2430   29.7840 C   0  0  0  0  0
   -3.0480  -14.9250   29.8120 C   0  0  0  0  0
   -2.7580  -13.9890   32.1930 C   0  0  0  0  0
   -3.4990  -15.2530   34.1450 C   0  0  0  0  0
   -3.9560  -16.3120   33.3360 C   0  0  0  0  0
   -3.7700  -16.1300   31.9510 C   0  0  0  0  0
    2.0540  -18.0950   30.9210 C   0  0  0  0  0
    2.2790  -19.0550   31.9290 C   0  0  0  0  0
    3.5190  -19.7870   31.9990 N   0  0  0  0  0
    4.1520  -19.9690   33.3700 C   0  0  0  0  0
    4.5210  -18.6420   34.1130 C   0  0  0  0  0
    5.2410  -17.5840   33.2960 C   0  0  0  0  0
    4.2920  -20.4050   30.6340 S   0  0  0  0  0
    3.3040  -20.5700   29.6430 O   0  0  0  0  0
    5.4380  -19.2280   30.1020 C   0  0  0  0  0
    5.0370  -21.5650   30.9660 O   0  0  0  0  0
    1.2430  -19.2390   32.8500 C   0  0  0  0  0
   -4.1186  -21.6214   40.9082 H   0  0  0  0  0
   -4.0746  -19.5442   42.2243 H   0  0  0  0  0
   -5.8413  -19.3779   42.0754 H   0  0  0  0  0
   -5.1496  -20.7233   43.0149 H   0  0  0  0  0
   -1.0633  -16.9962   31.7265 H   0  0  0  0  0
    0.3707  -16.9020   28.8402 H   0  0  0  0  0
    1.5763  -15.7167   29.7251 H   0  0  0  0  0
   -1.9534  -16.6851   29.5230 H   0  0  0  0  0
   -1.8086  -15.3817   28.1887 H   0  0  0  0  0
   -2.5756  -13.3086   34.2324 H   0  0  0  0  0
   -2.6989  -18.4080   32.6050 H   0  0  0  0  0
   -3.2054  -18.3632   35.5281 H   0  0  0  0  0
   -5.2504  -17.2791   34.7424 H   0  0  0  0  0
   -5.1120  -18.1014   33.1116 H   0  0  0  0  0
   -4.8332  -20.3121   34.0080 H   0  0  0  0  0
   -4.7272  -19.9292   35.8284 H   0  0  0  0  0
   -2.5921  -21.0793   34.3348 H   0  0  0  0  0
   -3.8955  -22.0195   35.0302 H   0  0  0  0  0
   -1.7241  -20.6114   36.1193 H   0  0  0  0  0
   -2.3157  -23.4089   35.8402 H   0  0  0  0  0
   -0.1721  -23.3807   36.7793 H   0  0  0  0  0
   -2.1563  -22.6856   38.7654 H   0  0  0  0  0
   -3.5487  -23.4099   37.9242 H   0  0  0  0  0
   -2.0214  -24.3154   38.0606 H   0  0  0  0  0
   -4.9364  -21.6233   37.9448 H   0  0  0  0  0
   -4.0145  -19.4062   39.7634 H   0  0  0  0  0
   -5.7858  -19.7286   39.3006 H   0  0  0  0  0
   -7.1266  -21.1947   40.6888 H   0  0  0  0  0
   -6.1875  -22.5266   39.9711 H   0  0  0  0  0
   -6.3405  -22.3975   41.7405 H   0  0  0  0  0
   -0.1063  -14.4149   29.1603 H   0  0  0  0  0
   -0.5816  -15.0358   30.8451 H   0  0  0  0  0
   -3.9238  -15.4116   29.3827 H   0  0  0  0  0
   -2.9406  -13.8695   29.5618 H   0  0  0  0  0
   -2.2919  -13.0951   31.7786 H   0  0  0  0  0
   -3.6022  -15.3224   35.2279 H   0  0  0  0  0
   -4.1021  -16.9364   31.2972 H   0  0  0  0  0
    2.8414  -17.9250   30.1867 H   0  0  0  0  0
    5.0846  -20.5115   33.2153 H   0  0  0  0  0
    3.4160  -20.4812   33.9897 H   0  0  0  0  0
    5.2070  -18.9246   34.9115 H   0  0  0  0  0
    3.5751  -18.1947   34.4185 H   0  0  0  0  0
    6.1826  -17.9904   32.9267 H   0  0  0  0  0
    4.6155  -17.2895   32.4533 H   0  0  0  0  0
    5.4400  -16.7152   33.9235 H   0  0  0  0  0
    5.9012  -19.5667   29.1753 H   0  0  0  0  0
    4.9294  -18.2794   29.9299 H   0  0  0  0  0
    6.2042  -19.0975   30.8662 H   0  0  0  0  0
    1.3817  -19.9599   33.6557 H   0  0  0  0  0
  1  2  1  0  0  0
 22  1  1  0  0  0
  1 23  1  0  0  0
  3  4  4  0  0  0
 25  3  4  0  0  0
  4  5  1  0  0  0
  4 32  4  0  0  0
  5 26  1  0  0  0
 26  6  1  0  0  0
  6 27  1  0  0  0
 27  7  1  0  0  0
  7 28  4  0  0  0
  7 31  4  0  0  0
 28  8  4  0  0  0
  8 29  4  0  0  0
 10  9  2  0  0  0
 11 10  1  0  0  0
 10 25  1  0  0  0
 12 11  1  0  0  0
 12 13  1  0  0  0
 14 12  1  0  0  0
 13 30  1  0  0  0
 15 14  1  0  0  0
 16 15  1  0  0  0
 16 17  1  0  0  0
 20 16  1  0  0  0
 17 18  1  0  0  0
 17 19  1  0  0  0
 21 20  1  0  0  0
 20 24  2  0  0  0
 21 22  1  0  0  0
 25 42  4  0  0  0
 29 30  4  0  0  0
 30 31  4  0  0  0
 32 33  4  0  0  0
 33 34  1  0  0  0
 33 42  4  0  0  0
 34 35  1  0  0  0
 34 38  1  0  0  0
 35 36  1  0  0  0
 36 37  1  0  0  0
 38 39  2  0  0  0
 38 40  1  0  0  0
 38 41  2  0  0  0
  1 43  1  0  0  0
  2 44  1  0  0  0
  2 45  1  0  0  0
  2 46  1  0  0  0
  3 47  1  0  0  0
  5 48  1  0  0  0
  5 49  1  0  0  0
  6 50  1  0  0  0
  6 51  1  0  0  0
  8 52  1  0  0  0
 11 53  1  0  0  0
 12 54  1  0  0  0
 13 55  1  0  0  0
 13 56  1  0  0  0
 14 57  1  0  0  0
 14 58  1  0  0  0
 15 59  1  0  0  0
 15 60  1  0  0  0
 16 61  1  0  0  0
 17 62  1  0  0  0
 18 63  1  0  0  0
 19 64  1  0  0  0
 19 65  1  0  0  0
 19 66  1  0  0  0
 21 67  1  0  0  0
 22 68  1  0  0  0
 22 69  1  0  0  0
 23 70  1  0  0  0
 23 71  1  0  0  0
 23 72  1  0  0  0
 26 73  1  0  0  0
 26 74  1  0  0  0
 27 75  1  0  0  0
 27 76  1  0  0  0
 28 77  1  0  0  0
 29 78  1  0  0  0
 31 79  1  0  0  0
 32 80  1  0  0  0
 35 81  1  0  0  0
 35 82  1  0  0  0
 36 83  1  0  0  0
 36 84  1  0  0  0
 37 85  1  0  0  0
 37 86  1  0  0  0
 37 87  1  0  0  0
 40 88  1  0  0  0
 40 89  1  0  0  0
 40 90  1  0  0  0
 42 91  1  0  0  0
M  END
$$$$
