2vth_ligand
  -I-interpret- 

 24 25  0  0  0  0  0  0  0  0999 V2000
   26.5070    7.6940   60.1760 N   0  0  0  0  0
   26.3680    8.5030   61.5540 S   0  0  0  0  0
   27.0940    9.7370   61.4060 O   0  0  0  0  0
   24.9730    8.5450   61.8910 O   0  0  0  0  0
   27.1840    7.5760   62.8150 C   0  0  0  0  0
   28.1950    8.2060   63.5320 C   0  0  0  0  0
   28.8790    7.5250   64.5120 C   0  0  0  0  0
   28.5630    6.2070   64.7960 C   0  0  0  0  0
   27.5490    5.5410   64.0970 C   0  0  0  0  0
   27.2160    4.1990   64.3620 C   0  0  0  0  0
   27.9020    3.5380   65.3270 O   0  0  0  0  0
   26.2060    3.5710   63.6510 C   0  0  0  0  0
   25.5240    4.2550   62.6630 C   0  0  0  0  0
   25.8430    5.5690   62.3760 C   0  0  0  0  0
   26.8510    6.2390   63.0810 C   0  0  0  0  0
   27.0424    8.0904   59.4036 H   0  0  0  0  0
   26.0600    6.7831   60.0721 H   0  0  0  0  0
   28.4467    9.2444   63.3165 H   0  0  0  0  0
   29.6728    8.0247   65.0672 H   0  0  0  0  0
   29.1123    5.6798   65.5760 H   0  0  0  0  0
   27.5694    2.6401   65.3965 H   0  0  0  0  0
   25.9489    2.5350   63.8716 H   0  0  0  0  0
   24.7304    3.7559   62.1070 H   0  0  0  0  0
   25.3013    6.0924   61.5881 H   0  0  0  0  0
  1  2  1  0  0  0
  2  3  2  0  0  0
  2  4  2  0  0  0
  2  5  1  0  0  0
  5  6  4  0  0  0
  5 15  4  0  0  0
  6  7  4  0  0  0
  7  8  4  0  0  0
  8  9  4  0  0  0
  9 10  4  0  0  0
  9 15  4  0  0  0
 10 11  1  0  0  0
 10 12  4  0  0  0
 12 13  4  0  0  0
 13 14  4  0  0  0
 14 15  4  0  0  0
  1 16  1  0  0  0
  1 17  1  0  0  0
  6 18  1  0  0  0
  7 19  1  0  0  0
  8 20  1  0  0  0
 11 21  1  0  0  0
 12 22  1  0  0  0
 13 23  1  0  0  0
 14 24  1  0  0  0
M  END
$$$$
