3ckb_ligand
  -I-interpret- 

 66 68  0  0  0  0  0  0  0  0999 V2000
   14.0510  -20.4220   -3.0880 C   0  0  0  0  0
   13.6190  -20.1010   -4.5380 C   0  0  0  0  0
   14.9150  -19.8690   -5.3310 C   0  0  0  0  0
   15.6680  -18.6750   -4.7060 C   0  0  0  0  0
   15.9730  -19.0330   -3.2200 C   0  0  0  0  0
   16.6810  -17.8440   -2.5610 C   0  0  0  0  0
   12.9260  -20.7760   -2.2820 O   0  0  0  0  0
   12.9360  -21.2220   -5.1020 O   0  0  0  0  0
   14.5970  -19.5470   -6.6870 O   0  0  0  0  0
   16.9130  -18.4880   -5.4290 O   0  0  0  0  0
   14.7320  -19.2760   -2.5040 O   0  0  0  0  0
   17.0500  -18.1980   -1.2160 O   0  0  0  0  0
   16.9690  -17.2440   -6.1700 C   0  0  0  0  0
   17.7510  -17.5110   -7.4810 C   0  0  0  0  0
   19.1350  -18.0690   -7.0840 C   0  0  0  0  0
   19.8630  -17.0170   -6.2350 C   0  0  0  0  0
   18.9950  -16.7230   -4.9700 C   0  0  0  0  0
   19.6790  -15.6560   -4.0910 C   0  0  0  0  0
   17.0610  -18.4950   -8.2700 O   0  0  0  0  0
   19.9070  -18.3440   -8.2580 O   0  0  0  0  0
   21.1450  -17.5440   -5.8400 O   0  0  0  0  0
   17.6730  -16.2360   -5.3680 O   0  0  0  0  0
   19.7890  -14.4200   -4.7950 O   0  0  0  0  0
   22.2240  -16.6980   -6.3050 C   0  0  0  0  0
   23.3050  -17.5570   -7.0240 C   0  0  0  0  0
   23.8170  -18.6120   -6.0190 C   0  0  0  0  0
   24.4200  -17.8730   -4.8080 C   0  0  0  0  0
   23.3150  -16.9950   -4.1710 C   0  0  0  0  0
   23.9150  -16.2290   -2.9920 C   0  0  0  0  0
   22.7310  -18.2150   -8.1600 O   0  0  0  0  0
   24.8210  -19.4290   -6.6340 O   0  0  0  0  0
   24.8990  -18.8370   -3.8500 O   0  0  0  0  0
   22.8190  -16.0250   -5.1520 O   0  0  0  0  0
   22.8760  -15.9080   -2.0650 O   0  0  0  0  0
   14.7325  -21.2721   -3.1199 H   0  0  0  0  0
   12.9563  -19.2360   -4.5656 H   0  0  0  0  0
   15.5287  -20.7693   -5.3015 H   0  0  0  0  0
   15.0767  -17.7608   -4.7588 H   0  0  0  0  0
   16.5985  -19.9251   -3.1873 H   0  0  0  0  0
   16.0109  -16.9845   -2.5419 H   0  0  0  0  0
   17.5751  -17.5898   -3.1303 H   0  0  0  0  0
   12.4803  -21.5320   -2.6711 H   0  0  0  0  0
   12.1234  -21.3782   -4.6153 H   0  0  0  0  0
   14.1278  -20.2824   -7.0878 H   0  0  0  0  0
   17.4937  -17.4547   -0.8010 H   0  0  0  0  0
   15.9667  -16.8792   -6.3944 H   0  0  0  0  0
   17.8437  -16.5940   -8.0629 H   0  0  0  0  0
   19.0086  -18.9919   -6.5179 H   0  0  0  0  0
   20.0126  -16.0975   -6.8009 H   0  0  0  0  0
   18.8886  -17.6483   -4.4037 H   0  0  0  0  0
   20.6784  -16.0028   -3.8283 H   0  0  0  0  0
   19.0789  -15.4995   -3.1946 H   0  0  0  0  0
   17.5510  -18.6551   -9.0799 H   0  0  0  0  0
   20.7649  -18.6902   -8.0016 H   0  0  0  0  0
   20.2164  -13.7697   -4.2328 H   0  0  0  0  0
   21.8364  -15.9628   -7.0102 H   0  0  0  0  0
   24.1234  -16.9239   -7.3668 H   0  0  0  0  0
   22.9947  -19.2528   -5.7007 H   0  0  0  0  0
   25.2540  -17.2453   -5.1218 H   0  0  0  0  0
   22.4944  -17.6317   -3.8405 H   0  0  0  0  0
   24.3825  -15.3119   -3.3505 H   0  0  0  0  0
   24.6679  -16.8447   -2.4999 H   0  0  0  0  0
   23.4040  -18.7420   -8.5970 H   0  0  0  0  0
   25.1327  -20.0810   -6.0021 H   0  0  0  0  0
   25.2747  -18.3773   -3.0956 H   0  0  0  0  0
   23.2485  -15.4267   -1.3226 H   0  0  0  0  0
  1  2  1  0  0  0
  1  7  1  0  0  0
  1 11  1  0  0  0
  2  3  1  0  0  0
  2  8  1  0  0  0
  3  4  1  0  0  0
  3  9  1  0  0  0
  4  5  1  0  0  0
  4 10  1  0  0  0
  5  6  1  0  0  0
  5 11  1  0  0  0
  6 12  1  0  0  0
 10 13  1  0  0  0
 13 14  1  0  0  0
 13 22  1  0  0  0
 14 15  1  0  0  0
 14 19  1  0  0  0
 15 16  1  0  0  0
 15 20  1  0  0  0
 16 17  1  0  0  0
 16 21  1  0  0  0
 17 18  1  0  0  0
 17 22  1  0  0  0
 18 23  1  0  0  0
 21 24  1  0  0  0
 24 25  1  0  0  0
 24 33  1  0  0  0
 25 26  1  0  0  0
 25 30  1  0  0  0
 26 27  1  0  0  0
 26 31  1  0  0  0
 27 28  1  0  0  0
 27 32  1  0  0  0
 28 29  1  0  0  0
 28 33  1  0  0  0
 29 34  1  0  0  0
  1 35  1  0  0  0
  2 36  1  0  0  0
  3 37  1  0  0  0
  4 38  1  0  0  0
  5 39  1  0  0  0
  6 40  1  0  0  0
  6 41  1  0  0  0
  7 42  1  0  0  0
  8 43  1  0  0  0
  9 44  1  0  0  0
 12 45  1  0  0  0
 13 46  1  0  0  0
 14 47  1  0  0  0
 15 48  1  0  0  0
 16 49  1  0  0  0
 17 50  1  0  0  0
 18 51  1  0  0  0
 18 52  1  0  0  0
 19 53  1  0  0  0
 20 54  1  0  0  0
 23 55  1  0  0  0
 24 56  1  0  0  0
 25 57  1  0  0  0
 26 58  1  0  0  0
 27 59  1  0  0  0
 28 60  1  0  0  0
 29 61  1  0  0  0
 29 62  1  0  0  0
 30 63  1  0  0  0
 31 64  1  0  0  0
 32 65  1  0  0  0
 34 66  1  0  0  0
M  END
$$$$
