4flj_ligand
  -I-interpret- 

 68 69  0  0  0  0  0  0  0  0999 V2000
   19.4740   -2.4700   14.9510 N   0  0  0  0  0
   24.0250   -2.8390    9.7130 O   0  0  0  0  0
   20.4650   -4.9930   19.0360 N   0  0  0  0  0
   22.3010   -1.9040   13.2660 O   0  0  0  0  0
   22.1600   -1.2610   10.7770 O   0  0  0  0  0
   19.3710   -4.4770   13.8670 O   0  0  0  0  0
   20.9290   -3.3250   20.4410 O   0  0  0  0  0
   19.3990   -3.0180   11.4410 O   0  0  0  0  0
   23.6340   -7.1610   11.7490 C   0  0  0  0  0
   23.7430   -5.6660   11.6400 C   0  0  0  0  0
   23.1570   -4.9100   10.7460 C   0  0  0  0  0
   23.3890   -3.3960   10.8610 C   0  0  0  0  0
   22.0400   -2.6760   11.0750 C   0  0  0  0  0
   21.4930   -2.8320   12.5010 C   0  0  0  0  0
   19.9910   -2.5100   12.6180 C   0  0  0  0  0
   22.7950   -7.8340   10.6370 C   0  0  0  0  0
   22.9910   -7.4550   13.0870 C   0  0  0  0  0
   25.0510   -7.6840   11.6870 C   0  0  0  0  0
   19.5700   -3.2460   13.8480 C   0  0  0  0  0
   18.9480   -3.0440   16.2190 C   0  0  0  0  0
   20.0460   -3.6950   17.0420 C   0  0  0  0  0
   20.5770   -4.9630   16.3020 C   0  0  0  0  0
   21.4610   -5.9860   17.0830 C   0  0  0  0  0
   20.7580   -6.3070   18.4030 C   0  0  0  0  0
   19.4290   -4.1580   18.3630 C   0  0  0  0  0
   21.0370   -4.5180   20.1790 C   0  0  0  0  0
   21.6800   -5.4510   21.1990 C   0  0  0  0  0
   23.1070   -5.8990   20.8720 C   0  0  0  0  0
   22.8830   -4.7670   21.8770 C   0  0  0  0  0
   18.0430   -2.5000   11.3010 C   0  0  0  0  0
   19.7618   -1.4922   14.9139 H   0  0  0  0  0
   24.1437   -1.8950    9.8408 H   0  0  0  0  0
   22.0301   -1.9292   14.1866 H   0  0  0  0  0
   21.3121   -0.8328   10.9161 H   0  0  0  0  0
   24.3702   -5.1628   12.3759 H   0  0  0  0  0
   22.5346   -5.3345    9.9582 H   0  0  0  0  0
   24.0534   -3.2482   11.7124 H   0  0  0  0  0
   21.3379   -3.1525   10.3908 H   0  0  0  0  0
   21.5590   -3.8616   12.8527 H   0  0  0  0  0
   19.7195   -1.4578   12.7034 H   0  0  0  0  0
   21.7783   -7.4418   10.6630 H   0  0  0  0  0
   23.2431   -7.6213    9.6664 H   0  0  0  0  0
   22.7745   -8.9114   10.8008 H   0  0  0  0  0
   23.6150   -7.0524   13.8849 H   0  0  0  0  0
   22.0057   -6.9904   13.1251 H   0  0  0  0  0
   22.8908   -8.5332   13.2114 H   0  0  0  0  0
   25.5050   -7.3884   10.7412 H   0  0  0  0  0
   25.6270   -7.2680   12.5136 H   0  0  0  0  0
   25.0392   -8.7714   11.7616 H   0  0  0  0  0
   18.2094   -3.8059   15.9696 H   0  0  0  0  0
   18.5132   -2.2354   16.8066 H   0  0  0  0  0
   20.8586   -2.9857   17.1994 H   0  0  0  0  0
   21.2256   -4.5764   15.5159 H   0  0  0  0  0
   19.6820   -5.5207   16.0262 H   0  0  0  0  0
   22.4469   -5.5626   17.2746 H   0  0  0  0  0
   21.5931   -6.8948   16.4959 H   0  0  0  0  0
   19.8455   -6.8796   18.2373 H   0  0  0  0  0
   21.3843   -6.9259   19.0456 H   0  0  0  0  0
   19.1455   -3.3079   18.9835 H   0  0  0  0  0
   18.5156   -4.7276   18.1918 H   0  0  0  0  0
   20.7801   -5.9830   21.5076 H   0  0  0  0  0
   23.7163   -6.0953   19.9898 H   0  0  0  0  0
   23.6732   -6.8280   20.8055 H   0  0  0  0  0
   23.2073   -4.4847   22.8786 H   0  0  0  0  0
   23.2500   -3.7591   22.0708 H   0  0  0  0  0
   17.4484   -2.8044   12.1624 H   0  0  0  0  0
   18.0750   -1.4118   11.2462 H   0  0  0  0  0
   17.5956   -2.8980   10.3902 H   0  0  0  0  0
  1 19  1  0  0  0
 20  1  1  0  0  0
 12  2  1  0  0  0
  3 24  1  0  0  0
 25  3  1  0  0  0
  3 26  1  0  0  0
 14  4  1  0  0  0
 13  5  1  0  0  0
 19  6  2  0  0  0
 26  7  2  0  0  0
 15  8  1  0  0  0
  8 30  1  0  0  0
 10  9  1  0  0  0
  9 16  1  0  0  0
  9 17  1  0  0  0
  9 18  1  0  0  0
 11 10  2  0  0  0
 12 11  1  0  0  0
 13 12  1  0  0  0
 14 13  1  0  0  0
 15 14  1  0  0  0
 19 15  1  0  0  0
 21 20  1  0  0  0
 21 22  1  0  0  0
 21 25  1  0  0  0
 22 23  1  0  0  0
 23 24  1  0  0  0
 26 27  1  0  0  0
 27 28  1  0  0  0
 27 29  1  0  0  0
 28 29  1  0  0  0
  1 31  1  0  0  0
  2 32  1  0  0  0
  4 33  1  0  0  0
  5 34  1  0  0  0
 10 35  1  0  0  0
 11 36  1  0  0  0
 12 37  1  0  0  0
 13 38  1  0  0  0
 14 39  1  0  0  0
 15 40  1  0  0  0
 16 41  1  0  0  0
 16 42  1  0  0  0
 16 43  1  0  0  0
 17 44  1  0  0  0
 17 45  1  0  0  0
 17 46  1  0  0  0
 18 47  1  0  0  0
 18 48  1  0  0  0
 18 49  1  0  0  0
 20 50  1  0  0  0
 20 51  1  0  0  0
 21 52  1  0  0  0
 22 53  1  0  0  0
 22 54  1  0  0  0
 23 55  1  0  0  0
 23 56  1  0  0  0
 24 57  1  0  0  0
 24 58  1  0  0  0
 25 59  1  0  0  0
 25 60  1  0  0  0
 27 61  1  0  0  0
 28 62  1  0  0  0
 28 63  1  0  0  0
 29 64  1  0  0  0
 29 65  1  0  0  0
 30 66  1  0  0  0
 30 67  1  0  0  0
 30 68  1  0  0  0
M  END
$$$$
