4at4_ligand
  -I-interpret- 

 44 47  0  0  0  0  0  0  0  0999 V2000
   52.9060   28.6960   15.3230 C   0  0  0  0  0
   52.0530   28.3980   16.4690 C   0  0  0  0  0
   50.8210   27.7030   16.1800 C   0  0  0  0  0
   50.4080   27.3150   14.9240 N   0  0  0  0  0
   52.5210   28.3140   14.0220 N   0  0  0  0  0
   54.0990   29.3550   15.4090 N   0  0  0  0  0
   51.3100   27.6400   13.9130 C   0  0  0  0  0
   52.1560   28.6440   17.8690 C   0  0  0  0  0
   53.2580   29.2750   18.5370 C   0  0  0  0  0
   53.2260   30.5790   19.1240 C   0  0  0  0  0
   54.3920   31.0800   19.7780 C   0  0  0  0  0
   54.4370   28.4740   18.5830 C   0  0  0  0  0
   55.5880   28.9590   19.2270 C   0  0  0  0  0
   55.5870   30.2810   19.8280 C   0  0  0  0  0
   56.7420   30.8180   20.5000 N   0  0  0  0  0
   58.0810   30.3500   20.5270 C   0  0  0  0  0
   58.4690   29.3570   19.9430 O   0  0  0  0  0
   58.9450   31.1410   21.3110 N   0  0  0  0  0
   60.1970   30.6950   21.8080 C   0  0  0  0  0
   61.1920   30.1110   20.9630 C   0  0  0  0  0
   60.4830   30.8460   23.2130 C   0  0  0  0  0
   61.7320   30.4230   23.7630 C   0  0  0  0  0
   62.6990   29.8350   22.8990 C   0  0  0  0  0
   62.4180   29.6820   21.5110 C   0  0  0  0  0
   63.4610   29.0530   20.6080 C   0  0  0  0  0
   64.3100   29.8940   20.0380 F   0  0  0  0  0
   62.9270   28.3790   19.5790 F   0  0  0  0  0
   64.2400   28.1640   21.2110 F   0  0  0  0  0
   59.5760   31.3910   24.0080 F   0  0  0  0  0
   49.9080   27.4120   17.6000 S   0  0  0  0  0
   51.0980   28.1730   18.5590 C   0  0  0  0  0
   54.4427   29.6713   16.3158 H   0  0  0  0  0
   54.6464   29.5309   14.5665 H   0  0  0  0  0
   51.0302   27.3254   12.9076 H   0  0  0  0  0
   52.3207   31.1839   19.0725 H   0  0  0  0  0
   54.3767   32.0675   20.2392 H   0  0  0  0  0
   54.4453   27.4875   18.1195 H   0  0  0  0  0
   56.4845   28.3409   19.2756 H   0  0  0  0  0
   56.5708   31.6661   21.0402 H   0  0  0  0  0
   58.6523   32.0922   21.5347 H   0  0  0  0  0
   61.0025   29.9976   19.8956 H   0  0  0  0  0
   61.9409   30.5482   24.8254 H   0  0  0  0  0
   63.6559   29.5014   23.3004 H   0  0  0  0  0
   51.0095   28.2701   19.6411 H   0  0  0  0  0
  1  2  4  0  0  0
  1  5  4  0  0  0
  1  6  1  0  0  0
  2  3  4  0  0  0
  2  8  4  0  0  0
  3  4  4  0  0  0
  3 30  4  0  0  0
  4  7  4  0  0  0
  5  7  4  0  0  0
  8  9  1  0  0  0
  8 31  4  0  0  0
  9 10  4  0  0  0
  9 12  4  0  0  0
 10 11  4  0  0  0
 11 14  4  0  0  0
 12 13  4  0  0  0
 13 14  4  0  0  0
 14 15  1  0  0  0
 15 16  1  0  0  0
 16 17  2  0  0  0
 16 18  1  0  0  0
 18 19  1  0  0  0
 19 20  4  0  0  0
 19 21  4  0  0  0
 20 24  4  0  0  0
 21 22  4  0  0  0
 21 29  1  0  0  0
 22 23  4  0  0  0
 23 24  4  0  0  0
 24 25  1  0  0  0
 25 26  1  0  0  0
 25 27  1  0  0  0
 25 28  1  0  0  0
 30 31  4  0  0  0
  6 32  1  0  0  0
  6 33  1  0  0  0
  7 34  1  0  0  0
 10 35  1  0  0  0
 11 36  1  0  0  0
 12 37  1  0  0  0
 13 38  1  0  0  0
 15 39  1  0  0  0
 18 40  1  0  0  0
 20 41  1  0  0  0
 22 42  1  0  0  0
 23 43  1  0  0  0
 31 44  1  0  0  0
M  END
$$$$
