3fbr_ligand
  -I-interpret- 

 84 83  0  0  0  0  0  0  0  0999 V2000
   -0.3870    3.6430   66.1870 N   0  3  0  0  0
   -0.8290    4.3390   67.3990 C   0  0  0  0  0
    0.2990    4.4540   68.4100 C   0  0  0  0  0
    1.1410    3.5730   68.5100 O   0  0  0  0  0
   -2.0390    3.6330   68.0100 C   0  0  0  0  0
    0.2710    5.5640   69.1920 N   0  0  0  0  0
    1.2620    5.7770   70.2130 C   0  0  0  0  0
    0.8670    6.4850   71.4780 C   0  0  0  0  0
    0.2410    7.5470   71.5150 O   0  0  0  0  0
    2.4440    6.4960   69.5890 C   0  0  0  0  0
    1.2980    5.7570   72.4750 N   0  0  0  0  0
    1.3580    6.1690   73.8580 C   0  0  0  0  0
    2.4800    7.1760   73.6450 C   0  0  0  0  0
    3.3970    6.9290   72.8500 O   0  0  0  0  0
    2.4630    8.3360   74.3260 N   0  0  0  0  0
    3.4140    9.3780   73.8690 C   0  0  0  0  0
    4.2720   10.2380   74.8350 C   0  0  0  0  0
    4.5120    9.8750   75.9910 O   0  0  0  0  0
    4.7520   11.3860   74.2670 N   0  0  0  0  0
    5.6950   12.4360   74.7620 C   0  0  0  0  0
    5.3390   13.3800   75.9390 C   0  0  0  0  0
    5.0400   12.9530   77.0590 O   0  0  0  0  0
    6.0840   13.2910   73.5670 C   0  0  0  0  0
    5.4600   14.6850   75.5790 N   0  0  0  0  0
    5.1440   15.8390   76.3910 C   0  0  0  0  0
    3.6240   15.9130   76.3980 C   0  0  0  0  0
    3.0070   16.1400   75.3620 O   0  0  0  0  0
    5.7500   17.1250   75.8340 C   0  0  0  0  0
    3.0470   15.7170   77.5390 N   0  0  0  0  0
    1.6070   15.7210   77.8320 C   0  0  0  0  0
    0.5130   16.1190   76.8110 C   0  0  0  0  0
   -0.6610   15.9180   77.1600 O   0  0  0  0  0
    1.4060   16.5880   79.0600 C   0  0  0  0  0
    0.7430   16.6550   75.6320 N   0  0  0  0  0
   -0.3930   17.0350   74.7570 C   0  0  0  0  0
   -1.3750   15.8880   74.4520 C   0  0  0  0  0
   -0.9980   14.7280   74.5970 O   0  0  0  0  0
   -2.5970   16.2020   74.0330 N   0  0  0  0  0
   -3.5960   15.1930   73.6840 C   0  0  0  0  0
   -4.0100   15.2840   72.2230 C   0  0  0  0  0
   -4.4300   16.3420   71.7490 O   0  0  0  0  0
   -4.8170   15.3250   74.5800 C   0  0  0  0  0
    0.4199    4.1272   65.7934 H   0  0  0  0  0
   -0.1287    2.6846   66.4218 H   0  0  0  0  0
   -1.1457    3.6346   65.5054 H   0  0  0  0  0
   -1.1253    5.3499   67.1190 H   0  0  0  0  0
   -1.7506    2.6316   68.3296 H   0  0  0  0  0
   -2.3943    4.2018   68.8692 H   0  0  0  0  0
   -2.8320    3.5638   67.2653 H   0  0  0  0  0
   -0.4640    6.2574   69.0533 H   0  0  0  0  0
    1.4807    4.7691   70.5657 H   0  0  0  0  0
    2.1633    7.5244   69.3617 H   0  0  0  0  0
    3.2802    6.4923   70.2881 H   0  0  0  0  0
    2.7344    5.9858   68.6706 H   0  0  0  0  0
    1.6205    4.8143   72.2566 H   0  0  0  0  0
    1.5216    5.3907   74.6034 H   0  0  0  0  0
    0.4365    6.5374   74.3088 H   0  0  0  0  0
    1.8317    8.4901   75.1122 H   0  0  0  0  0
    2.7619   10.1148   73.4000 H   0  0  0  0  0
    4.1625    8.8031   73.3237 H   0  0  0  0  0
    4.3993   11.5591   73.3257 H   0  0  0  0  0
    6.4747   11.8303   75.2239 H   0  0  0  0  0
    6.5662   12.6654   72.8158 H   0  0  0  0  0
    5.1900   13.7475   73.1421 H   0  0  0  0  0
    6.7738   14.0711   73.8892 H   0  0  0  0  0
    5.8099   14.8694   74.6388 H   0  0  0  0  0
    5.5608   15.7381   77.3931 H   0  0  0  0  0
    6.8348   17.0267   75.7948 H   0  0  0  0  0
    5.3634   17.3023   74.8304 H   0  0  0  0  0
    5.4828   17.9608   76.4806 H   0  0  0  0  0
    3.6656   15.5383   78.3301 H   0  0  0  0  0
    1.4241   14.6484   77.8957 H   0  0  0  0  0
    1.9681   16.1693   79.8948 H   0  0  0  0  0
    1.7599   17.5978   78.8521 H   0  0  0  0  0
    0.3461   16.6179   79.3126 H   0  0  0  0  0
    1.7017   16.8092   75.3197 H   0  0  0  0  0
    0.0304   17.3544   73.8048 H   0  0  0  0  0
   -0.9563   17.8064   75.2821 H   0  0  0  0  0
   -2.8480   17.1873   73.9516 H   0  0  0  0  0
   -3.1382   14.2160   73.8385 H   0  0  0  0  0
   -3.9344   14.4022   71.5867 H   0  0  0  0  0
   -4.5198   15.1869   75.6196 H   0  0  0  0  0
   -5.2531   16.3160   74.4540 H   0  0  0  0  0
   -5.5504   14.5665   74.3066 H   0  0  0  0  0
  1  2  1  0  0  0
  2  3  1  0  0  0
  2  5  1  0  0  0
  3  4  2  0  0  0
  3  6  1  0  0  0
  6  7  1  0  0  0
  7  8  1  0  0  0
  7 10  1  0  0  0
  8  9  2  0  0  0
  8 11  1  0  0  0
 11 12  1  0  0  0
 12 13  1  0  0  0
 13 14  2  0  0  0
 13 15  1  0  0  0
 15 16  1  0  0  0
 16 17  1  0  0  0
 17 18  2  0  0  0
 17 19  1  0  0  0
 19 20  1  0  0  0
 20 21  1  0  0  0
 20 23  1  0  0  0
 21 22  2  0  0  0
 21 24  1  0  0  0
 24 25  1  0  0  0
 25 26  1  0  0  0
 25 28  1  0  0  0
 26 27  2  0  0  0
 26 29  1  0  0  0
 29 30  1  0  0  0
 30 31  1  0  0  0
 30 33  1  0  0  0
 31 32  2  0  0  0
 31 34  1  0  0  0
 34 35  1  0  0  0
 35 36  1  0  0  0
 36 37  2  0  0  0
 36 38  1  0  0  0
 38 39  1  0  0  0
 39 40  1  0  0  0
 39 42  1  0  0  0
 40 41  2  0  0  0
  1 43  1  0  0  0
  1 44  1  0  0  0
  1 45  1  0  0  0
  2 46  1  0  0  0
  5 47  1  0  0  0
  5 48  1  0  0  0
  5 49  1  0  0  0
  6 50  1  0  0  0
  7 51  1  0  0  0
 10 52  1  0  0  0
 10 53  1  0  0  0
 10 54  1  0  0  0
 11 55  1  0  0  0
 12 56  1  0  0  0
 12 57  1  0  0  0
 15 58  1  0  0  0
 16 59  1  0  0  0
 16 60  1  0  0  0
 19 61  1  0  0  0
 20 62  1  0  0  0
 23 63  1  0  0  0
 23 64  1  0  0  0
 23 65  1  0  0  0
 24 66  1  0  0  0
 25 67  1  0  0  0
 28 68  1  0  0  0
 28 69  1  0  0  0
 28 70  1  0  0  0
 29 71  1  0  0  0
 30 72  1  0  0  0
 33 73  1  0  0  0
 33 74  1  0  0  0
 33 75  1  0  0  0
 34 76  1  0  0  0
 35 77  1  0  0  0
 35 78  1  0  0  0
 38 79  1  0  0  0
 39 80  1  0  0  0
 40 81  1  0  0  0
 42 82  1  0  0  0
 42 83  1  0  0  0
 42 84  1  0  0  0
M  END
$$$$
