4h2o_ligand
  -I-interpret- 

 62 63  0  0  0  0  0  0  0  0999 V2000
  -12.0690  -12.8400   -8.4280 O   0  0  0  0  0
  -11.4320  -12.9920   -9.4740 C   0  0  0  0  0
  -11.6620  -12.2260  -10.4160 O   0  0  0  0  0
  -10.4400  -13.9700   -9.5570 C   0  0  0  0  0
  -10.2070  -14.6700  -10.7540 C   0  0  0  0  0
   -9.1890  -15.6260  -10.8150 C   0  0  0  0  0
   -8.9460  -16.3090  -11.9410 N   0  0  0  0  0
   -9.1170  -17.5530  -11.9280 O   0  0  0  0  0
   -8.5000  -15.6520  -13.1190 O   0  0  0  0  0
   -8.4340  -15.8850   -9.6650 C   0  0  0  0  0
   -8.6740  -15.2090   -8.4760 C   0  0  0  0  0
   -9.6640  -14.2350   -8.4290 C   0  0  0  0  0
  -10.0070  -13.5280   -7.3650 N   0  0  0  0  0
  -10.0730  -14.0850   -6.1640 C   0  0  0  0  0
   -9.7780  -15.2360   -5.8880 O   0  0  0  0  0
  -10.6360  -13.2600   -5.2180 C   0  0  0  0  0
  -11.2110  -12.0630   -5.5870 C   0  0  0  0  0
  -10.6970  -13.6640   -3.9170 C   0  0  0  0  0
  -11.2950  -12.8550   -2.9980 C   0  0  0  0  0
  -11.8550  -11.6500   -3.3660 C   0  0  0  0  0
  -11.8190  -11.2350   -4.6670 C   0  0  0  0  0
  -12.3470  -10.0480   -5.0440 O   0  0  0  0  0
  -13.1140   -9.3780   -4.0880 C   0  0  0  0  0
  -12.7550   -7.9190   -4.1120 C   0  0  0  0  0
  -12.6900   -7.3800   -2.7000 C   0  0  0  0  0
  -12.9320   -5.9050   -2.7380 C   0  0  0  0  0
  -12.8410   -5.2910   -1.3630 C   0  0  0  0  0
  -14.2470   -4.9340   -0.9780 C   0  0  0  0  0
  -14.2460   -3.8570    0.0750 C   0  0  0  0  0
  -15.1480   -4.2920    1.1790 C   0  0  0  0  0
  -16.3370   -3.4110    1.1590 C   0  0  0  0  0
  -16.5160   -2.8520    2.5310 C   0  0  0  0  0
  -11.1000  -12.4569  -11.1593 H   0  0  0  0  0
  -10.8191  -14.4675  -11.6329 H   0  0  0  0  0
   -7.6416  -16.6325   -9.7036 H   0  0  0  0  0
   -8.0897  -15.4408   -7.5855 H   0  0  0  0  0
  -10.2245  -12.5371   -7.4705 H   0  0  0  0  0
  -11.1844  -11.7627   -6.6345 H   0  0  0  0  0
  -10.2728  -14.6219   -3.6161 H   0  0  0  0  0
  -11.3313  -13.1658   -1.9539 H   0  0  0  0  0
  -12.3307  -11.0229   -2.6120 H   0  0  0  0  0
  -12.9135   -9.7907   -3.0993 H   0  0  0  0  0
  -14.1734   -9.5007   -4.3133 H   0  0  0  0  0
  -13.5142   -7.3716   -4.6706 H   0  0  0  0  0
  -11.7822   -7.7964   -4.5882 H   0  0  0  0  0
  -11.7088   -7.5832   -2.2710 H   0  0  0  0  0
  -13.4480   -7.8637   -2.0839 H   0  0  0  0  0
  -13.9352   -5.7308   -3.1270 H   0  0  0  0  0
  -12.1709   -5.4476   -3.3702 H   0  0  0  0  0
  -12.1959   -4.4124   -1.3640 H   0  0  0  0  0
  -12.3992   -5.9852   -0.6482 H   0  0  0  0  0
  -14.7416   -5.8197   -0.5793 H   0  0  0  0  0
  -14.7743   -4.5684   -1.8591 H   0  0  0  0  0
  -14.5959   -2.9156   -0.3486 H   0  0  0  0  0
  -13.2357   -3.7009    0.4533 H   0  0  0  0  0
  -14.6367   -4.2188    2.1389 H   0  0  0  0  0
  -15.4432   -5.3322    1.0412 H   0  0  0  0  0
  -17.2209   -3.9761    0.8631 H   0  0  0  0  0
  -16.1981   -2.6054    0.4380 H   0  0  0  0  0
  -16.6621   -3.6683    3.2383 H   0  0  0  0  0
  -15.6286   -2.2833    2.8088 H   0  0  0  0  0
  -17.3875   -2.1975    2.5444 H   0  0  0  0  0
  1  2  2  0  0  0
  2  3  1  0  0  0
  2  4  1  0  0  0
  4  5  4  0  0  0
  4 12  4  0  0  0
  5  6  4  0  0  0
  6  7  1  0  0  0
  6 10  4  0  0  0
  7  8  2  0  0  0
  7  9  2  0  0  0
 10 11  4  0  0  0
 11 12  4  0  0  0
 12 13  1  0  0  0
 13 14  1  0  0  0
 14 15  2  0  0  0
 14 16  1  0  0  0
 16 17  4  0  0  0
 16 18  4  0  0  0
 17 21  4  0  0  0
 18 19  4  0  0  0
 19 20  4  0  0  0
 20 21  4  0  0  0
 21 22  1  0  0  0
 22 23  1  0  0  0
 23 24  1  0  0  0
 24 25  1  0  0  0
 25 26  1  0  0  0
 26 27  1  0  0  0
 27 28  1  0  0  0
 28 29  1  0  0  0
 29 30  1  0  0  0
 30 31  1  0  0  0
 31 32  1  0  0  0
  3 33  1  0  0  0
  5 34  1  0  0  0
 10 35  1  0  0  0
 11 36  1  0  0  0
 13 37  1  0  0  0
 17 38  1  0  0  0
 18 39  1  0  0  0
 19 40  1  0  0  0
 20 41  1  0  0  0
 23 42  1  0  0  0
 23 43  1  0  0  0
 24 44  1  0  0  0
 24 45  1  0  0  0
 25 46  1  0  0  0
 25 47  1  0  0  0
 26 48  1  0  0  0
 26 49  1  0  0  0
 27 50  1  0  0  0
 27 51  1  0  0  0
 28 52  1  0  0  0
 28 53  1  0  0  0
 29 54  1  0  0  0
 29 55  1  0  0  0
 30 56  1  0  0  0
 30 57  1  0  0  0
 31 58  1  0  0  0
 31 59  1  0  0  0
 32 60  1  0  0  0
 32 61  1  0  0  0
 32 62  1  0  0  0
M  END
$$$$
