6e13_ligand
  -I-interpret- 

 39 39  0  0  0  0  0  0  0  0999 V2000
   -8.1820  -28.7690   -8.9540 C   0  0  0  0  0
   -9.5520  -28.5580   -9.4880 C   0  0  0  0  0
   -9.8800  -29.0400  -10.9690 C   0  0  0  0  0
  -11.3420  -28.6900  -11.3020 C   0  0  0  0  0
  -12.3230  -29.6370  -11.0370 C   0  0  0  0  0
  -13.6530  -29.3400  -11.3150 C   0  0  0  0  0
  -15.5020  -30.2230   -9.3550 C   0  0  0  0  0
  -16.9640  -30.6330   -9.3410 C   0  0  0  0  0
  -17.8280  -29.9800  -10.4820 C   0  0  0  0  0
  -14.0410  -28.0870  -11.8580 C   0  0  0  0  0
  -13.0760  -27.1490  -12.1170 C   0  0  0  0  0
  -11.7220  -27.4420  -11.8420 C   0  0  0  0  0
   -9.7660  -27.1970   -9.4210 N   0  3  0  0  0
  -17.4910  -30.3110   -8.0290 N   0  3  0  0  0
   -8.0100  -29.5910   -8.0190 O   0  0  0  0  0
   -7.2250  -28.0960   -9.3930 O   0  0  0  0  0
  -18.8380  -30.6290  -10.9120 O   0  0  0  0  0
  -17.5470  -28.8290  -10.9710 O   0  0  0  0  0
  -15.3910  -27.6900  -12.1780 O   0  0  0  0  0
  -13.5480  -25.9280  -12.6700 O   0  0  0  0  0
  -14.8600  -30.6020  -10.9400 S   0  0  0  0  0
  -10.2034  -29.1871   -8.8814 H   0  0  0  0  0
   -9.7353  -30.1178  -11.0438 H   0  0  0  0  0
   -9.2144  -28.5401  -11.6727 H   0  0  0  0  0
  -12.0527  -30.6048  -10.6147 H   0  0  0  0  0
  -14.9496  -30.7590   -8.5832 H   0  0  0  0  0
  -15.4044  -29.1568   -9.1505 H   0  0  0  0  0
  -17.0232  -31.7027   -9.5418 H   0  0  0  0  0
  -10.9582  -26.6927  -12.0500 H   0  0  0  0  0
   -9.5609  -26.8678   -8.4776 H   0  0  0  0  0
   -9.1551  -26.7248  -10.0875 H   0  0  0  0  0
  -10.7397  -26.9955   -9.6485 H   0  0  0  0  0
  -18.4754  -30.5747   -7.9852 H   0  0  0  0  0
  -16.9685  -30.8238   -7.3188 H   0  0  0  0  0
  -17.3986  -29.3088   -7.8634 H   0  0  0  0  0
   -8.8451  -30.0160   -7.8104 H   0  0  0  0  0
  -16.7631  -28.4818  -10.5391 H   0  0  0  0  0
  -15.3857  -26.7972  -12.5309 H   0  0  0  0  0
  -12.8062  -25.3365  -12.8167 H   0  0  0  0  0
  2  1  1  0  0  0
  1 15  1  0  0  0
  1 16  2  0  0  0
  3  2  1  0  0  0
  2 13  1  0  0  0
  4  3  1  0  0  0
  5  4  4  0  0  0
  4 12  4  0  0  0
  6  5  4  0  0  0
  6 10  4  0  0  0
 21  6  1  0  0  0
  7  8  1  0  0  0
  7 21  1  0  0  0
  8  9  1  0  0  0
  8 14  1  0  0  0
  9 17  2  0  0  0
  9 18  1  0  0  0
 10 11  4  0  0  0
 10 19  1  0  0  0
 11 12  4  0  0  0
 11 20  1  0  0  0
  2 22  1  0  0  0
  3 23  1  0  0  0
  3 24  1  0  0  0
  5 25  1  0  0  0
  7 26  1  0  0  0
  7 27  1  0  0  0
  8 28  1  0  0  0
 12 29  1  0  0  0
 13 30  1  0  0  0
 13 31  1  0  0  0
 13 32  1  0  0  0
 14 33  1  0  0  0
 14 34  1  0  0  0
 14 35  1  0  0  0
 15 36  1  0  0  0
 18 37  1  0  0  0
 19 38  1  0  0  0
 20 39  1  0  0  0
M  END
$$$$
