3v3v_ligand
  -I-interpret- 

 33 35  0  0  0  0  0  0  0  0999 V2000
   33.9820   45.1740    5.6980 O   0  0  0  0  0
   33.0460   44.7100    5.0410 C   0  0  0  0  0
   31.9470   45.5230    4.7740 C   0  0  0  0  0
   31.9890   46.7910    5.2910 O   0  0  0  0  0
   33.0380   43.3880    4.5380 C   0  0  0  0  0
   34.0740   42.4480    4.7650 C   0  0  0  0  0
   35.1760   42.8070    5.5020 O   0  0  0  0  0
   31.9330   42.9350    3.7830 C   0  0  0  0  0
   31.8680   41.6280    3.2680 C   0  0  0  0  0
   32.9020   40.7230    3.4930 C   0  0  0  0  0
   32.8950   39.4420    3.0180 O   0  0  0  0  0
   34.0060   41.1360    4.2420 C   0  0  0  0  0
   35.0300   40.2390    4.4610 O   0  0  0  0  0
   30.8800   43.7950    3.5400 O   0  0  0  0  0
   30.8460   45.0970    3.9930 C   0  0  0  0  0
   29.6290   45.7820    3.7750 C   0  0  0  0  0
   29.3570   46.9350    4.5110 C   0  0  0  0  0
   28.1510   47.5920    4.3460 C   0  0  0  0  0
   27.8480   48.7270    5.0250 O   0  0  0  0  0
   27.1920   47.1040    3.4650 C   0  0  0  0  0
   26.0510   47.8500    3.3920 O   0  0  0  0  0
   27.4160   45.9340    2.7260 C   0  0  0  0  0
   28.6360   45.2770    2.9060 C   0  0  0  0  0
   32.8014   46.9054    5.7895 H   0  0  0  0  0
   35.7773   42.0609    5.5606 H   0  0  0  0  0
   30.9990   41.3202    2.6865 H   0  0  0  0  0
   33.7012   38.9969    3.2893 H   0  0  0  0  0
   34.8184   39.4039    4.0374 H   0  0  0  0  0
   30.0946   47.3183    5.2161 H   0  0  0  0  0
   26.9714   49.0255    4.7720 H   0  0  0  0  0
   25.4457   47.4464    2.7657 H   0  0  0  0  0
   26.6650   45.5503    2.0354 H   0  0  0  0  0
   28.8264   44.3516    2.3623 H   0  0  0  0  0
  1  2  2  0  0  0
  2  3  1  0  0  0
  2  5  1  0  0  0
  3  4  1  0  0  0
  3 15  2  0  0  0
  5  6  4  0  0  0
  5  8  4  0  0  0
  6  7  1  0  0  0
  6 12  4  0  0  0
  8  9  4  0  0  0
  8 14  1  0  0  0
  9 10  4  0  0  0
 10 11  1  0  0  0
 10 12  4  0  0  0
 12 13  1  0  0  0
 14 15  1  0  0  0
 15 16  1  0  0  0
 16 17  4  0  0  0
 16 23  4  0  0  0
 17 18  4  0  0  0
 18 19  1  0  0  0
 18 20  4  0  0  0
 20 21  1  0  0  0
 20 22  4  0  0  0
 22 23  4  0  0  0
  4 24  1  0  0  0
  7 25  1  0  0  0
  9 26  1  0  0  0
 11 27  1  0  0  0
 13 28  1  0  0  0
 17 29  1  0  0  0
 19 30  1  0  0  0
 21 31  1  0  0  0
 22 32  1  0  0  0
 23 33  1  0  0  0
M  END
$$$$
