5fd2_ligand
  -I-interpret- 

 46 49  0  0  0  0  0  0  0  0999 V2000
   11.0550   30.2140   -3.2800 C   0  0  0  0  0
    9.7720   29.5890   -3.6350 N   0  0  0  0  0
    8.9230   30.6150   -4.2630 C   0  0  0  0  0
   10.0210   28.3290   -4.6600 S   0  0  0  0  0
   11.3000   27.6390   -4.3090 O   0  0  0  0  0
   10.0950   28.7850   -6.0740 O   0  0  0  0  0
    8.8570   27.2160   -4.4450 N   0  0  0  0  0
    8.3560   26.9390   -3.2520 C   0  0  0  0  0
    6.9990   26.8840   -3.1170 C   0  0  0  0  0
    6.2670   27.1570   -4.1960 F   0  0  0  0  0
    9.1750   26.6550   -2.1720 C   0  0  0  0  0
    8.6270   26.3310   -0.9460 C   0  0  0  0  0
    7.2560   26.2930   -0.8100 C   0  0  0  0  0
    6.7810   25.9940    0.4000 F   0  0  0  0  0
    6.4190   26.5650   -1.8980 C   0  0  0  0  0
    5.0800   26.5580   -1.7880 N   0  0  0  0  0
    4.3090   25.5360   -2.2150 C   0  0  0  0  0
    4.8750   24.5840   -2.9910 N   0  0  0  0  0
    4.2080   23.5320   -3.4290 C   0  0  0  0  0
    2.8700   23.3890   -3.1280 C   0  0  0  0  0
    2.2290   24.3400   -2.3590 C   0  0  0  0  0
    2.9410   25.4340   -1.8680 C   0  0  0  0  0
    2.2750   26.4330   -1.1270 C   0  0  0  0  0
    2.9560   27.4970   -0.6840 N   0  0  0  0  0
    2.3670   28.4770   -0.0280 C   0  0  0  0  0
    1.0720   28.4730    0.2150 N   0  0  0  0  0
    0.3120   27.4600   -0.2040 C   0  0  0  0  0
    0.8910   26.4150   -0.9030 C   0  0  0  0  0
   -0.0970   25.5530   -1.1840 N   0  0  0  0  0
   -1.2430   26.0320   -0.7030 C   0  0  0  0  0
   -0.9940   27.2000   -0.1020 N   0  0  0  0  0
   11.6941   29.4774   -2.7932 H   0  0  0  0  0
   11.5424   30.5789   -4.1841 H   0  0  0  0  0
   10.8761   31.0473   -2.6005 H   0  0  0  0  0
    9.4104   30.9861   -5.1646 H   0  0  0  0  0
    7.9591   30.1776   -4.5233 H   0  0  0  0  0
    8.7731   31.4382   -3.5644 H   0  0  0  0  0
    8.5001   26.7134   -5.2577 H   0  0  0  0  0
   10.2581   26.6873   -2.2900 H   0  0  0  0  0
    9.2716   26.1079   -0.0958 H   0  0  0  0  0
    4.6240   27.3643   -1.3610 H   0  0  0  0  0
    4.7153   22.7763   -4.0288 H   0  0  0  0  0
    2.3180   22.5247   -3.4973 H   0  0  0  0  0
    1.1672   24.2357   -2.1359 H   0  0  0  0  0
    2.9688   29.3150    0.3236 H   0  0  0  0  0
   -2.2186   25.5529   -0.7854 H   0  0  0  0  0
  1  2  1  0  0  0
  2  3  1  0  0  0
  2  4  1  0  0  0
  4  5  2  0  0  0
  4  6  2  0  0  0
  4  7  1  0  0  0
  7  8  1  0  0  0
  8  9  4  0  0  0
  8 11  4  0  0  0
  9 10  1  0  0  0
  9 15  4  0  0  0
 11 12  4  0  0  0
 12 13  4  0  0  0
 13 14  1  0  0  0
 13 15  4  0  0  0
 15 16  1  0  0  0
 16 17  1  0  0  0
 17 18  4  0  0  0
 17 22  4  0  0  0
 18 19  4  0  0  0
 19 20  4  0  0  0
 20 21  4  0  0  0
 21 22  4  0  0  0
 22 23  1  0  0  0
 23 24  4  0  0  0
 23 28  4  0  0  0
 24 25  4  0  0  0
 25 26  4  0  0  0
 26 27  4  0  0  0
 27 28  4  0  0  0
 27 31  4  0  0  0
 28 29  4  0  0  0
 29 30  4  0  0  0
 30 31  4  0  0  0
  1 32  1  0  0  0
  1 33  1  0  0  0
  1 34  1  0  0  0
  3 35  1  0  0  0
  3 36  1  0  0  0
  3 37  1  0  0  0
  7 38  1  0  0  0
 11 39  1  0  0  0
 12 40  1  0  0  0
 16 41  1  0  0  0
 19 42  1  0  0  0
 20 43  1  0  0  0
 21 44  1  0  0  0
 25 45  1  0  0  0
 30 46  1  0  0  0
M  END
$$$$
