5d6j_ligand
  -I-interpret- 

 47 49  0  0  0  0  0  0  0  0999 V2000
  -35.7240    3.2630   15.7010 P   0  0  0  0  0
  -36.4620    4.3620   14.9720 O   0  0  0  0  0
  -34.9710    3.6850   16.9420 O   0  0  0  0  0
  -36.6040    2.0510   15.9050 O   0  0  0  0  0
  -33.7510    3.7080   13.6470 P   0  0  0  0  0
  -32.3270    3.2290   13.5400 O   0  0  0  0  0
  -34.0370    5.1510   13.9700 O   0  0  0  0  0
  -34.5450    2.7670   14.7040 O   0  0  0  0  0
  -34.1830    3.7590   10.7780 P   0  0  0  0  0
  -33.8880    2.5450    9.9360 O   0  0  0  0  0
  -35.2980    4.6920   10.3670 O   0  0  0  0  0
  -34.5160    3.2670   12.2870 O   0  0  0  0  0
  -32.8100    4.5780   10.9120 O   0  0  0  0  0
  -32.7250    5.9770   10.6570 C   0  0  0  0  0
  -31.7270    6.5540   11.6630 C   0  0  0  0  0
  -30.3800    6.2550   11.2720 O   0  0  0  0  0
  -31.7540    8.0730   11.7800 C   0  0  0  0  0
  -32.8060    8.5550   12.6250 O   0  0  0  0  0
  -30.3880    8.3450   12.3680 C   0  0  0  0  0
  -30.4260    8.0950   13.7730 O   0  0  0  0  0
  -29.5000    7.2860   11.7380 C   0  0  0  0  0
  -28.8360    7.9640   10.6080 N   0  0  0  0  0
  -29.2360    7.9410    9.3190 C   0  0  0  0  0
  -28.4140    8.6930    8.5460 N   0  0  0  0  0
  -27.4690    9.2200    9.3510 C   0  0  0  0  0
  -26.3030   10.1160    9.1880 C   0  0  0  0  0
  -25.9580   10.6080    7.9740 N   0  0  0  0  0
  -25.5890   10.4180   10.2920 N   0  0  0  0  0
  -25.9160    9.9490   11.5120 C   0  0  0  0  0
  -26.9610    9.1400   11.7380 N   0  0  0  0  0
  -27.7580    8.7440   10.7130 C   0  0  0  0  0
  -34.5394    2.9197   17.3288 H   0  0  0  0  0
  -36.1090    1.3720   16.3692 H   0  0  0  0  0
  -32.3206    2.2922   13.3303 H   0  0  0  0  0
  -35.3610    5.4116   10.9993 H   0  0  0  0  0
  -33.7011    6.4495   10.7671 H   0  0  0  0  0
  -32.3949    6.1638    9.6351 H   0  0  0  0  0
  -32.0250    6.0988   12.6075 H   0  0  0  0  0
  -31.9502    8.5772   10.8338 H   0  0  0  0  0
  -32.7729    9.5138   12.6600 H   0  0  0  0  0
  -30.0524    9.3671   12.1927 H   0  0  0  0  0
  -29.5603    8.2665   14.1509 H   0  0  0  0  0
  -28.7578    6.8524   12.4083 H   0  0  0  0  0
  -30.1023    7.3923    8.9496 H   0  0  0  0  0
  -26.5060   10.3622    7.1496 H   0  0  0  0  0
  -25.1502   11.2243    7.8843 H   0  0  0  0  0
  -25.2981   10.2429   12.3604 H   0  0  0  0  0
  1  2  2  0  0  0
  1  3  1  0  0  0
  1  4  1  0  0  0
  8  1  1  0  0  0
  5  6  1  0  0  0
  5  7  2  0  0  0
  5  8  1  0  0  0
 12  5  1  0  0  0
  9 10  2  0  0  0
  9 11  1  0  0  0
  9 12  1  0  0  0
  9 13  1  0  0  0
 13 14  1  0  0  0
 14 15  1  0  0  0
 15 16  1  0  0  0
 15 17  1  0  0  0
 16 21  1  0  0  0
 17 18  1  0  0  0
 17 19  1  0  0  0
 19 20  1  0  0  0
 19 21  1  0  0  0
 21 22  1  0  0  0
 22 23  4  0  0  0
 22 31  4  0  0  0
 23 24  4  0  0  0
 24 25  4  0  0  0
 25 26  4  0  0  0
 25 31  4  0  0  0
 26 27  1  0  0  0
 26 28  4  0  0  0
 28 29  4  0  0  0
 29 30  4  0  0  0
 30 31  4  0  0  0
  3 32  1  0  0  0
  4 33  1  0  0  0
  6 34  1  0  0  0
 11 35  1  0  0  0
 14 36  1  0  0  0
 14 37  1  0  0  0
 15 38  1  0  0  0
 17 39  1  0  0  0
 18 40  1  0  0  0
 19 41  1  0  0  0
 20 42  1  0  0  0
 21 43  1  0  0  0
 23 44  1  0  0  0
 27 45  1  0  0  0
 27 46  1  0  0  0
 29 47  1  0  0  0
M  END
$$$$
