6nfi_ligand
  -I-interpret- 

 52 55  0  0  0  0  0  0  0  0999 V2000
  -23.0150   -7.0400  -19.4290 C   0  0  0  0  0
  -19.9120   -6.0960  -20.8210 C   0  0  0  0  0
  -19.6970   -6.1020  -19.4280 C   0  0  0  0  0
  -18.4550   -5.7780  -18.9080 C   0  0  0  0  0
  -16.2150   -5.1370  -18.9880 C   0  0  0  0  0
  -14.3600   -4.6020  -17.8770 N   0  0  0  0  0
  -16.2000   -4.8800  -14.7330 C   0  0  0  0  0
  -15.7590   -4.6310  -13.3140 C   0  0  0  0  0
  -15.5980   -3.3190  -12.8530 C   0  0  0  0  0
  -15.8470   -2.1030  -13.7160 C   0  0  0  0  0
  -14.9540   -4.1520  -10.6910 C   0  0  0  0  0
  -15.5070   -5.7030  -12.4530 C   0  0  0  0  0
  -15.6500   -7.1490  -12.8690 C   0  0  0  0  0
  -18.8590   -5.7390  -21.6820 C   0  0  0  0  0
  -19.0280   -5.7370  -23.0380 O   0  0  0  0  0
  -22.1030   -7.6760  -20.8610 S   0  0  0  0  0
  -21.1890   -8.6960  -20.4750 O   0  0  0  0  0
  -23.0060   -7.8850  -21.9370 O   0  0  0  0  0
  -21.1630   -6.4090  -21.3790 N   0  0  0  0  0
  -17.8940   -5.6930  -17.5070 C   0  0  0  0  0
  -16.4540   -5.2490  -17.6640 C   0  0  0  0  0
  -14.9390   -4.7310  -19.1320 N   0  0  0  0  0
  -15.2620   -4.9100  -16.9940 C   0  0  0  0  0
  -15.0360   -4.8810  -15.6200 N   0  0  0  0  0
  -15.2020   -3.0920  -11.5480 C   0  0  0  0  0
  -15.1080   -5.4470  -11.1530 C   0  0  0  0  0
  -17.4090   -5.4520  -19.7720 C   0  0  0  0  0
  -17.6140   -5.4270  -21.1530 C   0  0  0  0  0
  -18.6350   -4.5840  -23.7920 C   0  0  0  0  0
  -23.5743   -7.8529  -18.9658 H   0  0  0  0  0
  -22.3118   -6.6238  -18.7076 H   0  0  0  0  0
  -23.7053   -6.2623  -19.7557 H   0  0  0  0  0
  -20.5139   -6.3635  -18.7554 H   0  0  0  0  0
  -16.8873   -4.0919  -15.0407 H   0  0  0  0  0
  -16.6987   -5.8475  -14.7912 H   0  0  0  0  0
  -15.1819   -2.1293  -14.5791 H   0  0  0  0  0
  -16.8833   -2.1050  -14.0540 H   0  0  0  0  0
  -15.6548   -1.2011  -13.1349 H   0  0  0  0  0
  -14.6408   -3.9676   -9.6634 H   0  0  0  0  0
  -16.6781   -7.3367  -13.1788 H   0  0  0  0  0
  -14.9754   -7.3551  -13.7000 H   0  0  0  0  0
  -15.3993   -7.7944  -12.0272 H   0  0  0  0  0
  -21.5116   -5.8281  -22.1415 H   0  0  0  0  0
  -17.9589   -6.6533  -16.9954 H   0  0  0  0  0
  -18.4606   -4.9909  -16.8954 H   0  0  0  0  0
  -14.0882   -4.8611  -15.2435 H   0  0  0  0  0
  -15.0838   -2.0693  -11.1899 H   0  0  0  0  0
  -14.9113   -6.2816  -10.4800 H   0  0  0  0  0
  -16.7928   -5.1613  -21.8187 H   0  0  0  0  0
  -19.1983   -3.7168  -23.4474 H   0  0  0  0  0
  -17.5689   -4.4056  -23.6515 H   0  0  0  0  0
  -18.8398   -4.7554  -24.8488 H   0  0  0  0  0
 16  1  1  0  0  0
  3  2  4  0  0  0
  2 14  4  0  0  0
  2 19  1  0  0  0
  4  3  4  0  0  0
 20  4  1  0  0  0
  4 27  4  0  0  0
 21  5  4  0  0  0
  5 22  4  0  0  0
  5 27  1  0  0  0
  6 22  4  0  0  0
 23  6  4  0  0  0
  7  8  1  0  0  0
 24  7  1  0  0  0
  8  9  4  0  0  0
  8 12  4  0  0  0
  9 10  1  0  0  0
  9 25  4  0  0  0
 25 11  4  0  0  0
 26 11  4  0  0  0
 12 13  1  0  0  0
 12 26  4  0  0  0
 14 15  1  0  0  0
 14 28  4  0  0  0
 15 29  1  0  0  0
 16 17  2  0  0  0
 16 18  2  0  0  0
 19 16  1  0  0  0
 21 20  1  0  0  0
 23 21  4  0  0  0
 23 24  1  0  0  0
 27 28  4  0  0  0
  1 30  1  0  0  0
  1 31  1  0  0  0
  1 32  1  0  0  0
  3 33  1  0  0  0
  7 34  1  0  0  0
  7 35  1  0  0  0
 10 36  1  0  0  0
 10 37  1  0  0  0
 10 38  1  0  0  0
 11 39  1  0  0  0
 13 40  1  0  0  0
 13 41  1  0  0  0
 13 42  1  0  0  0
 19 43  1  0  0  0
 20 44  1  0  0  0
 20 45  1  0  0  0
 24 46  1  0  0  0
 25 47  1  0  0  0
 26 48  1  0  0  0
 28 49  1  0  0  0
 29 50  1  0  0  0
 29 51  1  0  0  0
 29 52  1  0  0  0
M  END
$$$$
