### 
### Created by X-TOOL on Mon Sep 10 21:13:01 2018
### 

@<TRIPOS>MOLECULE
3hv6_ligand
   70    73     1     0     0
SMALL
GAST_HUCK


@<TRIPOS>ATOM
      1 CAR        -2.0120    1.4640  -23.8270 C.3       1 R39        -0.0888
      2 CAO        -2.5000    2.9230  -23.8370 C.3       1 R39         0.0291
      3 OAX        -1.8250    3.6180  -22.7580 O.3       1 R39        -0.3838
      4 CAP        -1.9950    3.0320  -21.4490 C.3       1 R39         0.0291
      5 CAS        -2.8370    1.7390  -21.4820 C.3       1 R39        -0.0888
      6 NBG        -2.3710    0.8140  -22.5430 N.4       1 R39         0.4077
      7 CAT        -3.3900   -0.1850  -22.8440 C.3       1 R39        -0.0848
      8 CAQ        -3.1890   -1.3750  -21.9200 C.3       1 R39         0.0488
      9 OAY        -3.8340   -0.9690  -20.6960 O.3       1 R39        -0.3297
     10 CBC        -3.3700   -1.6020  -19.5830 C.ar      1 R39         0.0756
     11 CAK        -3.8830   -1.1840  -18.3690 C.ar      1 R39        -0.0460
     12 CAI        -3.4720   -1.7640  -17.1720 C.ar      1 R39        -0.0493
     13 CAJ        -2.4360   -2.6340  -19.6090 C.ar      1 R39        -0.0460
     14 CAH        -2.0430   -3.2130  -18.4010 C.ar      1 R39        -0.0493
     15 CBB        -2.5560   -2.7840  -17.1760 C.ar      1 R39         0.0566
     16 NAV        -2.1420   -3.3900  -16.0330 N.am      1 R39        -0.2198
     17 CAZ        -0.9300   -3.2360  -15.5310 C.2       1 R39         0.3202
     18 OAE        -0.1320   -2.4430  -16.0430 O.2       1 R39        -0.3799
     19 NAW        -0.6370   -3.9280  -14.4110 N.am      1 R39        -0.1800
     20 CBE         0.5380   -3.8750  -13.7500 C.2       1 R39         0.2187
     21 CAN         1.3860   -2.8170  -13.5950 C.2       1 R39        -0.0194
     22 CBF         2.3730   -3.2910  -12.8130 C.2       1 R39        -0.0041
     23 CBI         3.6330   -2.5570  -12.3120 C.3       1 R39        -0.0463
     24 CAC         4.6380   -3.5080  -11.6490 C.3       1 R39        -0.0859
     25 CAD         4.3450   -1.8880  -13.4730 C.3       1 R39        -0.0859
     26 CAB         3.2070   -1.5190  -11.2450 C.3       1 R39        -0.0859
     27 NAU         2.1160   -4.5740  -12.5110 N.2       1 R39        -0.1672
     28 NBH         1.0390   -4.9030  -13.0540 N.pl3     1 R39        -0.1067
     29 CBD         0.4970   -6.1460  -12.9340 C.ar      1 R39         0.1228
     30 CAL         0.0220   -6.8360  -14.0530 C.ar      1 R39        -0.0265
     31 CAF        -0.5060   -8.1380  -13.9150 C.ar      1 R39        -0.0608
     32 CBA        -0.5560   -8.7220  -12.6410 C.ar      1 R39        -0.0493
     33 CAA        -1.1240  -10.1370  -12.4780 C.3       1 R39        -0.0327
     34 CAG        -0.0720   -8.0510  -11.5060 C.ar      1 R39        -0.0608
     35 CAM         0.4600   -6.7570  -11.6530 C.ar      1 R39        -0.0265
     36 H          -0.9284    1.4489  -23.9444 H         1 R39         0.0040
     37 H          -2.4860    0.9231  -24.6461 H         1 R39         0.0040
     38 H          -3.5804    2.9637  -23.6986 H         1 R39         0.0539
     39 H          -2.2727    3.3936  -24.7935 H         1 R39         0.0539
     40 H          -2.5165    3.7558  -20.8228 H         1 R39         0.0539
     41 H          -1.0071    2.7791  -21.0640 H         1 R39         0.0539
     42 H          -3.8732    2.0069  -21.6882 H         1 R39         0.0040
     43 H          -2.7380    1.2379  -20.5191 H         1 R39         0.0040
     44 H          -3.3033   -0.5027  -23.8831 H         1 R39         0.0043
     45 H          -4.3825    0.2394  -22.6925 H         1 R39         0.0043
     46 H          -2.1359   -1.6163  -21.7753 H         1 R39         0.0587
     47 H          -3.6103   -2.2940  -22.3274 H         1 R39         0.0587
     48 H          -4.6238   -0.3847  -18.3487 H         1 R39         0.0506
     49 H          -3.8804   -1.4054  -16.2272 H         1 R39         0.0477
     50 H          -2.0197   -2.9831  -20.5540 H         1 R39         0.0506
     51 H          -1.3144   -4.0236  -18.4150 H         1 R39         0.0477
     52 H          -2.7990   -3.9933  -15.5383 H         1 R39         0.2226
     53 H          -1.3609   -4.5397  -14.0339 H         1 R39         0.2342
     54 H           1.2862   -1.8144  -14.0108 H         1 R39         0.0221
     55 H           4.1675   -3.9931  -10.7938 H         1 R39         0.0131
     56 H           4.9515   -4.2633  -12.3697 H         1 R39         0.0131
     57 H           5.5065   -2.9408  -11.3142 H         1 R39         0.0131
     58 H           4.6373   -2.6435  -14.2023 H         1 R39         0.0131
     59 H           3.6746   -1.1681  -13.9425 H         1 R39         0.0131
     60 H           5.2328   -1.3734  -13.1053 H         1 R39         0.0131
     61 H           2.5133   -0.8059  -11.6903 H         1 R39         0.0131
     62 H           2.7203   -2.0316  -10.4153 H         1 R39         0.0131
     63 H           4.0886   -0.9914  -10.8809 H         1 R39         0.0131
     64 H           0.0594   -6.3669  -15.0362 H         1 R39         0.0595
     65 H          -0.8698   -8.6819  -14.7867 H         1 R39         0.0550
     66 H          -2.1584  -10.1537  -12.8213 H         1 R39         0.0385
     67 H          -0.5321  -10.8351  -13.0699 H         1 R39         0.0385
     68 H          -1.0839  -10.4244  -11.4273 H         1 R39         0.0385
     69 H          -0.1081   -8.5259  -10.5256 H         1 R39         0.0550
     70 H           0.8438   -6.2235  -10.7834 H         1 R39         0.0595
@<TRIPOS>BOND
     1    1    2 1  
     2    1    6 1  
     3    2    3 1  
     4    3    4 1  
     5    4    5 1  
     6    5    6 1  
     7    6    7 1  
     8    7    8 1  
     9    8    9 1  
    10    9   10 1  
    11   10   11 ar 
    12   10   13 ar 
    13   11   12 ar 
    14   12   15 ar 
    15   13   14 ar 
    16   14   15 ar 
    17   15   16 1  
    18   16   17 am 
    19   17   18 2  
    20   17   19 am 
    21   19   20 1  
    22   20   21 2  
    23   20   28 1  
    24   21   22 1  
    25   22   23 1  
    26   22   27 2  
    27   23   24 1  
    28   23   25 1  
    29   23   26 1  
    30   27   28 1  
    31   28   29 1  
    32   29   30 ar 
    33   29   35 ar 
    34   30   31 ar 
    35   31   32 ar 
    36   32   33 1  
    37   32   34 ar 
    38   34   35 ar 
    39    1   36 1  
    40    1   37 1  
    41    2   38 1  
    42    2   39 1  
    43    4   40 1  
    44    4   41 1  
    45    5   42 1  
    46    5   43 1  
    47    7   44 1  
    48    7   45 1  
    49    8   46 1  
    50    8   47 1  
    51   11   48 1  
    52   12   49 1  
    53   13   50 1  
    54   14   51 1  
    55   16   52 1  
    56   19   53 1  
    57   21   54 1  
    58   24   55 1  
    59   24   56 1  
    60   24   57 1  
    61   25   58 1  
    62   25   59 1  
    63   25   60 1  
    64   26   61 1  
    65   26   62 1  
    66   26   63 1  
    67   30   64 1  
    68   31   65 1  
    69   33   66 1  
    70   33   67 1  
    71   33   68 1  
    72   34   69 1  
    73   35   70 1  
@<TRIPOS>SUBSTRUCTURE
     1 R39         1

