3hv6_ligand
  -I-interpret- 

 71 74  0  0  0  0  0  0  0  0999 V2000
   -2.0120    1.4640  -23.8270 C   0  0  0  0  0
   -2.5000    2.9230  -23.8370 C   0  0  0  0  0
   -1.8250    3.6180  -22.7580 O   0  0  0  0  0
   -1.9950    3.0320  -21.4490 C   0  0  0  0  0
   -2.8370    1.7390  -21.4820 C   0  0  0  0  0
   -2.3710    0.8140  -22.5430 N   0  3  0  0  0
   -3.3900   -0.1850  -22.8440 C   0  0  0  0  0
   -3.1890   -1.3750  -21.9200 C   0  0  0  0  0
   -3.8340   -0.9690  -20.6960 O   0  0  0  0  0
   -3.3700   -1.6020  -19.5830 C   0  0  0  0  0
   -3.8830   -1.1840  -18.3690 C   0  0  0  0  0
   -3.4720   -1.7640  -17.1720 C   0  0  0  0  0
   -2.4360   -2.6340  -19.6090 C   0  0  0  0  0
   -2.0430   -3.2130  -18.4010 C   0  0  0  0  0
   -2.5560   -2.7840  -17.1760 C   0  0  0  0  0
   -2.1420   -3.3900  -16.0330 N   0  0  0  0  0
   -0.9300   -3.2360  -15.5310 C   0  0  0  0  0
   -0.1320   -2.4430  -16.0430 O   0  0  0  0  0
   -0.6370   -3.9280  -14.4110 N   0  0  0  0  0
    0.5380   -3.8750  -13.7500 C   0  0  0  0  0
    1.3860   -2.8170  -13.5950 C   0  0  0  0  0
    2.3730   -3.2910  -12.8130 C   0  0  0  0  0
    3.6330   -2.5570  -12.3120 C   0  0  0  0  0
    4.6380   -3.5080  -11.6490 C   0  0  0  0  0
    4.3450   -1.8880  -13.4730 C   0  0  0  0  0
    3.2070   -1.5190  -11.2450 C   0  0  0  0  0
    2.1160   -4.5740  -12.5110 N   0  0  0  0  0
    1.0390   -4.9030  -13.0540 N   0  0  0  0  0
    0.4970   -6.1460  -12.9340 C   0  0  0  0  0
    0.0220   -6.8360  -14.0530 C   0  0  0  0  0
   -0.5060   -8.1380  -13.9150 C   0  0  0  0  0
   -0.5560   -8.7220  -12.6410 C   0  0  0  0  0
   -1.1240  -10.1370  -12.4780 C   0  0  0  0  0
   -0.0720   -8.0510  -11.5060 C   0  0  0  0  0
    0.4600   -6.7570  -11.6530 C   0  0  0  0  0
   -0.9284    1.4489  -23.9444 H   0  0  0  0  0
   -2.4860    0.9231  -24.6461 H   0  0  0  0  0
   -3.5804    2.9637  -23.6986 H   0  0  0  0  0
   -2.2727    3.3936  -24.7935 H   0  0  0  0  0
   -2.5165    3.7558  -20.8228 H   0  0  0  0  0
   -1.0071    2.7791  -21.0640 H   0  0  0  0  0
   -3.8732    2.0069  -21.6882 H   0  0  0  0  0
   -2.7380    1.2379  -20.5191 H   0  0  0  0  0
   -1.5248    0.4001  -22.1517 H   0  0  0  0  0
   -3.3033   -0.5027  -23.8831 H   0  0  0  0  0
   -4.3825    0.2394  -22.6925 H   0  0  0  0  0
   -2.1359   -1.6163  -21.7753 H   0  0  0  0  0
   -3.6103   -2.2940  -22.3274 H   0  0  0  0  0
   -4.6238   -0.3847  -18.3487 H   0  0  0  0  0
   -3.8804   -1.4054  -16.2272 H   0  0  0  0  0
   -2.0197   -2.9831  -20.5540 H   0  0  0  0  0
   -1.3144   -4.0236  -18.4150 H   0  0  0  0  0
   -2.7990   -3.9933  -15.5383 H   0  0  0  0  0
   -1.3609   -4.5397  -14.0339 H   0  0  0  0  0
    1.2862   -1.8144  -14.0108 H   0  0  0  0  0
    4.1675   -3.9931  -10.7938 H   0  0  0  0  0
    4.9515   -4.2633  -12.3697 H   0  0  0  0  0
    5.5065   -2.9408  -11.3142 H   0  0  0  0  0
    4.6373   -2.6435  -14.2023 H   0  0  0  0  0
    3.6746   -1.1681  -13.9425 H   0  0  0  0  0
    5.2328   -1.3734  -13.1053 H   0  0  0  0  0
    2.5133   -0.8059  -11.6903 H   0  0  0  0  0
    2.7203   -2.0316  -10.4153 H   0  0  0  0  0
    4.0886   -0.9914  -10.8809 H   0  0  0  0  0
    0.0594   -6.3669  -15.0362 H   0  0  0  0  0
   -0.8698   -8.6819  -14.7867 H   0  0  0  0  0
   -2.1584  -10.1537  -12.8213 H   0  0  0  0  0
   -0.5321  -10.8351  -13.0699 H   0  0  0  0  0
   -1.0839  -10.4244  -11.4273 H   0  0  0  0  0
   -0.1081   -8.5259  -10.5256 H   0  0  0  0  0
    0.8438   -6.2235  -10.7834 H   0  0  0  0  0
  1  2  1  0  0  0
  1  6  1  0  0  0
  2  3  1  0  0  0
  3  4  1  0  0  0
  4  5  1  0  0  0
  5  6  1  0  0  0
  6  7  1  0  0  0
  7  8  1  0  0  0
  8  9  1  0  0  0
  9 10  1  0  0  0
 10 11  4  0  0  0
 10 13  4  0  0  0
 11 12  4  0  0  0
 12 15  4  0  0  0
 13 14  4  0  0  0
 14 15  4  0  0  0
 15 16  1  0  0  0
 16 17  1  0  0  0
 17 18  2  0  0  0
 17 19  1  0  0  0
 19 20  1  0  0  0
 20 21  4  0  0  0
 20 28  4  0  0  0
 21 22  4  0  0  0
 22 23  1  0  0  0
 22 27  4  0  0  0
 23 24  1  0  0  0
 23 25  1  0  0  0
 23 26  1  0  0  0
 27 28  4  0  0  0
 28 29  1  0  0  0
 29 30  4  0  0  0
 29 35  4  0  0  0
 30 31  4  0  0  0
 31 32  4  0  0  0
 32 33  1  0  0  0
 32 34  4  0  0  0
 34 35  4  0  0  0
  1 36  1  0  0  0
  1 37  1  0  0  0
  2 38  1  0  0  0
  2 39  1  0  0  0
  4 40  1  0  0  0
  4 41  1  0  0  0
  5 42  1  0  0  0
  5 43  1  0  0  0
  6 44  1  0  0  0
  7 45  1  0  0  0
  7 46  1  0  0  0
  8 47  1  0  0  0
  8 48  1  0  0  0
 11 49  1  0  0  0
 12 50  1  0  0  0
 13 51  1  0  0  0
 14 52  1  0  0  0
 16 53  1  0  0  0
 19 54  1  0  0  0
 21 55  1  0  0  0
 24 56  1  0  0  0
 24 57  1  0  0  0
 24 58  1  0  0  0
 25 59  1  0  0  0
 25 60  1  0  0  0
 25 61  1  0  0  0
 26 62  1  0  0  0
 26 63  1  0  0  0
 26 64  1  0  0  0
 30 65  1  0  0  0
 31 66  1  0  0  0
 33 67  1  0  0  0
 33 68  1  0  0  0
 33 69  1  0  0  0
 34 70  1  0  0  0
 35 71  1  0  0  0
M  END
$$$$
