5hda_ligand
  -I-interpret- 

122123  0  0  0  0  0  0  0  0999 V2000
   17.9700    6.2460   42.5270 N   0  3  0  0  0
   18.6230    5.1320   43.2040 C   0  0  0  0  0
   20.0870    5.4170   43.5090 C   0  0  0  0  0
   20.6850    4.7820   44.3820 O   0  0  0  0  0
   18.5240    3.8740   42.3380 C   0  0  0  0  0
   18.7540    2.6980   43.0930 O   0  0  0  0  0
   20.6580    6.3760   42.7890 N   0  0  0  0  0
   21.9890    6.8760   43.0960 C   0  0  0  0  0
   21.9920    7.6240   44.4220 C   0  0  0  0  0
   21.2320    8.5780   44.5970 O   0  0  0  0  0
   22.5030    7.7680   41.9690 C   0  0  0  0  0
   23.9080    8.2950   42.2010 C   0  0  0  0  0
   24.3470    9.6190   41.0620 S   0  0  0  0  0
   23.7440    8.9300   39.5210 C   0  0  0  0  0
   22.8460    7.1930   45.3610 N   0  0  0  0  0
   22.8630    7.7920   46.6980 C   0  0  0  0  0
   23.2180    9.2690   46.6270 C   0  0  0  0  0
   24.0770    9.6560   45.8360 O   0  0  0  0  0
   23.9540    7.0000   47.4300 C   0  0  0  0  0
   24.1320    5.7470   46.6330 C   0  0  0  0  0
   23.8520    6.1300   45.2170 C   0  0  0  0  0
   22.5590   10.0850   47.4400 N   0  0  0  0  0
   22.9230   11.4890   47.5300 C   0  0  0  0  0
   24.1490   11.6560   48.4210 C   0  0  0  0  0
   24.1140   11.3480   49.6130 O   0  0  0  0  0
   21.7380   12.3050   48.0490 C   0  0  0  0  0
   20.5330   12.2550   47.1140 C   0  0  0  0  0
   19.3340   13.0140   47.6440 C   0  0  0  0  0
   19.4820   13.7440   48.6460 O   0  0  0  0  0
   18.2410   12.8810   47.0530 O   0  0  0  0  0
   25.2340   12.1500   47.8330 N   0  0  0  0  0
   26.4850   12.3140   48.5610 C   0  0  0  0  0
   26.7490   13.7640   48.9470 C   0  0  0  0  0
   26.4060   14.6880   48.2100 O   0  0  0  0  0
   27.6590   11.7880   47.7300 C   0  0  0  0  0
   27.6120   10.3300   47.2710 C   0  0  0  0  0
   28.8970    9.9610   46.5400 C   0  0  0  0  0
   27.3690    9.3980   48.4460 C   0  0  0  0  0
   27.3570   13.9480   50.1120 N   0  0  0  0  0
   27.8410   15.2540   50.5390 C   0  0  0  0  0
   29.3650   15.2320   50.6240 C   0  0  0  0  0
   29.9590   14.1660   50.7870 O   0  0  0  0  0
   27.2340   15.6480   51.8870 C   0  0  0  0  0
   27.8490   14.9420   52.9500 O   0  0  0  0  0
   30.0040   16.4040   50.4900 N   0  0  0  0  0
   31.4550   16.4900   50.6900 C   0  0  0  0  0
   31.8330   16.0580   52.1050 C   0  0  0  0  0
   31.0650   16.2960   53.0370 O   0  0  0  0  0
   31.7520   17.9730   50.4640 C   0  0  0  0  0
   30.6700   18.4260   49.5470 C   0  0  0  0  0
   29.4460   17.6680   49.9810 C   0  0  0  0  0
   32.9970   15.4340   52.2640 N   0  0  0  0  0
   33.4150   14.9350   53.5700 C   0  0  0  0  0
   34.0280   16.0380   54.4270 C   0  0  0  0  0
   34.7630   16.8890   53.9300 O   0  0  0  0  0
   34.4420   13.7930   53.4350 C   0  0  0  0  0
   34.6570   13.1090   54.7760 C   0  0  0  0  0
   33.9990   12.7950   52.3790 C   0  0  0  0  0
   33.8010   16.1000   55.6340 O   0  0  0  0  0
   18.0382    7.0821   43.1073 H   0  0  0  0  0
   18.4285    6.4139   41.6314 H   0  0  0  0  0
   16.9881    6.0186   42.3703 H   0  0  0  0  0
   18.1090    4.9840   44.1537 H   0  0  0  0  0
   19.2822    3.9343   41.5573 H   0  0  0  0  0
   17.5183    3.8228   41.9209 H   0  0  0  0  0
   18.6841    1.9317   42.5189 H   0  0  0  0  0
   20.1491    6.7728   41.9990 H   0  0  0  0  0
   22.6609    6.0226   43.1874 H   0  0  0  0  0
   21.8379    8.6293   41.9056 H   0  0  0  0  0
   22.5265    7.1654   41.0610 H   0  0  0  0  0
   24.6053    7.4721   42.0439 H   0  0  0  0  0
   23.9535    8.6948   43.2140 H   0  0  0  0  0
   24.2554    7.9885   39.3207 H   0  0  0  0  0
   22.6713    8.7529   39.5988 H   0  0  0  0  0
   23.9399    9.6311   38.7097 H   0  0  0  0  0
   21.8955    7.7442   47.1979 H   0  0  0  0  0
   23.6709    6.7840   48.4602 H   0  0  0  0  0
   24.8826    7.5664   47.5008 H   0  0  0  0  0
   23.4603    4.9590   46.9734 H   0  0  0  0  0
   25.1378    5.3423   46.7453 H   0  0  0  0  0
   24.7430    6.4582   44.6817 H   0  0  0  0  0
   23.5023    5.2935   44.6120 H   0  0  0  0  0
   21.7911    9.7240   48.0060 H   0  0  0  0  0
   23.1777   11.8611   46.5376 H   0  0  0  0  0
   22.0568   13.3443   48.1284 H   0  0  0  0  0
   21.4354   11.8829   49.0073 H   0  0  0  0  0
   20.2414   11.2102   47.0069 H   0  0  0  0  0
   20.8267   12.7179   46.1719 H   0  0  0  0  0
   18.3495   12.2781   46.3138 H   0  0  0  0  0
   25.1896   12.4202   46.8504 H   0  0  0  0  0
   26.3906   11.7363   49.4805 H   0  0  0  0  0
   28.5307   11.8600   48.3804 H   0  0  0  0  0
   27.6563   12.3809   46.8153 H   0  0  0  0  0
   26.7785   10.2159   46.5779 H   0  0  0  0  0
   29.0151   10.6044   45.6681 H   0  0  0  0  0
   29.7461   10.0954   47.2101 H   0  0  0  0  0
   28.8458    8.9201   46.2207 H   0  0  0  0  0
   28.1751    9.5115   49.1709 H   0  0  0  0  0
   26.4180    9.6484   48.9161 H   0  0  0  0  0
   27.3402    8.3678   48.0911 H   0  0  0  0  0
   27.4901   13.1474   50.7299 H   0  0  0  0  0
   27.5338   15.9990   49.8051 H   0  0  0  0  0
   26.1717   15.4043   51.8754 H   0  0  0  0  0
   27.3907   16.7156   52.0410 H   0  0  0  0  0
   27.4503   15.2075   53.7820 H   0  0  0  0  0
   32.0219   15.8391   50.0243 H   0  0  0  0  0
   32.7438   18.1343   50.0416 H   0  0  0  0  0
   31.7640   18.5371   51.3966 H   0  0  0  0  0
   30.9171   18.2293   48.5038 H   0  0  0  0  0
   30.5180   19.5038   49.6043 H   0  0  0  0  0
   28.8602   18.2030   50.7284 H   0  0  0  0  0
   28.7315   17.5192   49.1714 H   0  0  0  0  0
   33.6085   15.3019   51.4584 H   0  0  0  0  0
   32.5135   14.5609   54.0553 H   0  0  0  0  0
   35.3929   14.2195   53.1156 H   0  0  0  0  0
   35.0281   13.8363   55.4980 H   0  0  0  0  0
   33.7115   12.6961   55.1275 H   0  0  0  0  0
   35.3850   12.3060   54.6603 H   0  0  0  0  0
   33.0355   12.3716   52.6626 H   0  0  0  0  0
   33.9061   13.3016   51.4184 H   0  0  0  0  0
   34.7387   11.9982   52.3010 H   0  0  0  0  0
   33.2175   15.3805   55.8861 H   0  0  0  0  0
  1  2  1  0  0  0
  2  3  1  0  0  0
  2  5  1  0  0  0
  3  4  2  0  0  0
  3  7  1  0  0  0
  5  6  1  0  0  0
  7  8  1  0  0  0
  8  9  1  0  0  0
  8 11  1  0  0  0
  9 10  2  0  0  0
  9 15  1  0  0  0
 11 12  1  0  0  0
 12 13  1  0  0  0
 13 14  1  0  0  0
 15 16  1  0  0  0
 15 21  1  0  0  0
 16 17  1  0  0  0
 16 19  1  0  0  0
 17 18  2  0  0  0
 17 22  1  0  0  0
 19 20  1  0  0  0
 20 21  1  0  0  0
 22 23  1  0  0  0
 23 24  1  0  0  0
 23 26  1  0  0  0
 24 25  2  0  0  0
 24 31  1  0  0  0
 26 27  1  0  0  0
 27 28  1  0  0  0
 28 29  2  0  0  0
 28 30  1  0  0  0
 31 32  1  0  0  0
 32 33  1  0  0  0
 32 35  1  0  0  0
 33 34  2  0  0  0
 33 39  1  0  0  0
 35 36  1  0  0  0
 36 37  1  0  0  0
 36 38  1  0  0  0
 39 40  1  0  0  0
 40 41  1  0  0  0
 40 43  1  0  0  0
 41 42  2  0  0  0
 41 45  1  0  0  0
 43 44  1  0  0  0
 45 46  1  0  0  0
 45 51  1  0  0  0
 46 47  1  0  0  0
 46 49  1  0  0  0
 47 48  2  0  0  0
 47 52  1  0  0  0
 49 50  1  0  0  0
 50 51  1  0  0  0
 52 53  1  0  0  0
 53 54  1  0  0  0
 53 56  1  0  0  0
 54 55  2  0  0  0
 54 59  1  0  0  0
 56 57  1  0  0  0
 56 58  1  0  0  0
  1 60  1  0  0  0
  1 61  1  0  0  0
  1 62  1  0  0  0
  2 63  1  0  0  0
  5 64  1  0  0  0
  5 65  1  0  0  0
  6 66  1  0  0  0
  7 67  1  0  0  0
  8 68  1  0  0  0
 11 69  1  0  0  0
 11 70  1  0  0  0
 12 71  1  0  0  0
 12 72  1  0  0  0
 14 73  1  0  0  0
 14 74  1  0  0  0
 14 75  1  0  0  0
 16 76  1  0  0  0
 19 77  1  0  0  0
 19 78  1  0  0  0
 20 79  1  0  0  0
 20 80  1  0  0  0
 21 81  1  0  0  0
 21 82  1  0  0  0
 22 83  1  0  0  0
 23 84  1  0  0  0
 26 85  1  0  0  0
 26 86  1  0  0  0
 27 87  1  0  0  0
 27 88  1  0  0  0
 30 89  1  0  0  0
 31 90  1  0  0  0
 32 91  1  0  0  0
 35 92  1  0  0  0
 35 93  1  0  0  0
 36 94  1  0  0  0
 37 95  1  0  0  0
 37 96  1  0  0  0
 37 97  1  0  0  0
 38 98  1  0  0  0
 38 99  1  0  0  0
 38100  1  0  0  0
 39101  1  0  0  0
 40102  1  0  0  0
 43103  1  0  0  0
 43104  1  0  0  0
 44105  1  0  0  0
 46106  1  0  0  0
 49107  1  0  0  0
 49108  1  0  0  0
 50109  1  0  0  0
 50110  1  0  0  0
 51111  1  0  0  0
 51112  1  0  0  0
 52113  1  0  0  0
 53114  1  0  0  0
 56115  1  0  0  0
 57116  1  0  0  0
 57117  1  0  0  0
 57118  1  0  0  0
 58119  1  0  0  0
 58120  1  0  0  0
 58121  1  0  0  0
 59122  1  0  0  0
M  END
$$$$
