### 
### Created by X-TOOL on Mon Sep 10 21:13:29 2018
### 

@<TRIPOS>MOLECULE
5hda_ligand
  120   121     1     0     0
SMALL
GAST_HUCK


@<TRIPOS>ATOM
      1 N          17.9700    6.2460   42.5270 N.4       1 SER         0.2396
      2 CA         18.6230    5.1320   43.2040 C.3       1 SER         0.0885
      3 C          20.0870    5.4170   43.5090 C.2       1 SER         0.2290
      4 O          20.6850    4.7820   44.3820 O.2       1 SER        -0.3906
      5 CB         18.5240    3.8740   42.3380 C.3       1 SER         0.1041
      6 OG         18.7540    2.6980   43.0930 O.3       1 SER        -0.3870
      7 N          20.6580    6.3760   42.7890 N.am      1 MET        -0.2609
      8 CA         21.9890    6.8760   43.0960 C.3       1 MET         0.1320
      9 C          21.9920    7.6240   44.4220 C.2       1 MET         0.2064
     10 O          21.2320    8.5780   44.5970 O.2       1 MET        -0.3942
     11 CB         22.5030    7.7680   41.9690 C.3       1 MET        -0.0034
     12 CG         23.9080    8.2950   42.2010 C.3       1 MET        -0.0024
     13 SD         24.3470    9.6190   41.0620 S.3       1 MET        -0.1639
     14 CE         23.7440    8.9300   39.5210 C.3       1 MET        -0.0181
     15 N          22.8460    7.1930   45.3610 N.am      1 PRO        -0.2498
     16 CA         22.8630    7.7920   46.6980 C.3       1 PRO         0.1338
     17 C          23.2180    9.2690   46.6270 C.2       1 PRO         0.2041
     18 O          24.0770    9.6560   45.8360 O.2       1 PRO        -0.3944
     19 CB         23.9540    7.0000   47.4300 C.3       1 PRO        -0.0104
     20 CG         24.1320    5.7470   46.6330 C.3       1 PRO        -0.0281
     21 CD         23.8520    6.1300   45.2170 C.3       1 PRO         0.0369
     22 N          22.5590   10.0850   47.4400 N.am      1 GLU        -0.2636
     23 CA         22.9230   11.4890   47.5300 C.3       1 GLU         0.1325
     24 C          24.1490   11.6560   48.4210 C.2       1 GLU         0.2040
     25 O          24.1140   11.3480   49.6130 O.2       1 GLU        -0.3944
     26 CB         21.7380   12.3050   48.0490 C.3       1 GLU        -0.0008
     27 CG         20.5330   12.2550   47.1140 C.3       1 GLU         0.0044
     28 CD         19.3340   13.0140   47.6440 C.2       1 GLU         0.0350
     29 OE1        19.4820   13.7440   48.6460 O.co2     1 GLU        -0.5690
     30 OE2        18.2410   12.8810   47.0530 O.co2     1 GLU        -0.5690
     31 N          25.2340   12.1500   47.8330 N.am      1 LEU        -0.2637
     32 CA         26.4850   12.3140   48.5610 C.3       1 LEU         0.1312
     33 C          26.7490   13.7640   48.9470 C.2       1 LEU         0.2040
     34 O          26.4060   14.6880   48.2100 O.2       1 LEU        -0.3944
     35 CB         27.6590   11.7880   47.7300 C.3       1 LEU        -0.0101
     36 CG         27.6120   10.3300   47.2710 C.3       1 LEU        -0.0425
     37 CD1        28.8970    9.9610   46.5400 C.3       1 LEU        -0.0625
     38 CD2        27.3690    9.3980   48.4460 C.3       1 LEU        -0.0625
     39 N          27.3570   13.9480   50.1120 N.am      1 SER        -0.2616
     40 CA         27.8410   15.2540   50.5390 C.3       1 SER         0.1541
     41 C          29.3650   15.2320   50.6240 C.2       1 SER         0.2087
     42 O          29.9590   14.1660   50.7870 O.2       1 SER        -0.3941
     43 CB         27.2340   15.6480   51.8870 C.3       1 SER         0.0843
     44 OG         27.8490   14.9420   52.9500 O.3       1 SER        -0.3903
     45 N          30.0040   16.4040   50.4900 N.am      1 PRO        -0.2498
     46 CA         31.4550   16.4900   50.6900 C.3       1 PRO         0.1337
     47 C          31.8330   16.0580   52.1050 C.2       1 PRO         0.2036
     48 O          31.0650   16.2960   53.0370 O.2       1 PRO        -0.3944
     49 CB         31.7520   17.9730   50.4640 C.3       1 PRO        -0.0104
     50 CG         30.6700   18.4260   49.5470 C.3       1 PRO        -0.0281
     51 CD         29.4460   17.6680   49.9810 C.3       1 PRO         0.0369
     52 N          32.9970   15.4340   52.2640 N.am      1 VAL        -0.2692
     53 CA         33.4150   14.9350   53.5700 C.3       1 VAL         0.0967
     54 C          34.0280   16.0380   54.4270 C.2       1 VAL         0.0603
     55 O          34.7630   16.8890   53.9300 O.co2     1 VAL        -0.5666
     56 CB         34.4420   13.7930   53.4350 C.3       1 VAL        -0.0118
     57 CG1        34.6570   13.1090   54.7760 C.3       1 VAL        -0.0590
     58 CG2        33.9990   12.7950   52.3790 C.3       1 VAL        -0.0590
     59 OXT        33.8010   16.1000   55.6340 O.co2     1 VAL        -0.5666
     60 H1         17.0064    6.0113   42.3468 H         1 SER         0.2016
     61 H2         18.4396    6.4308   41.6545 H         1 SER         0.2016
     62 H3         18.0124    7.0660   43.1117 H         1 SER         0.2016
     63 H4         18.0999    4.9519   44.1548 H         1 SER         0.1122
     64 H5         19.2735    3.9342   41.5351 H         1 SER         0.0640
     65 H6         17.5175    3.8232   41.8971 H         1 SER         0.0640
     66 H7         19.6241    2.7321   43.4730 H         1 SER         0.2099
     67 H8         20.1591    6.7650   42.0145 H         1 MET         0.1885
     68 H9         22.6666    6.0143   43.1873 H         1 MET         0.0800
     69 H10        21.8225    8.6262   41.8674 H         1 MET         0.0320
     70 H11        22.5002    7.1853   41.0360 H         1 MET         0.0320
     71 H12        24.6208    7.4674   42.0708 H         1 MET         0.0378
     72 H13        23.9752    8.6785   43.2298 H         1 MET         0.0378
     73 H14        23.9412    9.6367   38.7014 H         1 MET         0.0340
     74 H15        22.6614    8.7509   39.5982 H         1 MET         0.0340
     75 H16        24.2594    7.9797   39.3177 H         1 MET         0.0340
     76 H17        21.8892    7.6723   47.1954 H         1 PRO         0.0802
     77 H18        23.6355    6.7625   48.4557 H         1 PRO         0.0313
     78 H19        24.8920    7.5738   47.4609 H         1 PRO         0.0313
     79 H20        23.4249    4.9743   46.9689 H         1 PRO         0.0287
     80 H21        25.1609    5.3710   46.7330 H         1 PRO         0.0287
     81 H22        24.7589    6.5069   44.7216 H         1 PRO         0.0524
     82 H23        23.4504    5.2785   44.6481 H         1 PRO         0.0524
     83 H24        21.8062    9.7310   47.9949 H         1 GLU         0.1883
     84 H25        23.1766   11.8506   46.5226 H         1 GLU         0.0801
     85 H26        22.0540   13.3528   48.1598 H         1 GLU         0.0330
     86 H27        21.4390   11.9065   49.0297 H         1 GLU         0.0330
     87 H28        20.2452   11.2030   46.9706 H         1 GLU         0.0433
     88 H29        20.8229   12.6910   46.1466 H         1 GLU         0.0433
     89 H30        25.1905   12.4149   46.8697 H         1 LEU         0.1883
     90 H31        26.4182   11.7213   49.4852 H         1 LEU         0.0800
     91 H32        28.5700   11.9125   48.3338 H         1 LEU         0.0315
     92 H33        27.7286   12.4136   46.8279 H         1 LEU         0.0315
     93 H34        26.7733   10.2185   46.5681 H         1 LEU         0.0298
     94 H35        28.8465    8.9106   46.2172 H         1 LEU         0.0232
     95 H36        29.7548   10.0962   47.2152 H         1 LEU         0.0232
     96 H37        29.0174   10.6097   45.6598 H         1 LEU         0.0232
     97 H38        26.4374    9.6854   48.9554 H         1 LEU         0.0232
     98 H39        28.2099    9.4703   49.1514 H         1 LEU         0.0232
     99 H40        27.2837    8.3635   48.0820 H         1 LEU         0.0232
    100 H41        27.4875   13.1631   50.7177 H         1 SER         0.1884
    101 H42        27.5404   16.0019   49.7905 H         1 SER         0.0823
    102 H43        26.1585   15.4175   51.8777 H         1 SER         0.0606
    103 H44        27.3763   16.7275   52.0432 H         1 SER         0.0606
    104 H45        28.7778   15.1406   52.9650 H         1 SER         0.2097
    105 H46        31.9921   15.8659   49.9606 H         1 PRO         0.0802
    106 H47        32.7395   18.1067   49.9983 H         1 PRO         0.0313
    107 H48        31.7163   18.5273   51.4135 H         1 PRO         0.0313
    108 H49        30.9227   18.1866   48.5035 H         1 PRO         0.0287
    109 H50        30.5084   19.5096   49.6458 H         1 PRO         0.0287
    110 H51        28.9056   18.2088   50.7719 H         1 PRO         0.0524
    111 H52        28.7701   17.4886   49.1319 H         1 PRO         0.0524
    112 H53        33.5965   15.3045   51.4742 H         1 VAL         0.1875
    113 H54        32.5243   14.5463   54.0853 H         1 VAL         0.0729
    114 H55        35.4001   14.2279   53.1143 H         1 VAL         0.0336
    115 H56        35.3915   12.2984   54.6605 H         1 VAL         0.0234
    116 H57        33.7035   12.6918   55.1319 H         1 VAL         0.0234
    117 H58        35.0316   13.8420   55.5056 H         1 VAL         0.0234
    118 H59        33.8512   13.3158   51.4214 H         1 VAL         0.0234
    119 H60        33.0541   12.3262   52.6910 H         1 VAL         0.0234
    120 H61        34.7709   12.0204   52.2598 H         1 VAL         0.0234
@<TRIPOS>BOND
     1    1    2 1  
     2    2    3 1  
     3    2    5 1  
     4    3    4 2  
     5    3    7 am 
     6    5    6 1  
     7    7    8 1  
     8    8    9 1  
     9    8   11 1  
    10    9   10 2  
    11    9   15 am 
    12   11   12 1  
    13   12   13 1  
    14   13   14 1  
    15   15   16 1  
    16   15   21 1  
    17   16   17 1  
    18   16   19 1  
    19   17   18 2  
    20   17   22 am 
    21   19   20 1  
    22   20   21 1  
    23   22   23 1  
    24   23   24 1  
    25   23   26 1  
    26   24   25 2  
    27   24   31 am 
    28   26   27 1  
    29   27   28 1  
    30   28   29 ar 
    31   28   30 ar 
    32   31   32 1  
    33   32   33 1  
    34   32   35 1  
    35   33   34 2  
    36   33   39 am 
    37   35   36 1  
    38   36   37 1  
    39   36   38 1  
    40   39   40 1  
    41   40   41 1  
    42   40   43 1  
    43   41   42 2  
    44   41   45 am 
    45   43   44 1  
    46   45   46 1  
    47   45   51 1  
    48   46   47 1  
    49   46   49 1  
    50   47   48 2  
    51   47   52 am 
    52   49   50 1  
    53   50   51 1  
    54   52   53 1  
    55   53   54 1  
    56   53   56 1  
    57   54   55 ar 
    58   54   59 ar 
    59   56   57 1  
    60   56   58 1  
    61    1   60 1  
    62    1   61 1  
    63    1   62 1  
    64    2   63 1  
    65    5   64 1  
    66    5   65 1  
    67    6   66 1  
    68    7   67 1  
    69    8   68 1  
    70   11   69 1  
    71   11   70 1  
    72   12   71 1  
    73   12   72 1  
    74   14   73 1  
    75   14   74 1  
    76   14   75 1  
    77   16   76 1  
    78   19   77 1  
    79   19   78 1  
    80   20   79 1  
    81   20   80 1  
    82   21   81 1  
    83   21   82 1  
    84   22   83 1  
    85   23   84 1  
    86   26   85 1  
    87   26   86 1  
    88   27   87 1  
    89   27   88 1  
    90   31   89 1  
    91   32   90 1  
    92   35   91 1  
    93   35   92 1  
    94   36   93 1  
    95   37   94 1  
    96   37   95 1  
    97   37   96 1  
    98   38   97 1  
    99   38   98 1  
   100   38   99 1  
   101   39  100 1  
   102   40  101 1  
   103   43  102 1  
   104   43  103 1  
   105   44  104 1  
   106   46  105 1  
   107   49  106 1  
   108   49  107 1  
   109   50  108 1  
   110   50  109 1  
   111   51  110 1  
   112   51  111 1  
   113   52  112 1  
   114   53  113 1  
   115   56  114 1  
   116   57  115 1  
   117   57  116 1  
   118   57  117 1  
   119   58  118 1  
   120   58  119 1  
   121   58  120 1  
@<TRIPOS>SUBSTRUCTURE
     1 SER         1

