6kzc_ligand
  -I-interpret- 

 64 68  0  0  0  0  0  0  0  0999 V2000
   -3.8090  -17.3470   15.6540 C   0  0  0  0  0
   -2.6750  -17.7510   13.5800 C   0  0  0  0  0
   -3.9000  -17.7700   12.9700 C   0  0  0  0  0
   -5.0650  -17.3680   15.0170 C   0  0  0  0  0
   -5.6500  -17.8460   11.7520 C   0  0  0  0  0
   -5.9530  -17.6580   12.8980 C   0  0  0  0  0
   -7.3800  -17.4880   13.3800 C   0  0  0  0  0
   -8.5010  -17.3380   13.7810 C   0  0  0  0  0
   -9.9100  -17.1250   14.2920 C   0  0  0  0  0
  -10.4750  -17.9520   15.2470 C   0  0  0  0  0
  -11.7670  -17.6990   15.6810 C   0  0  0  0  0
  -12.4780  -16.6140   15.1610 C   0  0  0  0  0
  -11.9100  -15.7910   14.1970 C   0  0  0  0  0
  -10.6000  -16.0380   13.7760 C   0  0  0  0  0
   -9.8790  -15.2000   12.7320 C   0  0  0  0  0
  -12.7410  -14.5900   13.7200 C   0  0  0  0  0
  -15.0280  -13.5200   13.4090 C   0  0  0  0  0
  -16.2870  -13.4990   13.9490 C   0  0  0  0  0
  -17.1610  -12.4620   13.7020 C   0  0  0  0  0
  -16.7570  -11.3980   12.9000 C   0  0  0  0  0
  -15.4620  -11.3670   12.3330 C   0  0  0  0  0
   -2.6440  -17.5390   14.9320 N   0  0  0  0  0
   -5.0770  -17.5770   13.7130 N   0  0  0  0  0
   -4.3600  -17.9740   11.5190 N   0  0  0  0  0
  -14.1840  -14.6380   13.7570 N   0  0  0  0  0
  -12.1650  -13.5660   13.3940 O   0  0  0  0  0
  -14.6010  -12.4520   12.6120 C   0  0  0  0  0
  -15.0100  -10.2060   11.4640 C   0  0  0  0  0
  -18.6110  -11.3470   14.8710 C   0  0  0  0  0
  -19.0880  -11.5630   16.2850 C   0  0  0  0  0
  -18.6470  -13.6940   16.2660 C   0  0  0  0  0
  -18.7970  -13.5590   14.7510 C   0  0  0  0  0
  -18.7270  -12.6120   18.1190 C   0  0  0  0  0
  -18.3920  -12.4420   14.2130 N   0  0  0  0  0
  -18.4230  -12.5380   16.8550 N   0  3  0  0  0
  -14.2820   -9.3660   12.2140 F   0  0  0  0  0
  -16.0900   -9.5650   10.9930 F   0  0  0  0  0
  -14.2550  -10.6540   10.4490 F   0  0  0  0  0
   -3.7538  -17.1774   16.7293 H   0  0  0  0  0
   -1.7577  -17.8992   13.0102 H   0  0  0  0  0
   -5.9882  -17.2181   15.5767 H   0  0  0  0  0
   -6.3931  -17.9068   10.9568 H   0  0  0  0  0
   -9.9111  -18.7919   15.6529 H   0  0  0  0  0
  -12.2281  -18.3459   16.4274 H   0  0  0  0  0
  -13.4886  -16.4115   15.5156 H   0  0  0  0  0
   -8.9651  -14.7918   13.1635 H   0  0  0  0  0
   -9.6297  -15.8254   11.8748 H   0  0  0  0  0
  -10.5271  -14.3842   12.4119 H   0  0  0  0  0
  -16.6051  -14.3219   14.5892 H   0  0  0  0  0
  -17.4483  -10.5778   12.7066 H   0  0  0  0  0
  -14.6307  -15.5088   14.0445 H   0  0  0  0  0
  -13.5914  -12.4572   12.2012 H   0  0  0  0  0
  -17.6638  -10.8107   14.9287 H   0  0  0  0  0
  -19.3975  -10.8063   14.3445 H   0  0  0  0  0
  -20.1461  -11.8238   16.2637 H   0  0  0  0  0
  -18.9277  -10.6475   16.8544 H   0  0  0  0  0
  -17.7938  -14.3430   16.4631 H   0  0  0  0  0
  -19.5787  -14.0983   16.6617 H   0  0  0  0  0
  -19.8672  -13.6143   14.5519 H   0  0  0  0  0
  -18.1722  -14.3409   14.3193 H   0  0  0  0  0
  -18.4720  -11.6720   18.6084 H   0  0  0  0  0
  -19.7956  -12.7995   18.2240 H   0  0  0  0  0
  -18.1670  -13.4262   18.5790 H   0  0  0  0  0
  -17.4292  -12.3297   16.7585 H   0  0  0  0  0
  4  1  4  0  0  0
  1 22  4  0  0  0
  3  2  4  0  0  0
  2 22  4  0  0  0
 23  3  4  0  0  0
  3 24  4  0  0  0
 23  4  4  0  0  0
  6  5  4  0  0  0
  5 24  4  0  0  0
  7  6  1  0  0  0
  6 23  4  0  0  0
  8  7  3  0  0  0
  9  8  1  0  0  0
  9 10  4  0  0  0
 14  9  4  0  0  0
 11 10  4  0  0  0
 12 11  4  0  0  0
 13 12  4  0  0  0
 13 14  4  0  0  0
 16 13  1  0  0  0
 14 15  1  0  0  0
 25 16  1  0  0  0
 16 26  2  0  0  0
 18 17  4  0  0  0
 17 25  1  0  0  0
 17 27  4  0  0  0
 19 18  4  0  0  0
 19 20  4  0  0  0
 34 19  1  0  0  0
 20 21  4  0  0  0
 21 27  4  0  0  0
 21 28  1  0  0  0
 28 36  1  0  0  0
 28 37  1  0  0  0
 28 38  1  0  0  0
 30 29  1  0  0  0
 29 34  1  0  0  0
 35 30  1  0  0  0
 31 32  1  0  0  0
 31 35  1  0  0  0
 32 34  1  0  0  0
 35 33  1  0  0  0
  1 39  1  0  0  0
  2 40  1  0  0  0
  4 41  1  0  0  0
  5 42  1  0  0  0
 10 43  1  0  0  0
 11 44  1  0  0  0
 12 45  1  0  0  0
 15 46  1  0  0  0
 15 47  1  0  0  0
 15 48  1  0  0  0
 18 49  1  0  0  0
 20 50  1  0  0  0
 25 51  1  0  0  0
 27 52  1  0  0  0
 29 53  1  0  0  0
 29 54  1  0  0  0
 30 55  1  0  0  0
 30 56  1  0  0  0
 31 57  1  0  0  0
 31 58  1  0  0  0
 32 59  1  0  0  0
 32 60  1  0  0  0
 33 61  1  0  0  0
 33 62  1  0  0  0
 33 63  1  0  0  0
 35 64  1  0  0  0
M  END
$$$$
