### 
### Created by X-TOOL on Mon Sep 10 21:13:33 2018
### 

@<TRIPOS>MOLECULE
5wbk_ligand
  118   118     1     0     0
SMALL
GAST_HUCK


@<TRIPOS>ATOM
      1 N         -21.7920  -44.7960   34.4930 N.4       1 ALA         0.2377
      2 CA        -23.0370  -44.0100   34.1930 C.3       1 ALA         0.0621
      3 C         -23.9550  -44.6560   33.1390 C.2       1 ALA         0.2262
      4 O         -25.1730  -44.6670   33.3170 O.2       1 ALA        -0.3907
      5 CB        -22.6850  -42.5830   33.7890 C.3       1 ALA        -0.0040
      6 N         -23.3770  -45.1790   32.0540 N.am      1 GLY        -0.2637
      7 CA        -24.1440  -45.8540   30.9900 C.3       1 GLY         0.1202
      8 C         -24.5600  -47.2890   31.3050 C.2       1 GLY         0.2008
      9 O         -24.0340  -47.9100   32.2360 O.2       1 GLY        -0.3947
     10 N         -25.5250  -47.8020   30.5360 N.am      1 VAL        -0.2637
     11 CA        -26.0090  -49.1950   30.6480 C.3       1 VAL         0.1332
     12 C         -25.0690  -50.1910   29.9550 C.2       1 VAL         0.2043
     13 O         -24.9050  -51.3200   30.4290 O.2       1 VAL        -0.3944
     14 CB        -27.4400  -49.3480   30.0600 C.3       1 VAL        -0.0063
     15 CG1       -27.8940  -50.8080   30.0200 C.3       1 VAL        -0.0584
     16 CG2       -28.4310  -48.5270   30.8680 C.3       1 VAL        -0.0584
     17 N         -24.4750  -49.7730   28.8340 N.am      1 PHE        -0.2619
     18 CA        -23.6250  -50.6420   28.0040 C.3       1 PHE         0.1404
     19 C         -22.1460  -50.3570   28.2830 C.2       1 PHE         0.2060
     20 O         -21.7810  -49.2330   28.6290 O.2       1 PHE        -0.3942
     21 CB        -23.9470  -50.4480   26.5120 C.3       1 PHE         0.0214
     22 CG        -25.4140  -50.2560   26.2310 C.ar      1 PHE        -0.0386
     23 CD1       -25.9110  -49.0020   25.8860 C.ar      1 PHE        -0.0601
     24 CD2       -26.3080  -51.3190   26.3510 C.ar      1 PHE        -0.0601
     25 CE1       -27.2640  -48.8170   25.6470 C.ar      1 PHE        -0.0686
     26 CE2       -27.6640  -51.1370   26.1140 C.ar      1 PHE        -0.0686
     27 CZ        -28.1410  -49.8850   25.7600 C.ar      1 PHE        -0.0687
     28 N         -21.3070  -51.3830   28.1350 N.am      1 ASP        -0.2620
     29 CA        -19.8640  -51.2660   28.3930 C.3       1 ASP         0.1423
     30 C         -19.1810  -50.5070   27.2590 C.2       1 ASP         0.2056
     31 O         -19.7150  -50.4370   26.1520 O.2       1 ASP        -0.3943
     32 CB        -19.2140  -52.6520   28.5250 C.3       1 ASP         0.0406
     33 CG        -19.7960  -53.4800   29.6630 C.2       1 ASP         0.0393
     34 OD1       -20.0170  -52.9320   30.7650 O.co2     1 ASP        -0.5688
     35 OD2       -20.0200  -54.6930   29.4510 O.co2     1 ASP        -0.5688
     36 N         -18.0010  -49.9540   27.5420 N.am      1 ILE        -0.2634
     37 CA        -17.1770  -49.2700   26.5290 C.3       1 ILE         0.1335
     38 C         -15.7530  -49.8520   26.5250 C.2       1 ILE         0.2042
     39 O         -15.2170  -50.1990   27.5820 O.2       1 ILE        -0.3944
     40 CB        -17.1760  -47.7220   26.7200 C.3       1 ILE        -0.0037
     41 CG1       -16.4280  -47.0200   25.5730 C.3       1 ILE        -0.0491
     42 CG2       -16.5830  -47.3200   28.0680 C.3       1 ILE        -0.0582
     43 CD1       -16.8240  -45.5750   25.3610 C.3       1 ILE        -0.0648
     44 N         -15.1730  -49.9650   25.3260 N.am      1 ASP        -0.2622
     45 CA        -13.8100  -50.4800   25.1120 C.3       1 ASP         0.1423
     46 C         -12.8700  -49.3320   24.7240 C.2       1 ASP         0.2050
     47 O         -13.2210  -48.5060   23.8790 O.2       1 ASP        -0.3943
     48 CB        -13.8130  -51.5390   24.0030 C.3       1 ASP         0.0406
     49 CG        -14.7340  -52.7130   24.3110 C.2       1 ASP         0.0393
     50 OD1       -14.4310  -53.4880   25.2470 O.co2     1 ASP        -0.5688
     51 OD2       -15.7570  -52.8660   23.6060 O.co2     1 ASP        -0.5688
     52 N         -11.6810  -49.2900   25.3330 N.am      1 LEU        -0.2694
     53 CA        -10.7460  -48.1640   25.1750 C.3       1 LEU         0.0946
     54 C          -9.2980  -48.6390   25.0050 C.2       1 LEU         0.0601
     55 O          -8.7060  -49.2350   25.9080 O.co2     1 LEU        -0.5666
     56 CB        -10.8560  -47.2190   26.3780 C.3       1 LEU        -0.0156
     57 CG        -12.2370  -46.5990   26.6530 C.3       1 LEU        -0.0431
     58 CD1       -12.3000  -45.9660   28.0340 C.3       1 LEU        -0.0625
     59 CD2       -12.6080  -45.5800   25.5840 C.3       1 LEU        -0.0625
     60 OXT        -8.6750  -48.4420   23.9590 O.co2     1 LEU        -0.5666
     61 H1        -21.2473  -44.3101   35.1881 H         1 ALA         0.2015
     62 H2        -21.2478  -44.8979   33.6507 H         1 ALA         0.2015
     63 H3        -22.0457  -45.7072   34.8415 H         1 ALA         0.2015
     64 H4        -23.6134  -43.9577   35.1284 H         1 ALA         0.1095
     65 H5        -23.6080  -42.0246   33.5738 H         1 ALA         0.0310
     66 H6        -22.0502  -42.6022   32.8908 H         1 ALA         0.0310
     67 H7        -22.1429  -42.0924   34.6108 H         1 ALA         0.0310
     68 H8        -22.3839  -45.1101   31.9593 H         1 GLY         0.1882
     69 H9        -23.5249  -45.8701   30.0809 H         1 GLY         0.0763
     70 H10       -25.0558  -45.2679   30.8024 H         1 GLY         0.0763
     71 H11       -25.9432  -47.2110   29.8463 H         1 VAL         0.1883
     72 H12       -26.0477  -49.4496   31.7174 H         1 VAL         0.0802
     73 H13       -27.4272  -48.9648   29.0290 H         1 VAL         0.0343
     74 H14       -28.9082  -50.8651   29.5979 H         1 VAL         0.0234
     75 H15       -27.8978  -51.2189   31.0403 H         1 VAL         0.0234
     76 H16       -27.2026  -51.3900   29.3929 H         1 VAL         0.0234
     77 H17       -28.1019  -47.4777   30.8950 H         1 VAL         0.0234
     78 H18       -28.4837  -48.9212   31.8936 H         1 VAL         0.0234
     79 H19       -29.4248  -48.5876   30.4004 H         1 VAL         0.0234
     80 H20       -24.6142  -48.8258   28.5453 H         1 PHE         0.1885
     81 H21       -23.8331  -51.6890   28.2695 H         1 PHE         0.0823
     82 H22       -23.6014  -51.3366   25.9634 H         1 PHE         0.0474
     83 H23       -23.4052  -49.5610   26.1519 H         1 PHE         0.0474
     84 H24       -25.2323  -48.1608   25.8033 H         1 PHE         0.0557
     85 H25       -25.9402  -52.2991   26.6326 H         1 PHE         0.0557
     86 H26       -27.6365  -47.8369   25.3717 H         1 PHE         0.0599
     87 H27       -28.3482  -51.9728   26.2057 H         1 PHE         0.0599
     88 H28       -29.1987  -49.7407   25.5716 H         1 PHE         0.0559
     89 H29       -21.6728  -52.2649   27.8375 H         1 ASP         0.1884
     90 H30       -19.7191  -50.7133   29.3330 H         1 ASP         0.0819
     91 H31       -18.1372  -52.5178   28.7052 H         1 ASP         0.0478
     92 H32       -19.3626  -53.1994   27.5825 H         1 ASP         0.0478
     93 H33       -17.6608  -50.0055   28.4809 H         1 ILE         0.1883
     94 H34       -17.6227  -49.4756   25.5446 H         1 ILE         0.0803
     95 H35       -18.2222  -47.3828   26.6986 H         1 ILE         0.0345
     96 H36       -16.6286  -47.5717   24.6428 H         1 ILE         0.0267
     97 H37       -15.3509  -47.0527   25.7937 H         1 ILE         0.0267
     98 H38       -17.1287  -47.8302   28.8754 H         1 ILE         0.0235
     99 H39       -16.6708  -46.2312   28.1972 H         1 ILE         0.0235
    100 H40       -15.5222  -47.6091   28.1028 H         1 ILE         0.0235
    101 H41       -16.2434  -45.1543   24.5267 H         1 ILE         0.0230
    102 H42       -16.6193  -45.0006   26.2765 H         1 ILE         0.0230
    103 H43       -17.8971  -45.5196   25.1256 H         1 ILE         0.0230
    104 H44       -15.6980  -49.6818   24.5233 H         1 ASP         0.1884
    105 H45       -13.4509  -50.9387   26.0450 H         1 ASP         0.0819
    106 H46       -12.7886  -51.9194   23.8774 H         1 ASP         0.0478
    107 H47       -14.1462  -51.0670   23.0670 H         1 ASP         0.0478
    108 H48       -11.4157  -50.0548   25.9201 H         1 LEU         0.1875
    109 H49       -11.0306  -47.6085   24.2692 H         1 LEU         0.0726
    110 H50       -10.1472  -46.3933   26.2177 H         1 LEU         0.0308
    111 H51       -10.5621  -47.7859   27.2737 H         1 LEU         0.0308
    112 H52       -12.9798  -47.4097   26.6195 H         1 LEU         0.0297
    113 H53       -13.2991  -45.5345   28.1943 H         1 LEU         0.0232
    114 H54       -11.5417  -45.1726   28.1087 H         1 LEU         0.0232
    115 H55       -12.1049  -46.7328   28.7981 H         1 LEU         0.0232
    116 H56       -12.5574  -46.0538   24.5926 H         1 LEU         0.0232
    117 H57       -11.9047  -44.7351   25.6229 H         1 LEU         0.0232
    118 H58       -13.6299  -45.2150   25.7642 H         1 LEU         0.0232
@<TRIPOS>BOND
     1    1    2 1  
     2    2    3 1  
     3    2    5 1  
     4    3    4 2  
     5    3    6 am 
     6    6    7 1  
     7    7    8 1  
     8    8    9 2  
     9    8   10 am 
    10   10   11 1  
    11   11   12 1  
    12   11   14 1  
    13   12   13 2  
    14   12   17 am 
    15   14   15 1  
    16   14   16 1  
    17   17   18 1  
    18   18   19 1  
    19   18   21 1  
    20   19   20 2  
    21   19   28 am 
    22   21   22 1  
    23   22   23 ar 
    24   22   24 ar 
    25   23   25 ar 
    26   24   26 ar 
    27   25   27 ar 
    28   26   27 ar 
    29   28   29 1  
    30   29   30 1  
    31   29   32 1  
    32   30   31 2  
    33   30   36 am 
    34   32   33 1  
    35   33   34 ar 
    36   33   35 ar 
    37   36   37 1  
    38   37   38 1  
    39   37   40 1  
    40   38   39 2  
    41   38   44 am 
    42   40   41 1  
    43   40   42 1  
    44   41   43 1  
    45   44   45 1  
    46   45   46 1  
    47   45   48 1  
    48   46   47 2  
    49   46   52 am 
    50   48   49 1  
    51   49   50 ar 
    52   49   51 ar 
    53   52   53 1  
    54   53   54 1  
    55   53   56 1  
    56   54   55 ar 
    57   54   60 ar 
    58   56   57 1  
    59   57   58 1  
    60   57   59 1  
    61    1   61 1  
    62    1   62 1  
    63    1   63 1  
    64    2   64 1  
    65    5   65 1  
    66    5   66 1  
    67    5   67 1  
    68    6   68 1  
    69    7   69 1  
    70    7   70 1  
    71   10   71 1  
    72   11   72 1  
    73   14   73 1  
    74   15   74 1  
    75   15   75 1  
    76   15   76 1  
    77   16   77 1  
    78   16   78 1  
    79   16   79 1  
    80   17   80 1  
    81   18   81 1  
    82   21   82 1  
    83   21   83 1  
    84   23   84 1  
    85   24   85 1  
    86   25   86 1  
    87   26   87 1  
    88   27   88 1  
    89   28   89 1  
    90   29   90 1  
    91   32   91 1  
    92   32   92 1  
    93   36   93 1  
    94   37   94 1  
    95   40   95 1  
    96   41   96 1  
    97   41   97 1  
    98   42   98 1  
    99   42   99 1  
   100   42  100 1  
   101   43  101 1  
   102   43  102 1  
   103   43  103 1  
   104   44  104 1  
   105   45  105 1  
   106   48  106 1  
   107   48  107 1  
   108   52  108 1  
   109   53  109 1  
   110   56  110 1  
   111   56  111 1  
   112   57  112 1  
   113   58  113 1  
   114   58  114 1  
   115   58  115 1  
   116   59  116 1  
   117   59  117 1  
   118   59  118 1  
@<TRIPOS>SUBSTRUCTURE
     1 ALA         1

