5wbk_ligand
  -I-interpret- 

121121  0  0  0  0  0  0  0  0999 V2000
  -21.7920  -44.7960   34.4930 N   0  3  0  0  0
  -23.0370  -44.0100   34.1930 C   0  0  0  0  0
  -23.9550  -44.6560   33.1390 C   0  0  0  0  0
  -25.1730  -44.6670   33.3170 O   0  0  0  0  0
  -22.6850  -42.5830   33.7890 C   0  0  0  0  0
  -23.3770  -45.1790   32.0540 N   0  0  0  0  0
  -24.1440  -45.8540   30.9900 C   0  0  0  0  0
  -24.5600  -47.2890   31.3050 C   0  0  0  0  0
  -24.0340  -47.9100   32.2360 O   0  0  0  0  0
  -25.5250  -47.8020   30.5360 N   0  0  0  0  0
  -26.0090  -49.1950   30.6480 C   0  0  0  0  0
  -25.0690  -50.1910   29.9550 C   0  0  0  0  0
  -24.9050  -51.3200   30.4290 O   0  0  0  0  0
  -27.4400  -49.3480   30.0600 C   0  0  0  0  0
  -27.8940  -50.8080   30.0200 C   0  0  0  0  0
  -28.4310  -48.5270   30.8680 C   0  0  0  0  0
  -24.4750  -49.7730   28.8340 N   0  0  0  0  0
  -23.6250  -50.6420   28.0040 C   0  0  0  0  0
  -22.1460  -50.3570   28.2830 C   0  0  0  0  0
  -21.7810  -49.2330   28.6290 O   0  0  0  0  0
  -23.9470  -50.4480   26.5120 C   0  0  0  0  0
  -25.4140  -50.2560   26.2310 C   0  0  0  0  0
  -25.9110  -49.0020   25.8860 C   0  0  0  0  0
  -26.3080  -51.3190   26.3510 C   0  0  0  0  0
  -27.2640  -48.8170   25.6470 C   0  0  0  0  0
  -27.6640  -51.1370   26.1140 C   0  0  0  0  0
  -28.1410  -49.8850   25.7600 C   0  0  0  0  0
  -21.3070  -51.3830   28.1350 N   0  0  0  0  0
  -19.8640  -51.2660   28.3930 C   0  0  0  0  0
  -19.1810  -50.5070   27.2590 C   0  0  0  0  0
  -19.7150  -50.4370   26.1520 O   0  0  0  0  0
  -19.2140  -52.6520   28.5250 C   0  0  0  0  0
  -19.7960  -53.4800   29.6630 C   0  0  0  0  0
  -20.0170  -52.9320   30.7650 O   0  0  0  0  0
  -20.0200  -54.6930   29.4510 O   0  0  0  0  0
  -18.0010  -49.9540   27.5420 N   0  0  0  0  0
  -17.1770  -49.2700   26.5290 C   0  0  0  0  0
  -15.7530  -49.8520   26.5250 C   0  0  0  0  0
  -15.2170  -50.1990   27.5820 O   0  0  0  0  0
  -17.1760  -47.7220   26.7200 C   0  0  0  0  0
  -16.4280  -47.0200   25.5730 C   0  0  0  0  0
  -16.5830  -47.3200   28.0680 C   0  0  0  0  0
  -16.8240  -45.5750   25.3610 C   0  0  0  0  0
  -15.1730  -49.9650   25.3260 N   0  0  0  0  0
  -13.8100  -50.4800   25.1120 C   0  0  0  0  0
  -12.8700  -49.3320   24.7240 C   0  0  0  0  0
  -13.2210  -48.5060   23.8790 O   0  0  0  0  0
  -13.8130  -51.5390   24.0030 C   0  0  0  0  0
  -14.7340  -52.7130   24.3110 C   0  0  0  0  0
  -14.4310  -53.4880   25.2470 O   0  0  0  0  0
  -15.7570  -52.8660   23.6060 O   0  0  0  0  0
  -11.6810  -49.2900   25.3330 N   0  0  0  0  0
  -10.7460  -48.1640   25.1750 C   0  0  0  0  0
   -9.2980  -48.6390   25.0050 C   0  0  0  0  0
   -8.7060  -49.2350   25.9080 O   0  0  0  0  0
  -10.8560  -47.2190   26.3780 C   0  0  0  0  0
  -12.2370  -46.5990   26.6530 C   0  0  0  0  0
  -12.3000  -45.9660   28.0340 C   0  0  0  0  0
  -12.6080  -45.5800   25.5840 C   0  0  0  0  0
   -8.6750  -48.4420   23.9590 O   0  0  0  0  0
  -22.0477  -45.7464   34.7609 H   0  0  0  0  0
  -21.2001  -44.8231   33.6627 H   0  0  0  0  0
  -21.2860  -44.3502   35.2583 H   0  0  0  0  0
  -23.6099  -44.0020   35.1203 H   0  0  0  0  0
  -22.1697  -42.5953   32.8286 H   0  0  0  0  0
  -23.5987  -41.9946   33.7051 H   0  0  0  0  0
  -22.0357  -42.1422   34.5455 H   0  0  0  0  0
  -22.3640  -45.1087   31.9574 H   0  0  0  0  0
  -23.4954  -45.8994   30.1152 H   0  0  0  0  0
  -25.0624  -45.2830   30.8538 H   0  0  0  0  0
  -25.9516  -47.1991   29.8325 H   0  0  0  0  0
  -26.0316  -49.4239   31.7134 H   0  0  0  0  0
  -27.4069  -48.9813   29.0341 H   0  0  0  0  0
  -27.2081  -51.3835   29.3984 H   0  0  0  0  0
  -27.8973  -51.2140   31.0316 H   0  0  0  0  0
  -28.8990  -50.8633   29.6016 H   0  0  0  0  0
  -28.4307  -48.8736   31.9014 H   0  0  0  0  0
  -28.1422  -47.4765   30.8357 H   0  0  0  0  0
  -29.4285  -48.6441   30.4444 H   0  0  0  0  0
  -24.6170  -48.8068   28.5395 H   0  0  0  0  0
  -23.8308  -51.6810   28.2615 H   0  0  0  0  0
  -23.6298  -51.3505   25.9895 H   0  0  0  0  0
  -23.4305  -49.5471   26.1809 H   0  0  0  0  0
  -25.2286  -48.1561   25.8029 H   0  0  0  0  0
  -25.9382  -52.3045   26.6342 H   0  0  0  0  0
  -27.6385  -47.8315   25.3701 H   0  0  0  0  0
  -28.3520  -51.9774   26.2062 H   0  0  0  0  0
  -29.2046  -49.7399   25.5706 H   0  0  0  0  0
  -21.6801  -52.2825   27.8315 H   0  0  0  0  0
  -19.7396  -50.7217   29.3291 H   0  0  0  0  0
  -18.1546  -52.5021   28.7331 H   0  0  0  0  0
  -19.3957  -53.1925   27.5960 H   0  0  0  0  0
  -19.7820  -54.9078   28.5461 H   0  0  0  0  0
  -17.6540  -50.0065   28.4997 H   0  0  0  0  0
  -17.6222  -49.4520   25.5508 H   0  0  0  0  0
  -18.2163  -47.3971   26.7019 H   0  0  0  0  0
  -16.6721  -47.5565   24.6561 H   0  0  0  0  0
  -15.3688  -47.0271   25.8301 H   0  0  0  0  0
  -17.1722  -47.7649   28.8699 H   0  0  0  0  0
  -15.5543  -47.6748   28.1313 H   0  0  0  0  0
  -16.6006  -46.2342   28.1619 H   0  0  0  0  0
  -17.8874  -45.5215   25.1278 H   0  0  0  0  0
  -16.6207  -45.0070   26.2688 H   0  0  0  0  0
  -16.2481  -45.1593   24.5342 H   0  0  0  0  0
  -15.7085  -49.6762   24.5073 H   0  0  0  0  0
  -13.4592  -50.9345   26.0385 H   0  0  0  0  0
  -12.7985  -51.9262   23.9082 H   0  0  0  0  0
  -14.1707  -51.0646   23.0891 H   0  0  0  0  0
  -13.6143  -53.1912   25.6550 H   0  0  0  0  0
  -11.4104  -50.0701   25.9318 H   0  0  0  0  0
  -11.0225  -47.6301   24.2658 H   0  0  0  0  0
   -9.2893  -49.3276   26.6648 H   0  0  0  0  0
  -10.1913  -46.3826   26.1619 H   0  0  0  0  0
  -10.6205  -47.8231   27.2542 H   0  0  0  0  0
  -12.9647  -47.4099   26.6203 H   0  0  0  0  0
  -12.1065  -46.7268   28.7902 H   0  0  0  0  0
  -11.5482  -45.1801   28.1067 H   0  0  0  0  0
  -13.2904  -45.5389   28.1917 H   0  0  0  0  0
  -11.8652  -44.7824   25.5708 H   0  0  0  0  0
  -12.6344  -46.0698   24.6106 H   0  0  0  0  0
  -13.5890  -45.1610   25.8081 H   0  0  0  0  0
  1  2  1  0  0  0
  2  3  1  0  0  0
  2  5  1  0  0  0
  3  4  2  0  0  0
  3  6  1  0  0  0
  6  7  1  0  0  0
  7  8  1  0  0  0
  8  9  2  0  0  0
  8 10  1  0  0  0
 10 11  1  0  0  0
 11 12  1  0  0  0
 11 14  1  0  0  0
 12 13  2  0  0  0
 12 17  1  0  0  0
 14 15  1  0  0  0
 14 16  1  0  0  0
 17 18  1  0  0  0
 18 19  1  0  0  0
 18 21  1  0  0  0
 19 20  2  0  0  0
 19 28  1  0  0  0
 21 22  1  0  0  0
 22 23  4  0  0  0
 22 24  4  0  0  0
 23 25  4  0  0  0
 24 26  4  0  0  0
 25 27  4  0  0  0
 26 27  4  0  0  0
 28 29  1  0  0  0
 29 30  1  0  0  0
 29 32  1  0  0  0
 30 31  2  0  0  0
 30 36  1  0  0  0
 32 33  1  0  0  0
 33 34  2  0  0  0
 33 35  1  0  0  0
 36 37  1  0  0  0
 37 38  1  0  0  0
 37 40  1  0  0  0
 38 39  2  0  0  0
 38 44  1  0  0  0
 40 41  1  0  0  0
 40 42  1  0  0  0
 41 43  1  0  0  0
 44 45  1  0  0  0
 45 46  1  0  0  0
 45 48  1  0  0  0
 46 47  2  0  0  0
 46 52  1  0  0  0
 48 49  1  0  0  0
 49 50  1  0  0  0
 49 51  2  0  0  0
 52 53  1  0  0  0
 53 54  1  0  0  0
 53 56  1  0  0  0
 54 55  1  0  0  0
 54 60  2  0  0  0
 56 57  1  0  0  0
 57 58  1  0  0  0
 57 59  1  0  0  0
  1 61  1  0  0  0
  1 62  1  0  0  0
  1 63  1  0  0  0
  2 64  1  0  0  0
  5 65  1  0  0  0
  5 66  1  0  0  0
  5 67  1  0  0  0
  6 68  1  0  0  0
  7 69  1  0  0  0
  7 70  1  0  0  0
 10 71  1  0  0  0
 11 72  1  0  0  0
 14 73  1  0  0  0
 15 74  1  0  0  0
 15 75  1  0  0  0
 15 76  1  0  0  0
 16 77  1  0  0  0
 16 78  1  0  0  0
 16 79  1  0  0  0
 17 80  1  0  0  0
 18 81  1  0  0  0
 21 82  1  0  0  0
 21 83  1  0  0  0
 23 84  1  0  0  0
 24 85  1  0  0  0
 25 86  1  0  0  0
 26 87  1  0  0  0
 27 88  1  0  0  0
 28 89  1  0  0  0
 29 90  1  0  0  0
 32 91  1  0  0  0
 32 92  1  0  0  0
 35 93  1  0  0  0
 36 94  1  0  0  0
 37 95  1  0  0  0
 40 96  1  0  0  0
 41 97  1  0  0  0
 41 98  1  0  0  0
 42 99  1  0  0  0
 42100  1  0  0  0
 42101  1  0  0  0
 43102  1  0  0  0
 43103  1  0  0  0
 43104  1  0  0  0
 44105  1  0  0  0
 45106  1  0  0  0
 48107  1  0  0  0
 48108  1  0  0  0
 50109  1  0  0  0
 52110  1  0  0  0
 53111  1  0  0  0
 55112  1  0  0  0
 56113  1  0  0  0
 56114  1  0  0  0
 57115  1  0  0  0
 58116  1  0  0  0
 58117  1  0  0  0
 58118  1  0  0  0
 59119  1  0  0  0
 59120  1  0  0  0
 59121  1  0  0  0
M  END
$$$$
