3l9m_ligand
  -I-interpret- 

 49 52  0  0  0  0  0  0  0  0999 V2000
   27.7810    1.1500    8.8420 C   0  0  0  0  0
   25.6970    8.4820    9.3970 N   0  0  0  0  0
   30.0540    3.5020    7.6100 S   0  0  0  0  0
   27.3810    2.0450    9.9040 C   0  0  0  0  0
   31.5370    4.0450    5.6520 N   0  0  0  0  0
   28.1870    2.0530   11.1160 C   0  0  0  0  0
   30.5300   -0.8930    5.7050 N   0  3  0  0  0
   29.3640    1.2250   11.3350 C   0  0  0  0  0
   26.2750    9.0600    8.3410 N   0  0  0  0  0
   29.7520    0.3440   10.2740 C   0  0  0  0  0
   30.8120    5.0500    5.7470 N   0  0  0  0  0
   28.9600    0.3250    9.0570 C   0  0  0  0  0
   31.9660    1.7630    6.3140 N   0  0  0  0  0
   31.4970    0.7340    7.2850 C   0  0  0  0  0
   29.4160   -0.6210    7.9330 C   0  0  0  0  0
   26.1770    7.2750    9.6450 C   0  0  0  0  0
   30.2030    0.0630    6.8040 C   0  0  0  0  0
   29.0360    7.3230    6.2970 C   0  0  0  0  0
   31.3030    2.9930    6.4540 C   0  0  0  0  0
   28.1390    8.4110    6.6210 C   0  0  0  0  0
   27.2330    8.2640    7.7620 C   0  0  0  0  0
   27.1860    7.0510    8.6160 C   0  0  0  0  0
   28.0920    5.9700    8.2750 C   0  0  0  0  0
   29.0030    6.1150    7.1230 C   0  0  0  0  0
   25.7470    6.4170   10.7630 C   0  0  0  0  0
   29.9220    5.0400    6.7610 C   0  0  0  0  0
   27.6800    3.1600   12.3800 C   0  0  0  0  0
   27.2178    1.0949    7.9104 H   0  0  0  0  0
   26.5083    2.6899    9.8012 H   0  0  0  0  0
   29.6736   -1.3424    5.3809 H   0  0  0  0  0
   30.9627   -0.3863    4.9327 H   0  0  0  0  0
   31.1763   -1.6012    6.0531 H   0  0  0  0  0
   29.9267    1.2733   12.2673 H   0  0  0  0  0
   30.6253   -0.2999   10.3783 H   0  0  0  0  0
   32.6933    1.5915    5.6197 H   0  0  0  0  0
   31.3011    1.2215    8.2400 H   0  0  0  0  0
   32.2689   -0.0295    7.3817 H   0  0  0  0  0
   28.5156   -1.0411    7.4849 H   0  0  0  0  0
   30.0814   -1.3563    8.3854 H   0  0  0  0  0
   29.5410    0.8434    6.4287 H   0  0  0  0  0
   29.7229    7.4013    5.4543 H   0  0  0  0  0
   28.1376    9.3243    6.0261 H   0  0  0  0  0
   28.0997    5.0549    8.8671 H   0  0  0  0  0
   25.9422    6.9268   11.7065 H   0  0  0  0  0
   24.6801    6.2126   10.6729 H   0  0  0  0  0
   26.3017    5.4792   10.7338 H   0  0  0  0  0
   27.7022    4.1806   11.9978 H   0  0  0  0  0
   26.6667    2.9105   12.6948 H   0  0  0  0  0
   28.3573    3.0741   13.2297 H   0  0  0  0  0
  1  4  4  0  0  0
 12  1  4  0  0  0
  9  2  4  0  0  0
 16  2  4  0  0  0
  3 19  4  0  0  0
 26  3  4  0  0  0
  4  6  4  0  0  0
 11  5  4  0  0  0
  5 19  4  0  0  0
  8  6  4  0  0  0
  6 27  1  0  0  0
 17  7  1  0  0  0
 10  8  4  0  0  0
 21  9  4  0  0  0
 12 10  4  0  0  0
 26 11  4  0  0  0
 15 12  1  0  0  0
 13 14  1  0  0  0
 19 13  1  0  0  0
 14 17  1  0  0  0
 17 15  1  0  0  0
 22 16  4  0  0  0
 16 25  1  0  0  0
 18 20  4  0  0  0
 24 18  4  0  0  0
 20 21  4  0  0  0
 22 21  4  0  0  0
 23 22  4  0  0  0
 24 23  4  0  0  0
 24 26  1  0  0  0
  1 28  1  0  0  0
  4 29  1  0  0  0
  7 30  1  0  0  0
  7 31  1  0  0  0
  7 32  1  0  0  0
  8 33  1  0  0  0
 10 34  1  0  0  0
 13 35  1  0  0  0
 14 36  1  0  0  0
 14 37  1  0  0  0
 15 38  1  0  0  0
 15 39  1  0  0  0
 17 40  1  0  0  0
 18 41  1  0  0  0
 20 42  1  0  0  0
 23 43  1  0  0  0
 25 44  1  0  0  0
 25 45  1  0  0  0
 25 46  1  0  0  0
 27 47  1  0  0  0
 27 48  1  0  0  0
 27 49  1  0  0  0
M  END
$$$$
