5ivt_ligand
  -I-interpret- 

 78 81  0  0  0  0  0  0  0  0999 V2000
  -14.2770   19.6430   -5.1420 C   0  0  0  0  0
  -14.8050   20.9110   -4.4900 C   0  0  0  0  0
  -19.3170   19.3140   -6.4980 O   0  0  0  0  0
  -20.7220   17.1990   -3.9620 C   0  0  0  0  0
  -20.7870   17.9520   -2.6560 C   0  0  0  0  0
  -14.3990   22.0750   -5.3630 C   0  0  0  0  0
  -13.6680   23.8410   -3.7080 C   0  0  0  0  0
  -12.4610   24.3810   -4.1170 C   0  0  0  0  0
  -11.9960   20.9420   -8.1380 C   0  0  0  0  0
  -12.9850   22.9480   -8.9690 C   0  0  0  0  0
  -13.1810   20.2600   -8.3630 C   0  0  0  0  0
  -14.1710   22.2670   -9.1970 C   0  0  0  0  0
   -8.7830   22.2250   -9.7520 C   0  0  0  0  0
  -10.2680   23.9160  -10.5400 C   0  0  0  0  0
   -8.5580   23.0890  -11.9840 C   0  0  0  0  0
  -11.5660   24.7720   -3.1380 C   0  0  0  0  0
  -12.9410   24.1360   -1.4440 C   0  0  0  0  0
  -11.8830   22.3000   -8.4200 C   0  0  0  0  0
   -9.8520   23.0700   -9.5210 C   0  0  0  0  0
   -8.1460   22.2410  -10.9790 C   0  0  0  0  0
   -9.6190   23.9320  -11.7570 C   0  0  0  0  0
  -13.8950   23.7270   -2.3490 C   0  0  0  0  0
  -14.2660   20.9210   -8.8940 C   0  0  0  0  0
  -10.9730   24.0470   -5.9960 C   0  0  0  0  0
  -19.4210   18.4560   -5.6380 C   0  0  0  0  0
  -16.6950   19.8040   -3.6360 C   0  0  0  0  0
  -16.3520   18.4650   -4.2800 C   0  0  0  0  0
  -14.7040   23.4050   -4.7020 C   0  0  0  0  0
  -17.1170   18.1910   -5.5580 C   0  0  0  0  0
  -10.5490   22.9930   -8.1890 C   0  0  0  0  0
  -10.7200   24.3280   -7.4500 C   0  0  0  0  0
  -11.7660   24.6550   -1.8200 N   0  0  0  0  0
  -12.1430   24.5550   -5.4850 N   0  0  0  0  0
  -20.6090   18.1170   -5.0670 N   0  0  0  0  0
  -14.8840   18.4230   -4.5340 N   0  3  0  0  0
   -9.4680   25.1380   -7.4830 N   0  3  0  0  0
  -10.1350   23.4460   -5.3470 O   0  0  0  0  0
  -16.2270   20.8870   -4.4450 O   0  0  0  0  0
  -18.3920   17.7180   -5.1520 O   0  0  0  0  0
   -7.1080   21.4180  -11.1990 F   0  0  0  0  0
  -10.0330   24.7490  -12.7500 F   0  0  0  0  0
  -15.0430   23.2030   -1.8860 F   0  0  0  0  0
  -20.9610   17.1180   -1.5980 F   0  0  0  0  0
  -19.6350   18.6170   -2.3930 F   0  0  0  0  0
  -21.8380   18.8200   -2.6590 F   0  0  0  0  0
  -15.7400   20.0710   -9.1780 Cl  0  0  0  0  0
  -13.1978   19.6022   -4.9946 H   0  0  0  0  0
  -14.5343   19.6660   -6.2010 H   0  0  0  0  0
  -14.4074   20.9943   -3.4785 H   0  0  0  0  0
  -21.6336   16.6131   -4.0794 H   0  0  0  0  0
  -19.8489   16.5466   -3.9522 H   0  0  0  0  0
  -14.9613   22.0178   -6.2950 H   0  0  0  0  0
  -13.3245   22.0160   -5.5361 H   0  0  0  0  0
  -11.1377   20.4057   -7.7332 H   0  0  0  0  0
  -12.9150   24.0056   -9.2234 H   0  0  0  0  0
  -13.2543   19.2001   -8.1196 H   0  0  0  0  0
  -15.0292   22.7929   -9.6154 H   0  0  0  0  0
   -8.4429   21.5476   -8.9687 H   0  0  0  0  0
  -11.1193   24.5768  -10.3761 H   0  0  0  0  0
   -8.0483   23.0910  -12.9475 H   0  0  0  0  0
  -10.6232   25.2101   -3.4657 H   0  0  0  0  0
  -13.1511   24.0330   -0.3794 H   0  0  0  0  0
  -16.2141   19.8595   -2.6594 H   0  0  0  0  0
  -17.7777   19.8805   -3.5358 H   0  0  0  0  0
  -16.6511   17.6800   -3.5854 H   0  0  0  0  0
  -15.6439   23.2909   -4.1620 H   0  0  0  0  0
  -14.7359   24.1586   -5.4889 H   0  0  0  0  0
  -16.6017   17.4583   -6.1791 H   0  0  0  0  0
  -17.2036   19.0898   -6.1686 H   0  0  0  0  0
   -9.9090   22.4267   -7.5124 H   0  0  0  0  0
  -11.5363   24.8637   -7.9345 H   0  0  0  0  0
  -12.7858   25.0602   -6.0949 H   0  0  0  0  0
  -21.4621   18.5336   -5.4399 H   0  0  0  0  0
  -14.4428   18.3137   -3.6209 H   0  0  0  0  0
  -14.7354   17.6696   -5.2054 H   0  0  0  0  0
   -9.2370   25.3654   -8.4501 H   0  0  0  0  0
   -9.6074   25.9989   -6.9541 H   0  0  0  0  0
   -8.7064   24.6017   -7.0673 H   0  0  0  0  0
  2  1  1  0  0  0
  1 35  1  0  0  0
  6  2  1  0  0  0
  2 38  1  0  0  0
 25  3  2  0  0  0
  4  5  1  0  0  0
 34  4  1  0  0  0
  5 43  1  0  0  0
  5 44  1  0  0  0
  5 45  1  0  0  0
 28  6  1  0  0  0
  8  7  4  0  0  0
  7 22  4  0  0  0
  7 28  1  0  0  0
  8 16  4  0  0  0
 33  8  1  0  0  0
  9 11  4  0  0  0
 18  9  4  0  0  0
 10 12  4  0  0  0
 18 10  4  0  0  0
 11 23  4  0  0  0
 12 23  4  0  0  0
 19 13  4  0  0  0
 13 20  4  0  0  0
 19 14  4  0  0  0
 14 21  4  0  0  0
 20 15  4  0  0  0
 21 15  4  0  0  0
 16 32  4  0  0  0
 22 17  4  0  0  0
 32 17  4  0  0  0
 30 18  1  0  0  0
 30 19  1  0  0  0
 20 40  1  0  0  0
 21 41  1  0  0  0
 22 42  1  0  0  0
 23 46  1  0  0  0
 31 24  1  0  0  0
 24 33  1  0  0  0
 24 37  2  0  0  0
 25 34  1  0  0  0
 39 25  1  0  0  0
 26 27  1  0  0  0
 38 26  1  0  0  0
 27 29  1  0  0  0
 35 27  1  0  0  0
 29 39  1  0  0  0
 30 31  1  0  0  0
 31 36  1  0  0  0
  1 47  1  0  0  0
  1 48  1  0  0  0
  2 49  1  0  0  0
  4 50  1  0  0  0
  4 51  1  0  0  0
  6 52  1  0  0  0
  6 53  1  0  0  0
  9 54  1  0  0  0
 10 55  1  0  0  0
 11 56  1  0  0  0
 12 57  1  0  0  0
 13 58  1  0  0  0
 14 59  1  0  0  0
 15 60  1  0  0  0
 16 61  1  0  0  0
 17 62  1  0  0  0
 26 63  1  0  0  0
 26 64  1  0  0  0
 27 65  1  0  0  0
 28 66  1  0  0  0
 28 67  1  0  0  0
 29 68  1  0  0  0
 29 69  1  0  0  0
 30 70  1  0  0  0
 31 71  1  0  0  0
 33 72  1  0  0  0
 34 73  1  0  0  0
 35 74  1  0  0  0
 35 75  1  0  0  0
 36 76  1  0  0  0
 36 77  1  0  0  0
 36 78  1  0  0  0
M  END
$$$$
