3ns7_ligand
  -I-interpret- 

 60 61  0  0  0  0  0  0  0  0999 V2000
   28.3110    1.1930   51.0270 C   0  0  0  0  0
   28.7020    1.4260   49.5640 C   0  0  0  0  0
   29.9980    0.8300   49.3020 N   0  0  0  0  0
   25.3980    3.3750   51.6540 C   0  0  0  0  0
   24.8560    4.6290   51.6040 C   0  0  0  0  0
   25.6280    5.7130   51.1940 C   0  0  0  0  0
   26.9520    5.5180   50.8100 C   0  0  0  0  0
   27.5020    4.2410   50.8620 C   0  0  0  0  0
   26.7450    3.1670   51.2490 C   0  0  0  0  0
   24.8760    2.1380   51.9730 N   0  0  0  0  0
   27.0100    1.8080   51.3680 N   0  0  0  0  0
   25.8600    1.2470   51.7830 C   0  0  0  0  0
   25.6490   -0.2460   51.9470 C   0  0  0  0  0
   30.8870    1.4240   48.4880 C   0  0  0  0  0
   30.7870    2.5610   48.0430 O   0  0  0  0  0
   32.1220    0.5570   48.2580 C   0  0  0  0  0
   33.3070    1.4370   47.8180 C   0  0  0  0  0
   34.6320    1.0330   48.5110 C   0  0  0  0  0
   33.3760    1.5010   46.2820 C   0  0  0  0  0
   32.7010    0.7600   45.5640 O   0  0  0  0  0
   34.8940   -0.4860   48.5620 C   0  0  0  0  0
   34.7060    1.6600   49.9170 C   0  0  0  0  0
   35.8640    3.1580   44.1870 C   0  0  0  0  0
   34.2060    2.4550   45.8270 N   0  0  0  0  0
   36.7280    2.0330   44.1730 O   0  0  0  0  0
   34.4050    2.7480   44.4090 C   0  0  0  0  0
   33.4520    3.8880   44.0140 C   0  0  0  0  0
   33.1470    3.9080   42.5160 C   0  0  0  0  0
   32.3670    3.1220   42.0390 O   0  0  0  0  0
   33.5860    4.8570   41.8760 O   0  0  0  0  0
   29.0749    1.6490   51.6568 H   0  0  0  0  0
   28.2279    0.1180   51.1866 H   0  0  0  0  0
   28.7518    2.4975   49.3701 H   0  0  0  0  0
   27.9563    0.9682   48.9140 H   0  0  0  0  0
   30.2393   -0.0570   49.7441 H   0  0  0  0  0
   23.8143    4.7811   51.8865 H   0  0  0  0  0
   25.1960    6.7135   51.1737 H   0  0  0  0  0
   27.5542    6.3608   50.4706 H   0  0  0  0  0
   28.5476    4.0935   50.5916 H   0  0  0  0  0
   25.3291   -0.4565   52.9675 H   0  0  0  0  0
   24.8831   -0.5823   51.2481 H   0  0  0  0  0
   26.5837   -0.7683   51.7428 H   0  0  0  0  0
   31.9078   -0.1733   47.4777 H   0  0  0  0  0
   32.3795    0.0454   49.1854 H   0  0  0  0  0
   33.1380    2.4580   48.1603 H   0  0  0  0  0
   35.4318    1.4310   47.8864 H   0  0  0  0  0
   34.0885   -0.9741   49.1107 H   0  0  0  0  0
   34.9350   -0.8806   47.5468 H   0  0  0  0  0
   35.8430   -0.6730   49.0645 H   0  0  0  0  0
   34.6623    2.7458   49.8320 H   0  0  0  0  0
   33.8661    1.3071   50.5155 H   0  0  0  0  0
   35.6417    1.3690   50.3944 H   0  0  0  0  0
   35.9371    3.6595   43.2220 H   0  0  0  0  0
   36.1653    3.8127   45.0048 H   0  0  0  0  0
   34.7265    3.0057   46.5098 H   0  0  0  0  0
   37.6312    2.3263   44.0322 H   0  0  0  0  0
   34.1924    1.8733   43.7943 H   0  0  0  0  0
   33.9337    4.8315   44.2706 H   0  0  0  0  0
   32.5121    3.7384   44.5454 H   0  0  0  0  0
   34.1883    5.3620   42.4272 H   0  0  0  0  0
  2  1  1  0  0  0
  1 11  1  0  0  0
  3  2  1  0  0  0
 14  3  1  0  0  0
  4  5  4  0  0  0
  9  4  4  0  0  0
 10  4  4  0  0  0
  5  6  4  0  0  0
  7  6  4  0  0  0
  8  7  4  0  0  0
  9  8  4  0  0  0
 11  9  4  0  0  0
 12 10  4  0  0  0
 11 12  4  0  0  0
 12 13  1  0  0  0
 14 15  2  0  0  0
 16 14  1  0  0  0
 17 16  1  0  0  0
 17 18  1  0  0  0
 19 17  1  0  0  0
 18 21  1  0  0  0
 18 22  1  0  0  0
 19 20  2  0  0  0
 24 19  1  0  0  0
 23 25  1  0  0  0
 26 23  1  0  0  0
 24 26  1  0  0  0
 26 27  1  0  0  0
 27 28  1  0  0  0
 28 29  2  0  0  0
 28 30  1  0  0  0
  1 31  1  0  0  0
  1 32  1  0  0  0
  2 33  1  0  0  0
  2 34  1  0  0  0
  3 35  1  0  0  0
  5 36  1  0  0  0
  6 37  1  0  0  0
  7 38  1  0  0  0
  8 39  1  0  0  0
 13 40  1  0  0  0
 13 41  1  0  0  0
 13 42  1  0  0  0
 16 43  1  0  0  0
 16 44  1  0  0  0
 17 45  1  0  0  0
 18 46  1  0  0  0
 21 47  1  0  0  0
 21 48  1  0  0  0
 21 49  1  0  0  0
 22 50  1  0  0  0
 22 51  1  0  0  0
 22 52  1  0  0  0
 23 53  1  0  0  0
 23 54  1  0  0  0
 24 55  1  0  0  0
 25 56  1  0  0  0
 26 57  1  0  0  0
 27 58  1  0  0  0
 27 59  1  0  0  0
 30 60  1  0  0  0
M  END
$$$$
