### 
### Created by X-TOOL on Mon Aug  2 16:15:07 2021
### 

@<TRIPOS>MOLECULE
6mxd_ligand
   34    36     1     0     0
SMALL
GAST_HUCK


@<TRIPOS>ATOM
      1 P          55.7690    4.2510   -6.7890 P.3       1 IMP         0.2008
      2 O1P        56.4810    5.4120   -7.4370 O.co2     1 IMP        -0.5537
      3 O2P        56.1170    2.8510   -7.2370 O.co2     1 IMP        -0.5537
      4 O3P        55.9720    4.3360   -5.2940 O.co2     1 IMP        -0.5537
      5 O5'        54.2190    4.4610   -7.0890 O.3       1 IMP        -0.2734
      6 C5'        53.5650    5.6610   -6.7070 C.3       1 IMP         0.1072
      7 C4'        52.2400    5.8200   -7.4080 C.3       1 IMP         0.1182
      8 O4'        52.3430    6.8490   -8.4240 O.3       1 IMP        -0.3360
      9 C3'        51.7340    4.6030   -8.1660 C.3       1 IMP         0.1149
     10 O3'        51.1100    3.6490   -7.3230 O.3       1 IMP        -0.3864
     11 C2'        50.7910    5.2180   -9.1930 C.3       1 IMP         0.1390
     12 O2'        49.5360    5.5240   -8.6040 O.3       1 IMP        -0.3835
     13 C1'        51.5050    6.5330   -9.5160 C.3       1 IMP         0.2027
     14 N9         52.3230    6.4400  -10.7400 N.pl3     1 IMP        -0.1837
     15 C8         53.6070    5.9740  -10.8630 C.2       1 IMP         0.0991
     16 N7         53.9750    6.0720  -12.1630 N.2       1 IMP        -0.3232
     17 C5         52.9470    6.5960  -12.8690 C.2       1 IMP         0.1016
     18 C6         52.7910    6.9050  -14.2150 C.2       1 IMP         0.1461
     19 O6         53.7760    6.9450  -14.9500 O.2       1 IMP        -0.4217
     20 N1         51.5980    7.4420  -14.6520 N.2       1 IMP        -0.2575
     21 C2         50.5740    7.6700  -13.7560 C.2       1 IMP         0.1280
     22 N3         50.7390    7.3610  -12.4220 N.pl3     1 IMP        -0.2068
     23 C4         51.9060    6.8330  -11.9850 C.2       1 IMP         0.2141
     24 H1         54.2088    6.5153   -6.9633 H         1 IMP         0.0639
     25 H2         53.3939    5.6437   -5.6205 H         1 IMP         0.0639
     26 H3         51.4925    6.1052   -6.6531 H         1 IMP         0.0650
     27 H4         52.5702    4.1047   -8.6783 H         1 IMP         0.0648
     28 H5         50.3664    4.0502   -6.8887 H         1 IMP         0.2100
     29 H6         50.6629    4.5759  -10.0769 H         1 IMP         0.0677
     30 H7         49.1439    4.7278   -8.2651 H         1 IMP         0.2101
     31 H8         50.7546    7.3260   -9.6500 H         1 IMP         0.1002
     32 H9         54.2257    5.5903  -10.0531 H         1 IMP         0.1177
     33 H10        49.6332    8.0949  -14.1029 H         1 IMP         0.1570
     34 H11        49.9719    7.5326  -11.7564 H         1 IMP         0.2411
@<TRIPOS>BOND
     1    1    2 ar 
     2    1    3 ar 
     3    1    4 ar 
     4    1    5 1  
     5    5    6 1  
     6    6    7 1  
     7    7    8 1  
     8    7    9 1  
     9    8   13 1  
    10    9   10 1  
    11    9   11 1  
    12   11   12 1  
    13   11   13 1  
    14   13   14 1  
    15   14   15 1  
    16   14   23 1  
    17   15   16 2  
    18   16   17 1  
    19   17   18 1  
    20   17   23 2  
    21   18   19 2  
    22   18   20 1  
    23   20   21 2  
    24   21   22 1  
    25   22   23 1  
    26    6   24 1  
    27    6   25 1  
    28    7   26 1  
    29    9   27 1  
    30   10   28 1  
    31   11   29 1  
    32   12   30 1  
    33   13   31 1  
    34   15   32 1  
    35   21   33 1  
    36   22   34 1  
@<TRIPOS>SUBSTRUCTURE
     1 IMP         1

