6mxd_ligand
  -I-interpret- 

 36 38  0  0  0  0  0  0  0  0999 V2000
   55.7690    4.2510   -6.7890 P   0  0  0  0  0
   56.4810    5.4120   -7.4370 O   0  0  0  0  0
   56.1170    2.8510   -7.2370 O   0  0  0  0  0
   55.9720    4.3360   -5.2940 O   0  0  0  0  0
   54.2190    4.4610   -7.0890 O   0  0  0  0  0
   53.5650    5.6610   -6.7070 C   0  0  0  0  0
   52.2400    5.8200   -7.4080 C   0  0  0  0  0
   52.3430    6.8490   -8.4240 O   0  0  0  0  0
   51.7340    4.6030   -8.1660 C   0  0  0  0  0
   51.1100    3.6490   -7.3230 O   0  0  0  0  0
   50.7910    5.2180   -9.1930 C   0  0  0  0  0
   49.5360    5.5240   -8.6040 O   0  0  0  0  0
   51.5050    6.5330   -9.5160 C   0  0  0  0  0
   52.3230    6.4400  -10.7400 N   0  0  0  0  0
   53.6070    5.9740  -10.8630 C   0  0  0  0  0
   53.9750    6.0720  -12.1630 N   0  0  0  0  0
   52.9470    6.5960  -12.8690 C   0  0  0  0  0
   52.7910    6.9050  -14.2150 C   0  0  0  0  0
   53.7760    6.9450  -14.9500 O   0  0  0  0  0
   51.5980    7.4420  -14.6520 N   0  0  0  0  0
   50.5740    7.6700  -13.7560 C   0  0  0  0  0
   50.7390    7.3610  -12.4220 N   0  0  0  0  0
   51.9060    6.8330  -11.9850 C   0  0  0  0  0
   55.5907    2.2181   -6.7430 H   0  0  0  0  0
   55.5231    3.6016   -4.8690 H   0  0  0  0  0
   54.2020    6.5020   -6.9810 H   0  0  0  0  0
   53.3837    5.6268   -5.6327 H   0  0  0  0  0
   51.5529    6.0383   -6.5905 H   0  0  0  0  0
   52.5315    4.0197   -8.6264 H   0  0  0  0  0
   50.8107    2.9048   -7.8504 H   0  0  0  0  0
   50.5957    4.5668  -10.0450 H   0  0  0  0  0
   48.9583    5.9096   -9.2667 H   0  0  0  0  0
   50.7531    7.3035   -9.6864 H   0  0  0  0  0
   54.2262    5.5900  -10.0523 H   0  0  0  0  0
   49.6324    8.0953  -14.1032 H   0  0  0  0  0
   49.9793    7.5309  -11.7629 H   0  0  0  0  0
  1  2  2  0  0  0
  1  3  1  0  0  0
  1  4  1  0  0  0
  1  5  1  0  0  0
  5  6  1  0  0  0
  6  7  1  0  0  0
  7  8  1  0  0  0
  7  9  1  0  0  0
  8 13  1  0  0  0
  9 10  1  0  0  0
  9 11  1  0  0  0
 11 12  1  0  0  0
 11 13  1  0  0  0
 13 14  1  0  0  0
 14 15  4  0  0  0
 14 23  4  0  0  0
 15 16  4  0  0  0
 16 17  4  0  0  0
 17 18  1  0  0  0
 17 23  4  0  0  0
 18 19  2  0  0  0
 18 20  1  0  0  0
 20 21  2  0  0  0
 21 22  1  0  0  0
 22 23  1  0  0  0
  3 24  1  0  0  0
  4 25  1  0  0  0
  6 26  1  0  0  0
  6 27  1  0  0  0
  7 28  1  0  0  0
  9 29  1  0  0  0
 10 30  1  0  0  0
 11 31  1  0  0  0
 12 32  1  0  0  0
 13 33  1  0  0  0
 15 34  1  0  0  0
 21 35  1  0  0  0
 22 36  1  0  0  0
M  END
$$$$
