6ay3_ligand
  -I-interpret- 

 54 58  0  0  0  0  0  0  0  0999 V2000
   15.8180    5.1320   21.3920 C   0  0  0  0  0
   12.3680    3.9320   21.1450 C   0  0  0  0  0
   12.2350    5.2900   20.9650 C   0  0  0  0  0
   14.5790    2.5550   21.5370 C   0  0  0  0  0
   14.4300    4.9460   21.2610 C   0  0  0  0  0
   13.8140    3.6730   21.3300 C   0  0  0  0  0
   15.9570    2.7370   21.6460 C   0  0  0  0  0
   16.5540    3.9950   21.5550 C   0  0  0  0  0
   11.4370    1.7180   21.0320 N   0  0  0  0  0
   11.2390    3.0490   21.0220 C   0  0  0  0  0
   10.3540    0.7630   20.8150 C   0  0  0  0  0
   16.4920    0.7200   23.0340 C   0  0  0  0  0
   17.7220   -0.0510   23.4820 C   0  0  0  0  0
   18.2830   -0.8520   22.3040 C   0  0  0  0  0
   18.2990   -0.0830   21.0010 C   0  0  0  0  0
   17.5520    1.0660   20.8200 C   0  0  0  0  0
   17.5750    1.7220   19.6200 C   0  0  0  0  0
   18.3490    1.2530   18.5490 C   0  0  0  0  0
   19.1340    0.0800   18.7160 C   0  0  0  0  0
   19.0870   -0.5780   19.9480 C   0  0  0  0  0
   19.9770   -0.4910   17.6300 C   0  0  0  0  0
   19.5830   -0.6260   16.2780 C   0  0  0  0  0
   21.2720   -0.9970   17.6760 C   0  0  0  0  0
   22.8700   -2.0290   15.9160 C   0  0  0  0  0
   18.3590    2.0390   17.2550 C   0  0  0  0  0
   17.4530    1.5160   16.3460 F   0  0  0  0  0
   18.0360    3.3500   17.4990 F   0  0  0  0  0
   16.7430    1.5810   21.8530 N   0  0  0  0  0
   20.5840   -1.1450   15.5720 N   0  0  0  0  0
   21.6340   -1.4140   16.4100 N   0  0  0  0  0
   13.4610    5.8790   21.0320 N   0  0  0  0  0
   10.1230    3.5210   20.7300 O   0  0  0  0  0
   16.2760    6.1207   21.3650 H   0  0  0  0  0
   11.2939    5.8131   20.7951 H   0  0  0  0  0
   14.1291    1.5651   21.6132 H   0  0  0  0  0
   17.6396    4.0714   21.6159 H   0  0  0  0  0
   12.3788    1.3630   21.1973 H   0  0  0  0  0
    9.5931    0.8977   21.5837 H   0  0  0  0  0
    9.9136    0.9322   19.8324 H   0  0  0  0  0
   10.7497   -0.2513   20.8674 H   0  0  0  0  0
   16.1889    1.3671   23.8571 H   0  0  0  0  0
   15.7282   -0.0068   22.7576 H   0  0  0  0  0
   17.4486   -0.7335   24.2867 H   0  0  0  0  0
   18.4785    0.6486   23.8374 H   0  0  0  0  0
   17.6391   -1.7201   22.1631 H   0  0  0  0  0
   19.3147   -1.1081   22.5449 H   0  0  0  0  0
   16.9803    2.6267   19.4939 H   0  0  0  0  0
   19.6695   -1.4876   20.0942 H   0  0  0  0  0
   18.6087   -0.3475   15.8764 H   0  0  0  0  0
   21.8987   -1.0549   18.5659 H   0  0  0  0  0
   23.7073   -1.3551   16.0973 H   0  0  0  0  0
   23.0399   -2.9704   16.4385 H   0  0  0  0  0
   22.7784   -2.2171   14.8463 H   0  0  0  0  0
   19.3620    1.9730   16.8333 H   0  0  0  0  0
  1  5  4  0  0  0
  8  1  4  0  0  0
  2  3  4  0  0  0
  6  2  4  0  0  0
  2 10  1  0  0  0
 31  3  4  0  0  0
  4  6  4  0  0  0
  7  4  4  0  0  0
  6  5  4  0  0  0
  5 31  4  0  0  0
  7  8  4  0  0  0
 28  7  1  0  0  0
 10  9  1  0  0  0
  9 11  1  0  0  0
 10 32  2  0  0  0
 12 13  1  0  0  0
 12 28  1  0  0  0
 13 14  1  0  0  0
 14 15  1  0  0  0
 15 16  4  0  0  0
 15 20  4  0  0  0
 16 17  4  0  0  0
 16 28  1  0  0  0
 17 18  4  0  0  0
 18 19  4  0  0  0
 18 25  1  0  0  0
 19 20  4  0  0  0
 19 21  1  0  0  0
 21 22  4  0  0  0
 21 23  4  0  0  0
 22 29  4  0  0  0
 23 30  4  0  0  0
 30 24  1  0  0  0
 25 26  1  0  0  0
 25 27  1  0  0  0
 29 30  4  0  0  0
  1 33  1  0  0  0
  3 34  1  0  0  0
  4 35  1  0  0  0
  8 36  1  0  0  0
  9 37  1  0  0  0
 11 38  1  0  0  0
 11 39  1  0  0  0
 11 40  1  0  0  0
 12 41  1  0  0  0
 12 42  1  0  0  0
 13 43  1  0  0  0
 13 44  1  0  0  0
 14 45  1  0  0  0
 14 46  1  0  0  0
 17 47  1  0  0  0
 20 48  1  0  0  0
 22 49  1  0  0  0
 23 50  1  0  0  0
 24 51  1  0  0  0
 24 52  1  0  0  0
 24 53  1  0  0  0
 25 54  1  0  0  0
M  END
$$$$
