5lce_ligand
  -I-interpret- 

 62 64  0  0  0  0  0  0  0  0999 V2000
   21.8300  -14.0740   24.0580 C   0  0  0  0  0
   22.1390  -13.6180   25.4740 C   0  0  0  0  0
   21.0440  -12.7140   26.0010 C   0  0  0  0  0
   17.8760  -12.8330   21.3940 N   0  0  0  0  0
   19.6870  -13.4000   25.9230 C   0  0  0  0  0
   17.1260  -13.2830   22.4140 C   0  0  0  0  0
   15.4890  -10.3030   20.7380 N   0  0  0  0  0
   19.0060  -13.5170   20.7410 C   0  0  0  0  0
   19.6600  -12.4190   19.9380 C   0  0  0  0  0
   18.5160  -11.4900   19.5680 C   0  0  0  0  0
   17.5890  -11.5250   20.7900 C   0  0  0  0  0
   16.1230  -11.4190   20.3770 C   0  0  0  0  0
   14.0890  -10.0720   20.4090 C   0  0  0  0  0
   13.1840  -10.0750   21.6170 C   0  0  0  0  0
   16.2100  -12.6240   22.8670 O   0  0  0  0  0
   17.4350  -14.6820   23.0190 C   0  0  0  0  0
   17.9770  -14.5020   24.4360 C   0  0  0  0  0
   19.3470  -13.8310   24.5040 C   0  0  0  0  0
   20.4560  -14.7340   23.9730 C   0  0  0  0  0
   16.1680  -15.4260   22.9860 N   0  3  0  0  0
   15.5760  -12.3330   19.7620 O   0  0  0  0  0
   12.4070  -11.2060   21.9180 C   0  0  0  0  0
   12.4830  -12.4530   21.0700 C   0  0  0  0  0
   13.1390  -13.5110   21.7370 O   0  0  0  0  0
   11.5570  -11.1700   23.0180 C   0  0  0  0  0
   11.4670  -10.0490   23.8200 C   0  0  0  0  0
   12.2440   -8.9580   23.5190 C   0  0  0  0  0
   12.1820   -7.5530   24.5430 Cl  0  0  0  0  0
   13.0930   -8.9530   22.4370 C   0  0  0  0  0
   22.5831  -14.8021   23.7566 H   0  0  0  0  0
   21.8362  -13.2018   23.4042 H   0  0  0  0  0
   23.0779  -13.0644   25.4672 H   0  0  0  0  0
   22.2098  -14.4950   26.1174 H   0  0  0  0  0
   21.0144  -11.8093   25.3937 H   0  0  0  0  0
   21.2571  -12.4770   27.0434 H   0  0  0  0  0
   18.9276  -12.6922   26.2554 H   0  0  0  0  0
   19.7184  -14.2901   26.5513 H   0  0  0  0  0
   15.9992   -9.5903   21.2597 H   0  0  0  0  0
   18.6876  -14.3562   20.1226 H   0  0  0  0  0
   19.6880  -13.9767   21.4563 H   0  0  0  0  0
   20.1748  -12.8056   19.0584 H   0  0  0  0  0
   20.4382  -11.9059   20.5031 H   0  0  0  0  0
   18.0073  -11.8077   18.6578 H   0  0  0  0  0
   18.8626  -10.4810   19.3446 H   0  0  0  0  0
   17.7565  -10.6928   21.4738 H   0  0  0  0  0
   13.7666  -10.8811   19.7536 H   0  0  0  0  0
   14.0173   -9.0879   19.9459 H   0  0  0  0  0
   18.1947  -15.2320   22.4637 H   0  0  0  0  0
   18.0855  -15.4974   24.8668 H   0  0  0  0  0
   17.2772  -13.8572   24.9676 H   0  0  0  0  0
   19.2842  -12.9487   23.8671 H   0  0  0  0  0
   20.4766  -15.6382   24.5814 H   0  0  0  0  0
   20.2467  -14.9462   22.9245 H   0  0  0  0  0
   15.8533  -15.5164   22.0200 H   0  0  0  0  0
   16.3090  -16.3532   23.3871 H   0  0  0  0  0
   15.4655  -14.9230   23.5281 H   0  0  0  0  0
   13.0489  -12.2169   20.1688 H   0  0  0  0  0
   11.4657  -12.7727   20.8442 H   0  0  0  0  0
   13.1652  -14.2813   21.1646 H   0  0  0  0  0
   10.9494  -12.0442   23.2521 H   0  0  0  0  0
   10.7919  -10.0310   24.6756 H   0  0  0  0  0
   13.6950   -8.0703   22.2211 H   0  0  0  0  0
  2  1  1  0  0  0
  1 19  1  0  0  0
  3  2  1  0  0  0
  5  3  1  0  0  0
  6  4  1  0  0  0
  4  8  1  0  0  0
  4 11  1  0  0  0
 18  5  1  0  0  0
  6 15  2  0  0  0
 16  6  1  0  0  0
 12  7  1  0  0  0
  7 13  1  0  0  0
  8  9  1  0  0  0
 10  9  1  0  0  0
 11 10  1  0  0  0
 11 12  1  0  0  0
 12 21  2  0  0  0
 13 14  1  0  0  0
 14 22  4  0  0  0
 14 29  4  0  0  0
 17 16  1  0  0  0
 16 20  1  0  0  0
 17 18  1  0  0  0
 18 19  1  0  0  0
 22 23  1  0  0  0
 22 25  4  0  0  0
 23 24  1  0  0  0
 25 26  4  0  0  0
 26 27  4  0  0  0
 27 28  1  0  0  0
 27 29  4  0  0  0
  1 30  1  0  0  0
  1 31  1  0  0  0
  2 32  1  0  0  0
  2 33  1  0  0  0
  3 34  1  0  0  0
  3 35  1  0  0  0
  5 36  1  0  0  0
  5 37  1  0  0  0
  7 38  1  0  0  0
  8 39  1  0  0  0
  8 40  1  0  0  0
  9 41  1  0  0  0
  9 42  1  0  0  0
 10 43  1  0  0  0
 10 44  1  0  0  0
 11 45  1  0  0  0
 13 46  1  0  0  0
 13 47  1  0  0  0
 16 48  1  0  0  0
 17 49  1  0  0  0
 17 50  1  0  0  0
 18 51  1  0  0  0
 19 52  1  0  0  0
 19 53  1  0  0  0
 20 54  1  0  0  0
 20 55  1  0  0  0
 20 56  1  0  0  0
 23 57  1  0  0  0
 23 58  1  0  0  0
 24 59  1  0  0  0
 25 60  1  0  0  0
 26 61  1  0  0  0
 29 62  1  0  0  0
M  END
$$$$
