6plg_ligand
  -I-interpret- 

 56 60  0  0  0  0  0  0  0  0999 V2000
   -9.5570    1.3080  -45.1640 O   0  0  0  0  0
   -9.7420    1.1300  -46.3990 C   0  0  0  0  0
   -9.4770    1.9740  -47.2770 O   0  0  0  0  0
  -10.3250   -0.1530  -46.9100 C   0  0  0  0  0
  -11.7970    0.0470  -46.9070 C   0  0  0  0  0
  -12.5260   -0.3080  -48.0550 C   0  0  0  0  0
  -13.8550   -0.1260  -48.1170 N   0  0  0  0  0
  -14.5070    0.4190  -47.0780 C   0  0  0  0  0
  -13.8270    0.8090  -45.9140 C   0  0  0  0  0
  -12.4530    0.6310  -45.8200 C   0  0  0  0  0
   -9.7280   -1.2710  -46.1260 C   0  0  0  0  0
  -10.3860   -2.0480  -45.1750 C   0  0  0  0  0
   -9.6840   -3.0540  -44.5050 C   0  0  0  0  0
   -8.3840   -1.5100  -46.3750 C   0  0  0  0  0
   -7.6850   -2.5030  -45.7000 C   0  0  0  0  0
   -8.3210   -3.3000  -44.7560 C   0  0  0  0  0
   -7.5660   -4.4060  -44.0280 C   0  0  0  0  0
   -6.5600   -3.9140  -43.0050 C   0  0  0  0  0
   -5.4710   -4.4550  -43.7560 O   0  0  0  0  0
   -6.3650   -4.9860  -44.7530 C   0  0  0  0  0
   -8.4650   -5.4050  -43.4920 N   0  0  0  0  0
   -9.2550   -6.1300  -44.2760 C   0  0  0  0  0
   -9.1820   -6.0750  -45.4980 O   0  0  0  0  0
  -10.3620   -6.8990  -43.6480 C   0  0  0  0  0
  -10.8750   -6.6440  -42.3940 C   0  0  0  0  0
  -11.0880   -7.9160  -44.1890 N   0  0  0  0  0
  -10.8530   -8.4800  -45.5380 C   0  0  0  0  0
  -12.0500   -8.3460  -43.3350 C   0  0  0  0  0
  -13.0370   -9.3330  -43.4020 C   0  0  0  0  0
  -13.8980   -9.5160  -42.3180 C   0  0  0  0  0
  -11.9320   -7.5580  -42.1980 C   0  0  0  0  0
  -12.7870   -7.7470  -41.1290 C   0  0  0  0  0
  -12.7200   -6.7990  -39.6070 Cl  0  0  0  0  0
  -13.7500   -8.7050  -41.1900 C   0  0  0  0  0
  -14.7470   -8.7930  -39.7100 Cl  0  0  0  0  0
   -9.8336    0.5241  -44.6839 H   0  0  0  0  0
  -10.0874   -0.4366  -47.9353 H   0  0  0  0  0
  -12.0037   -0.7383  -48.9095 H   0  0  0  0  0
  -15.5859    0.5615  -47.1396 H   0  0  0  0  0
  -14.3773    1.2516  -45.0837 H   0  0  0  0  0
  -11.9048    0.9364  -44.9287 H   0  0  0  0  0
  -11.4392   -1.8729  -44.9553 H   0  0  0  0  0
  -10.2061   -3.6645  -43.7683 H   0  0  0  0  0
   -7.8644   -0.9045  -47.1176 H   0  0  0  0  0
   -6.6274   -2.6584  -45.9130 H   0  0  0  0  0
   -6.6801   -4.2052  -41.9615 H   0  0  0  0  0
   -6.5475   -2.8566  -42.7406 H   0  0  0  0  0
   -6.2032   -4.7382  -45.8021 H   0  0  0  0  0
   -6.3408   -6.0521  -44.9789 H   0  0  0  0  0
   -8.4929   -5.5568  -42.4837 H   0  0  0  0  0
  -10.5313   -5.8848  -41.6914 H   0  0  0  0  0
  -10.9782   -7.6962  -46.2850 H   0  0  0  0  0
   -9.8395   -8.8773  -45.5928 H   0  0  0  0  0
  -11.5689   -9.2802  -45.7256 H   0  0  0  0  0
  -13.1339   -9.9543  -44.2923 H   0  0  0  0  0
  -14.6743  -10.2805  -42.3514 H   0  0  0  0  0
  1  2  1  0  0  0
  2  3  2  0  0  0
  2  4  1  0  0  0
  4  5  1  0  0  0
  4 11  1  0  0  0
  5  6  4  0  0  0
  5 10  4  0  0  0
  6  7  4  0  0  0
  7  8  4  0  0  0
  8  9  4  0  0  0
  9 10  4  0  0  0
 11 12  4  0  0  0
 11 14  4  0  0  0
 12 13  4  0  0  0
 13 16  4  0  0  0
 14 15  4  0  0  0
 15 16  4  0  0  0
 16 17  1  0  0  0
 17 18  1  0  0  0
 17 20  1  0  0  0
 17 21  1  0  0  0
 18 19  1  0  0  0
 19 20  1  0  0  0
 21 22  1  0  0  0
 22 23  2  0  0  0
 22 24  1  0  0  0
 24 25  4  0  0  0
 24 26  4  0  0  0
 25 31  4  0  0  0
 26 27  1  0  0  0
 26 28  4  0  0  0
 28 29  4  0  0  0
 28 31  4  0  0  0
 29 30  4  0  0  0
 30 34  4  0  0  0
 31 32  4  0  0  0
 32 33  1  0  0  0
 32 34  4  0  0  0
 34 35  1  0  0  0
  1 36  1  0  0  0
  4 37  1  0  0  0
  6 38  1  0  0  0
  8 39  1  0  0  0
  9 40  1  0  0  0
 10 41  1  0  0  0
 12 42  1  0  0  0
 13 43  1  0  0  0
 14 44  1  0  0  0
 15 45  1  0  0  0
 18 46  1  0  0  0
 18 47  1  0  0  0
 20 48  1  0  0  0
 20 49  1  0  0  0
 21 50  1  0  0  0
 25 51  1  0  0  0
 27 52  1  0  0  0
 27 53  1  0  0  0
 27 54  1  0  0  0
 29 55  1  0  0  0
 30 56  1  0  0  0
M  END
$$$$
