2xkc_ligand
  -I-interpret- 

 50 52  0  0  0  0  0  0  0  0999 V2000
   21.1770   -7.2750   14.5330 C   0  0  0  0  0
   22.6500   -7.4280   14.9040 C   0  0  0  0  0
   23.0610   -7.2020   16.2360 C   0  0  0  0  0
   23.6170   -7.7920   13.9040 C   0  0  0  0  0
   23.1850   -8.0450   12.4600 C   0  0  0  0  0
   23.5810   -9.0060   11.8910 O   0  0  0  0  0
   22.4820   -7.0630   11.7500 O   0  0  0  0  0
   24.9780   -7.9240   14.2600 C   0  0  0  0  0
   25.3760   -7.7070   15.5480 C   0  0  0  0  0
   24.3770   -7.3310   16.5780 C   0  0  0  0  0
   24.8230   -7.0650   18.0140 C   0  0  0  0  0
   25.3660   -8.0190   18.7260 N   0  0  0  0  0
   24.6270   -5.7210   18.6060 C   0  0  0  0  0
   24.0060   -4.6720   17.8220 N   0  0  0  0  0
   25.0010   -5.4840   19.8370 N   0  0  0  0  0
   25.5680   -6.4710   20.5740 C   0  0  0  0  0
   25.7530   -7.7720   20.0020 C   0  0  0  0  0
   26.4030   -8.8830   20.8220 C   0  0  0  0  0
   26.9680   -8.5950   22.0290 C   0  0  0  0  0
   26.4600  -10.2640   20.2820 C   0  0  0  0  0
   27.0560  -11.2570   21.0060 C   0  0  0  0  0
   27.0880  -12.5690   20.5150 O   0  0  0  0  0
   26.6840  -12.8380   19.2010 C   0  0  0  0  0
   27.6250  -10.9610   22.2640 C   0  0  0  0  0
   28.2400  -11.9790   22.9990 O   0  0  0  0  0
   29.5720  -12.3100   22.7280 C   0  0  0  0  0
   27.5810   -9.6210   22.7780 C   0  0  0  0  0
   28.1370   -9.3240   24.0240 O   0  0  0  0  0
   27.5360   -9.8340   25.1790 C   0  0  0  0  0
   20.5813   -7.9743   15.1197 H   0  0  0  0  0
   20.8546   -6.2553   14.7437 H   0  0  0  0  0
   21.0471   -7.4865   13.4716 H   0  0  0  0  0
   22.3269   -6.9242   16.9923 H   0  0  0  0  0
   22.2316   -6.3550   12.3480 H   0  0  0  0  0
   25.7128   -8.2000   13.5037 H   0  0  0  0  0
   26.4267   -7.8100   15.8190 H   0  0  0  0  0
   23.7053   -4.8601   16.8656 H   0  0  0  0  0
   23.8696   -3.7457   18.2266 H   0  0  0  0  0
   25.8824   -6.2753   21.5992 H   0  0  0  0  0
   26.9460   -7.5754   22.4138 H   0  0  0  0  0
   26.0260  -10.4860   19.3071 H   0  0  0  0  0
   25.6451  -12.5344   19.0723 H   0  0  0  0  0
   27.3149  -12.2822   18.5073 H   0  0  0  0  0
   26.7788  -13.9059   19.0045 H   0  0  0  0  0
   29.6610  -12.6327   21.6907 H   0  0  0  0  0
   30.2030  -11.4368   22.8936 H   0  0  0  0  0
   29.8861  -13.1175   23.3893 H   0  0  0  0  0
   26.5109   -9.4694   25.2449 H   0  0  0  0  0
   27.5335  -10.9231   25.1351 H   0  0  0  0  0
   28.0968   -9.5056   26.0541 H   0  0  0  0  0
  1  2  1  0  0  0
  2  3  4  0  0  0
  2  4  4  0  0  0
  3 10  4  0  0  0
  4  5  1  0  0  0
  4  8  4  0  0  0
  5  6  2  0  0  0
  5  7  1  0  0  0
  8  9  4  0  0  0
  9 10  4  0  0  0
 10 11  1  0  0  0
 11 12  4  0  0  0
 11 13  4  0  0  0
 12 17  4  0  0  0
 13 14  1  0  0  0
 13 15  4  0  0  0
 15 16  4  0  0  0
 16 17  4  0  0  0
 17 18  1  0  0  0
 18 19  4  0  0  0
 18 20  4  0  0  0
 19 27  4  0  0  0
 20 21  4  0  0  0
 21 22  1  0  0  0
 21 24  4  0  0  0
 22 23  1  0  0  0
 24 25  1  0  0  0
 24 27  4  0  0  0
 25 26  1  0  0  0
 27 28  1  0  0  0
 28 29  1  0  0  0
  1 30  1  0  0  0
  1 31  1  0  0  0
  1 32  1  0  0  0
  3 33  1  0  0  0
  7 34  1  0  0  0
  8 35  1  0  0  0
  9 36  1  0  0  0
 14 37  1  0  0  0
 14 38  1  0  0  0
 16 39  1  0  0  0
 19 40  1  0  0  0
 20 41  1  0  0  0
 23 42  1  0  0  0
 23 43  1  0  0  0
 23 44  1  0  0  0
 26 45  1  0  0  0
 26 46  1  0  0  0
 26 47  1  0  0  0
 29 48  1  0  0  0
 29 49  1  0  0  0
 29 50  1  0  0  0
M  END
$$$$
