4zls_ligand
  -I-interpret- 

 91 93  0  0  0  0  0  0  0  0999 V2000
   10.9090   17.7640   20.8110 O   0  0  0  0  0
   10.1950   17.1420   19.7360 C   0  0  0  0  0
   12.0050   18.4170   20.3460 C   0  0  0  0  0
   12.4990   18.1290   19.0740 C   0  0  0  0  0
   13.6590   18.7650   18.6310 C   0  0  0  0  0
   14.2730   19.7400   19.4000 C   0  0  0  0  0
   13.7610   20.0260   20.6510 C   0  0  0  0  0
   12.6730   19.3190   21.1620 C   0  0  0  0  0
   15.5860   20.7100   18.7530 S   0  0  0  0  0
   16.5140   21.0930   19.8450 O   0  0  0  0  0
   16.2280   19.9870   17.6150 O   0  0  0  0  0
   15.0120   22.0890   18.1010 N   0  0  0  0  0
   13.9010   21.9910   17.1940 C   0  0  0  0  0
   14.1110   22.9590   16.0120 C   0  0  0  0  0
   15.5540   22.8430   15.5100 C   0  0  0  0  0
   13.1450   22.6230   14.8650 C   0  0  0  0  0
   14.9740   23.1970   19.0500 C   0  0  0  0  0
   15.8520   24.3170   18.4630 C   0  0  0  0  0
   15.3480   25.5510   18.9660 O   0  0  0  0  0
   17.3190   24.1050   18.8550 C   0  0  0  0  0
   18.1730   25.1400   18.2570 N   0  0  0  0  0
   18.6310   25.0530   16.9980 C   0  0  0  0  0
   18.4700   24.0130   16.3450 O   0  0  0  0  0
   19.2590   26.1440   16.5110 O   0  0  0  0  0
   19.7180   26.2270   15.1780 C   0  0  0  0  0
   20.2150   27.6640   14.8550 C   0  0  0  0  0
   20.8990   25.2670   15.0340 C   0  0  0  0  0
   18.6460   25.9080   14.1420 C   0  0  0  0  0
   17.5300   24.0960   20.3700 C   0  0  0  0  0
   19.8610   23.0510   20.4120 C   0  0  0  0  0
   21.2330   23.1610   20.6250 C   0  0  0  0  0
   21.7560   24.2500   21.3260 C   0  0  0  0  0
   20.8950   25.2770   21.6920 C   0  0  0  0  0
   19.5380   25.2220   21.3820 C   0  0  0  0  0
   19.0230   24.1160   20.7230 C   0  0  0  0  0
   22.1020   22.0880   20.3950 C   0  0  0  0  0
   23.3910   22.3220   19.9150 C   0  0  0  0  0
   24.2420   21.2440   19.6940 C   0  0  0  0  0
   23.7970   19.9400   19.9540 C   0  0  0  0  0
   22.5140   19.7080   20.4310 C   0  0  0  0  0
   21.6640   20.7960   20.6520 C   0  0  0  0  0
   25.5030   21.4390   19.2270 O   0  0  0  0  0
   25.7820   22.7900   18.8670 C   0  0  0  0  0
   22.0360   18.4680   20.6980 O   0  0  0  0  0
   22.9870   17.4350   20.3910 C   0  0  0  0  0
    9.8761   17.9038   19.0246 H   0  0  0  0  0
   10.8463   16.4255   19.2355 H   0  0  0  0  0
    9.3212   16.6252   20.1329 H   0  0  0  0  0
   11.9839   17.4141   18.4323 H   0  0  0  0  0
   14.0878   18.4911   17.6671 H   0  0  0  0  0
   14.2148   20.8170   21.2481 H   0  0  0  0  0
   12.3506   19.4733   22.1917 H   0  0  0  0  0
   12.9817   22.2531   17.7178 H   0  0  0  0  0
   13.8295   20.9704   16.8180 H   0  0  0  0  0
   13.9157   23.9763   16.3513 H   0  0  0  0  0
   16.2399   23.0990   16.3175 H   0  0  0  0  0
   15.7422   21.8207   15.1821 H   0  0  0  0  0
   15.7028   23.5271   14.6745 H   0  0  0  0  0
   13.3267   21.6032   14.5256 H   0  0  0  0  0
   12.1179   22.7120   15.2189 H   0  0  0  0  0
   13.3077   23.3163   14.0398 H   0  0  0  0  0
   15.3463   22.8842   20.0255 H   0  0  0  0  0
   13.9516   23.5443   19.1989 H   0  0  0  0  0
   15.8160   24.3166   17.3736 H   0  0  0  0  0
   15.8739   26.2753   18.6191 H   0  0  0  0  0
   17.5975   23.1237   18.4708 H   0  0  0  0  0
   18.4269   25.9532   18.8180 H   0  0  0  0  0
   19.3952   28.3695   14.9900 H   0  0  0  0  0
   21.0336   27.9234   15.5264 H   0  0  0  0  0
   20.5635   27.7031   13.8230 H   0  0  0  0  0
   21.6886   25.5579   15.7268 H   0  0  0  0  0
   20.5707   24.2526   15.2605 H   0  0  0  0  0
   21.2767   25.3084   14.0124 H   0  0  0  0  0
   18.2818   24.8927   14.2987 H   0  0  0  0  0
   17.8203   26.6118   14.2469 H   0  0  0  0  0
   19.0722   25.9922   13.1423 H   0  0  0  0  0
   17.0886   23.1863   20.7771 H   0  0  0  0  0
   17.0611   24.9851   20.7917 H   0  0  0  0  0
   19.4446   22.1309   20.0019 H   0  0  0  0  0
   22.8151   24.2931   21.5800 H   0  0  0  0  0
   21.2876   26.1397   22.2304 H   0  0  0  0  0
   18.8817   26.0476   21.6572 H   0  0  0  0  0
   23.7278   23.3392   19.7152 H   0  0  0  0  0
   24.4667   19.0979   19.7794 H   0  0  0  0  0
   20.6543   20.6292   21.0272 H   0  0  0  0  0
   25.0939   23.1051   18.0826 H   0  0  0  0  0
   25.6575   23.4305   19.7402 H   0  0  0  0  0
   26.8071   22.8636   18.5040 H   0  0  0  0  0
   23.2387   17.4779   19.3313 H   0  0  0  0  0
   23.8880   17.5839   20.9861 H   0  0  0  0  0
   22.5530   16.4626   20.6236 H   0  0  0  0  0
  1  2  1  0  0  0
  3  1  1  0  0  0
  4  3  4  0  0  0
  8  3  4  0  0  0
  5  4  4  0  0  0
  6  5  4  0  0  0
  6  7  4  0  0  0
  9  6  1  0  0  0
  7  8  4  0  0  0
  9 10  2  0  0  0
  9 11  2  0  0  0
 12  9  1  0  0  0
 12 13  1  0  0  0
 17 12  1  0  0  0
 13 14  1  0  0  0
 14 15  1  0  0  0
 14 16  1  0  0  0
 18 17  1  0  0  0
 18 19  1  0  0  0
 20 18  1  0  0  0
 20 21  1  0  0  0
 29 20  1  0  0  0
 21 22  1  0  0  0
 22 23  2  0  0  0
 22 24  1  0  0  0
 24 25  1  0  0  0
 25 26  1  0  0  0
 25 27  1  0  0  0
 25 28  1  0  0  0
 35 29  1  0  0  0
 30 31  4  0  0  0
 30 35  4  0  0  0
 31 32  4  0  0  0
 31 36  1  0  0  0
 32 33  4  0  0  0
 33 34  4  0  0  0
 34 35  4  0  0  0
 36 37  4  0  0  0
 36 41  4  0  0  0
 37 38  4  0  0  0
 38 39  4  0  0  0
 38 42  1  0  0  0
 39 40  4  0  0  0
 40 41  4  0  0  0
 40 44  1  0  0  0
 42 43  1  0  0  0
 44 45  1  0  0  0
  2 46  1  0  0  0
  2 47  1  0  0  0
  2 48  1  0  0  0
  4 49  1  0  0  0
  5 50  1  0  0  0
  7 51  1  0  0  0
  8 52  1  0  0  0
 13 53  1  0  0  0
 13 54  1  0  0  0
 14 55  1  0  0  0
 15 56  1  0  0  0
 15 57  1  0  0  0
 15 58  1  0  0  0
 16 59  1  0  0  0
 16 60  1  0  0  0
 16 61  1  0  0  0
 17 62  1  0  0  0
 17 63  1  0  0  0
 18 64  1  0  0  0
 19 65  1  0  0  0
 20 66  1  0  0  0
 21 67  1  0  0  0
 26 68  1  0  0  0
 26 69  1  0  0  0
 26 70  1  0  0  0
 27 71  1  0  0  0
 27 72  1  0  0  0
 27 73  1  0  0  0
 28 74  1  0  0  0
 28 75  1  0  0  0
 28 76  1  0  0  0
 29 77  1  0  0  0
 29 78  1  0  0  0
 30 79  1  0  0  0
 32 80  1  0  0  0
 33 81  1  0  0  0
 34 82  1  0  0  0
 37 83  1  0  0  0
 39 84  1  0  0  0
 41 85  1  0  0  0
 43 86  1  0  0  0
 43 87  1  0  0  0
 43 88  1  0  0  0
 45 89  1  0  0  0
 45 90  1  0  0  0
 45 91  1  0  0  0
M  END
$$$$
