5q0e_ligand
  -I-interpret- 

 72 76  0  0  0  0  0  0  0  0999 V2000
   37.7920  -17.1240   28.1300 C   0  0  0  0  0
   39.8750  -20.9410   28.6050 C   0  0  0  0  0
   39.2370  -18.7560   29.4390 C   0  0  0  0  0
   41.3710  -20.8720   28.6730 C   0  0  0  0  0
   39.4240  -21.9370   27.5270 C   0  0  0  0  0
   44.4630  -21.3560   30.3330 C   0  0  0  0  0
   45.5890  -20.5330   30.4100 C   0  0  0  0  0
   46.6250  -20.8220   31.2830 C   0  0  0  0  0
   46.5530  -21.9380   32.1180 C   0  0  0  0  0
   41.1480  -25.2740   28.9060 C   0  0  0  0  0
   40.1780  -24.0710   28.9250 C   0  0  0  0  0
   33.8130  -14.1530   29.6160 Cl  0  0  0  0  0
   36.9040  -13.5760   27.1230 C   0  0  0  0  0
   35.7630  -13.3690   27.8930 C   0  0  0  0  0
   35.2760  -14.4020   28.6750 C   0  0  0  0  0
   35.9120  -15.6330   28.7250 C   0  0  0  0  0
   37.0690  -15.8530   27.9590 C   0  0  0  0  0
   37.5330  -14.8250   27.1190 C   0  0  0  0  0
   38.5830  -15.0710   26.1770 N   0  0  0  0  0
   38.6070  -15.0540   24.8390 C   0  0  0  0  0
   39.8000  -15.3740   24.4160 N   0  0  0  0  0
   40.5370  -15.5990   25.5360 N   0  0  0  0  0
   39.8190  -15.4250   26.6040 N   0  0  0  0  0
   38.4450  -17.5200   29.2230 C   0  0  0  0  0
   39.8000  -19.0010   30.5030 O   0  0  0  0  0
   39.2710  -19.6310   28.4150 N   0  0  0  0  0
   45.4290  -22.7580   32.0570 C   0  0  0  0  0
   44.3920  -22.4890   31.1720 C   0  0  0  0  0
   42.1620  -20.6150   27.6080 N   0  0  0  0  0
   43.4600  -20.7180   28.0250 C   0  0  0  0  0
   43.4110  -21.0430   29.3510 C   0  0  0  0  0
   42.0820  -21.1350   29.7510 N   0  0  0  0  0
   43.3350  -23.4170   31.0140 N   0  0  0  0  0
   40.0670  -23.3450   27.5610 C   0  0  0  0  0
   42.1140  -25.2930   30.0960 C   0  0  0  0  0
   43.2220  -24.2710   29.9710 C   0  0  0  0  0
   47.5900  -22.3650   32.9980 N   0  0  0  0  0
   48.8600  -21.8780   33.0800 C   0  0  0  0  0
   49.4620  -22.3640   34.1840 O   0  0  0  0  0
   49.3880  -21.1190   32.2930 O   0  0  0  0  0
   50.8450  -21.9730   34.3930 C   0  0  0  0  0
   43.9630  -24.2450   28.9890 O   0  0  0  0  0
   40.4150  -26.6100   28.8200 C   0  0  0  0  0
   37.7936  -17.8075   27.2809 H   0  0  0  0  0
   39.5210  -21.3056   29.5693 H   0  0  0  0  0
   39.7175  -21.4979   26.5735 H   0  0  0  0  0
   38.3576  -22.0919   27.6913 H   0  0  0  0  0
   45.6534  -19.6503   29.7737 H   0  0  0  0  0
   47.5011  -20.1744   31.3180 H   0  0  0  0  0
   41.7389  -25.1388   28.0001 H   0  0  0  0  0
   40.5621  -23.3519   29.6485 H   0  0  0  0  0
   39.1879  -24.4524   29.1746 H   0  0  0  0  0
   37.3084  -12.7621   26.5213 H   0  0  0  0  0
   35.2581  -12.4031   27.8802 H   0  0  0  0  0
   35.5155  -16.4278   29.3568 H   0  0  0  0  0
   37.7589  -14.8099   24.1992 H   0  0  0  0  0
   38.3893  -16.8425   30.0751 H   0  0  0  0  0
   38.8749  -19.3761   27.5103 H   0  0  0  0  0
   45.3616  -23.6250   32.7142 H   0  0  0  0  0
   44.3549  -20.5703   27.4204 H   0  0  0  0  0
   42.6119  -23.4435   31.7329 H   0  0  0  0  0
   41.0953  -23.1978   27.2309 H   0  0  0  0  0
   39.4133  -23.9726   26.9554 H   0  0  0  0  0
   42.5745  -26.2802   30.1353 H   0  0  0  0  0
   41.5420  -25.0558   30.9930 H   0  0  0  0  0
   47.3543  -23.1219   33.6399 H   0  0  0  0  0
   51.4482  -22.3114   33.5505 H   0  0  0  0  0
   50.9063  -20.8876   34.4727 H   0  0  0  0  0
   51.2148  -22.4276   35.3121 H   0  0  0  0  0
   39.7587  -26.7191   29.6834 H   0  0  0  0  0
   39.8225  -26.6397   27.9056 H   0  0  0  0  0
   41.1422  -27.4219   28.8098 H   0  0  0  0  0
  1 17  1  0  0  0
 24  1  2  0  0  0
  4  2  1  0  0  0
  2  5  1  0  0  0
  2 26  1  0  0  0
  3 24  1  0  0  0
  3 25  2  0  0  0
 26  3  1  0  0  0
 29  4  4  0  0  0
  4 32  4  0  0  0
  5 34  1  0  0  0
  6  7  4  0  0  0
  6 28  4  0  0  0
 31  6  1  0  0  0
  7  8  4  0  0  0
  8  9  4  0  0  0
 27  9  4  0  0  0
  9 37  1  0  0  0
 11 10  1  0  0  0
 10 35  1  0  0  0
 10 43  1  0  0  0
 34 11  1  0  0  0
 15 12  1  0  0  0
 13 14  4  0  0  0
 18 13  4  0  0  0
 15 14  4  0  0  0
 16 15  4  0  0  0
 17 16  4  0  0  0
 17 18  4  0  0  0
 18 19  1  0  0  0
 19 20  4  0  0  0
 19 23  4  0  0  0
 20 21  4  0  0  0
 22 21  4  0  0  0
 23 22  4  0  0  0
 28 27  4  0  0  0
 28 33  1  0  0  0
 30 29  4  0  0  0
 30 31  4  0  0  0
 31 32  4  0  0  0
 33 36  1  0  0  0
 35 36  1  0  0  0
 36 42  2  0  0  0
 37 38  1  0  0  0
 38 39  1  0  0  0
 38 40  2  0  0  0
 39 41  1  0  0  0
  1 44  1  0  0  0
  2 45  1  0  0  0
  5 46  1  0  0  0
  5 47  1  0  0  0
  7 48  1  0  0  0
  8 49  1  0  0  0
 10 50  1  0  0  0
 11 51  1  0  0  0
 11 52  1  0  0  0
 13 53  1  0  0  0
 14 54  1  0  0  0
 16 55  1  0  0  0
 20 56  1  0  0  0
 24 57  1  0  0  0
 26 58  1  0  0  0
 27 59  1  0  0  0
 30 60  1  0  0  0
 33 61  1  0  0  0
 34 62  1  0  0  0
 34 63  1  0  0  0
 35 64  1  0  0  0
 35 65  1  0  0  0
 37 66  1  0  0  0
 41 67  1  0  0  0
 41 68  1  0  0  0
 41 69  1  0  0  0
 43 70  1  0  0  0
 43 71  1  0  0  0
 43 72  1  0  0  0
M  END
$$$$
