3jqg_ligand
  -I-interpret- 

 32 33  0  0  0  0  0  0  0  0999 V2000
    9.8370  -11.2870   14.4320 C   0  0  0  0  0
    8.5150  -10.8630   14.7560 C   0  0  0  0  0
    8.3040   -9.5260   15.1660 C   0  0  0  0  0
    9.3660   -8.6970   15.2120 N   0  0  0  0  0
   10.8370  -10.4000   14.5120 N   0  0  0  0  0
    3.6200  -14.3990   16.7080 C   0  0  0  0  0
    4.6220  -15.4440   16.5670 O   0  0  0  0  0
    5.6410  -15.0030   15.7860 C   0  0  0  0  0
    5.3490  -14.5400   14.5030 C   0  0  0  0  0
    6.3590  -14.0630   13.6740 C   0  0  0  0  0
    6.9540  -15.0040   16.2550 C   0  0  0  0  0
    7.9670  -14.5180   15.4200 C   0  0  0  0  0
    7.6740  -14.0460   14.1260 C   0  0  0  0  0
    8.7380  -13.5180   13.1440 C   0  0  0  0  0
   10.3140  -12.9620   13.9050 S   0  0  0  0  0
   10.6100   -9.1220   14.9000 C   0  0  0  0  0
   11.6300   -8.2720   14.9750 N   0  0  0  0  0
    7.0810   -9.0380   15.5110 N   0  0  0  0  0
    7.6790  -11.5592   14.6887 H   0  0  0  0  0
    4.0741  -13.5218   17.1689 H   0  0  0  0  0
    3.2320  -14.1343   15.7244 H   0  0  0  0  0
    2.8057  -14.7605   17.3360 H   0  0  0  0  0
    4.3190  -14.5521   14.1465 H   0  0  0  0  0
    6.1204  -13.7036   12.6730 H   0  0  0  0  0
    7.1872  -15.3761   17.2526 H   0  0  0  0  0
    8.9970  -14.5047   15.7764 H   0  0  0  0  0
    8.3040  -12.6443   12.6578 H   0  0  0  0  0
    8.9891  -14.3483   12.4839 H   0  0  0  0  0
   11.4699   -7.3077   15.2662 H   0  0  0  0  0
   12.5724   -8.5844   14.7413 H   0  0  0  0  0
    6.2623   -9.6456   15.4806 H   0  0  0  0  0
    6.9832   -8.0647   15.8000 H   0  0  0  0  0
  1  2  4  0  0  0
  1  5  4  0  0  0
 15  1  1  0  0  0
  2  3  4  0  0  0
  3  4  4  0  0  0
  3 18  1  0  0  0
 16  4  4  0  0  0
  5 16  4  0  0  0
  7  6  1  0  0  0
  8  7  1  0  0  0
  9  8  4  0  0  0
 11  8  4  0  0  0
 10  9  4  0  0  0
 13 10  4  0  0  0
 12 11  4  0  0  0
 13 12  4  0  0  0
 14 13  1  0  0  0
 14 15  1  0  0  0
 16 17  1  0  0  0
  2 19  1  0  0  0
  6 20  1  0  0  0
  6 21  1  0  0  0
  6 22  1  0  0  0
  9 23  1  0  0  0
 10 24  1  0  0  0
 11 25  1  0  0  0
 12 26  1  0  0  0
 14 27  1  0  0  0
 14 28  1  0  0  0
 17 29  1  0  0  0
 17 30  1  0  0  0
 18 31  1  0  0  0
 18 32  1  0  0  0
M  END
$$$$
