5byy_ligand
  -I-interpret- 

 65 69  0  0  0  0  0  0  0  0999 V2000
    3.0360  -49.5940  -11.5050 C   0  0  0  0  0
    4.2350  -48.4940   -9.7110 C   0  0  0  0  0
    4.3080  -49.4260   -8.6880 C   0  0  0  0  0
    4.4100  -49.0100   -7.3540 C   0  0  0  0  0
    4.4580  -47.6450   -7.0810 C   0  0  0  0  0
    4.4090  -46.7110   -8.0950 C   0  0  0  0  0
    4.3030  -47.1110   -9.4250 C   0  0  0  0  0
    3.7590  -44.8850  -10.5060 C   0  0  0  0  0
    2.8060  -43.1800   -9.2860 C   0  0  0  0  0
    3.1010  -41.6190   -7.4510 C   0  0  0  0  0
    4.6350  -39.5610   -6.3820 C   0  0  0  0  0
    3.9520  -39.3600   -7.5710 C   0  0  0  0  0
    3.1780  -40.3820   -8.1240 C   0  0  0  0  0
    2.4790  -40.0360   -9.4070 C   0  0  0  0  0
    1.6070  -40.5320  -11.6750 C   0  0  0  0  0
    3.7270  -51.1890   -6.2880 C   0  0  0  0  0
    4.2130  -51.3580   -3.8310 C   0  0  0  0  0
    4.9430  -50.0370   -3.9090 C   0  0  0  0  0
    2.0170  -38.9150   -9.5590 O   0  0  0  0  0
    2.3130  -40.9880  -10.4770 N   0  0  0  0  0
    2.7950  -42.3280  -10.4430 C   0  0  0  0  0
    3.3260  -42.9370  -11.5890 C   0  0  0  0  0
    3.8060  -44.1880  -11.6520 N   0  0  0  0  0
    4.5570  -40.7720   -5.7310 C   0  0  0  0  0
    3.7970  -41.8040   -6.2560 C   0  0  0  0  0
    2.2800  -42.6780   -8.0370 N   0  0  0  0  0
    1.6520  -43.6490   -7.1380 C   0  0  0  0  0
    3.2750  -44.4330   -9.3360 N   0  0  0  0  0
    4.2260  -46.1680  -10.4690 N   0  0  0  0  0
    4.1520  -48.8330  -11.0350 O   0  0  0  0  0
    3.2300  -49.8140  -12.9500 C   0  0  0  0  0
    4.4780  -49.9290   -6.3130 N   0  0  0  0  0
    5.5350  -49.8380   -5.3000 C   0  0  0  0  0
    3.6470  -51.5270   -2.5310 O   0  0  0  0  0
    3.1390  -51.4260   -4.8940 C   0  0  0  0  0
    2.1042  -49.0590  -11.3216 H   0  0  0  0  0
    2.9739  -50.5463  -10.9784 H   0  0  0  0  0
    4.2859  -50.4902   -8.9228 H   0  0  0  0  0
    4.5357  -47.3086   -6.0471 H   0  0  0  0  0
    4.4537  -45.6492   -7.8530 H   0  0  0  0  0
    5.2371  -38.7564   -5.9599 H   0  0  0  0  0
    4.0195  -38.3974   -8.0779 H   0  0  0  0  0
    0.5986  -40.2192  -11.4040 H   0  0  0  0  0
    2.1441  -39.6910  -12.1137 H   0  0  0  0  0
    1.5543  -41.3473  -12.3965 H   0  0  0  0  0
    4.3993  -52.0103   -6.5362 H   0  0  0  0  0
    2.9152  -51.1352   -7.0134 H   0  0  0  0  0
    4.9221  -52.1665   -4.0085 H   0  0  0  0  0
    5.7498  -50.0335   -3.1760 H   0  0  0  0  0
    4.2395  -49.2301   -3.7038 H   0  0  0  0  0
    3.3508  -42.3451  -12.5040 H   0  0  0  0  0
    5.0972  -40.9194   -4.7959 H   0  0  0  0  0
    3.7426  -42.7603   -5.7358 H   0  0  0  0  0
    0.8075  -44.1171   -7.6437 H   0  0  0  0  0
    2.3806  -44.4116   -6.8628 H   0  0  0  0  0
    1.3023  -43.1383   -6.2408 H   0  0  0  0  0
    4.5853  -46.5058  -11.3619 H   0  0  0  0  0
    3.2784  -48.8516  -13.4595 H   0  0  0  0  0
    4.1599  -50.3592  -13.1116 H   0  0  0  0  0
    2.3946  -50.3932  -13.3434 H   0  0  0  0  0
    6.2787  -50.6125   -5.4873 H   0  0  0  0  0
    5.9999  -48.8536   -5.3543 H   0  0  0  0  0
    3.1858  -52.3680   -2.4909 H   0  0  0  0  0
    2.6870  -52.4176   -4.8701 H   0  0  0  0  0
    2.3986  -50.6521   -4.6916 H   0  0  0  0  0
 30  1  1  0  0  0
  1 31  1  0  0  0
  3  2  4  0  0  0
  2  7  4  0  0  0
  2 30  1  0  0  0
  4  3  4  0  0  0
  4  5  4  0  0  0
 32  4  1  0  0  0
  5  6  4  0  0  0
  6  7  4  0  0  0
  7 29  1  0  0  0
  8 23  4  0  0  0
  8 28  4  0  0  0
 29  8  1  0  0  0
  9 21  4  0  0  0
  9 26  1  0  0  0
 28  9  4  0  0  0
 10 13  4  0  0  0
 10 25  4  0  0  0
 26 10  1  0  0  0
 12 11  4  0  0  0
 11 24  4  0  0  0
 13 12  4  0  0  0
 13 14  1  0  0  0
 14 19  2  0  0  0
 14 20  1  0  0  0
 20 15  1  0  0  0
 16 32  1  0  0  0
 35 16  1  0  0  0
 17 18  1  0  0  0
 17 34  1  0  0  0
 17 35  1  0  0  0
 18 33  1  0  0  0
 20 21  1  0  0  0
 21 22  4  0  0  0
 22 23  4  0  0  0
 24 25  4  0  0  0
 26 27  1  0  0  0
 32 33  1  0  0  0
  1 36  1  0  0  0
  1 37  1  0  0  0
  3 38  1  0  0  0
  5 39  1  0  0  0
  6 40  1  0  0  0
 11 41  1  0  0  0
 12 42  1  0  0  0
 15 43  1  0  0  0
 15 44  1  0  0  0
 15 45  1  0  0  0
 16 46  1  0  0  0
 16 47  1  0  0  0
 17 48  1  0  0  0
 18 49  1  0  0  0
 18 50  1  0  0  0
 22 51  1  0  0  0
 24 52  1  0  0  0
 25 53  1  0  0  0
 27 54  1  0  0  0
 27 55  1  0  0  0
 27 56  1  0  0  0
 29 57  1  0  0  0
 31 58  1  0  0  0
 31 59  1  0  0  0
 31 60  1  0  0  0
 33 61  1  0  0  0
 33 62  1  0  0  0
 34 63  1  0  0  0
 35 64  1  0  0  0
 35 65  1  0  0  0
M  END
$$$$
