3cib_ligand
  -I-interpret- 

 90 93  0  0  0  0  0  0  0  0999 V2000
   27.0260   10.8080   19.1370 F   0  0  0  0  0
   23.0830   13.3590   18.5300 F   0  0  0  0  0
   26.9670   15.4970   24.5220 C   0  0  0  0  0
   27.1190   14.2850   23.7900 C   0  0  0  0  0
   25.9710   13.4800   23.4990 C   0  0  0  0  0
   24.6770   13.8930   23.9290 C   0  0  0  0  0
   24.5280   15.1130   24.6560 C   0  0  0  0  0
   25.6760   15.9110   24.9520 C   0  0  0  0  0
   28.4540   13.8480   23.3730 C   0  0  0  0  0
   28.7000   13.6420   22.0440 N   0  0  0  0  0
   29.3310   13.6560   24.2090 O   0  0  0  0  0
   30.0440   13.1900   21.7000 C   0  0  0  0  0
   27.7220   13.8510   20.9750 C   0  0  0  0  0
   28.2290   14.9260   20.0160 C   0  0  0  0  0
   28.7940   16.1390   20.7520 C   0  0  0  0  0
   30.0120   11.7180   21.2070 C   0  0  0  0  0
   29.1930   10.7760   22.1100 C   0  0  0  0  0
   25.5260   17.1700   25.7040 C   0  0  0  0  0
   23.5000   13.0770   23.6160 C   0  0  0  0  0
   22.3790   13.5510   23.4840 O   0  0  0  0  0
   23.7510   11.7520   23.4810 N   0  0  0  0  0
   22.6520   10.8310   23.1420 C   0  0  0  0  0
   22.1250   10.0290   24.3540 C   0  0  0  0  0
   21.2030    9.0310   23.8910 O   0  0  0  0  0
   23.1230    9.8710   22.0330 C   0  0  0  0  0
   23.8000   10.6420   20.9170 C   0  0  0  0  0
   25.1440   10.3410   20.5500 C   0  0  0  0  0
   25.7740   11.0720   19.4940 C   0  0  0  0  0
   25.0680   12.0950   18.8120 C   0  0  0  0  0
   23.7330   12.3950   19.1770 C   0  0  0  0  0
   23.0940   11.6750   20.2240 C   0  0  0  0  0
   21.3970   10.8940   25.3900 C   0  0  0  0  0
   20.0980   11.4990   24.8210 C   0  0  0  0  0
   19.2700   12.1920   25.9060 C   0  0  0  0  0
   19.1350   11.3150   27.1530 C   0  0  0  0  0
   20.4750   10.8010   27.6430 C   0  0  0  0  0
   21.1010   10.0310   26.5560 N   0  3  0  0  0
   17.9180   12.7260   25.3740 C   0  0  0  0  0
   16.9520   11.5900   25.0960 C   0  0  0  0  0
   16.0490   11.1570   26.1120 C   0  0  0  0  0
   15.1370   10.0880   25.8540 C   0  0  0  0  0
   15.1310    9.4540   24.5780 C   0  0  0  0  0
   16.0330    9.8900   23.5650 C   0  0  0  0  0
   16.9420   10.9560   23.8210 C   0  0  0  0  0
   27.8400   16.1074   24.7528 H   0  0  0  0  0
   26.0876   12.5477   22.9464 H   0  0  0  0  0
   23.5400   15.4352   24.9847 H   0  0  0  0  0
   30.6768   13.2537   22.5852 H   0  0  0  0  0
   30.4376   13.8220   20.9039 H   0  0  0  0  0
   26.7752   14.1719   21.4093 H   0  0  0  0  0
   27.5787   12.9185   20.4291 H   0  0  0  0  0
   27.3885   15.2605   19.4079 H   0  0  0  0  0
   29.0281   14.4930   19.4143 H   0  0  0  0  0
   28.0151   16.5804   21.3738 H   0  0  0  0  0
   29.6278   15.8254   21.3800 H   0  0  0  0  0
   29.1409   16.8740   20.0257 H   0  0  0  0  0
   31.0394   11.3539   21.2053 H   0  0  0  0  0
   29.5416   11.7152   20.2237 H   0  0  0  0  0
   29.6212   10.7724   23.1123 H   0  0  0  0  0
   28.1612   11.1246   22.1556 H   0  0  0  0  0
   29.2191    9.7669   21.6987 H   0  0  0  0  0
   26.1089   17.1142   26.6234 H   0  0  0  0  0
   25.8840   18.0002   25.0952 H   0  0  0  0  0
   24.4747   17.3232   25.9475 H   0  0  0  0  0
   24.6968   11.3939   23.6135 H   0  0  0  0  0
   21.8161   11.4389   22.7960 H   0  0  0  0  0
   22.9983    9.5929   24.8389 H   0  0  0  0  0
   20.8727    8.5299   24.6403 H   0  0  0  0  0
   22.2580    9.3463   21.6273 H   0  0  0  0  0
   23.8345    9.1621   22.4564 H   0  0  0  0  0
   25.6903    9.5558   21.0726 H   0  0  0  0  0
   25.5519   12.6496   18.0081 H   0  0  0  0  0
   22.0657   11.9106   20.4984 H   0  0  0  0  0
   22.0293   11.7344   25.6763 H   0  0  0  0  0
   19.5007   10.6913   24.3981 H   0  0  0  0  0
   20.3666   12.2410   24.0690 H   0  0  0  0  0
   19.8193   13.0808   26.2164 H   0  0  0  0  0
   18.5163   10.4551   26.8963 H   0  0  0  0  0
   18.6944   11.9197   27.9456 H   0  0  0  0  0
   20.3344   10.1660   28.5177 H   0  0  0  0  0
   21.1151   11.6368   27.9255 H   0  0  0  0  0
   21.9765    9.6360   26.8992 H   0  0  0  0  0
   20.4554    9.2978   26.2628 H   0  0  0  0  0
   18.0982   13.2655   24.4442 H   0  0  0  0  0
   17.4800   13.3788   26.1290 H   0  0  0  0  0
   16.0549   11.6430   27.0876 H   0  0  0  0  0
   14.4476    9.7583   26.6312 H   0  0  0  0  0
   14.4378    8.6371   24.3773 H   0  0  0  0  0
   16.0273    9.4051   22.5888 H   0  0  0  0  0
   17.6292   11.2862   23.0420 H   0  0  0  0  0
 28  1  1  0  0  0
 30  2  1  0  0  0
  4  3  4  0  0  0
  8  3  4  0  0  0
  5  4  4  0  0  0
  4  9  1  0  0  0
  6  5  4  0  0  0
  6  7  4  0  0  0
 19  6  1  0  0  0
  7  8  4  0  0  0
  8 18  1  0  0  0
  9 10  1  0  0  0
  9 11  2  0  0  0
 10 12  1  0  0  0
 10 13  1  0  0  0
 12 16  1  0  0  0
 13 14  1  0  0  0
 14 15  1  0  0  0
 16 17  1  0  0  0
 19 20  2  0  0  0
 21 19  1  0  0  0
 22 21  1  0  0  0
 22 23  1  0  0  0
 25 22  1  0  0  0
 23 24  1  0  0  0
 23 32  1  0  0  0
 26 25  1  0  0  0
 27 26  4  0  0  0
 26 31  4  0  0  0
 28 27  4  0  0  0
 29 28  4  0  0  0
 29 30  4  0  0  0
 30 31  4  0  0  0
 32 33  1  0  0  0
 32 37  1  0  0  0
 33 34  1  0  0  0
 34 35  1  0  0  0
 34 38  1  0  0  0
 35 36  1  0  0  0
 36 37  1  0  0  0
 38 39  1  0  0  0
 39 40  4  0  0  0
 39 44  4  0  0  0
 40 41  4  0  0  0
 41 42  4  0  0  0
 42 43  4  0  0  0
 43 44  4  0  0  0
  3 45  1  0  0  0
  5 46  1  0  0  0
  7 47  1  0  0  0
 12 48  1  0  0  0
 12 49  1  0  0  0
 13 50  1  0  0  0
 13 51  1  0  0  0
 14 52  1  0  0  0
 14 53  1  0  0  0
 15 54  1  0  0  0
 15 55  1  0  0  0
 15 56  1  0  0  0
 16 57  1  0  0  0
 16 58  1  0  0  0
 17 59  1  0  0  0
 17 60  1  0  0  0
 17 61  1  0  0  0
 18 62  1  0  0  0
 18 63  1  0  0  0
 18 64  1  0  0  0
 21 65  1  0  0  0
 22 66  1  0  0  0
 23 67  1  0  0  0
 24 68  1  0  0  0
 25 69  1  0  0  0
 25 70  1  0  0  0
 27 71  1  0  0  0
 29 72  1  0  0  0
 31 73  1  0  0  0
 32 74  1  0  0  0
 33 75  1  0  0  0
 33 76  1  0  0  0
 34 77  1  0  0  0
 35 78  1  0  0  0
 35 79  1  0  0  0
 36 80  1  0  0  0
 36 81  1  0  0  0
 37 82  1  0  0  0
 37 83  1  0  0  0
 38 84  1  0  0  0
 38 85  1  0  0  0
 40 86  1  0  0  0
 41 87  1  0  0  0
 42 88  1  0  0  0
 43 89  1  0  0  0
 44 90  1  0  0  0
M  END
$$$$
