1ouk_ligand
  -I-interpret- 

 67 71  0  0  0  0  0  0  0  0999 V2000
   48.8660   37.8810   28.9940 C   0  0  0  0  0
   48.2050   36.9510   29.6760 C   0  0  0  0  0
   47.0720   37.5940   30.4500 N   0  0  0  0  0
   46.0840   37.0210   31.2700 C   0  0  0  0  0
   45.3000   37.7980   32.0790 N   0  0  0  0  0
   44.3600   37.1260   32.8390 C   0  0  0  0  0
   44.1730   35.7180   32.8290 C   0  0  0  0  0
   45.0270   34.9760   31.9610 C   0  0  0  0  0
   45.9620   35.6630   31.2030 N   0  0  0  0  0
   44.9460   33.4660   31.8690 C   0  0  0  0  0
   43.7640   32.6320   31.6230 C   0  0  0  0  0
   44.1470   31.3300   31.6380 N   0  0  0  0  0
   45.4830   31.3670   31.8750 C   0  0  0  0  0
   46.3470   30.0170   31.9900 C   0  0  0  0  0
   46.7950   29.5360   33.4310 C   0  0  0  0  0
   47.5950   28.1990   33.4220 C   0  0  0  0  0
   46.8650   27.1120   32.6760 N   0  3  0  0  0
   46.4210   27.5160   31.2870 C   0  0  0  0  0
   45.5850   28.8310   31.2940 C   0  0  0  0  0
   46.0340   32.6160   32.0190 N   0  0  0  0  0
   47.4420   33.0020   32.2860 C   0  0  0  0  0
   42.3560   33.0670   31.3880 C   0  0  0  0  0
   41.3310   32.6070   32.2540 C   0  0  0  0  0
   39.9600   33.0110   32.0590 C   0  0  0  0  0
   39.6450   33.9100   30.9370 C   0  0  0  0  0
   40.6700   34.3740   30.0620 C   0  0  0  0  0
   42.0040   33.9570   30.2870 C   0  0  0  0  0
   38.8660   32.5000   33.0080 C   0  0  0  0  0
   38.5890   31.2760   32.6640 F   0  0  0  0  0
   37.8140   33.2570   32.8650 F   0  0  0  0  0
   39.2280   32.5310   34.2780 F   0  0  0  0  0
   49.1270   36.0780   30.6230 C   0  0  0  0  0
   49.3520   36.4390   32.0270 C   0  0  0  0  0
   50.1880   35.6490   32.8850 C   0  0  0  0  0
   50.8300   34.4780   32.3660 C   0  0  0  0  0
   50.6370   34.0920   30.9960 C   0  0  0  0  0
   49.7940   34.8830   30.1340 C   0  0  0  0  0
   49.3537   38.5628   29.6907 H   0  0  0  0  0
   49.6173   37.4033   28.3651 H   0  0  0  0  0
   48.1671   38.4368   28.3689 H   0  0  0  0  0
   47.7990   36.2498   28.9469 H   0  0  0  0  0
   47.0171   38.6087   30.3617 H   0  0  0  0  0
   43.7179   37.7181   33.4911 H   0  0  0  0  0
   43.4197   35.2324   33.4494 H   0  0  0  0  0
   47.2772   30.2912   31.4924 H   0  0  0  0  0
   45.8904   29.3715   34.0164 H   0  0  0  0  0
   47.4483   30.3048   33.8436 H   0  0  0  0  0
   47.7294   27.8743   34.4538 H   0  0  0  0  0
   48.5483   28.3746   32.9235 H   0  0  0  0  0
   46.0256   26.8877   33.2102 H   0  0  0  0  0
   47.5096   26.3283   32.5731 H   0  0  0  0  0
   45.7949   26.7188   30.8863 H   0  0  0  0  0
   47.3121   27.6844   30.6822 H   0  0  0  0  0
   45.3904   29.1141   30.2596 H   0  0  0  0  0
   44.6665   28.6454   31.8508 H   0  0  0  0  0
   47.8038   33.6349   31.4756 H   0  0  0  0  0
   47.4952   33.5490   33.2273 H   0  0  0  0  0
   48.0574   32.1047   32.3504 H   0  0  0  0  0
   41.5827   31.9392   33.0779 H   0  0  0  0  0
   38.6145   34.2250   30.7731 H   0  0  0  0  0
   40.4305   35.0395   29.2326 H   0  0  0  0  0
   42.7897   34.3106   29.6193 H   0  0  0  0  0
   48.8714   37.3309   32.4291 H   0  0  0  0  0
   50.3338   35.9382   33.9258 H   0  0  0  0  0
   51.4680   33.8771   33.0140 H   0  0  0  0  0
   51.1284   33.2000   30.6074 H   0  0  0  0  0
   49.6545   34.5790   29.0966 H   0  0  0  0  0
  1  2  1  0  0  0
  2  3  1  0  0  0
  2 32  1  0  0  0
  3  4  1  0  0  0
  4  5  4  0  0  0
  4  9  4  0  0  0
  5  6  4  0  0  0
  6  7  4  0  0  0
  7  8  4  0  0  0
  8  9  4  0  0  0
  8 10  1  0  0  0
 10 11  4  0  0  0
 10 20  4  0  0  0
 11 12  4  0  0  0
 11 22  1  0  0  0
 12 13  4  0  0  0
 13 14  1  0  0  0
 13 20  4  0  0  0
 14 15  1  0  0  0
 14 19  1  0  0  0
 15 16  1  0  0  0
 16 17  1  0  0  0
 17 18  1  0  0  0
 18 19  1  0  0  0
 20 21  1  0  0  0
 22 23  4  0  0  0
 22 27  4  0  0  0
 23 24  4  0  0  0
 24 25  4  0  0  0
 24 28  1  0  0  0
 25 26  4  0  0  0
 26 27  4  0  0  0
 28 29  1  0  0  0
 28 30  1  0  0  0
 28 31  1  0  0  0
 32 33  4  0  0  0
 32 37  4  0  0  0
 33 34  4  0  0  0
 34 35  4  0  0  0
 35 36  4  0  0  0
 36 37  4  0  0  0
  1 38  1  0  0  0
  1 39  1  0  0  0
  1 40  1  0  0  0
  2 41  1  0  0  0
  3 42  1  0  0  0
  6 43  1  0  0  0
  7 44  1  0  0  0
 14 45  1  0  0  0
 15 46  1  0  0  0
 15 47  1  0  0  0
 16 48  1  0  0  0
 16 49  1  0  0  0
 17 50  1  0  0  0
 17 51  1  0  0  0
 18 52  1  0  0  0
 18 53  1  0  0  0
 19 54  1  0  0  0
 19 55  1  0  0  0
 21 56  1  0  0  0
 21 57  1  0  0  0
 21 58  1  0  0  0
 23 59  1  0  0  0
 25 60  1  0  0  0
 26 61  1  0  0  0
 27 62  1  0  0  0
 33 63  1  0  0  0
 34 64  1  0  0  0
 35 65  1  0  0  0
 36 66  1  0  0  0
 37 67  1  0  0  0
M  END
$$$$
