### 
### Created by X-TOOL on Mon Aug  2 16:17:05 2021
### 

@<TRIPOS>MOLECULE
6i68_ligand
  100   100     1     0     0
SMALL
GAST_HUCK


@<TRIPOS>ATOM
      1 N          16.9160    8.5770   23.7850 N.4       1 LYS         0.2379
      2 CA         16.3120    9.0530   25.0270 C.3       1 LYS         0.0650
      3 C          15.6610    7.8930   25.7730 C.2       1 LYS         0.2267
      4 O          15.5090    6.8000   25.2260 O.2       1 LYS        -0.3907
      5 CB         15.2720   10.1400   24.7440 C.3       1 LYS         0.0079
      6 CG         14.0260    9.6100   24.0390 C.3       1 LYS        -0.0460
      7 CD         13.1340   10.7360   23.5210 C.3       1 LYS        -0.0556
      8 CE         11.9970   10.1860   22.6760 C.3       1 LYS        -0.0653
      9 N          15.2580    8.1440   27.0130 N.am      1 LYS        -0.2613
     10 CA         14.6820    7.0920   27.8340 C.3       1 LYS         0.1283
     11 C          13.2960    6.7180   27.3410 C.2       1 LYS         0.2037
     12 O          12.5750    7.5340   26.7590 O.2       1 LYS        -0.3944
     13 CB         14.6080    7.5350   29.2950 C.3       1 LYS        -0.0244
     14 N          12.9240    5.4640   27.5770 N.am      1 LYS        -0.2622
     15 CA         11.5750    4.9910   27.3290 C.3       1 LYS         0.1423
     16 C          10.9790    4.4500   28.6220 C.2       1 LYS         0.2057
     17 O          11.6910    4.1760   29.5940 O.2       1 LYS        -0.3943
     18 CB         11.5500    3.9040   26.2450 C.3       1 LYS         0.0406
     19 CG         12.3050    2.6510   26.6600 C.2       1 LYS         0.0393
     20 OD1        13.5430    2.6430   26.5120 O.co2     1 LYS        -0.5688
     21 OD2        11.6600    1.6830   27.1250 O.co2     1 LYS        -0.5688
     22 N           9.6600    4.2960   28.6210 N.am      1 LYS        -0.2612
     23 CA          8.9220    3.7260   29.7390 C.3       1 LYS         0.1565
     24 C           8.0630    2.5730   29.2340 C.2       1 LYS         0.2065
     25 O           7.6660    2.5410   28.0660 O.2       1 LYS        -0.3943
     26 CB          8.0360    4.7900   30.4270 C.3       1 LYS         0.0924
     27 OG1         7.3230    4.2110   31.5340 O.3       1 LYS        -0.3874
     28 CG2         7.0400    5.3950   29.4300 C.3       1 LYS        -0.0346
     29 N           7.7790    1.6190   30.1230 N.am      1 LYS        -0.2613
     30 CA          6.9360    0.4780   29.7930 C.3       1 LYS         0.1565
     31 C           5.5160    0.6170   30.3410 C.2       1 LYS         0.2065
     32 O           4.7860   -0.3780   30.4150 O.2       1 LYS        -0.3943
     33 CB          7.5720   -0.8200   30.3010 C.3       1 LYS         0.0924
     34 OG1         7.3850   -0.9330   31.7200 O.3       1 LYS        -0.3874
     35 CG2         9.0700   -0.8520   29.9800 C.3       1 LYS        -0.0346
     36 N           5.1100    1.8240   30.7270 N.am      1 LYS        -0.2613
     37 CA          3.7910    2.1240   31.2510 C.3       1 LYS         0.1566
     38 C           3.2850    3.4170   30.6280 C.2       1 LYS         0.2084
     39 O           4.0510    4.1430   29.9850 O.2       1 LYS        -0.3941
     40 CB          3.8290    2.2440   32.7860 C.3       1 LYS         0.0924
     41 OG1         4.8020    3.2250   33.1660 O.3       1 LYS        -0.3874
     42 CG2         4.1690    0.9010   33.4270 C.3       1 LYS        -0.0346
     43 N           1.9810    3.7360   30.7750 N.am      1 LYS        -0.2555
     44 CA          1.4960    4.9580   30.1180 C.3       1 LYS         0.0972
     45 C           2.0350    6.2480   30.7360 C.2       1 LYS         0.0603
     46 O           1.9940    6.3970   31.9560 O.co2     1 LYS        -0.5666
     47 CB         -0.0230    4.8740   30.3010 C.3       1 LYS        -0.0159
     48 CG         -0.2010    4.0590   31.5280 C.3       1 LYS        -0.0288
     49 CD          0.8870    3.0280   31.4670 C.3       1 LYS         0.0362
     50 OXT         2.5020    7.1190   30.0050 O.co2     1 LYS        -0.5666
     51 H1         17.3428    9.3512   23.3007 H         1 LYS         0.2015
     52 H2         16.2043    8.1666   23.2010 H         1 LYS         0.2015
     53 H3         17.6177    7.8849   23.9963 H         1 LYS         0.2015
     54 H4         17.1035    9.4806   25.6600 H         1 LYS         0.1098
     55 H5         15.7339   10.9087   24.1070 H         1 LYS         0.0345
     56 H6         14.9678   10.5905   25.7003 H         1 LYS         0.0345
     57 H7         13.4494    8.9997   24.7496 H         1 LYS         0.0269
     58 H8         14.3384    8.9859   23.1888 H         1 LYS         0.0269
     59 H9         13.7386   11.4208   22.9083 H         1 LYS         0.0263
     60 H10        12.7133   11.2842   24.3769 H         1 LYS         0.0263
     61 H11        11.3719   11.0169   22.3169 H         1 LYS         0.0230
     62 H12        11.3853    9.5032   23.2840 H         1 LYS         0.0230
     63 H13        12.4107    9.6399   21.8154 H         1 LYS         0.0230
     64 H14        15.3518    9.0670   27.3861 H         1 LYS         0.1884
     65 H15        15.3290    6.2049   27.7673 H         1 LYS         0.0797
     66 H16        14.1703    6.7281   29.9011 H         1 LYS         0.0277
     67 H17        13.9801    8.4347   29.3740 H         1 LYS         0.0277
     68 H18        15.6203    7.7609   29.6614 H         1 LYS         0.0277
     69 H19        13.5997    4.8220   27.9393 H         1 LYS         0.1884
     70 H20        10.9652    5.8393   26.9848 H         1 LYS         0.0819
     71 H21        12.0103    4.3067   25.3307 H         1 LYS         0.0478
     72 H22        10.5036    3.6338   26.0403 H         1 LYS         0.0478
     73 H23         9.1483    4.5859   27.8122 H         1 LYS         0.1884
     74 H24         9.6407    3.3397   30.4767 H         1 LYS         0.0826
     75 H25         8.6854    5.5927   30.8065 H         1 LYS         0.0639
     76 H26         7.9448    3.8702   32.1663 H         1 LYS         0.2101
     77 H27         6.4216    6.1478   29.9407 H         1 LYS         0.0257
     78 H28         6.3937    4.6002   29.0293 H         1 LYS         0.0257
     79 H29         7.5903    5.8710   28.6050 H         1 LYS         0.0257
     80 H30         8.1574    1.6899   31.0459 H         1 LYS         0.1884
     81 H31         6.8674    0.4199   28.6967 H         1 LYS         0.0826
     82 H32         7.0834   -1.6718   29.8054 H         1 LYS         0.0639
     83 H33         7.7945   -0.1927   32.1522 H         1 LYS         0.2101
     84 H34         9.5049   -1.7909   30.3531 H         1 LYS         0.0257
     85 H35         9.5673    0.0007   30.4653 H         1 LYS         0.0257
     86 H36         9.2131   -0.7889   28.8912 H         1 LYS         0.0257
     87 H37         5.7613    2.5789   30.6503 H         1 LYS         0.1884
     88 H38         3.1067    1.3066   30.9799 H         1 LYS         0.0826
     89 H39         2.8388    2.5649   33.1415 H         1 LYS         0.0639
     90 H40         5.6573    2.9610   32.8477 H         1 LYS         0.2101
     91 H41         4.1902    1.0119   34.5212 H         1 LYS         0.0257
     92 H42         5.1549    0.5650   33.0734 H         1 LYS         0.0257
     93 H43         3.4069    0.1583   33.1485 H         1 LYS         0.0257
     94 H44         1.7613    4.9422   29.0506 H         1 LYS         0.0728
     95 H45        -0.4930    4.3833   29.4360 H         1 LYS         0.0306
     96 H46        -0.4554    5.8767   30.4334 H         1 LYS         0.0306
     97 H47        -1.1902    3.5780   31.5331 H         1 LYS         0.0286
     98 H48        -0.0923    4.6837   32.4268 H         1 LYS         0.0286
     99 H49         1.1939    2.7178   32.4767 H         1 LYS         0.0524
    100 H50         0.5634    2.1460   30.8949 H         1 LYS         0.0524
@<TRIPOS>BOND
     1    1    2 1  
     2    2    3 1  
     3    2    5 1  
     4    3    4 2  
     5    3    9 am 
     6    5    6 1  
     7    6    7 1  
     8    7    8 1  
     9    9   10 1  
    10   10   11 1  
    11   10   13 1  
    12   11   12 2  
    13   11   14 am 
    14   14   15 1  
    15   15   16 1  
    16   15   18 1  
    17   16   17 2  
    18   16   22 am 
    19   18   19 1  
    20   19   20 ar 
    21   19   21 ar 
    22   22   23 1  
    23   23   24 1  
    24   23   26 1  
    25   24   25 2  
    26   24   29 am 
    27   26   27 1  
    28   26   28 1  
    29   29   30 1  
    30   30   31 1  
    31   30   33 1  
    32   31   32 2  
    33   31   36 am 
    34   33   34 1  
    35   33   35 1  
    36   36   37 1  
    37   37   38 1  
    38   37   40 1  
    39   38   39 2  
    40   38   43 am 
    41   40   41 1  
    42   40   42 1  
    43   43   44 1  
    44   43   49 1  
    45   44   45 1  
    46   44   47 1  
    47   45   46 ar 
    48   45   50 ar 
    49   47   48 1  
    50   48   49 1  
    51    1   51 1  
    52    1   52 1  
    53    1   53 1  
    54    2   54 1  
    55    5   55 1  
    56    5   56 1  
    57    6   57 1  
    58    6   58 1  
    59    7   59 1  
    60    7   60 1  
    61    8   61 1  
    62    8   62 1  
    63    8   63 1  
    64    9   64 1  
    65   10   65 1  
    66   13   66 1  
    67   13   67 1  
    68   13   68 1  
    69   14   69 1  
    70   15   70 1  
    71   18   71 1  
    72   18   72 1  
    73   22   73 1  
    74   23   74 1  
    75   26   75 1  
    76   27   76 1  
    77   28   77 1  
    78   28   78 1  
    79   28   79 1  
    80   29   80 1  
    81   30   81 1  
    82   33   82 1  
    83   34   83 1  
    84   35   84 1  
    85   35   85 1  
    86   35   86 1  
    87   36   87 1  
    88   37   88 1  
    89   40   89 1  
    90   41   90 1  
    91   42   91 1  
    92   42   92 1  
    93   42   93 1  
    94   44   94 1  
    95   47   95 1  
    96   47   96 1  
    97   48   97 1  
    98   48   98 1  
    99   49   99 1  
   100   49  100 1  
@<TRIPOS>SUBSTRUCTURE
     1 LYS         1

