6i68_ligand
  -I-interpret- 

102102  0  0  0  0  0  0  0  0999 V2000
   16.9160    8.5770   23.7850 N   0  3  0  0  0
   16.3120    9.0530   25.0270 C   0  0  0  0  0
   15.6610    7.8930   25.7730 C   0  0  0  0  0
   15.5090    6.8000   25.2260 O   0  0  0  0  0
   15.2720   10.1400   24.7440 C   0  0  0  0  0
   14.0260    9.6100   24.0390 C   0  0  0  0  0
   13.1340   10.7360   23.5210 C   0  0  0  0  0
   11.9970   10.1860   22.6760 C   0  0  0  0  0
   15.2580    8.1440   27.0130 N   0  0  0  0  0
   14.6820    7.0920   27.8340 C   0  0  0  0  0
   13.2960    6.7180   27.3410 C   0  0  0  0  0
   12.5750    7.5340   26.7590 O   0  0  0  0  0
   14.6080    7.5350   29.2950 C   0  0  0  0  0
   12.9240    5.4640   27.5770 N   0  0  0  0  0
   11.5750    4.9910   27.3290 C   0  0  0  0  0
   10.9790    4.4500   28.6220 C   0  0  0  0  0
   11.6910    4.1760   29.5940 O   0  0  0  0  0
   11.5500    3.9040   26.2450 C   0  0  0  0  0
   12.3050    2.6510   26.6600 C   0  0  0  0  0
   13.5430    2.6430   26.5120 O   0  0  0  0  0
   11.6600    1.6830   27.1250 O   0  0  0  0  0
    9.6600    4.2960   28.6210 N   0  0  0  0  0
    8.9220    3.7260   29.7390 C   0  0  0  0  0
    8.0630    2.5730   29.2340 C   0  0  0  0  0
    7.6660    2.5410   28.0660 O   0  0  0  0  0
    8.0360    4.7900   30.4270 C   0  0  0  0  0
    7.3230    4.2110   31.5340 O   0  0  0  0  0
    7.0400    5.3950   29.4300 C   0  0  0  0  0
    7.7790    1.6190   30.1230 N   0  0  0  0  0
    6.9360    0.4780   29.7930 C   0  0  0  0  0
    5.5160    0.6170   30.3410 C   0  0  0  0  0
    4.7860   -0.3780   30.4150 O   0  0  0  0  0
    7.5720   -0.8200   30.3010 C   0  0  0  0  0
    7.3850   -0.9330   31.7200 O   0  0  0  0  0
    9.0700   -0.8520   29.9800 C   0  0  0  0  0
    5.1100    1.8240   30.7270 N   0  0  0  0  0
    3.7910    2.1240   31.2510 C   0  0  0  0  0
    3.2850    3.4170   30.6280 C   0  0  0  0  0
    4.0510    4.1430   29.9850 O   0  0  0  0  0
    3.8290    2.2440   32.7860 C   0  0  0  0  0
    4.8020    3.2250   33.1660 O   0  0  0  0  0
    4.1690    0.9010   33.4270 C   0  0  0  0  0
    1.9810    3.7360   30.7750 N   0  0  0  0  0
    1.4960    4.9580   30.1180 C   0  0  0  0  0
    2.0350    6.2480   30.7360 C   0  0  0  0  0
    1.9940    6.3970   31.9560 O   0  0  0  0  0
   -0.0230    4.8740   30.3010 C   0  0  0  0  0
   -0.2010    4.0590   31.5280 C   0  0  0  0  0
    0.8870    3.0280   31.4670 C   0  0  0  0  0
    2.5020    7.1190   30.0050 O   0  0  0  0  0
   17.6042    7.8549   23.9979 H   0  0  0  0  0
   16.1902    8.1895   23.1821 H   0  0  0  0  0
   17.3738    9.3554   23.3108 H   0  0  0  0  0
   17.0994    9.4808   25.6475 H   0  0  0  0  0
   15.7346   10.8774   24.0880 H   0  0  0  0  0
   14.9585   10.5551   25.7019 H   0  0  0  0  0
   13.4518    9.0259   24.7582 H   0  0  0  0  0
   14.3472    9.0120   23.1862 H   0  0  0  0  0
   13.7362   11.4035   22.9046 H   0  0  0  0  0
   12.7106   11.2668   24.3737 H   0  0  0  0  0
   12.4082    9.6451   21.8237 H   0  0  0  0  0
   11.3917    9.5096   23.2795 H   0  0  0  0  0
   11.3784   11.0102   22.3208 H   0  0  0  0  0
   15.3537    9.0855   27.3936 H   0  0  0  0  0
   15.3270    6.2166   27.7585 H   0  0  0  0  0
   15.6116    7.7586   29.6568 H   0  0  0  0  0
   13.9856    8.4265   29.3719 H   0  0  0  0  0
   14.1742    6.7347   29.8945 H   0  0  0  0  0
   13.6132    4.8092   27.9466 H   0  0  0  0  0
   10.9798    5.8312   26.9713 H   0  0  0  0  0
   12.0307    4.3067   25.3535 H   0  0  0  0  0
   10.5103    3.6277   26.0695 H   0  0  0  0  0
   10.7263    1.9047   27.1506 H   0  0  0  0  0
    9.1381    4.5917   27.7960 H   0  0  0  0  0
    9.6342    3.3606   30.4789 H   0  0  0  0  0
    8.6868    5.5821   30.7973 H   0  0  0  0  0
    6.7785    4.8837   31.9495 H   0  0  0  0  0
    7.5865    5.8662   28.6131 H   0  0  0  0  0
    6.4003    4.6065   29.0337 H   0  0  0  0  0
    6.4278    6.1408   29.9372 H   0  0  0  0  0
    8.1649    1.6913   31.0644 H   0  0  0  0  0
    6.8591    0.4458   28.7062 H   0  0  0  0  0
    7.0876   -1.6579   29.7997 H   0  0  0  0  0
    7.7859   -1.7481   32.0306 H   0  0  0  0  0
    9.2105   -0.7893   28.9009 H   0  0  0  0  0
    9.5616   -0.0066   30.4614 H   0  0  0  0  0
    9.4998   -1.7828   30.3502 H   0  0  0  0  0
    5.7743    2.5940   30.6488 H   0  0  0  0  0
    3.1120    1.3104   30.9958 H   0  0  0  0  0
    2.8434    2.5509   33.1361 H   0  0  0  0  0
    4.8241    3.2982   34.1229 H   0  0  0  0  0
    3.4132    0.1660   33.1502 H   0  0  0  0  0
    5.1461    0.5692   33.0758 H   0  0  0  0  0
    4.1897    1.0122   34.5111 H   0  0  0  0  0
    1.8261    5.0033   29.0802 H   0  0  0  0  0
    1.5998    5.6200   32.3591 H   0  0  0  0  0
   -0.5159    4.4277   29.4373 H   0  0  0  0  0
   -0.4799    5.8593   30.3935 H   0  0  0  0  0
   -1.1898    3.6023   31.5710 H   0  0  0  0  0
   -0.1335    4.6661   32.4308 H   0  0  0  0  0
    1.1779    2.6637   32.4523 H   0  0  0  0  0
    0.5785    2.1201   30.9486 H   0  0  0  0  0
  1  2  1  0  0  0
  2  3  1  0  0  0
  2  5  1  0  0  0
  3  4  2  0  0  0
  3  9  1  0  0  0
  5  6  1  0  0  0
  6  7  1  0  0  0
  7  8  1  0  0  0
  9 10  1  0  0  0
 10 11  1  0  0  0
 10 13  1  0  0  0
 11 12  2  0  0  0
 11 14  1  0  0  0
 14 15  1  0  0  0
 15 16  1  0  0  0
 15 18  1  0  0  0
 16 17  2  0  0  0
 16 22  1  0  0  0
 18 19  1  0  0  0
 19 20  2  0  0  0
 19 21  1  0  0  0
 22 23  1  0  0  0
 23 24  1  0  0  0
 23 26  1  0  0  0
 24 25  2  0  0  0
 24 29  1  0  0  0
 26 27  1  0  0  0
 26 28  1  0  0  0
 29 30  1  0  0  0
 30 31  1  0  0  0
 30 33  1  0  0  0
 31 32  2  0  0  0
 31 36  1  0  0  0
 33 34  1  0  0  0
 33 35  1  0  0  0
 36 37  1  0  0  0
 37 38  1  0  0  0
 37 40  1  0  0  0
 38 39  2  0  0  0
 38 43  1  0  0  0
 40 41  1  0  0  0
 40 42  1  0  0  0
 43 44  1  0  0  0
 43 49  1  0  0  0
 44 45  1  0  0  0
 44 47  1  0  0  0
 45 46  1  0  0  0
 45 50  2  0  0  0
 47 48  1  0  0  0
 48 49  1  0  0  0
  1 51  1  0  0  0
  1 52  1  0  0  0
  1 53  1  0  0  0
  2 54  1  0  0  0
  5 55  1  0  0  0
  5 56  1  0  0  0
  6 57  1  0  0  0
  6 58  1  0  0  0
  7 59  1  0  0  0
  7 60  1  0  0  0
  8 61  1  0  0  0
  8 62  1  0  0  0
  8 63  1  0  0  0
  9 64  1  0  0  0
 10 65  1  0  0  0
 13 66  1  0  0  0
 13 67  1  0  0  0
 13 68  1  0  0  0
 14 69  1  0  0  0
 15 70  1  0  0  0
 18 71  1  0  0  0
 18 72  1  0  0  0
 21 73  1  0  0  0
 22 74  1  0  0  0
 23 75  1  0  0  0
 26 76  1  0  0  0
 27 77  1  0  0  0
 28 78  1  0  0  0
 28 79  1  0  0  0
 28 80  1  0  0  0
 29 81  1  0  0  0
 30 82  1  0  0  0
 33 83  1  0  0  0
 34 84  1  0  0  0
 35 85  1  0  0  0
 35 86  1  0  0  0
 35 87  1  0  0  0
 36 88  1  0  0  0
 37 89  1  0  0  0
 40 90  1  0  0  0
 41 91  1  0  0  0
 42 92  1  0  0  0
 42 93  1  0  0  0
 42 94  1  0  0  0
 44 95  1  0  0  0
 46 96  1  0  0  0
 47 97  1  0  0  0
 47 98  1  0  0  0
 48 99  1  0  0  0
 48100  1  0  0  0
 49101  1  0  0  0
 49102  1  0  0  0
M  END
$$$$
