4i7p_ligand
  -I-interpret- 

  8  8  0  0  0  0  0  0  0  0999 V2000
    2.1050    7.3970    1.0260 Br  0  0  0  0  0
    3.4590    8.7240    0.9910 C   0  0  0  0  0
    3.5610    9.8170    1.7550 C   0  0  0  0  0
    4.6740   10.4140    1.3460 N   0  0  0  0  0
    5.2160    9.7170    0.3680 C   0  0  0  0  0
    4.4680    8.6370    0.1490 N   0  0  0  0  0
    2.8803   10.1453    2.5404 H   0  0  0  0  0
    6.1254    9.9805   -0.1721 H   0  0  0  0  0
  1  2  1  0  0  0
  2  3  4  0  0  0
  2  6  4  0  0  0
  3  4  4  0  0  0
  4  5  4  0  0  0
  5  6  4  0  0  0
  3  7  1  0  0  0
  5  8  1  0  0  0
M  END
$$$$
