### 
### Created by X-TOOL on Fri Nov 18 11:59:38 2016
### 

@<TRIPOS>MOLECULE
1css_ligand
   84    86     1     0     0
SMALL
GAST_HUCK


@<TRIPOS>ATOM
      1 AN1        19.5320   -8.0740   13.3290 N.ar      1 FCX        -0.2698
      2 AC2        18.9640   -8.6380   14.3990 C.ar      1 FCX         0.0533
      3 AN3        18.1290   -9.6800   14.4730 N.ar      1 FCX        -0.2714
      4 AC4        17.9050  -10.1970   13.2480 C.ar      1 FCX         0.1613
      5 AC5        18.3910   -9.7350   12.0470 C.ar      1 FCX         0.1045
      6 AC6        19.2690   -8.6220   12.1290 C.ar      1 FCX         0.1298
      7 AN6        19.8050   -8.0040   11.1210 N.pl3     1 FCX        -0.3152
      8 AN7        17.9180  -10.5300   10.9980 N.2       1 FCX        -0.2958
      9 AC8        17.1450  -11.4310   11.5770 C.2       1 FCX         0.1123
     10 AN9        17.1050  -11.2840   12.9470 N.pl3     1 FCX        -0.1919
     11 AC1        16.2500  -12.0580   13.8160 C.3       1 FCX         0.2013
     12 AC2        14.8110  -11.7650   13.3230 C.3       1 FCX         0.1432
     13 AO2        14.3200  -10.4690   13.6720 O.3       1 FCX        -0.3832
     14 AC3        14.0500  -12.9220   13.9570 C.3       1 FCX         0.1487
     15 AO3        14.0350  -12.7290   15.3800 O.3       1 FCX        -0.2674
     16 AP3        12.6460  -13.0350   16.1910 P.3       1 FCX         0.2013
     17 AO7        11.5340  -12.3990   15.4210 O.co2     1 FCX        -0.5537
     18 AO8        12.8430  -12.7000   17.6280 O.co2     1 FCX        -0.5537
     19 AO9        12.5460  -14.5220   16.0860 O.co2     1 FCX        -0.5537
     20 AC4        15.0190  -14.0860   13.6890 C.3       1 FCX         0.1235
     21 AO4        16.3020  -13.4310   13.5140 O.3       1 FCX        -0.3360
     22 AC5        14.7460  -14.8750   12.4350 C.3       1 FCX         0.1131
     23 AO5        14.4250  -13.9010   11.3980 O.3       1 FCX        -0.2476
     24 AP1        14.7690  -14.3310    9.9000 P.3       1 FCX         0.2972
     25 AO1        13.9250  -15.5180    9.5720 O.co2     1 FCX        -0.6127
     26 AO2        16.2250  -14.4630    9.7360 O.co2     1 FCX        -0.6127
     27 AO3        14.4290  -12.9800    9.1650 O.3       1 FCX        -0.1319
     28 AP2        13.0630  -12.6090    8.4300 P.3       1 FCX         0.2971
     29 AO4        13.0220  -13.3530    7.1480 O.co2     1 FCX        -0.6127
     30 AO5        11.8890  -12.6360    9.3110 O.co2     1 FCX        -0.6127
     31 AO6        13.3740  -11.0200    8.2010 O.3       1 FCX        -0.2496
     32 PC11       14.7360   -9.1530    7.5860 C.3       1 FCX         0.0367
     33 PC12       14.3060  -10.5630    7.2240 C.3       1 FCX         0.0936
     34 PC13       15.5070   -8.6070    6.3510 C.3       1 FCX        -0.0528
     35 PC14       13.4290   -8.3380    7.8260 C.3       1 FCX        -0.0528
     36 PC10       15.6290   -9.2810    8.8510 C.3       1 FCX         0.1510
     37 PO10       16.8090   -9.9470    8.3530 O.3       1 FCX        -0.3708
     38 PC9        16.0230   -7.9120    9.4100 C.2       1 FCX         0.2057
     39 PO9        15.3450   -7.3500   10.2700 O.2       1 FCX        -0.3942
     40 PN8        17.1260   -7.3290    8.9390 N.am      1 FCX        -0.2826
     41 PC7        17.5430   -5.9990    9.4450 C.3       1 FCX         0.0477
     42 PC6        16.8180   -4.9080    8.6530 C.3       1 FCX         0.0574
     43 PC5        17.2450   -4.7930    7.1920 C.2       1 FCX         0.1779
     44 PO5        18.4660   -4.8100    6.9130 O.2       1 FCX        -0.3970
     45 PN4        16.2560   -4.5780    6.2470 N.am      1 FCX        -0.2867
     46 PC3        16.6380   -4.4270    4.8480 C.3       1 FCX         0.0350
     47 PC2        16.6350   -5.6900    4.0160 C.3       1 FCX         0.0105
     48 C1         16.5010   -5.6090    2.4760 C.3       1 FCX         0.1549
     49 F1         17.7410   -5.5260    1.8810 F         1 FCX        -0.2291
     50 C2         15.5710   -4.5230    2.0140 C.2       1 FCX         0.0689
     51 O1         14.3970   -4.7260    1.8140 O.co2     1 FCX        -0.5661
     52 O2         16.1290   -3.3630    1.8060 O.co2     1 FCX        -0.5661
     53 H1         19.2181   -8.1827   15.3494 H         1 FCX         0.0996
     54 H2         19.6562   -8.3542   10.1639 H         1 FCX         0.1820
     55 H3         20.3791   -7.1634   11.2784 H         1 FCX         0.1820
     56 H4         16.6011  -12.2024   11.0338 H         1 FCX         0.1349
     57 H5         16.4295  -11.8376   14.8786 H         1 FCX         0.0996
     58 H6         14.7675  -11.8456   12.2268 H         1 FCX         0.0680
     59 H7         13.4372  -10.3652   13.3367 H         1 FCX         0.2101
     60 H8         13.0429  -13.0700   13.5401 H         1 FCX         0.0704
     61 H9         15.0289  -14.7696   14.5507 H         1 FCX         0.0654
     62 H10        13.8976  -15.5573   12.5918 H         1 FCX         0.0648
     63 H11        15.6356  -15.4556   12.1494 H         1 FCX         0.0648
     64 H12        13.8318  -10.5623    6.2315 H         1 FCX         0.0628
     65 H13        15.1837  -11.2260    7.2106 H         1 FCX         0.0628
     66 H14        15.8462   -7.5807    6.5549 H         1 FCX         0.0238
     67 H15        14.8422   -8.6061    5.4747 H         1 FCX         0.0238
     68 H16        16.3781   -9.2479    6.1498 H         1 FCX         0.0238
     69 H17        12.9012   -8.7413    8.7028 H         1 FCX         0.0238
     70 H18        12.7809   -8.4151    6.9405 H         1 FCX         0.0238
     71 H19        13.6825   -7.2825    8.0041 H         1 FCX         0.0238
     72 H20        15.1277   -9.8733    9.6307 H         1 FCX         0.0844
     73 H21        17.4251  -10.0720    9.0652 H         1 FCX         0.2133
     74 H22        17.6742   -7.7907    8.2416 H         1 FCX         0.1853
     75 H23        18.6298   -5.8826    9.3211 H         1 FCX         0.0545
     76 H24        17.2841   -5.9133   10.5107 H         1 FCX         0.0545
     77 H25        17.0105   -3.9425    9.1436 H         1 FCX         0.0522
     78 H26        15.7398   -5.1241    8.6792 H         1 FCX         0.0522
     79 H27        15.2952   -4.5271    6.5196 H         1 FCX         0.1851
     80 H28        17.6553   -4.0095    4.8208 H         1 FCX         0.0522
     81 H29        15.9378   -3.7172    4.3834 H         1 FCX         0.0522
     82 H30        15.7952   -6.3032    4.3747 H         1 FCX         0.0331
     83 H31        17.5826   -6.2083    4.2242 H         1 FCX         0.0331
     84 H32        16.0535   -6.5590    2.1486 H         1 FCX         0.0823
@<TRIPOS>BOND
     1    1    2 ar 
     2    1    6 ar 
     3    2    3 ar 
     4    3    4 ar 
     5    4    5 ar 
     6    4   10 1  
     7    5    6 ar 
     8    5    8 1  
     9    6    7 1  
    10    8    9 2  
    11    9   10 1  
    12   10   11 1  
    13   11   12 1  
    14   11   21 1  
    15   12   13 1  
    16   12   14 1  
    17   14   15 1  
    18   14   20 1  
    19   15   16 1  
    20   16   17 ar 
    21   16   18 ar 
    22   16   19 ar 
    23   20   21 1  
    24   20   22 1  
    25   22   23 1  
    26   23   24 1  
    27   24   25 ar 
    28   24   26 ar 
    29   24   27 1  
    30   27   28 1  
    31   28   29 ar 
    32   28   30 ar 
    33   28   31 1  
    34   31   33 1  
    35   33   32 1  
    36   32   34 1  
    37   32   35 1  
    38   32   36 1  
    39   36   37 1  
    40   36   38 1  
    41   38   39 2  
    42   38   40 am 
    43   40   41 1  
    44   41   42 1  
    45   42   43 1  
    46   43   44 2  
    47   43   45 am 
    48   45   46 1  
    49   46   47 1  
    50   47   48 1  
    51   48   49 1  
    52   48   50 1  
    53   50   51 ar 
    54   50   52 ar 
    55    2   53 1  
    56    7   54 1  
    57    7   55 1  
    58    9   56 1  
    59   11   57 1  
    60   12   58 1  
    61   13   59 1  
    62   14   60 1  
    63   20   61 1  
    64   22   62 1  
    65   22   63 1  
    66   33   64 1  
    67   33   65 1  
    68   34   66 1  
    69   34   67 1  
    70   34   68 1  
    71   35   69 1  
    72   35   70 1  
    73   35   71 1  
    74   36   72 1  
    75   37   73 1  
    76   40   74 1  
    77   41   75 1  
    78   41   76 1  
    79   42   77 1  
    80   42   78 1  
    81   45   79 1  
    82   46   80 1  
    83   46   81 1  
    84   47   82 1  
    85   47   83 1  
    86   48   84 1  
@<TRIPOS>SUBSTRUCTURE
     1 FCX         1

