1css_ligand
  -I-interpret- 

 89 91  0  0  0  0  0  0  0  0999 V2000
   19.5320   -8.0740   13.3290 N   0  0  0  0  0
   18.9640   -8.6380   14.3990 C   0  0  0  0  0
   18.1290   -9.6800   14.4730 N   0  0  0  0  0
   17.9050  -10.1970   13.2480 C   0  0  0  0  0
   18.3910   -9.7350   12.0470 C   0  0  0  0  0
   19.2690   -8.6220   12.1290 C   0  0  0  0  0
   19.8050   -8.0040   11.1210 N   0  0  0  0  0
   17.9180  -10.5300   10.9980 N   0  0  0  0  0
   17.1450  -11.4310   11.5770 C   0  0  0  0  0
   17.1050  -11.2840   12.9470 N   0  0  0  0  0
   16.2500  -12.0580   13.8160 C   0  0  0  0  0
   14.8110  -11.7650   13.3230 C   0  0  0  0  0
   14.3200  -10.4690   13.6720 O   0  0  0  0  0
   14.0500  -12.9220   13.9570 C   0  0  0  0  0
   14.0350  -12.7290   15.3800 O   0  0  0  0  0
   12.6460  -13.0350   16.1910 P   0  0  0  0  0
   11.5340  -12.3990   15.4210 O   0  0  0  0  0
   12.8430  -12.7000   17.6280 O   0  0  0  0  0
   12.5460  -14.5220   16.0860 O   0  0  0  0  0
   15.0190  -14.0860   13.6890 C   0  0  0  0  0
   16.3020  -13.4310   13.5140 O   0  0  0  0  0
   14.7460  -14.8750   12.4350 C   0  0  0  0  0
   14.4250  -13.9010   11.3980 O   0  0  0  0  0
   14.7690  -14.3310    9.9000 P   0  0  0  0  0
   13.9250  -15.5180    9.5720 O   0  0  0  0  0
   16.2250  -14.4630    9.7360 O   0  0  0  0  0
   14.4290  -12.9800    9.1650 O   0  0  0  0  0
   13.0630  -12.6090    8.4300 P   0  0  0  0  0
   13.0220  -13.3530    7.1480 O   0  0  0  0  0
   11.8890  -12.6360    9.3110 O   0  0  0  0  0
   13.3740  -11.0200    8.2010 O   0  0  0  0  0
   14.7360   -9.1530    7.5860 C   0  0  0  0  0
   14.3060  -10.5630    7.2240 C   0  0  0  0  0
   15.5070   -8.6070    6.3510 C   0  0  0  0  0
   13.4290   -8.3380    7.8260 C   0  0  0  0  0
   15.6290   -9.2810    8.8510 C   0  0  0  0  0
   16.8090   -9.9470    8.3530 O   0  0  0  0  0
   16.0230   -7.9120    9.4100 C   0  0  0  0  0
   15.3450   -7.3500   10.2700 O   0  0  0  0  0
   17.1260   -7.3290    8.9390 N   0  0  0  0  0
   17.5430   -5.9990    9.4450 C   0  0  0  0  0
   16.8180   -4.9080    8.6530 C   0  0  0  0  0
   17.2450   -4.7930    7.1920 C   0  0  0  0  0
   18.4660   -4.8100    6.9130 O   0  0  0  0  0
   16.2560   -4.5780    6.2470 N   0  0  0  0  0
   16.6380   -4.4270    4.8480 C   0  0  0  0  0
   16.6350   -5.6900    4.0160 C   0  0  0  0  0
   16.5010   -5.6090    2.4760 C   0  0  0  0  0
   17.7410   -5.5260    1.8810 F   0  0  0  0  0
   15.5710   -4.5230    2.0140 C   0  0  0  0  0
   14.3970   -4.7260    1.8140 O   0  0  0  0  0
   16.1290   -3.3630    1.8060 O   0  0  0  0  0
   19.2195   -8.1802   15.3546 H   0  0  0  0  0
   20.3735   -7.1716   11.2768 H   0  0  0  0  0
   19.6576   -8.3508   10.1732 H   0  0  0  0  0
   16.6006  -12.2031   11.0333 H   0  0  0  0  0
   16.5224  -11.8302   14.8465 H   0  0  0  0  0
   14.7160  -11.7185   12.2381 H   0  0  0  0  0
   13.4279  -10.3641   13.3332 H   0  0  0  0  0
   13.0305  -13.0470   13.5923 H   0  0  0  0  0
   11.5473  -12.7211   14.5167 H   0  0  0  0  0
   12.4181  -14.7689   15.1672 H   0  0  0  0  0
   14.9425  -14.8038   14.5057 H   0  0  0  0  0
   13.9228  -15.5738   12.5838 H   0  0  0  0  0
   15.6115  -15.4750   12.1539 H   0  0  0  0  0
   13.0011  -15.3031    9.7200 H   0  0  0  0  0
   13.8565  -13.2402    6.6871 H   0  0  0  0  0
   13.8416  -10.5674    6.2379 H   0  0  0  0  0
   15.1742  -11.2216    7.2031 H   0  0  0  0  0
   16.3698   -9.2429    6.1527 H   0  0  0  0  0
   14.8472   -8.6067    5.4834 H   0  0  0  0  0
   15.8426   -7.5900    6.5542 H   0  0  0  0  0
   12.8284   -8.3408    6.9164 H   0  0  0  0  0
   12.8625   -8.7932    8.6383 H   0  0  0  0  0
   13.6854   -7.3121    8.0905 H   0  0  0  0  0
   15.1198   -9.8060    9.6592 H   0  0  0  0  0
   17.4316  -10.0734    9.0728 H   0  0  0  0  0
   17.6852   -7.7999    8.2277 H   0  0  0  0  0
   18.6201   -5.8834    9.3244 H   0  0  0  0  0
   17.2886   -5.9138   10.5015 H   0  0  0  0  0
   17.0563   -3.9572    9.1298 H   0  0  0  0  0
   15.7585   -5.1640    8.6555 H   0  0  0  0  0
   15.2760   -4.5261    6.5251 H   0  0  0  0  0
   17.6665   -4.0659    4.8502 H   0  0  0  0  0
   15.8973   -3.7649    4.3996 H   0  0  0  0  0
   15.7406   -6.2236    4.3376 H   0  0  0  0  0
   17.6216   -6.1237    4.1792 H   0  0  0  0  0
   16.0334   -6.5384    2.1509 H   0  0  0  0  0
   17.0622   -3.4141    2.0255 H   0  0  0  0  0
  1  2  4  0  0  0
  1  6  4  0  0  0
  2  3  4  0  0  0
  3  4  4  0  0  0
  4  5  4  0  0  0
  4 10  4  0  0  0
  5  6  4  0  0  0
  5  8  4  0  0  0
  6  7  1  0  0  0
  8  9  4  0  0  0
  9 10  4  0  0  0
 10 11  1  0  0  0
 11 12  1  0  0  0
 11 21  1  0  0  0
 12 13  1  0  0  0
 12 14  1  0  0  0
 14 15  1  0  0  0
 14 20  1  0  0  0
 15 16  1  0  0  0
 16 17  1  0  0  0
 16 18  2  0  0  0
 16 19  1  0  0  0
 20 21  1  0  0  0
 20 22  1  0  0  0
 22 23  1  0  0  0
 23 24  1  0  0  0
 24 25  1  0  0  0
 24 26  2  0  0  0
 24 27  1  0  0  0
 27 28  1  0  0  0
 28 29  1  0  0  0
 28 30  2  0  0  0
 28 31  1  0  0  0
 31 33  1  0  0  0
 33 32  1  0  0  0
 32 34  1  0  0  0
 32 35  1  0  0  0
 32 36  1  0  0  0
 36 37  1  0  0  0
 36 38  1  0  0  0
 38 39  2  0  0  0
 38 40  1  0  0  0
 40 41  1  0  0  0
 41 42  1  0  0  0
 42 43  1  0  0  0
 43 44  2  0  0  0
 43 45  1  0  0  0
 45 46  1  0  0  0
 46 47  1  0  0  0
 47 48  1  0  0  0
 48 49  1  0  0  0
 48 50  1  0  0  0
 50 51  2  0  0  0
 50 52  1  0  0  0
  2 53  1  0  0  0
  7 54  1  0  0  0
  7 55  1  0  0  0
  9 56  1  0  0  0
 11 57  1  0  0  0
 12 58  1  0  0  0
 13 59  1  0  0  0
 14 60  1  0  0  0
 17 61  1  0  0  0
 19 62  1  0  0  0
 20 63  1  0  0  0
 22 64  1  0  0  0
 22 65  1  0  0  0
 25 66  1  0  0  0
 29 67  1  0  0  0
 33 68  1  0  0  0
 33 69  1  0  0  0
 34 70  1  0  0  0
 34 71  1  0  0  0
 34 72  1  0  0  0
 35 73  1  0  0  0
 35 74  1  0  0  0
 35 75  1  0  0  0
 36 76  1  0  0  0
 37 77  1  0  0  0
 40 78  1  0  0  0
 41 79  1  0  0  0
 41 80  1  0  0  0
 42 81  1  0  0  0
 42 82  1  0  0  0
 45 83  1  0  0  0
 46 84  1  0  0  0
 46 85  1  0  0  0
 47 86  1  0  0  0
 47 87  1  0  0  0
 48 88  1  0  0  0
 52 89  1  0  0  0
M  END
$$$$
