### 
### Created by X-TOOL on Mon Sep 10 21:13:16 2018
### 

@<TRIPOS>MOLECULE
4p5e_ligand
   49    53     1     0     0
SMALL
GAST_HUCK


@<TRIPOS>ATOM
      1 C1        -39.1060   14.7530   25.9640 C.ar      1 N6P        -0.0397
      2 C2        -39.9470   14.5000   27.0410 C.ar      1 N6P        -0.0133
      3 C3        -40.6620   15.5580   27.6150 C.ar      1 N6P        -0.0523
      4 C4        -41.4930   15.3190   28.7040 C.ar      1 N6P        -0.0599
      5 C5        -41.6230   14.0300   29.2170 C.ar      1 N6P        -0.0601
      6 C6        -40.9140   12.9740   28.6440 C.ar      1 N6P        -0.0528
      7 C7        -40.0750   13.2080   27.5500 C.ar      1 N6P        -0.0159
      8 C8        -39.3770   12.1490   26.9760 C.ar      1 N6P        -0.0518
      9 C9        -38.5560   12.3960   25.8900 C.ar      1 N6P        -0.0493
     10 C10       -38.4500   13.6980   25.3580 C.ar      1 N6P         0.0049
     11 C11       -37.5200   13.9540   24.1970 C.ar      1 N6P         0.0688
     12 N1        -36.9120   15.1600   24.0680 N.ar      1 N6P        -0.2777
     13 C12       -36.0680   15.4300   23.0860 C.ar      1 N6P         0.0692
     14 N2        -35.7360   14.5440   22.1390 N.ar      1 N6P        -0.2526
     15 C13       -36.2800   13.3130   22.2140 C.ar      1 N6P         0.1750
     16 C14       -37.2060   12.9640   23.2210 C.ar      1 N6P         0.0912
     17 N3        -37.5880   11.6760   22.9940 N.2       1 N6P        -0.2894
     18 C15       -36.9210   11.2730   21.8840 C.2       1 N6P         0.1176
     19 N4        -36.1240   12.2400   21.3750 N.pl3     1 N6P        -0.1856
     20 C16       -35.1870   12.1950   20.3160 C.3       1 N6P         0.2020
     21 O1        -35.2760   10.7330   19.7280 O.3       1 N6P        -0.3364
     22 C17       -33.9100   12.2080   20.8530 C.3       1 N6P         0.1386
     23 O2        -33.0020   13.1980   20.2270 O.3       1 N6P        -0.3836
     24 C18       -33.1610   10.8200   20.7630 C.3       1 N6P         0.1149
     25 O3        -31.9460   10.7770   20.0780 O.3       1 N6P        -0.3864
     26 C19       -34.2510    9.9220   20.1290 C.3       1 N6P         0.1182
     27 C20       -34.7220    8.9230   21.1760 C.3       1 N6P         0.1072
     28 O4        -35.8340    8.1790   20.5970 O.3       1 N6P        -0.2734
     29 P1        -36.6600    7.1440   21.4810 P.3       1 N6P         0.2008
     30 O5        -37.6180    6.5400   20.4780 O.co2     1 N6P        -0.5537
     31 O6        -35.6780    6.1180   22.0160 O.co2     1 N6P        -0.5537
     32 O7        -37.3250    7.8850   22.6160 O.co2     1 N6P        -0.5537
     33 H         -38.9661   15.7657   25.6034 H         1 N6P         0.0674
     34 H         -40.5681   16.5599   27.2119 H         1 N6P         0.0633
     35 H         -42.0414   16.1380   29.1552 H         1 N6P         0.0621
     36 H         -42.2761   13.8475   30.0627 H         1 N6P         0.0627
     37 H         -41.0134   11.9725   29.0466 H         1 N6P         0.0626
     38 H         -39.4753   11.1455   27.3741 H         1 N6P         0.0626
     39 H         -37.9912   11.5845   25.4456 H         1 N6P         0.0639
     40 H         -35.6231   16.4177   23.0461 H         1 N6P         0.1038
     41 H         -37.0167   10.2789   21.4498 H         1 N6P         0.1393
     42 H         -35.3542   12.9869   19.5710 H         1 N6P         0.0997
     43 H         -34.0201   12.4690   21.9159 H         1 N6P         0.0676
     44 H         -32.9151   13.0050   19.3008 H         1 N6P         0.2101
     45 H         -32.9498   10.4721   21.7849 H         1 N6P         0.0648
     46 H         -32.0822   11.0446   19.1767 H         1 N6P         0.2100
     47 H         -33.8430    9.3823   19.2617 H         1 N6P         0.0650
     48 H         -35.0547    9.4540   22.0800 H         1 N6P         0.0639
     49 H         -33.9035    8.2353   21.4350 H         1 N6P         0.0639
@<TRIPOS>BOND
     1    1    2 ar 
     2    1   10 ar 
     3    2    3 ar 
     4    2    7 ar 
     5    3    4 ar 
     6    4    5 ar 
     7    5    6 ar 
     8    6    7 ar 
     9    7    8 ar 
    10    8    9 ar 
    11    9   10 ar 
    12   10   11 1  
    13   11   12 ar 
    14   11   16 ar 
    15   12   13 ar 
    16   13   14 ar 
    17   14   15 ar 
    18   15   16 ar 
    19   15   19 1  
    20   16   17 1  
    21   17   18 2  
    22   18   19 1  
    23   19   20 1  
    24   20   21 1  
    25   20   22 1  
    26   21   26 1  
    27   22   23 1  
    28   22   24 1  
    29   24   25 1  
    30   24   26 1  
    31   26   27 1  
    32   27   28 1  
    33   28   29 1  
    34   29   30 ar 
    35   29   31 ar 
    36   29   32 ar 
    37    1   33 1  
    38    3   34 1  
    39    4   35 1  
    40    5   36 1  
    41    6   37 1  
    42    8   38 1  
    43    9   39 1  
    44   13   40 1  
    45   18   41 1  
    46   20   42 1  
    47   22   43 1  
    48   23   44 1  
    49   24   45 1  
    50   25   46 1  
    51   26   47 1  
    52   27   48 1  
    53   27   49 1  
@<TRIPOS>SUBSTRUCTURE
     1 N6P         1

