1lt5_ligand
  -I-interpret- 

 45 46  0  0  0  0  0  0  0  0999 V2000
   23.8310   -5.1320   -0.4190 C   0  0  0  0  0
   25.6140   -5.2320   -0.0350 S   0  0  0  0  0
   23.3850   -6.4430   -1.0030 C   0  0  0  0  0
   24.0640   -6.7730   -2.1890 O   0  0  0  0  0
   21.8720   -6.4240   -1.2460 C   0  0  0  0  0
   21.5310   -7.7380   -1.6810 O   0  0  0  0  0
   21.1660   -6.0940    0.0760 C   0  0  0  0  0
   21.3640   -7.1440    1.0200 O   0  0  0  0  0
   21.7210   -4.7950    0.6420 C   0  0  0  0  0
   23.1260   -4.9240    0.8140 O   0  0  0  0  0
   21.1350   -4.4360    2.0030 C   0  0  0  0  0
   21.7830   -3.2710    2.4680 O   0  0  0  0  0
   25.8750   -3.5870    0.6420 C   0  0  0  0  0
   27.3250   -3.4440    1.1010 C   0  0  0  0  0
   27.7070   -4.4170    2.0490 O   0  0  0  0  0
   27.5230   -2.0550    1.6760 C   0  0  0  0  0
   28.8890   -1.8810    2.0370 O   0  0  0  0  0
   27.0650   -1.0000    0.5970 C   0  0  0  0  0
   27.9630   -1.0720   -0.5020 O   0  0  0  0  0
   25.5980   -1.3080    0.1220 C   0  0  0  0  0
   25.6080   -2.6460   -0.4030 O   0  0  0  0  0
   24.9890   -0.3450   -0.9070 C   0  0  0  0  0
   23.6660   -0.7600   -1.1880 O   0  0  0  0  0
   23.6363   -4.3229   -1.1230 H   0  0  0  0  0
   23.6315   -7.2151   -0.2742 H   0  0  0  0  0
   25.0096   -6.7814   -2.0233 H   0  0  0  0  0
   21.5742   -5.6804   -1.9852 H   0  0  0  0  0
   21.9808   -7.9270   -2.5078 H   0  0  0  0  0
   20.0984   -5.9856   -0.1152 H   0  0  0  0  0
   21.0140   -7.9637    0.6633 H   0  0  0  0  0
   21.4562   -4.0111   -0.0676 H   0  0  0  0  0
   21.2877   -5.2557    2.7051 H   0  0  0  0  0
   20.0631   -4.2591    1.9149 H   0  0  0  0  0
   21.4266   -3.0287    3.3259 H   0  0  0  0  0
   25.2207   -3.4133    1.4963 H   0  0  0  0  0
   27.9612   -3.5984    0.2295 H   0  0  0  0  0
   28.6234   -4.2768    2.2983 H   0  0  0  0  0
   26.9243   -1.9162    2.5762 H   0  0  0  0  0
   29.0131   -1.0013    2.4009 H   0  0  0  0  0
   27.0766    0.0023    1.0253 H   0  0  0  0  0
   27.7000   -0.4356   -1.1709 H   0  0  0  0  0
   24.9537   -1.1802    0.9919 H   0  0  0  0  0
   25.5827   -0.3555   -1.8211 H   0  0  0  0  0
   24.9822    0.6689   -0.5070 H   0  0  0  0  0
   23.2748   -0.1643   -1.8312 H   0  0  0  0  0
  1 10  1  0  0  0
  1  3  1  0  0  0
  1  2  1  0  0  0
  2 13  1  0  0  0
 13 21  1  0  0  0
 13 14  1  0  0  0
 14 16  1  0  0  0
 14 15  1  0  0  0
 16 18  1  0  0  0
 16 17  1  0  0  0
 18 20  1  0  0  0
 18 19  1  0  0  0
 20 22  1  0  0  0
 20 21  1  0  0  0
 22 23  1  0  0  0
  3  5  1  0  0  0
  3  4  1  0  0  0
  5  7  1  0  0  0
  5  6  1  0  0  0
  7  9  1  0  0  0
  7  8  1  0  0  0
  9 11  1  0  0  0
  9 10  1  0  0  0
 11 12  1  0  0  0
  1 24  1  0  0  0
  3 25  1  0  0  0
  4 26  1  0  0  0
  5 27  1  0  0  0
  6 28  1  0  0  0
  7 29  1  0  0  0
  8 30  1  0  0  0
  9 31  1  0  0  0
 11 32  1  0  0  0
 11 33  1  0  0  0
 12 34  1  0  0  0
 13 35  1  0  0  0
 14 36  1  0  0  0
 15 37  1  0  0  0
 16 38  1  0  0  0
 17 39  1  0  0  0
 18 40  1  0  0  0
 19 41  1  0  0  0
 20 42  1  0  0  0
 22 43  1  0  0  0
 22 44  1  0  0  0
 23 45  1  0  0  0
M  END
$$$$
