5j1r_ligand
  -I-interpret- 

 25 26  0  0  0  0  0  0  0  0999 V2000
   28.4650   14.2750   16.5290 O   0  0  0  0  0
   29.0200   14.5760   15.4590 C   0  0  0  0  0
   29.7250   15.7770   15.3010 N   0  0  0  0  0
   30.1980   16.6300   16.4040 C   0  0  0  0  0
   31.0830   17.7070   15.7920 C   0  0  0  0  0
   30.9410   17.4300   14.3260 C   0  0  0  0  0
   30.0530   16.2280   14.0000 C   0  0  0  0  0
   28.9310   13.5300   14.3930 C   0  0  0  0  0
   28.2610   12.3470   15.0600 C   0  0  0  0  0
   28.2440   11.3240   14.0450 C   0  0  0  0  0
   27.8090   10.0450   14.2360 C   0  0  0  0  0
   28.6830   11.5640   12.7470 C   0  0  0  0  0
   28.4680   10.3510   12.1380 O   0  0  0  0  0
   27.9380    9.4110   13.0170 C   0  0  0  0  0
   29.9592   16.5124   17.4610 H   0  0  0  0  0
   31.6683   18.4795   16.2908 H   0  0  0  0  0
   31.4279   18.0324   13.5591 H   0  0  0  0  0
   29.7545   15.8281   13.0309 H   0  0  0  0  0
   29.9136   13.2691   13.9999 H   0  0  0  0  0
   28.3658   13.8804   13.5293 H   0  0  0  0  0
   27.2587   12.5900   15.4127 H   0  0  0  0  0
   28.7940   12.0263   15.9551 H   0  0  0  0  0
   27.4352    9.6116   15.1637 H   0  0  0  0  0
   29.0928   12.4801   12.3217 H   0  0  0  0  0
   27.6764    8.3780   12.7878 H   0  0  0  0  0
  1  2  2  0  0  0
  2  3  1  0  0  0
  2  8  1  0  0  0
  3  4  4  0  0  0
  3  7  4  0  0  0
  4  5  4  0  0  0
  5  6  4  0  0  0
  6  7  4  0  0  0
  8  9  1  0  0  0
  9 10  1  0  0  0
 10 11  4  0  0  0
 10 12  4  0  0  0
 11 14  4  0  0  0
 12 13  4  0  0  0
 13 14  4  0  0  0
  4 15  1  0  0  0
  5 16  1  0  0  0
  6 17  1  0  0  0
  7 18  1  0  0  0
  8 19  1  0  0  0
  8 20  1  0  0  0
  9 21  1  0  0  0
  9 22  1  0  0  0
 11 23  1  0  0  0
 12 24  1  0  0  0
 14 25  1  0  0  0
M  END
$$$$
