### 
### Created by X-TOOL on Fri Nov  2 10:14:02 2018
### 

@<TRIPOS>MOLECULE
5typ_ligand
   19    19     1     0     0
SMALL
GAST_HUCK


@<TRIPOS>ATOM
      1 BR        -14.7800   -7.6350  -19.2630 Br        1 7NJ        -0.0564
      2 C02       -16.0910   -8.9290  -19.7790 C.ar      1 7NJ         0.0135
      3 C03       -16.6770   -8.7050  -20.9910 C.ar      1 7NJ        -0.0590
      4 C04       -17.6360   -9.5670  -21.4520 C.ar      1 7NJ        -0.0659
      5 B05       -18.3390   -9.2940  -22.9260 B         1 7NJ         3.0000
      6 O07       -19.6380   -8.2770  -22.7210 O.3       1 7NJ        -0.4105
      7 O08       -17.2880   -8.4890  -23.9420 O.3       1 7NJ        -0.4105
      8 C09       -18.0150  -10.6630  -20.7080 C.ar      1 7NJ        -0.0658
      9 C10       -17.4040  -10.8740  -19.4690 C.ar      1 7NJ        -0.0578
     10 C11       -16.4430  -10.0130  -18.9970 C.ar      1 7NJ        -0.0364
     11 C12       -15.8440  -10.3430  -17.6690 C.3       1 7NJ        -0.0298
     12 H1        -16.3844   -7.8478  -21.5866 H         1 7NJ         0.0626
     13 H4        -20.2730   -8.6881  -22.1464 H         1 7NJ         0.2052
     14 H5        -16.5212   -9.0287  -24.0947 H         1 7NJ         0.2052
     15 H7        -18.7711  -11.3471  -21.0759 H         1 7NJ         0.0623
     16 H8        -17.6929  -11.7306  -18.8708 H         1 7NJ         0.0564
     17 H9        -15.0939   -9.5826  -17.4060 H         1 7NJ         0.0399
     18 H10       -15.3627  -11.3308  -17.7191 H         1 7NJ         0.0399
     19 H11       -16.6342  -10.3585  -16.9040 H         1 7NJ         0.0399
@<TRIPOS>BOND
     1    1    2 1  
     2    2    3 ar 
     3    2   10 ar 
     4    3    4 ar 
     5    4    5 1  
     6    4    8 ar 
     7    5    6 1  
     8    5    7 1  
     9    8    9 ar 
    10    9   10 ar 
    11   10   11 1  
    12    3   12 1  
    13    6   13 1  
    14    7   14 1  
    15    8   15 1  
    16    9   16 1  
    17   11   17 1  
    18   11   18 1  
    19   11   19 1  
@<TRIPOS>SUBSTRUCTURE
     1 7NJ         1

