5typ_ligand
  -I-interpret- 

 19 19  0  0  0  0  0  0  0  0999 V2000
  -14.7800   -7.6350  -19.2630 Br  0  0  0  0  0
  -16.0910   -8.9290  -19.7790 C   0  0  0  0  0
  -16.6770   -8.7050  -20.9910 C   0  0  0  0  0
  -17.6360   -9.5670  -21.4520 C   0  0  0  0  0
  -18.3390   -9.2940  -22.9260 B   0  0  0  0  0
  -19.6380   -8.2770  -22.7210 O   0  0  0  0  0
  -17.2880   -8.4890  -23.9420 O   0  0  0  0  0
  -18.0150  -10.6630  -20.7080 C   0  0  0  0  0
  -17.4040  -10.8740  -19.4690 C   0  0  0  0  0
  -16.4430  -10.0130  -18.9970 C   0  0  0  0  0
  -15.8440  -10.3430  -17.6690 C   0  0  0  0  0
  -16.3828   -7.8431  -21.5899 H   0  0  0  0  0
  -20.2797   -8.6925  -22.1404 H   0  0  0  0  0
  -16.5131   -9.0343  -24.0963 H   0  0  0  0  0
  -18.7753  -11.3509  -21.0780 H   0  0  0  0  0
  -17.6945  -11.7354  -18.8675 H   0  0  0  0  0
  -14.7721  -10.5032  -17.7850 H   0  0  0  0  0
  -16.0167   -9.5173  -16.9787 H   0  0  0  0  0
  -16.3077  -11.2485  -17.2776 H   0  0  0  0  0
  1  2  1  0  0  0
  2  3  4  0  0  0
  2 10  4  0  0  0
  3  4  4  0  0  0
  4  5  1  0  0  0
  4  8  4  0  0  0
  5  6  1  0  0  0
  5  7  1  0  0  0
  8  9  4  0  0  0
  9 10  4  0  0  0
 10 11  1  0  0  0
  3 12  1  0  0  0
  6 13  1  0  0  0
  7 14  1  0  0  0
  8 15  1  0  0  0
  9 16  1  0  0  0
 11 17  1  0  0  0
 11 18  1  0  0  0
 11 19  1  0  0  0
M  END
$$$$
