2w9h_ligand
  -I-interpret- 

 39 40  0  0  0  0  0  0  0  0999 V2000
    7.0800   -4.2930   14.7190 C   0  0  0  0  0
    6.0010   -3.8790   14.0780 N   0  0  0  0  0
    6.0670   -2.8760   13.2410 C   0  0  0  0  0
    4.9790   -2.5240   12.5840 N   0  0  0  0  0
    7.1920   -2.2280   13.0720 N   0  0  0  0  0
    8.2800   -2.5070   13.7140 C   0  0  0  0  0
    9.3950   -1.8170   13.5620 N   0  0  0  0  0
    8.2590   -3.6500   14.6160 C   0  0  0  0  0
    9.5350   -4.0470   15.3400 C   0  0  0  0  0
    9.5490   -5.2960   16.2120 C   0  0  0  0  0
    9.8030   -5.1980   17.5710 C   0  0  0  0  0
    9.8280   -6.3630   18.3910 C   0  0  0  0  0
   10.0770   -6.3160   19.7210 O   0  0  0  0  0
   10.4380   -5.1920   20.3750 C   0  0  0  0  0
    9.5530   -7.5160   17.8150 C   0  0  0  0  0
    9.4900   -8.6780   18.5090 O   0  0  0  0  0
    8.4000   -9.5670   18.2700 C   0  0  0  0  0
    9.2980   -7.6260   16.5000 C   0  0  0  0  0
    9.0550   -8.8040   15.9850 O   0  0  0  0  0
    9.0340   -9.0900   14.6430 C   0  0  0  0  0
    9.3050   -6.5000   15.6680 C   0  0  0  0  0
    7.0139   -5.1801   15.3490 H   0  0  0  0  0
    4.1067   -3.0312   12.7330 H   0  0  0  0  0
    5.0098   -1.7445   11.9268 H   0  0  0  0  0
    9.4222   -1.0274   12.9169 H   0  0  0  0  0
   10.2294   -2.0735   14.0896 H   0  0  0  0  0
    9.7262   -3.2262   16.0313 H   0  0  0  0  0
   10.2489   -4.2588   14.5440 H   0  0  0  0  0
    9.9854   -4.2202   18.0168 H   0  0  0  0  0
   11.3699   -4.8126   19.9558 H   0  0  0  0  0
    9.6557   -4.4412   20.2635 H   0  0  0  0  0
   10.5789   -5.4176   21.4320 H   0  0  0  0  0
    7.4625   -9.0599   18.4980 H   0  0  0  0  0
    8.4044   -9.8721   17.2236 H   0  0  0  0  0
    8.5033  -10.4458   18.9065 H   0  0  0  0  0
    8.2705   -8.4838   14.1555 H   0  0  0  0  0
   10.0088   -8.8661   14.2098 H   0  0  0  0  0
    8.8061  -10.1465   14.5015 H   0  0  0  0  0
    9.1160   -6.5983   14.5990 H   0  0  0  0  0
  1  2  4  0  0  0
  1  8  4  0  0  0
  2  3  4  0  0  0
  3  4  1  0  0  0
  3  5  4  0  0  0
  5  6  4  0  0  0
  6  7  1  0  0  0
  6  8  4  0  0  0
  8  9  1  0  0  0
  9 10  1  0  0  0
 10 11  4  0  0  0
 10 21  4  0  0  0
 11 12  4  0  0  0
 12 13  1  0  0  0
 12 15  4  0  0  0
 13 14  1  0  0  0
 15 16  1  0  0  0
 15 18  4  0  0  0
 16 17  1  0  0  0
 18 19  1  0  0  0
 18 21  4  0  0  0
 19 20  1  0  0  0
  1 22  1  0  0  0
  4 23  1  0  0  0
  4 24  1  0  0  0
  7 25  1  0  0  0
  7 26  1  0  0  0
  9 27  1  0  0  0
  9 28  1  0  0  0
 11 29  1  0  0  0
 14 30  1  0  0  0
 14 31  1  0  0  0
 14 32  1  0  0  0
 17 33  1  0  0  0
 17 34  1  0  0  0
 17 35  1  0  0  0
 20 36  1  0  0  0
 20 37  1  0  0  0
 20 38  1  0  0  0
 21 39  1  0  0  0
M  END
$$$$
