1svh_ligand
  -I-interpret- 

 65 68  0  0  0  0  0  0  0  0999 V2000
   36.2690   16.2010    7.8140 F   0  0  0  0  0
   35.2130   15.3860    7.9370 C   0  0  0  0  0
   35.3840   14.2780    8.6890 C   0  0  0  0  0
   36.6400   14.0420    9.2690 O   0  0  0  0  0
   36.8280   12.7440    9.8580 C   0  0  0  0  0
   34.2510   13.4390    8.8510 C   0  0  0  0  0
   33.0460   13.7300    8.2610 C   0  0  0  0  0
   32.8590   14.9150    7.4870 C   0  0  0  0  0
   31.7240   15.1980    6.9160 O   0  0  0  0  0
   33.9910   15.7570    7.3450 C   0  0  0  0  0
   33.9010   16.9490    6.5340 C   0  0  0  0  0
   34.5150   16.9800    5.4770 O   0  0  0  0  0
   33.1070   18.1050    6.8670 C   0  0  0  0  0
   32.6400   18.2520    8.2050 C   0  0  0  0  0
   31.8910   19.3780    8.5770 C   0  0  0  0  0
   32.8100   19.0590    5.8800 C   0  0  0  0  0
   32.0510   20.1800    6.2420 C   0  0  0  0  0
   31.5830   20.3500    7.5990 C   0  0  0  0  0
   30.8150   21.5280    7.9710 C   0  0  0  0  0
   30.1810   21.6340    9.1630 C   0  0  0  0  0
   29.4440   22.8840    9.5330 C   0  0  0  0  0
   30.5220   23.9530    9.9280 C   0  0  0  0  0
   31.5550   23.4730   10.9920 C   0  0  0  0  0
   30.9480   23.6260   12.3880 C   0  0  0  0  0
   29.7770   22.7130   12.5480 N   0  3  0  0  0
   28.5170   23.2130   11.9460 C   0  0  0  0  0
   28.3080   22.6650   10.5580 C   0  0  0  0  0
   27.0710   23.2800   10.0710 N   0  0  0  0  0
   25.9750   22.5110    9.6990 C   0  0  0  0  0
   26.1490   21.3000    9.6080 O   0  0  0  0  0
   24.6550   23.0800    9.4930 C   0  0  0  0  0
   23.5840   22.1760    9.3710 C   0  0  0  0  0
   22.2970   22.6250    9.2180 C   0  0  0  0  0
   22.0460   23.9910    9.1270 N   0  0  0  0  0
   23.0790   24.9140    9.2220 C   0  0  0  0  0
   24.3860   24.4690    9.4110 C   0  0  0  0  0
   36.0950   12.5967   10.6512 H   0  0  0  0  0
   36.6976   11.9775    9.0941 H   0  0  0  0  0
   37.8334   12.6772   10.2737 H   0  0  0  0  0
   34.3398   12.5395    9.4602 H   0  0  0  0  0
   32.2119   13.0396    8.3865 H   0  0  0  0  0
   31.8025   16.0314    6.4460 H   0  0  0  0  0
   32.8664   17.4841    8.9447 H   0  0  0  0  0
   31.5516   19.5013    9.6054 H   0  0  0  0  0
   33.1617   18.9305    4.8563 H   0  0  0  0  0
   31.8107   20.9328    5.4913 H   0  0  0  0  0
   30.7473   22.3555    7.2647 H   0  0  0  0  0
   30.2075   20.7984    9.8624 H   0  0  0  0  0
   28.8773   23.2602    8.6813 H   0  0  0  0  0
   29.9873   24.7974   10.3629 H   0  0  0  0  0
   31.0834   24.1870    9.0235 H   0  0  0  0  0
   32.4611   24.0746   10.9193 H   0  0  0  0  0
   31.8038   22.4268   10.8141 H   0  0  0  0  0
   30.6165   24.6559   12.5206 H   0  0  0  0  0
   31.7017   23.3715   13.1332 H   0  0  0  0  0
   29.6102   22.6157   13.5496 H   0  0  0  0  0
   30.0105   21.8429   12.0697 H   0  0  0  0  0
   28.5742   24.2996   11.8817 H   0  0  0  0  0
   27.6851   22.8902   12.5720 H   0  0  0  0  0
   28.2738   21.5791   10.6454 H   0  0  0  0  0
   27.0128   24.2961   10.0034 H   0  0  0  0  0
   23.7796   21.1040    9.3984 H   0  0  0  0  0
   21.4727   21.9136    9.1678 H   0  0  0  0  0
   22.8687   25.9810    9.1491 H   0  0  0  0  0
   25.2005   25.1884    9.4957 H   0  0  0  0  0
  1  2  1  0  0  0
  2  3  4  0  0  0
  2 10  4  0  0  0
  3  4  1  0  0  0
  3  6  4  0  0  0
  4  5  1  0  0  0
  6  7  4  0  0  0
  7  8  4  0  0  0
  8  9  1  0  0  0
  8 10  4  0  0  0
 10 11  1  0  0  0
 11 12  2  0  0  0
 11 13  1  0  0  0
 13 14  4  0  0  0
 13 16  4  0  0  0
 14 15  4  0  0  0
 15 18  4  0  0  0
 16 17  4  0  0  0
 17 18  4  0  0  0
 18 19  1  0  0  0
 19 20  2  0  0  0
 20 21  1  0  0  0
 21 22  1  0  0  0
 21 27  1  0  0  0
 22 23  1  0  0  0
 23 24  1  0  0  0
 24 25  1  0  0  0
 25 26  1  0  0  0
 26 27  1  0  0  0
 27 28  1  0  0  0
 28 29  1  0  0  0
 29 30  2  0  0  0
 29 31  1  0  0  0
 31 32  4  0  0  0
 31 36  4  0  0  0
 32 33  4  0  0  0
 33 34  4  0  0  0
 34 35  4  0  0  0
 35 36  4  0  0  0
  5 37  1  0  0  0
  5 38  1  0  0  0
  5 39  1  0  0  0
  6 40  1  0  0  0
  7 41  1  0  0  0
  9 42  1  0  0  0
 14 43  1  0  0  0
 15 44  1  0  0  0
 16 45  1  0  0  0
 17 46  1  0  0  0
 19 47  1  0  0  0
 20 48  1  0  0  0
 21 49  1  0  0  0
 22 50  1  0  0  0
 22 51  1  0  0  0
 23 52  1  0  0  0
 23 53  1  0  0  0
 24 54  1  0  0  0
 24 55  1  0  0  0
 25 56  1  0  0  0
 25 57  1  0  0  0
 26 58  1  0  0  0
 26 59  1  0  0  0
 27 60  1  0  0  0
 28 61  1  0  0  0
 32 62  1  0  0  0
 33 63  1  0  0  0
 35 64  1  0  0  0
 36 65  1  0  0  0
M  END
$$$$
