4ks4_ligand
  -I-interpret- 

 58 59  0  0  0  0  0  0  0  0999 V2000
  210.1700   71.6050 -123.7810 C   0  0  0  0  0
  209.8890   70.2330 -123.1680 C   0  0  0  0  0
  208.6160   69.6580 -123.7850 C   0  0  0  0  0
  207.6950   69.1100 -122.6930 C   0  0  0  0  0
  207.7230   67.5730 -122.7630 C   0  0  0  0  0
  208.0270   70.6700 -124.6150 O   0  0  0  0  0
  206.6100   70.6310 -124.6730 C   0  0  0  0  0
  206.1600   72.0700 -124.9230 C   0  0  0  0  0
  206.6650   72.8930 -123.8200 N   0  0  0  0  0
  207.2530   74.0760 -124.0190 C   0  0  0  0  0
  207.7240   74.7800 -122.7460 C   0  0  0  0  0
  207.4190   74.5930 -125.1240 O   0  0  0  0  0
  206.2070   69.7620 -125.8530 C   0  0  0  0  0
  204.7100   69.9020 -126.1200 C   0  0  0  0  0
  203.8810   68.7030 -126.5590 C   0  0  0  0  0
  202.9950   68.8940 -127.4260 O   0  0  0  0  0
  204.1300   67.6120 -126.0060 O   0  0  0  0  0
  204.0640   71.1100 -125.9070 C   0  0  0  0  0
  204.6430   72.1870 -124.9900 C   0  0  0  0  0
  204.2840   73.4850 -125.5640 N   0  0  0  0  0
  204.2380   74.6050 -124.8710 C   0  0  0  0  0
  203.9920   73.6580 -126.7510 N   0  0  0  0  0
  203.7340   74.8470 -126.9520 N   0  0  0  0  0
  203.8760   75.4810 -125.7900 C   0  0  0  0  0
  203.6630   76.9780 -125.5340 C   0  0  0  0  0
  202.1840   77.2460 -125.2510 C   0  0  0  0  0
  201.3330   76.8080 -126.4370 C   0  0  0  0  0
  204.4470   77.3880 -124.4010 O   0  0  0  0  0
  210.2999   71.5005 -124.8582 H   0  0  0  0  0
  209.3314   72.2710 -123.5778 H   0  0  0  0  0
  211.0783   72.0183 -123.3426 H   0  0  0  0  0
  209.7598   70.3335 -122.0904 H   0  0  0  0  0
  210.7265   69.5647 -123.3682 H   0  0  0  0  0
  208.8277   68.8008 -124.4242 H   0  0  0  0  0
  206.6783   69.4725 -122.8449 H   0  0  0  0  0
  208.0357   69.4457 -121.7136 H   0  0  0  0  0
  207.3748   67.2488 -123.7437 H   0  0  0  0  0
  208.7425   67.2218 -122.6037 H   0  0  0  0  0
  207.0715   67.1635 -121.9910 H   0  0  0  0  0
  206.1654   70.2288 -123.7627 H   0  0  0  0  0
  206.5532   72.4040 -125.8832 H   0  0  0  0  0
  206.5637   72.5496 -122.8649 H   0  0  0  0  0
  208.8016   74.9362 -122.7962 H   0  0  0  0  0
  207.2198   75.7423 -122.6567 H   0  0  0  0  0
  207.4852   74.1616 -121.8808 H   0  0  0  0  0
  206.4340   68.7206 -125.6246 H   0  0  0  0  0
  206.7595   70.0802 -126.7371 H   0  0  0  0  0
  203.0037   69.8161 -127.6930 H   0  0  0  0  0
  203.1146   71.2974 -126.4086 H   0  0  0  0  0
  204.2469   72.0750 -123.9807 H   0  0  0  0  0
  204.4452   74.7663 -123.8131 H   0  0  0  0  0
  203.9718   77.5413 -126.4146 H   0  0  0  0  0
  202.0406   78.3135 -125.0840 H   0  0  0  0  0
  201.8821   76.6827 -124.3680 H   0  0  0  0  0
  201.6338   77.3656 -127.3240 H   0  0  0  0  0
  201.4759   75.7415 -126.6109 H   0  0  0  0  0
  200.2828   77.0047 -126.2214 H   0  0  0  0  0
  204.3123   78.3252 -124.2424 H   0  0  0  0  0
  1  2  1  0  0  0
  2  3  1  0  0  0
  3  4  1  0  0  0
  3  6  1  0  0  0
  4  5  1  0  0  0
  6  7  1  0  0  0
  7  8  1  0  0  0
  7 13  1  0  0  0
  8  9  1  0  0  0
  8 19  1  0  0  0
  9 10  1  0  0  0
 10 11  1  0  0  0
 10 12  2  0  0  0
 13 14  1  0  0  0
 14 15  1  0  0  0
 14 18  2  0  0  0
 15 16  1  0  0  0
 15 17  2  0  0  0
 18 19  1  0  0  0
 19 20  1  0  0  0
 20 21  4  0  0  0
 20 22  4  0  0  0
 21 24  4  0  0  0
 22 23  4  0  0  0
 23 24  4  0  0  0
 24 25  1  0  0  0
 25 26  1  0  0  0
 25 28  1  0  0  0
 26 27  1  0  0  0
  1 29  1  0  0  0
  1 30  1  0  0  0
  1 31  1  0  0  0
  2 32  1  0  0  0
  2 33  1  0  0  0
  3 34  1  0  0  0
  4 35  1  0  0  0
  4 36  1  0  0  0
  5 37  1  0  0  0
  5 38  1  0  0  0
  5 39  1  0  0  0
  7 40  1  0  0  0
  8 41  1  0  0  0
  9 42  1  0  0  0
 11 43  1  0  0  0
 11 44  1  0  0  0
 11 45  1  0  0  0
 13 46  1  0  0  0
 13 47  1  0  0  0
 16 48  1  0  0  0
 18 49  1  0  0  0
 19 50  1  0  0  0
 21 51  1  0  0  0
 25 52  1  0  0  0
 26 53  1  0  0  0
 26 54  1  0  0  0
 27 55  1  0  0  0
 27 56  1  0  0  0
 27 57  1  0  0  0
 28 58  1  0  0  0
M  END
$$$$
