5dpa_ligand
  -I-interpret- 

 61 62  0  0  0  0  0  0  0  0999 V2000
   -1.8840   -8.6800   -3.1740 N   0  0  0  0  0
   -8.1520   -7.3340   -1.3310 C   0  0  0  0  0
   -9.4530   -6.6050   -1.5470 C   0  0  0  0  0
  -10.5070   -7.0160   -0.5590 C   0  0  0  0  0
  -10.7480   -8.3640   -0.2530 C   0  0  0  0  0
  -11.7760   -8.7100    0.6340 C   0  0  0  0  0
  -12.5470   -7.7150    1.2260 C   0  0  0  0  0
  -12.3050   -6.3630    0.9220 C   0  0  0  0  0
  -11.2910   -6.0120    0.0180 C   0  0  0  0  0
   -6.4980   -2.6090   -4.6150 C   0  0  0  0  0
   -6.4450   -7.3630    0.4190 C   0  0  0  0  0
   -6.0250   -6.7880    1.7460 C   0  0  0  0  0
   -6.1420   -5.6080   -7.3240 O   0  0  0  0  0
   -7.0100   -5.6000   -6.4430 C   0  0  0  0  0
   -7.4420   -4.3310   -5.9000 O   0  0  0  0  0
   -6.6450   -3.1640   -6.0150 C   0  0  0  0  0
   -7.7480   -6.8140   -5.8820 C   0  0  0  0  0
   -6.9270   -8.0840   -5.6910 C   0  0  0  0  0
   -6.0060   -7.9980   -4.4380 C   0  0  0  0  0
   -4.9140   -9.0740   -4.5690 C   0  0  0  0  0
   -4.1100   -9.4130   -3.3060 C   0  0  0  0  0
   -3.9860   -8.2540   -2.3090 C   0  0  0  0  0
   -2.6260   -7.6180   -2.5490 C   0  0  0  0  0
   -2.6530   -9.6750   -3.6010 C   0  0  0  0  0
   -2.2450  -10.6720   -4.1580 O   0  0  0  0  0
   -6.8760   -8.1080   -3.2710 N   0  0  0  0  0
   -7.2370   -7.0640   -2.4850 C   0  0  0  0  0
   -6.8470   -5.9080   -2.6070 O   0  0  0  0  0
   -7.6020   -6.8960   -0.0540 N   0  0  0  0  0
   -5.7790   -8.1830   -0.1850 O   0  0  0  0  0
   -0.8694   -8.6699   -3.2787 H   0  0  0  0  0
   -8.2920   -8.4141   -1.2884 H   0  0  0  0  0
   -9.8140   -6.8461   -2.5468 H   0  0  0  0  0
   -9.2682   -5.5383   -1.4204 H   0  0  0  0  0
  -10.1347   -9.1430   -0.7059 H   0  0  0  0  0
  -11.9714   -9.7582    0.8600 H   0  0  0  0  0
  -13.3388   -7.9830    1.9256 H   0  0  0  0  0
  -12.9076   -5.5850    1.3906 H   0  0  0  0  0
  -11.1158   -4.9657   -0.2324 H   0  0  0  0  0
   -7.4835   -2.3719   -4.2142 H   0  0  0  0  0
   -6.0151   -3.3517   -3.9800 H   0  0  0  0  0
   -5.8899   -1.7049   -4.6459 H   0  0  0  0  0
   -5.9251   -7.5930    2.4741 H   0  0  0  0  0
   -5.0685   -6.2777    1.6330 H   0  0  0  0  0
   -6.7785   -6.0785    2.0880 H   0  0  0  0  0
   -5.6721   -3.3954   -6.4487 H   0  0  0  0  0
   -7.1111   -2.4353   -6.6782 H   0  0  0  0  0
   -8.5190   -7.0611   -6.6118 H   0  0  0  0  0
   -8.0907   -6.5251   -4.8884 H   0  0  0  0  0
   -6.2964   -8.2184   -6.5698 H   0  0  0  0  0
   -7.6151   -8.9179   -5.5525 H   0  0  0  0  0
   -5.4647   -7.0575   -4.3358 H   0  0  0  0  0
   -4.1917   -8.6779   -5.2828 H   0  0  0  0  0
   -5.4336   -9.9916   -4.8448 H   0  0  0  0  0
   -4.6648  -10.2658   -2.9149 H   0  0  0  0  0
   -4.0727   -8.6121   -1.2831 H   0  0  0  0  0
   -4.7862   -7.5283   -2.4543 H   0  0  0  0  0
   -2.6802   -6.7193   -3.1634 H   0  0  0  0  0
   -2.1591   -7.2560   -1.6330 H   0  0  0  0  0
   -7.2362   -9.0316   -3.0310 H   0  0  0  0  0
   -8.1187   -6.2099    0.4961 H   0  0  0  0  0
  1 23  1  0  0  0
 24  1  1  0  0  0
  2  3  1  0  0  0
 27  2  1  0  0  0
  2 29  1  0  0  0
  3  4  1  0  0  0
  4  5  4  0  0  0
  4  9  4  0  0  0
  5  6  4  0  0  0
  6  7  4  0  0  0
  8  7  4  0  0  0
  9  8  4  0  0  0
 16 10  1  0  0  0
 11 12  1  0  0  0
 29 11  1  0  0  0
 11 30  2  0  0  0
 14 13  2  0  0  0
 14 15  1  0  0  0
 17 14  1  0  0  0
 15 16  1  0  0  0
 18 17  1  0  0  0
 19 18  1  0  0  0
 19 20  1  0  0  0
 26 19  1  0  0  0
 20 21  1  0  0  0
 21 22  1  0  0  0
 21 24  1  0  0  0
 22 23  1  0  0  0
 24 25  2  0  0  0
 26 27  1  0  0  0
 27 28  2  0  0  0
  1 31  1  0  0  0
  2 32  1  0  0  0
  3 33  1  0  0  0
  3 34  1  0  0  0
  5 35  1  0  0  0
  6 36  1  0  0  0
  7 37  1  0  0  0
  8 38  1  0  0  0
  9 39  1  0  0  0
 10 40  1  0  0  0
 10 41  1  0  0  0
 10 42  1  0  0  0
 12 43  1  0  0  0
 12 44  1  0  0  0
 12 45  1  0  0  0
 16 46  1  0  0  0
 16 47  1  0  0  0
 17 48  1  0  0  0
 17 49  1  0  0  0
 18 50  1  0  0  0
 18 51  1  0  0  0
 19 52  1  0  0  0
 20 53  1  0  0  0
 20 54  1  0  0  0
 21 55  1  0  0  0
 22 56  1  0  0  0
 22 57  1  0  0  0
 23 58  1  0  0  0
 23 59  1  0  0  0
 26 60  1  0  0  0
 29 61  1  0  0  0
M  END
$$$$
