1v1j_ligand
  -I-interpret- 

 22 22  0  0  0  0  0  0  0  0999 V2000
   29.3690   51.4460   57.9320 C   0  0  0  0  0
   27.7450   50.3240   61.4390 F   0  0  0  0  0
   28.5440   50.1920   57.8800 C   0  0  0  0  0
   29.2350   49.2520   57.0620 O   0  0  0  0  0
   28.4350   49.6720   59.2920 C   0  0  0  0  0
   27.4760   48.6360   59.3540 O   0  0  0  0  0
   28.1230   50.7020   60.2090 C   0  0  0  0  0
   28.1960   52.0540   59.9400 C   0  0  0  0  0
   29.4380   53.6990   58.8660 C   0  0  0  0  0
   30.7350   53.7170   58.5840 O   0  0  0  0  0
   27.5280   52.9540   57.8730 O   0  0  0  0  0
   28.8810   54.7930   59.2600 O   0  0  0  0  0
   28.5950   52.5100   58.6870 C   0  0  0  0  0
   29.5800   51.7913   56.9199 H   0  0  0  0  0
   30.3128   51.2462   58.4393 H   0  0  0  0  0
   27.5493   50.3672   57.4701 H   0  0  0  0  0
   29.2980   49.5937   56.1671 H   0  0  0  0  0
   29.4077   49.2721   59.5784 H   0  0  0  0  0
   27.7074   47.9492   58.7245 H   0  0  0  0  0
   27.9382   52.7727   60.7179 H   0  0  0  0  0
   31.0130   52.8413   58.3057 H   0  0  0  0  0
   27.8739   53.2527   57.0287 H   0  0  0  0  0
  1  3  1  0  0  0
 13  1  1  0  0  0
  7  2  1  0  0  0
  3  4  1  0  0  0
  3  5  1  0  0  0
  5  6  1  0  0  0
  7  5  1  0  0  0
  8  7  2  0  0  0
 13  8  1  0  0  0
  9 10  1  0  0  0
  9 12  2  0  0  0
  9 13  1  0  0  0
 13 11  1  0  0  0
  1 14  1  0  0  0
  1 15  1  0  0  0
  3 16  1  0  0  0
  4 17  1  0  0  0
  5 18  1  0  0  0
  6 19  1  0  0  0
  8 20  1  0  0  0
 10 21  1  0  0  0
 11 22  1  0  0  0
M  END
$$$$
