5vp1_ligand
  -I-interpret- 

 57 60  0  0  0  0  0  0  0  0999 V2000
   14.8230    7.7370   65.9650 N   0  0  0  0  0
   14.2000    6.7410   66.5130 C   0  0  0  0  0
   13.4900    6.2120   68.8030 C   0  0  0  0  0
   10.5820    3.9390   68.9350 C   0  0  0  0  0
   11.0160    3.9030   71.1010 N   0  0  0  0  0
   13.7820    6.2230   70.2010 C   0  0  0  0  0
    9.9760    3.6000   67.6330 C   0  0  0  0  0
   10.4480    3.5760   65.1680 C   0  0  0  0  0
    9.8170    4.6840   64.3560 C   0  0  0  0  0
    9.5750    7.0060   63.7570 C   0  0  0  0  0
   15.8830    9.9450   66.6120 C   0  0  0  0  0
   15.1470    8.6530   66.8760 C   0  0  0  0  0
   14.1450    6.9810   67.8400 N   0  0  0  0  0
   14.7310    8.2400   68.0370 N   0  0  0  0  0
   12.4600    5.5060   68.3450 N   0  0  0  0  0
   11.6970    4.7710   69.1620 C   0  0  0  0  0
   10.2100    3.4190   70.1880 C   0  0  0  0  0
   11.9540    4.7480   70.5150 N   0  0  0  0  0
   12.9950    5.4780   71.0370 C   0  0  0  0  0
   14.9220    6.9840   70.8370 C   0  0  0  0  0
    8.9070    3.0370   67.5360 O   0  0  0  0  0
   10.7220    3.8850   66.5620 N   0  0  0  0  0
   10.1260    6.0240   64.5670 C   0  0  0  0  0
    8.6960    6.6360   62.7350 C   0  0  0  0  0
    8.1430    7.5880   61.9390 O   0  0  0  0  0
    7.0330    8.3190   62.4530 C   0  0  0  0  0
    7.3600    9.0710   63.5820 F   0  0  0  0  0
    6.6180    9.1710   61.4480 F   0  0  0  0  0
    6.0400    7.4260   62.8010 F   0  0  0  0  0
    8.3830    5.2940   62.5140 C   0  0  0  0  0
    8.9340    4.3230   63.3290 C   0  0  0  0  0
   11.8560    3.1860   64.6010 C   0  0  0  0  0
   12.4740    2.0560   65.4350 C   0  0  0  0  0
   11.7940    2.7090   63.1410 C   0  0  0  0  0
   12.7920    4.2760   64.6290 O   0  0  0  0  0
   13.7952    5.8703   65.9972 H   0  0  0  0  0
    9.6942    2.7916   65.1006 H   0  0  0  0  0
    9.8248    8.0551   63.9157 H   0  0  0  0  0
   16.8628    9.7236   66.1888 H   0  0  0  0  0
   15.3107   10.5506   65.9093 H   0  0  0  0  0
   16.0048   10.4901   67.5480 H   0  0  0  0  0
    9.3871    2.7276   70.3696 H   0  0  0  0  0
   13.1924    5.4637   72.1089 H   0  0  0  0  0
   15.8671    6.6341   70.4218 H   0  0  0  0  0
   14.8056    8.0483   70.6324 H   0  0  0  0  0
   14.9127    6.8167   71.9140 H   0  0  0  0  0
   11.5936    4.3820   66.7454 H   0  0  0  0  0
   10.8045    6.3036   65.3729 H   0  0  0  0  0
    7.7089    5.0136   61.7046 H   0  0  0  0  0
    8.6813    3.2743   63.1727 H   0  0  0  0  0
   13.4273    1.7618   64.9960 H   0  0  0  0  0
   12.6346    2.4050   66.4550 H   0  0  0  0  0
   11.7976    1.2013   65.4443 H   0  0  0  0  0
   11.4595    3.5294   62.5060 H   0  0  0  0  0
   12.7847    2.3832   62.8242 H   0  0  0  0  0
   11.0939    1.8774   63.0612 H   0  0  0  0  0
   13.6336    3.9829   64.2721 H   0  0  0  0  0
  2  1  4  0  0  0
 12  1  4  0  0  0
 13  2  4  0  0  0
  3  6  4  0  0  0
  3 13  1  0  0  0
 15  3  4  0  0  0
  4  7  1  0  0  0
 16  4  4  0  0  0
  4 17  4  0  0  0
 17  5  4  0  0  0
  5 18  4  0  0  0
  6 19  4  0  0  0
  6 20  1  0  0  0
  7 21  2  0  0  0
  7 22  1  0  0  0
  8  9  1  0  0  0
 22  8  1  0  0  0
  8 32  1  0  0  0
  9 23  4  0  0  0
  9 31  4  0  0  0
 23 10  4  0  0  0
 10 24  4  0  0  0
 12 11  1  0  0  0
 14 12  4  0  0  0
 13 14  4  0  0  0
 15 16  4  0  0  0
 16 18  4  0  0  0
 18 19  4  0  0  0
 24 25  1  0  0  0
 24 30  4  0  0  0
 25 26  1  0  0  0
 26 27  1  0  0  0
 26 28  1  0  0  0
 26 29  1  0  0  0
 30 31  4  0  0  0
 32 33  1  0  0  0
 32 34  1  0  0  0
 32 35  1  0  0  0
  2 36  1  0  0  0
  8 37  1  0  0  0
 10 38  1  0  0  0
 11 39  1  0  0  0
 11 40  1  0  0  0
 11 41  1  0  0  0
 17 42  1  0  0  0
 19 43  1  0  0  0
 20 44  1  0  0  0
 20 45  1  0  0  0
 20 46  1  0  0  0
 22 47  1  0  0  0
 23 48  1  0  0  0
 30 49  1  0  0  0
 31 50  1  0  0  0
 33 51  1  0  0  0
 33 52  1  0  0  0
 33 53  1  0  0  0
 34 54  1  0  0  0
 34 55  1  0  0  0
 34 56  1  0  0  0
 35 57  1  0  0  0
M  END
$$$$
