6g38_ligand
  -I-interpret- 

 33 35  0  0  0  0  0  0  0  0999 V2000
   51.1170   45.7800   10.0260 O   0  0  0  0  0
   51.5340   44.5610    9.4270 C   0  0  0  0  0
   51.0780   44.3970    8.0020 C   0  0  0  0  0
   49.6410   44.2200    7.9560 O   0  0  0  0  0
   49.1110   44.8580    6.8050 C   0  0  0  0  0
   48.1980   45.9200    7.2290 N   0  0  0  0  0
   48.2180   46.5700    8.4560 C   0  0  0  0  0
   47.2530   47.5190    8.4970 C   0  0  0  0  0
   46.5860   47.4860    7.2270 C   0  0  0  0  0
   45.5140   48.1740    6.5800 C   0  0  0  0  0
   45.1500   47.8180    5.3330 N   0  0  0  0  0
   45.8210   46.8210    4.7420 C   0  0  0  0  0
   46.8510   46.1040    5.2230 N   0  0  0  0  0
   47.1960   46.4730    6.4690 C   0  0  0  0  0
   44.8720   49.1930    7.1630 N   0  0  0  0  0
   50.3100   45.3630    5.9940 C   0  0  0  0  0
   50.6650   44.3360    5.0660 O   0  0  0  0  0
   51.3450   45.5800    7.0890 C   0  0  0  0  0
   52.7170   45.5840    6.6510 O   0  0  0  0  0
   51.4405   45.8186   10.9290 H   0  0  0  0  0
   51.0942   43.7480   10.0046 H   0  0  0  0  0
   52.6240   44.5576    9.4218 H   0  0  0  0  0
   51.6523   43.5396    7.6511 H   0  0  0  0  0
   48.5245   44.1902    6.1740 H   0  0  0  0  0
   48.9102   46.3484    9.2683 H   0  0  0  0  0
   47.0266   48.1803    9.3333 H   0  0  0  0  0
   45.4878   46.5561    3.7385 H   0  0  0  0  0
   45.1441   49.4998    8.0969 H   0  0  0  0  0
   44.1105   49.6630    6.6735 H   0  0  0  0  0
   50.1645   46.2640    5.3981 H   0  0  0  0  0
   49.9739   44.2505    4.4052 H   0  0  0  0  0
   51.2411   46.5661    7.5417 H   0  0  0  0  0
   53.2924   45.7266    7.4061 H   0  0  0  0  0
  1  2  1  0  0  0
  2  3  1  0  0  0
  3  4  1  0  0  0
  3 18  1  0  0  0
  4  5  1  0  0  0
  5  6  1  0  0  0
  5 16  1  0  0  0
  6  7  4  0  0  0
  6 14  4  0  0  0
  7  8  4  0  0  0
  8  9  4  0  0  0
  9 10  4  0  0  0
  9 14  4  0  0  0
 10 11  4  0  0  0
 10 15  1  0  0  0
 11 12  4  0  0  0
 12 13  4  0  0  0
 13 14  4  0  0  0
 16 17  1  0  0  0
 16 18  1  0  0  0
 18 19  1  0  0  0
  1 20  1  0  0  0
  2 21  1  0  0  0
  2 22  1  0  0  0
  3 23  1  0  0  0
  5 24  1  0  0  0
  7 25  1  0  0  0
  8 26  1  0  0  0
 12 27  1  0  0  0
 15 28  1  0  0  0
 15 29  1  0  0  0
 16 30  1  0  0  0
 17 31  1  0  0  0
 18 32  1  0  0  0
 19 33  1  0  0  0
M  END
$$$$
