5eij_ligand
  -I-interpret- 

 35 36  0  0  0  0  0  0  0  0999 V2000
   -0.9370    8.2750   12.7750 C   0  0  0  0  0
   -0.0020    8.9050   13.5870 C   0  0  0  0  0
    1.8090    9.5980   12.7500 I   0  0  0  0  0
   -0.2330    9.0990   14.9400 C   0  0  0  0  0
   -1.4120    8.6470   15.4920 C   0  0  0  0  0
   -2.3400    8.0070   14.6840 C   0  0  0  0  0
   -2.1190    7.8220   13.3270 C   0  0  0  0  0
   -3.1310    7.1650   12.5150 N   0  0  0  0  0
   -4.2140    6.5300   13.2520 C   0  0  0  0  0
   -5.6560    6.1260   12.2250 S   0  0  0  0  0
   -3.6000    5.3520   13.8170 N   0  0  0  0  0
   -4.2720    4.3350   14.5790 C   0  0  0  0  0
   -5.5970    4.4060   14.9700 C   0  0  0  0  0
   -6.1270    3.3620   15.7090 C   0  0  0  0  0
   -5.3150    2.2880   16.0410 C   0  0  0  0  0
   -5.9410    0.8850   16.9920 S   0  0  0  0  0
   -5.3540    1.0290   18.5000 O   0  0  0  0  0
   -7.5590    0.9480   16.8950 O   0  0  0  0  0
   -5.3380   -0.5290   16.2500 N   0  0  0  0  0
   -4.0030    2.2330   15.6500 C   0  0  0  0  0
   -3.4860    3.2620   14.9100 C   0  0  0  0  0
   -0.7393    8.1395   11.7117 H   0  0  0  0  0
    0.5088    9.6029   15.5596 H   0  0  0  0  0
   -1.6133    8.7911   16.5535 H   0  0  0  0  0
   -3.2662    7.6402   15.1263 H   0  0  0  0  0
   -3.0850    7.1501   11.4961 H   0  0  0  0  0
   -4.6299    7.1978   14.0064 H   0  0  0  0  0
   -6.5891    5.5526   12.9796 H   0  0  0  0  0
   -2.5993    5.2303   13.6616 H   0  0  0  0  0
   -6.2109    5.2658   14.7019 H   0  0  0  0  0
   -7.1697    3.3840   16.0259 H   0  0  0  0  0
   -4.7009   -1.1407   16.7602 H   0  0  0  0  0
   -5.6148   -0.7623   15.2964 H   0  0  0  0  0
   -3.3797    1.3819   15.9243 H   0  0  0  0  0
   -2.4467    3.2280   14.5832 H   0  0  0  0  0
  1  2  4  0  0  0
  1  7  4  0  0  0
  2  3  1  0  0  0
  2  4  4  0  0  0
  4  5  4  0  0  0
  5  6  4  0  0  0
  6  7  4  0  0  0
  7  8  1  0  0  0
  8  9  1  0  0  0
  9 10  1  0  0  0
  9 11  1  0  0  0
 11 12  1  0  0  0
 12 13  4  0  0  0
 12 21  4  0  0  0
 13 14  4  0  0  0
 14 15  4  0  0  0
 15 16  1  0  0  0
 15 20  4  0  0  0
 16 17  2  0  0  0
 16 18  2  0  0  0
 16 19  1  0  0  0
 20 21  4  0  0  0
  1 22  1  0  0  0
  4 23  1  0  0  0
  5 24  1  0  0  0
  6 25  1  0  0  0
  8 26  1  0  0  0
  9 27  1  0  0  0
 10 28  1  0  0  0
 11 29  1  0  0  0
 13 30  1  0  0  0
 14 31  1  0  0  0
 19 32  1  0  0  0
 19 33  1  0  0  0
 20 34  1  0  0  0
 21 35  1  0  0  0
M  END
$$$$
