3pjt_ligand
  -I-interpret- 

 70 76  0  0  0  0  0  0  0  0999 V2000
  -18.7560  -46.1670   15.6700 P   0  0  0  0  0
  -17.8040  -45.3260   16.4680 O   0  0  0  0  0
  -18.8470  -47.5270   16.3410 O   0  0  0  0  0
  -20.1820  -45.4520   15.6880 O   0  0  0  0  0
  -21.3060  -46.2210   15.3870 C   0  0  0  0  0
  -21.6970  -46.2070   13.9390 C   0  0  0  0  0
  -22.7340  -47.1110   13.7190 O   0  0  0  0  0
  -22.2990  -44.9220   13.4380 C   0  0  0  0  0
  -22.2790  -44.9250   12.0580 O   0  0  0  0  0
  -23.6320  -45.0140   13.8850 C   0  0  0  0  0
  -24.5720  -44.2590   13.1390 O   0  0  0  0  0
  -23.9570  -46.4130   13.7910 C   0  0  0  0  0
  -24.9000  -47.0730   14.8860 N   0  0  0  0  0
  -24.9570  -46.6720   16.1660 C   0  0  0  0  0
  -25.7830  -47.5010   16.8250 N   0  0  0  0  0
  -26.2320  -48.4350   15.9630 C   0  0  0  0  0
  -27.1040  -49.5180   16.1170 C   0  0  0  0  0
  -27.6560  -49.8420   17.3340 O   0  0  0  0  0
  -27.3700  -50.2780   15.0490 N   0  0  0  0  0
  -26.8110  -49.9930   13.8640 C   0  0  0  0  0
  -27.1560  -50.8000   12.7480 N   0  0  0  0  0
  -25.9610  -48.9620   13.6900 N   0  0  0  0  0
  -25.6530  -48.1670   14.7180 C   0  0  0  0  0
  -21.3540  -43.8660   11.3590 P   0  0  0  0  0
  -21.2090  -42.6500   12.2230 O   0  0  0  0  0
  -21.9080  -43.4720   10.0250 O   0  0  0  0  0
  -19.9490  -44.4530   11.0300 O   0  0  0  0  0
  -19.1120  -44.3100   12.0850 C   0  0  0  0  0
  -18.0690  -45.3360   12.1560 C   0  0  0  0  0
  -16.8900  -44.8540   11.4330 O   0  0  0  0  0
  -17.7500  -45.3030   13.5900 C   0  0  0  0  0
  -18.1740  -46.4410   14.2410 O   0  0  0  0  0
  -16.3340  -44.9130   13.7200 C   0  0  0  0  0
  -15.5280  -45.9720   14.0010 O   0  0  0  0  0
  -16.0080  -44.3230   12.3760 C   0  0  0  0  0
  -15.7870  -42.7590   12.4050 N   0  0  0  0  0
  -16.7490  -41.8500   12.6340 C   0  0  0  0  0
  -16.1770  -40.6400   12.7320 N   0  0  0  0  0
  -14.8490  -40.7830   12.5650 C   0  0  0  0  0
  -13.7740  -39.8960   12.5670 C   0  0  0  0  0
  -13.9970  -38.5600   12.8260 O   0  0  0  0  0
  -12.5250  -40.3790   12.3760 N   0  0  0  0  0
  -12.3060  -41.6840   12.1680 C   0  0  0  0  0
  -10.9710  -42.1710   11.9510 N   0  0  0  0  0
  -13.3380  -42.5420   12.1700 N   0  0  0  0  0
  -14.5980  -42.1330   12.3650 C   0  0  0  0  0
  -19.4521  -48.0859   15.8480 H   0  0  0  0  0
  -22.1407  -45.8004   15.9477 H   0  0  0  0  0
  -21.0655  -47.2528   15.6433 H   0  0  0  0  0
  -20.7545  -46.4157   13.4329 H   0  0  0  0  0
  -21.7815  -44.0251   13.7784 H   0  0  0  0  0
  -23.6954  -44.5997   14.8912 H   0  0  0  0  0
  -25.4478  -44.3813   13.5127 H   0  0  0  0  0
  -24.5865  -46.4905   12.9045 H   0  0  0  0  0
  -24.4259  -45.8224   16.5952 H   0  0  0  0  0
  -27.9993  -51.0760   15.1361 H   0  0  0  0  0
  -26.7617  -50.5959   11.8297 H   0  0  0  0  0
  -27.7982  -51.5838   12.8645 H   0  0  0  0  0
  -20.8537  -42.9063   13.0772 H   0  0  0  0  0
  -19.7131  -44.3945   12.9904 H   0  0  0  0  0
  -18.6134  -43.3469   11.9759 H   0  0  0  0  0
  -18.3555  -46.3083   11.7551 H   0  0  0  0  0
  -18.3162  -44.5440   14.1298 H   0  0  0  0  0
  -16.1732  -44.2200   14.5459 H   0  0  0  0  0
  -14.6197  -45.6704   14.0761 H   0  0  0  0  0
  -15.0153  -44.6273   12.0443 H   0  0  0  0  0
  -17.8147  -42.0598   12.7249 H   0  0  0  0  0
  -11.7333  -39.7360   12.3907 H   0  0  0  0  0
  -10.8097  -43.1666   11.7990 H   0  0  0  0  0
  -10.1850  -41.5209   11.9490 H   0  0  0  0  0
  1  2  2  0  0  0
  1  3  1  0  0  0
  1  4  1  0  0  0
  1 32  1  0  0  0
  4  5  1  0  0  0
  5  6  1  0  0  0
  6  7  1  0  0  0
  6  8  1  0  0  0
  7 12  1  0  0  0
  8  9  1  0  0  0
  8 10  1  0  0  0
  9 24  1  0  0  0
 10 11  1  0  0  0
 10 12  1  0  0  0
 12 13  1  0  0  0
 13 14  4  0  0  0
 13 23  4  0  0  0
 14 15  4  0  0  0
 15 16  4  0  0  0
 16 17  1  0  0  0
 16 23  4  0  0  0
 17 18  2  0  0  0
 17 19  1  0  0  0
 19 20  1  0  0  0
 20 21  1  0  0  0
 20 22  2  0  0  0
 22 23  1  0  0  0
 24 25  1  0  0  0
 24 26  2  0  0  0
 24 27  1  0  0  0
 27 28  1  0  0  0
 28 29  1  0  0  0
 29 30  1  0  0  0
 29 31  1  0  0  0
 30 35  1  0  0  0
 31 32  1  0  0  0
 31 33  1  0  0  0
 33 34  1  0  0  0
 33 35  1  0  0  0
 35 36  1  0  0  0
 36 37  4  0  0  0
 36 46  4  0  0  0
 37 38  4  0  0  0
 38 39  4  0  0  0
 39 40  1  0  0  0
 39 46  4  0  0  0
 40 41  2  0  0  0
 40 42  1  0  0  0
 42 43  1  0  0  0
 43 44  1  0  0  0
 43 45  2  0  0  0
 45 46  1  0  0  0
  3 47  1  0  0  0
  5 48  1  0  0  0
  5 49  1  0  0  0
  6 50  1  0  0  0
  8 51  1  0  0  0
 10 52  1  0  0  0
 11 53  1  0  0  0
 12 54  1  0  0  0
 14 55  1  0  0  0
 19 56  1  0  0  0
 21 57  1  0  0  0
 21 58  1  0  0  0
 25 59  1  0  0  0
 28 60  1  0  0  0
 28 61  1  0  0  0
 29 62  1  0  0  0
 31 63  1  0  0  0
 33 64  1  0  0  0
 34 65  1  0  0  0
 35 66  1  0  0  0
 37 67  1  0  0  0
 42 68  1  0  0  0
 44 69  1  0  0  0
 44 70  1  0  0  0
M  END
$$$$
