### 
### Created by X-TOOL on Mon Sep 10 21:13:06 2018
### 

@<TRIPOS>MOLECULE
3pjt_ligand
   68    74     1     0     0
SMALL
GAST_HUCK


@<TRIPOS>ATOM
      1 P1        -18.7560  -46.1670   15.6700 P.3       1 C2E         0.2557
      2 O2P       -17.8040  -45.3260   16.4680 O.co2     1 C2E        -0.6177
      3 O1P       -18.8470  -47.5270   16.3410 O.co2     1 C2E        -0.6177
      4 O5'       -20.1820  -45.4520   15.6880 O.3       1 C2E        -0.2514
      5 C5'       -21.3060  -46.2210   15.3870 C.3       1 C2E         0.1128
      6 C4'       -21.6970  -46.2070   13.9390 C.3       1 C2E         0.1242
      7 O4'       -22.7340  -47.1110   13.7190 O.3       1 C2E        -0.3359
      8 C3'       -22.2990  -44.9220   13.4380 C.3       1 C2E         0.1540
      9 O3'       -22.2790  -44.9250   12.0580 O.3       1 C2E        -0.2453
     10 C2'       -23.6320  -45.0140   13.8850 C.3       1 C2E         0.1440
     11 O2'       -24.5720  -44.2590   13.1390 O.3       1 C2E        -0.3832
     12 C1'       -23.9570  -46.4130   13.7910 C.3       1 C2E         0.1996
     13 N9        -24.9000  -47.0730   14.8860 N.pl3     1 C2E        -0.2101
     14 C8        -24.9570  -46.6720   16.1660 C.2       1 C2E         0.0957
     15 N7        -25.7830  -47.5010   16.8250 N.2       1 C2E        -0.3235
     16 C5        -26.2320  -48.4350   15.9630 C.2       1 C2E         0.0926
     17 C6        -27.1040  -49.5180   16.1170 C.2       1 C2E         0.2135
     18 O6        -27.6560  -49.8420   17.3340 O.2       1 C2E        -0.4091
     19 N1        -27.3700  -50.2780   15.0490 N.am      1 C2E        -0.1839
     20 C2        -26.8110  -49.9930   13.8640 C.2       1 C2E         0.2340
     21 N2        -27.1560  -50.8000   12.7480 N.pl3     1 C2E        -0.2807
     22 N3        -25.9610  -48.9620   13.6900 N.2       1 C2E        -0.2765
     23 C4        -25.6530  -48.1670   14.7180 C.2       1 C2E         0.1159
     24 P11       -21.3540  -43.8660   11.3590 P.3       1 C2E         0.2557
     25 O21       -21.2090  -42.6500   12.2230 O.co2     1 C2E        -0.6177
     26 O11       -21.9080  -43.4720   10.0250 O.co2     1 C2E        -0.6177
     27 O5A       -19.9490  -44.4530   11.0300 O.3       1 C2E        -0.2514
     28 C5A       -19.1120  -44.3100   12.0850 C.3       1 C2E         0.1128
     29 C4A       -18.0690  -45.3360   12.1560 C.3       1 C2E         0.1242
     30 O4A       -16.8900  -44.8540   11.4330 O.3       1 C2E        -0.3359
     31 C3A       -17.7500  -45.3030   13.5900 C.3       1 C2E         0.1540
     32 O3A       -18.1740  -46.4410   14.2410 O.3       1 C2E        -0.2453
     33 C2A       -16.3340  -44.9130   13.7200 C.3       1 C2E         0.1440
     34 O2A       -15.5280  -45.9720   14.0010 O.3       1 C2E        -0.3832
     35 C1A       -16.0080  -44.3230   12.3760 C.3       1 C2E         0.1996
     36 N91       -15.7870  -42.7590   12.4050 N.pl3     1 C2E        -0.2101
     37 C81       -16.7490  -41.8500   12.6340 C.2       1 C2E         0.0957
     38 N71       -16.1770  -40.6400   12.7320 N.2       1 C2E        -0.3235
     39 C51       -14.8490  -40.7830   12.5650 C.2       1 C2E         0.0926
     40 C61       -13.7740  -39.8960   12.5670 C.2       1 C2E         0.2135
     41 O61       -13.9970  -38.5600   12.8260 O.2       1 C2E        -0.4091
     42 N11       -12.5250  -40.3790   12.3760 N.am      1 C2E        -0.1839
     43 C21       -12.3060  -41.6840   12.1680 C.2       1 C2E         0.2340
     44 N21       -10.9710  -42.1710   11.9510 N.pl3     1 C2E        -0.2807
     45 N31       -13.3380  -42.5420   12.1700 N.2       1 C2E        -0.2765
     46 C41       -14.5980  -42.1330   12.3650 C.2       1 C2E         0.1159
     47 H1        -22.1526  -45.8379   15.9756 H         1 C2E         0.0647
     48 H2        -21.0987  -47.2616   15.6772 H         1 C2E         0.0647
     49 H3        -20.8120  -46.4649   13.3388 H         1 C2E         0.0655
     50 H4        -21.7852  -44.0353   13.8378 H         1 C2E         0.0712
     51 H5        -23.6819  -44.6827   14.9327 H         1 C2E         0.0681
     52 H6        -25.4386  -44.3800   13.5088 H         1 C2E         0.2102
     53 H7        -24.4815  -46.5425   12.8329 H         1 C2E         0.0998
     54 H8        -24.4264  -45.8232   16.5948 H         1 C2E         0.1179
     55 H9        -27.9870  -51.0603   15.1344 H         1 C2E         0.2515
     56 H10       -26.7430  -50.6057   11.8247 H         1 C2E         0.1897
     57 H11       -27.8193  -51.5797   12.8617 H         1 C2E         0.1897
     58 H12       -19.7074  -44.3564   13.0088 H         1 C2E         0.0647
     59 H13       -18.6259  -43.3260   12.0111 H         1 C2E         0.0647
     60 H14       -18.3996  -46.3225   11.7988 H         1 C2E         0.0655
     61 H15       -18.3327  -44.4831   14.0351 H         1 C2E         0.0712
     62 H16       -16.2169  -44.1585   14.5118 H         1 C2E         0.0681
     63 H17       -15.8004  -46.3671   14.8209 H         1 C2E         0.2102
     64 H18       -15.0220  -44.7255   12.1009 H         1 C2E         0.0998
     65 H19       -17.8138  -42.0596   12.7248 H         1 C2E         0.1179
     66 H20       -11.7489  -39.7486   12.3904 H         1 C2E         0.2515
     67 H21       -10.8088  -43.1756   11.7916 H         1 C2E         0.1897
     68 H22       -10.1766  -41.5154   11.9549 H         1 C2E         0.1897
@<TRIPOS>BOND
     1    1    2 ar 
     2    1    3 ar 
     3    1    4 1  
     4    1   32 1  
     5    4    5 1  
     6    5    6 1  
     7    6    7 1  
     8    6    8 1  
     9    7   12 1  
    10    8    9 1  
    11    8   10 1  
    12    9   24 1  
    13   10   11 1  
    14   10   12 1  
    15   12   13 1  
    16   13   14 1  
    17   13   23 1  
    18   14   15 2  
    19   15   16 1  
    20   16   17 1  
    21   16   23 2  
    22   17   18 2  
    23   17   19 am 
    24   19   20 am 
    25   20   21 1  
    26   20   22 2  
    27   22   23 1  
    28   24   25 ar 
    29   24   26 ar 
    30   24   27 1  
    31   27   28 1  
    32   28   29 1  
    33   29   30 1  
    34   29   31 1  
    35   30   35 1  
    36   31   32 1  
    37   31   33 1  
    38   33   34 1  
    39   33   35 1  
    40   35   36 1  
    41   36   37 1  
    42   36   46 1  
    43   37   38 2  
    44   38   39 1  
    45   39   40 1  
    46   39   46 2  
    47   40   41 2  
    48   40   42 am 
    49   42   43 am 
    50   43   44 1  
    51   43   45 2  
    52   45   46 1  
    53    5   47 1  
    54    5   48 1  
    55    6   49 1  
    56    8   50 1  
    57   10   51 1  
    58   11   52 1  
    59   12   53 1  
    60   14   54 1  
    61   19   55 1  
    62   21   56 1  
    63   21   57 1  
    64   28   58 1  
    65   28   59 1  
    66   29   60 1  
    67   31   61 1  
    68   33   62 1  
    69   34   63 1  
    70   35   64 1  
    71   37   65 1  
    72   42   66 1  
    73   44   67 1  
    74   44   68 1  
@<TRIPOS>SUBSTRUCTURE
     1 C2E         1

