6m8a_ligand
  -I-interpret- 

 31 33  0  0  0  0  0  0  0  0999 V2000
    7.3980   25.0870   24.7030 C   0  0  0  0  0
    8.8920   23.5200   23.6840 O   0  0  0  0  0
    7.8890   24.4390   23.5630 C   0  0  0  0  0
    5.8440   25.8750   20.8930 O   0  0  0  0  0
    7.3760   24.7010   22.2880 C   0  0  0  0  0
    4.1970   27.5690   22.0830 O   0  0  0  0  0
    6.3470   25.6170   22.1110 C   0  0  0  0  0
    5.8620   26.6910   25.6740 O   0  0  0  0  0
    5.7990   26.3280   23.2790 C   0  0  0  0  0
    4.4920   27.2660   30.4060 O   0  0  0  0  0
    6.3690   26.0210   24.5980 C   0  0  0  0  0
    3.3630   29.9020   30.5770 O   0  0  0  0  0
    4.6980   27.3240   23.1920 C   0  0  0  0  0
    4.2450   27.9480   24.3570 C   0  0  0  0  0
    4.8280   27.6180   25.5920 C   0  0  0  0  0
    4.4130   28.2400   26.8800 C   0  0  0  0  0
    4.6260   27.4970   28.0480 C   0  0  0  0  0
    4.2880   28.0150   29.2880 C   0  0  0  0  0
    3.7100   29.3780   29.3670 C   0  0  0  0  0
    3.5150   30.0940   28.1860 C   0  0  0  0  0
    3.8690   29.5340   26.9530 C   0  0  0  0  0
    7.8239   24.8592   25.6801 H   0  0  0  0  0
    9.1114   23.1714   22.8169 H   0  0  0  0  0
    5.1457   26.5294   20.9685 H   0  0  0  0  0
    7.7885   24.1804   21.4238 H   0  0  0  0  0
    4.2091   27.7617   31.1779 H   0  0  0  0  0
    3.0073   30.7848   30.4520 H   0  0  0  0  0
    3.4444   28.6861   24.3081 H   0  0  0  0  0
    5.0624   26.5004   27.9809 H   0  0  0  0  0
    3.0847   31.0948   28.2234 H   0  0  0  0  0
    3.7210   30.1083   26.0384 H   0  0  0  0  0
  1  3  4  0  0  0
 11  1  4  0  0  0
  3  2  1  0  0  0
  3  5  4  0  0  0
  7  4  1  0  0  0
  7  5  4  0  0  0
 13  6  2  0  0  0
  9  7  4  0  0  0
  8 11  1  0  0  0
 15  8  1  0  0  0
 11  9  4  0  0  0
 13  9  1  0  0  0
 18 10  1  0  0  0
 19 12  1  0  0  0
 14 13  1  0  0  0
 15 14  2  0  0  0
 16 15  1  0  0  0
 17 16  4  0  0  0
 16 21  4  0  0  0
 18 17  4  0  0  0
 18 19  4  0  0  0
 19 20  4  0  0  0
 20 21  4  0  0  0
  1 22  1  0  0  0
  2 23  1  0  0  0
  4 24  1  0  0  0
  5 25  1  0  0  0
 10 26  1  0  0  0
 12 27  1  0  0  0
 14 28  1  0  0  0
 17 29  1  0  0  0
 20 30  1  0  0  0
 21 31  1  0  0  0
M  END
$$$$
