6n48_ligand
  -I-interpret- 

 89 91  0  0  0  0  0  0  0  0999 V2000
   13.5080   -8.0100  -20.6170 C   0  0  0  0  0
    7.3320   -8.5590  -25.1670 C   0  0  0  0  0
   12.6430   -7.0650  -21.1510 C   0  0  0  0  0
   11.4260   -7.4700  -21.7190 C   0  0  0  0  0
    9.0690   -7.1770  -23.5060 C   0  0  0  0  0
   13.5290   -9.9040  -17.5600 C   0  0  0  0  0
   12.7770  -12.0960  -18.3890 C   0  0  0  0  0
   11.3980  -11.4660  -18.1370 C   0  0  0  0  0
   13.0810  -13.1960  -17.3580 C   0  0  0  0  0
    7.7380   -7.3330  -23.1380 C   0  0  0  0  0
    6.8690   -8.0260  -23.9730 C   0  0  0  0  0
   13.8640  -11.0800  -18.3470 N   0  0  0  0  0
   13.1800   -9.3670  -20.6430 C   0  0  0  0  0
   11.0970   -8.8160  -21.7520 C   0  0  0  0  0
    8.6610   -8.4080  -25.5320 C   0  0  0  0  0
    9.5290   -7.7170  -24.6980 C   0  0  0  0  0
    5.4410   -9.9280  -25.2840 C   0  0  0  0  0
   13.0990   -5.5720  -21.0550 C   0  0  0  0  0
   11.9730   -9.7600  -21.2150 C   0  0  0  0  0
   15.7280  -10.0750  -19.9410 O   0  0  0  0  0
   14.4190  -11.8330  -20.8260 O   0  0  0  0  0
    6.4470   -9.2550  -26.0010 O   0  0  0  0  0
   12.3110   -4.6720  -21.0810 O   0  0  0  0  0
   14.3350  -10.6220  -19.9360 S   0  0  0  0  0
   10.2440   -6.2730  -22.4310 S   0  0  0  0  0
   14.5470   -5.2890  -20.8980 N   0  0  0  0  0
   14.9830   -3.8910  -20.7960 C   0  0  0  0  0
   15.5040   -3.4410  -22.1590 C   0  0  0  0  0
   16.0470   -3.8080  -19.7110 C   0  0  0  0  0
   14.3150   -3.2620  -23.1490 C   0  0  0  0  0
   14.0250   -4.2500  -24.0830 C   0  0  0  0  0
   12.9550   -4.0840  -24.9650 C   0  0  0  0  0
   12.1780   -2.9290  -24.9090 C   0  0  0  0  0
   12.4680   -1.9430  -23.9710 C   0  0  0  0  0
   13.5340   -2.1080  -23.0910 C   0  0  0  0  0
   10.9870   -2.7440  -25.8880 C   0  0  0  0  0
   11.3400   -3.3530  -27.2470 C   0  0  0  0  0
   10.6870   -1.2520  -26.0570 C   0  0  0  0  0
    9.7500   -3.4480  -25.3190 C   0  0  0  0  0
   15.5500   -3.9060  -18.2550 C   0  0  0  0  0
   14.9240   -3.0170  -17.7930 O   0  0  0  0  0
   15.8460   -5.0790  -17.4310 N   0  0  0  0  0
   16.6130   -6.2010  -17.9560 C   0  0  0  0  0
   16.6480   -7.3380  -16.9280 C   0  0  0  0  0
   17.3640   -8.3550  -17.1320 O   0  0  0  0  0
   15.9620   -7.2540  -15.8740 O   0  0  0  0  0
   14.4511   -7.6902  -20.1737 H   0  0  0  0  0
   14.3985   -9.2495  -17.4989 H   0  0  0  0  0
   12.7052   -9.3723  -18.0362 H   0  0  0  0  0
   13.2331  -10.2118  -16.5571 H   0  0  0  0  0
   12.7415  -12.5326  -19.3871 H   0  0  0  0  0
   10.6295  -12.2354  -18.2108 H   0  0  0  0  0
   11.3780  -11.0252  -17.1403 H   0  0  0  0  0
   11.2119  -10.6922  -18.8817 H   0  0  0  0  0
   13.0716  -12.7661  -16.3564 H   0  0  0  0  0
   12.3231  -13.9763  -17.4270 H   0  0  0  0  0
   14.0630  -13.6225  -17.5625 H   0  0  0  0  0
    7.3770   -6.9138  -22.1988 H   0  0  0  0  0
    5.8239   -8.1505  -23.6895 H   0  0  0  0  0
   10.1550   -9.1367  -22.1969 H   0  0  0  0  0
    9.0225   -8.8300  -26.4697 H   0  0  0  0  0
   10.5750   -7.5984  -24.9805 H   0  0  0  0  0
    5.8994  -10.6488  -24.6070 H   0  0  0  0  0
    4.8611   -9.2058  -24.7094 H   0  0  0  0  0
    4.7857  -10.4490  -25.9820 H   0  0  0  0  0
   11.7094  -10.8172  -21.2436 H   0  0  0  0  0
   15.2253   -6.0499  -20.8617 H   0  0  0  0  0
   14.1639   -3.2264  -20.5214 H   0  0  0  0  0
   16.1864   -4.1957  -22.5498 H   0  0  0  0  0
   16.0256   -2.4903  -22.0483 H   0  0  0  0  0
   16.5036   -2.8231  -19.8094 H   0  0  0  0  0
   16.7039   -4.6641  -19.8650 H   0  0  0  0  0
   14.6325   -5.1539  -24.1269 H   0  0  0  0  0
   12.7277   -4.8585  -25.6975 H   0  0  0  0  0
   11.8595   -1.0399  -23.9252 H   0  0  0  0  0
   13.7584   -1.3348  -22.3562 H   0  0  0  0  0
   12.2214   -2.8538  -27.6495 H   0  0  0  0  0
   11.5472   -4.4161  -27.1245 H   0  0  0  0  0
   10.5020   -3.2213  -27.9314 H   0  0  0  0  0
   10.4305   -0.8223  -25.0887 H   0  0  0  0  0
   11.5671   -0.7488  -26.4575 H   0  0  0  0  0
    9.8507   -1.1265  -26.7447 H   0  0  0  0  0
    9.9618   -4.5103  -25.1975 H   0  0  0  0  0
    9.4990   -3.0132  -24.3515 H   0  0  0  0  0
    8.9126   -3.3193  -26.0048 H   0  0  0  0  0
   15.5082   -5.1116  -16.4691 H   0  0  0  0  0
   17.6317   -5.8735  -18.1637 H   0  0  0  0  0
   16.1433   -6.5596  -18.8719 H   0  0  0  0  0
   15.4784   -6.4247  -15.8735 H   0  0  0  0  0
  1  3  4  0  0  0
 13  1  4  0  0  0
 11  2  4  0  0  0
  2 15  4  0  0  0
  2 22  1  0  0  0
  3  4  4  0  0  0
  3 18  1  0  0  0
  4 14  4  0  0  0
  4 25  1  0  0  0
  5 10  4  0  0  0
  5 16  4  0  0  0
 25  5  1  0  0  0
 12  6  1  0  0  0
  7  8  1  0  0  0
  7  9  1  0  0  0
 12  7  1  0  0  0
 10 11  4  0  0  0
 24 12  1  0  0  0
 13 19  4  0  0  0
 13 24  1  0  0  0
 14 19  4  0  0  0
 15 16  4  0  0  0
 22 17  1  0  0  0
 18 23  2  0  0  0
 18 26  1  0  0  0
 24 20  2  0  0  0
 24 21  2  0  0  0
 26 27  1  0  0  0
 27 28  1  0  0  0
 27 29  1  0  0  0
 28 30  1  0  0  0
 29 40  1  0  0  0
 30 31  4  0  0  0
 30 35  4  0  0  0
 31 32  4  0  0  0
 32 33  4  0  0  0
 33 34  4  0  0  0
 33 36  1  0  0  0
 34 35  4  0  0  0
 36 37  1  0  0  0
 36 38  1  0  0  0
 36 39  1  0  0  0
 40 41  2  0  0  0
 40 42  1  0  0  0
 42 43  1  0  0  0
 43 44  1  0  0  0
 44 45  2  0  0  0
 44 46  1  0  0  0
  1 47  1  0  0  0
  6 48  1  0  0  0
  6 49  1  0  0  0
  6 50  1  0  0  0
  7 51  1  0  0  0
  8 52  1  0  0  0
  8 53  1  0  0  0
  8 54  1  0  0  0
  9 55  1  0  0  0
  9 56  1  0  0  0
  9 57  1  0  0  0
 10 58  1  0  0  0
 11 59  1  0  0  0
 14 60  1  0  0  0
 15 61  1  0  0  0
 16 62  1  0  0  0
 17 63  1  0  0  0
 17 64  1  0  0  0
 17 65  1  0  0  0
 19 66  1  0  0  0
 26 67  1  0  0  0
 27 68  1  0  0  0
 28 69  1  0  0  0
 28 70  1  0  0  0
 29 71  1  0  0  0
 29 72  1  0  0  0
 31 73  1  0  0  0
 32 74  1  0  0  0
 34 75  1  0  0  0
 35 76  1  0  0  0
 37 77  1  0  0  0
 37 78  1  0  0  0
 37 79  1  0  0  0
 38 80  1  0  0  0
 38 81  1  0  0  0
 38 82  1  0  0  0
 39 83  1  0  0  0
 39 84  1  0  0  0
 39 85  1  0  0  0
 42 86  1  0  0  0
 43 87  1  0  0  0
 43 88  1  0  0  0
 46 89  1  0  0  0
M  END
$$$$
