5ime_ligand
  -I-interpret- 

 55 58  0  0  0  0  0  0  0  0999 V2000
   19.5050  -18.8280    9.0500 C   0  0  0  0  0
   22.9150  -18.6440    8.7070 C   0  0  0  0  0
   19.7310  -17.0870   11.1980 C   0  0  0  0  0
   23.9650  -18.7620    7.8570 C   0  0  0  0  0
   20.6550  -18.0530    9.1950 C   0  0  0  0  0
   20.7580  -17.1890   10.2820 C   0  0  0  0  0
   18.5740  -17.8570   11.0520 C   0  0  0  0  0
   18.4690  -18.7290    9.9670 C   0  0  0  0  0
   21.6030  -17.7890    6.9780 C   0  0  0  0  0
   22.6240  -17.5260    4.6700 C   0  0  0  0  0
   22.7220  -17.9260    6.1200 C   0  0  0  0  0
   20.5560  -17.3440    6.5400 O   0  0  0  0  0
   21.7180  -18.1560    8.2780 N   0  0  0  0  0
   23.8530  -18.4030    6.5820 N   0  0  0  0  0
   17.0370  -19.6890    9.7720 Cl  0  0  0  0  0
   17.4720  -17.7420   12.0430 C   0  0  0  0  0
   17.5390  -18.4300   13.2250 C   0  0  0  0  0
   16.4860  -18.3040   14.1640 C   0  0  0  0  0
   16.5180  -18.9950   15.3850 C   0  0  0  0  0
   15.5160  -18.8430   16.2280 N   0  0  0  0  0
   14.4880  -18.0530   15.9390 C   0  0  0  0  0
   14.4120  -17.3810   14.8010 N   0  0  0  0  0
   15.3820  -17.4700   13.8920 C   0  0  0  0  0
   15.3170  -16.7780   12.7050 N   0  0  0  0  0
   16.3050  -16.8930   11.7850 C   0  0  0  0  0
   16.2300  -16.2780   10.7340 O   0  0  0  0  0
   14.1570  -15.9220   12.4210 C   0  0  0  0  0
   14.1710  -14.6380   13.2650 C   0  0  0  0  0
   15.5530  -13.9780   13.2500 C   0  0  0  0  0
   15.9430  -13.6520   11.8700 N   0  3  0  0  0
   13.4690  -17.9370   16.8670 N   0  0  0  0  0
   12.2900  -17.1130   16.5930 C   0  0  0  0  0
   19.4195  -19.5169    8.2096 H   0  0  0  0  0
   23.0306  -18.9440    9.7485 H   0  0  0  0  0
   19.8228  -16.4016   12.0406 H   0  0  0  0  0
   24.9127  -19.1562    8.2238 H   0  0  0  0  0
   21.6580  -16.5877   10.4106 H   0  0  0  0  0
   23.3527  -16.7430    4.4604 H   0  0  0  0  0
   22.8285  -18.3923    4.0408 H   0  0  0  0  0
   21.6202  -17.1545    4.4639 H   0  0  0  0  0
   18.3951  -19.0690   13.4414 H   0  0  0  0  0
   17.3566  -19.6460   15.6320 H   0  0  0  0  0
   13.2529  -16.4804   12.6638 H   0  0  0  0  0
   14.1906  -15.6394   11.3688 H   0  0  0  0  0
   13.9207  -14.8961   14.2940 H   0  0  0  0  0
   13.4477  -13.9388   12.8454 H   0  0  0  0  0
   16.2830  -14.6672   13.6745 H   0  0  0  0  0
   15.5175  -13.0607   13.8377 H   0  0  0  0  0
   16.8639  -13.2135   11.8728 H   0  0  0  0  0
   15.9742  -14.5076   11.3156 H   0  0  0  0  0
   15.2604  -13.0096   11.4678 H   0  0  0  0  0
   13.5399  -18.4329   17.7555 H   0  0  0  0  0
   12.6001  -16.0815   16.4256 H   0  0  0  0  0
   11.7832  -17.4901   15.7047 H   0  0  0  0  0
   11.6121  -17.1561   17.4454 H   0  0  0  0  0
  5  1  4  0  0  0
  1  8  4  0  0  0
  2  4  2  0  0  0
 13  2  1  0  0  0
  6  3  4  0  0  0
  3  7  4  0  0  0
  4 14  1  0  0  0
  5  6  4  0  0  0
 13  5  1  0  0  0
  8  7  4  0  0  0
  7 16  1  0  0  0
  8 15  1  0  0  0
  9 11  1  0  0  0
  9 12  2  0  0  0
  9 13  1  0  0  0
 11 10  1  0  0  0
 11 14  2  0  0  0
 16 17  2  0  0  0
 16 25  1  0  0  0
 17 18  1  0  0  0
 18 19  4  0  0  0
 18 23  4  0  0  0
 19 20  4  0  0  0
 20 21  4  0  0  0
 21 22  4  0  0  0
 21 31  1  0  0  0
 22 23  4  0  0  0
 23 24  1  0  0  0
 24 25  1  0  0  0
 24 27  1  0  0  0
 25 26  2  0  0  0
 27 28  1  0  0  0
 28 29  1  0  0  0
 29 30  1  0  0  0
 31 32  1  0  0  0
  1 33  1  0  0  0
  2 34  1  0  0  0
  3 35  1  0  0  0
  4 36  1  0  0  0
  6 37  1  0  0  0
 10 38  1  0  0  0
 10 39  1  0  0  0
 10 40  1  0  0  0
 17 41  1  0  0  0
 19 42  1  0  0  0
 27 43  1  0  0  0
 27 44  1  0  0  0
 28 45  1  0  0  0
 28 46  1  0  0  0
 29 47  1  0  0  0
 29 48  1  0  0  0
 30 49  1  0  0  0
 30 50  1  0  0  0
 30 51  1  0  0  0
 31 52  1  0  0  0
 32 53  1  0  0  0
 32 54  1  0  0  0
 32 55  1  0  0  0
M  END
$$$$
