4yay_ligand
  -I-interpret- 

 60 64  0  0  0  0  0  0  0  0999 V2000
  -16.9230   14.4230   41.8820 C   0  0  0  0  0
  -18.3520   14.8570   40.0060 C   0  0  0  0  0
  -19.3500   15.7980   39.3710 C   0  0  0  0  0
  -20.7540   15.2930   39.5800 C   0  0  0  0  0
  -17.0680    9.7960   37.6540 O   0  0  0  0  0
  -17.8480   15.2470   41.2360 N   0  0  0  0  0
  -18.4550   13.1360   37.9670 C   0  0  0  0  0
  -18.6620   11.6390   37.9390 C   0  0  0  0  0
  -17.3890   10.9530   38.2990 C   0  0  0  0  0
  -15.2730   10.9560   39.7380 C   0  0  0  0  0
  -15.2850    9.8130   40.7500 C   0  0  0  0  0
  -16.5680    9.2330   41.2850 C   0  0  0  0  0
  -16.5210    8.1990   42.2180 C   0  0  0  0  0
  -14.0540    9.3360   41.1720 C   0  0  0  0  0
  -14.0050    8.2280   42.1980 C   0  0  0  0  0
  -15.1710    7.6930   42.6920 C   0  0  0  0  0
  -16.5620   11.5140   39.3040 N   0  0  0  0  0
  -15.0670    6.5430   43.6860 C   0  0  0  0  0
  -15.5220    6.7120   44.9730 C   0  0  0  0  0
  -15.4060    5.5650   45.9350 C   0  0  0  0  0
  -14.8460    4.3700   45.5450 C   0  0  0  0  0
  -14.3410    4.1870   44.1440 C   0  0  0  0  0
  -14.4460    5.2270   43.2530 C   0  0  0  0  0
  -13.9520    5.0510   41.8590 C   0  0  0  0  0
  -14.6950    5.2910   40.6730 N   0  0  0  0  0
  -13.9300    5.0780   39.5950 N   0  0  0  0  0
  -16.3930   14.8320   43.2280 C   0  0  0  0  0
  -12.6970    4.7060   40.0960 N   0  0  0  0  0
  -17.2920   14.3040   44.3020 C   0  0  0  0  0
  -12.7030    4.7040   41.4850 N   0  0  0  0  0
  -16.4690   13.2050   41.3020 C   0  0  0  0  0
  -16.9790   12.7760   39.9540 C   0  0  0  0  0
  -17.8990   13.5760   39.3360 C   0  0  0  0  0
  -19.1500   15.8587   38.3012 H   0  0  0  0  0
  -19.2540   16.7812   39.8316 H   0  0  0  0  0
  -20.8556   14.3073   39.1258 H   0  0  0  0  0
  -20.9590   15.2251   40.6484 H   0  0  0  0  0
  -21.4595   15.9825   39.1165 H   0  0  0  0  0
  -16.2284    9.4687   37.9850 H   0  0  0  0  0
  -19.4116   13.6300   37.7969 H   0  0  0  0  0
  -17.7422   13.4105   37.1894 H   0  0  0  0  0
  -18.9681   11.3338   36.9384 H   0  0  0  0  0
  -19.4363   11.3664   38.6561 H   0  0  0  0  0
  -16.3348   10.7347   38.4696 H   0  0  0  0  0
  -14.8233   10.5376   38.8375 H   0  0  0  0  0
  -14.7584   11.7767   40.2377 H   0  0  0  0  0
  -17.5283    9.6201   40.9441 H   0  0  0  0  0
  -17.4415    7.7595   42.6022 H   0  0  0  0  0
  -13.1323    9.7552   40.7685 H   0  0  0  0  0
  -13.0433    7.8521   42.5472 H   0  0  0  0  0
  -15.9582    7.6599   45.2883 H   0  0  0  0  0
  -15.7702    5.6804   46.9559 H   0  0  0  0  0
  -14.7687    3.5502   46.2592 H   0  0  0  0  0
  -13.8963    3.2404   43.8371 H   0  0  0  0  0
  -16.3564   15.9197   43.2880 H   0  0  0  0  0
  -15.3906   14.4253   43.3618 H   0  0  0  0  0
  -18.2943   14.7106   44.1675 H   0  0  0  0  0
  -17.3286   13.2163   44.2412 H   0  0  0  0  0
  -16.9055   14.6019   45.2766 H   0  0  0  0  0
  -15.7508   12.5825   41.8356 H   0  0  0  0  0
  6  1  4  0  0  0
  1 27  1  0  0  0
  1 31  4  0  0  0
  2  3  1  0  0  0
  2  6  4  0  0  0
 33  2  4  0  0  0
  3  4  1  0  0  0
  9  5  1  0  0  0
  8  7  1  0  0  0
  7 33  1  0  0  0
  9  8  1  0  0  0
 17  9  1  0  0  0
 10 11  1  0  0  0
 10 17  1  0  0  0
 11 12  4  0  0  0
 11 14  4  0  0  0
 12 13  4  0  0  0
 13 16  4  0  0  0
 14 15  4  0  0  0
 15 16  4  0  0  0
 16 18  1  0  0  0
 17 32  1  0  0  0
 18 19  4  0  0  0
 18 23  4  0  0  0
 19 20  4  0  0  0
 20 21  4  0  0  0
 21 22  4  0  0  0
 22 23  4  0  0  0
 23 24  1  0  0  0
 24 25  4  0  0  0
 24 30  4  0  0  0
 25 26  4  0  0  0
 26 28  4  0  0  0
 27 29  1  0  0  0
 28 30  4  0  0  0
 31 32  4  0  0  0
 32 33  4  0  0  0
  3 34  1  0  0  0
  3 35  1  0  0  0
  4 36  1  0  0  0
  4 37  1  0  0  0
  4 38  1  0  0  0
  5 39  1  0  0  0
  7 40  1  0  0  0
  7 41  1  0  0  0
  8 42  1  0  0  0
  8 43  1  0  0  0
  9 44  1  0  0  0
 10 45  1  0  0  0
 10 46  1  0  0  0
 12 47  1  0  0  0
 13 48  1  0  0  0
 14 49  1  0  0  0
 15 50  1  0  0  0
 19 51  1  0  0  0
 20 52  1  0  0  0
 21 53  1  0  0  0
 22 54  1  0  0  0
 27 55  1  0  0  0
 27 56  1  0  0  0
 29 57  1  0  0  0
 29 58  1  0  0  0
 29 59  1  0  0  0
 31 60  1  0  0  0
M  END
$$$$
