4yv2_ligand
  -I-interpret- 

 21 21  0  0  0  0  0  0  0  0999 V2000
   11.2040    7.5940    4.9110 C   0  0  0  0  0
   11.5950    8.8440    5.3490 C   0  0  0  0  0
   11.6240    6.4610    5.6020 C   0  0  0  0  0
   12.4070    8.9210    6.4680 C   0  0  0  0  0
   12.4390    6.5390    6.7170 C   0  0  0  0  0
   12.8360    7.7850    7.1500 C   0  0  0  0  0
   14.9380    7.9340   10.1090 C   0  0  0  0  0
   15.5530    7.3850   11.1670 C   0  0  0  0  0
   14.5060    7.1340    8.9400 C   0  0  0  0  0
   13.6430    7.9750    8.2830 N   0  0  0  0  0
   14.8720    5.9900    8.6790 O   0  0  0  0  0
   16.0510    5.7430   11.4590 S   0  0  0  0  0
   10.5704    7.4952    4.0296 H   0  0  0  0  0
   11.2731    9.7456    4.8279 H   0  0  0  0  0
   11.3002    5.4804    5.2532 H   0  0  0  0  0
   12.7203    9.9016    6.8264 H   0  0  0  0  0
   12.7589    5.6375    7.2396 H   0  0  0  0  0
   14.7494    9.0076   10.1096 H   0  0  0  0  0
   15.7775    8.0805   11.9757 H   0  0  0  0  0
   13.5758    8.9070    8.6920 H   0  0  0  0  0
   16.6273    5.6622   12.6549 H   0  0  0  0  0
  2  1  4  0  0  0
  3  1  4  0  0  0
  4  2  4  0  0  0
  5  3  4  0  0  0
  6  4  4  0  0  0
  6  5  4  0  0  0
 10  6  1  0  0  0
  7  8  2  0  0  0
  9  7  1  0  0  0
  8 12  1  0  0  0
  9 10  1  0  0  0
  9 11  2  0  0  0
  1 13  1  0  0  0
  2 14  1  0  0  0
  3 15  1  0  0  0
  4 16  1  0  0  0
  5 17  1  0  0  0
  7 18  1  0  0  0
  8 19  1  0  0  0
 10 20  1  0  0  0
 12 21  1  0  0  0
M  END
$$$$
