1i32_ligand
  -I-interpret- 

 72 77  0  0  0  0  0  0  0  0999 V2000
   22.8230   79.7350   -1.1320 C   0  0  0  0  0
   23.9020   79.9230   -2.2110 C   0  0  0  0  0
   23.4310   80.6340   -3.3530 O   0  0  0  0  0
   25.1290   80.6880   -1.7370 C   0  0  0  0  0
   26.3130   80.2440   -2.3960 O   0  0  0  0  0
   24.7380   82.1400   -2.0340 C   0  0  0  0  0
   25.8600   83.0550   -2.2250 N   0  0  0  0  0
   23.8610   81.9980   -3.2910 C   0  0  0  0  0
   22.7130   82.9000   -3.3940 N   0  0  0  0  0
   22.0580   83.5870   -2.4020 C   0  0  0  0  0
   21.0540   84.3220   -2.8270 N   0  0  0  0  0
   21.0360   84.1100   -4.1980 C   0  0  0  0  0
   20.2070   84.5980   -5.2650 C   0  0  0  0  0
   19.1690   85.4560   -5.1340 N   0  0  0  0  0
   20.4860   84.1630   -6.5290 N   0  0  0  0  0
   21.5070   83.3100   -6.7350 C   0  0  0  0  0
   22.3420   82.7950   -5.8200 N   0  0  0  0  0
   22.0560   83.2320   -4.5660 C   0  0  0  0  0
   18.6670   86.0570   -3.8940 C   0  0  0  0  0
   19.0620   87.5020   -3.6200 C   0  0  0  0  0
   18.7150   88.1450   -2.3740 C   0  0  0  0  0
   17.9880   87.4810   -1.3330 C   0  0  0  0  0
   17.6640   88.1460   -0.1160 C   0  0  0  0  0
   18.0640   89.4950    0.0870 C   0  0  0  0  0
   19.7870   88.2350   -4.6090 C   0  0  0  0  0
   19.1190   89.5240   -2.1550 C   0  0  0  0  0
   18.7880   90.1780   -0.9310 C   0  0  0  0  0
   20.1760   89.5830   -4.3880 C   0  0  0  0  0
   19.8420   90.2220   -3.1640 C   0  0  0  0  0
   26.1750   84.1240   -1.4490 C   0  0  0  0  0
   25.5440   84.3930   -0.4180 O   0  0  0  0  0
   27.3140   84.9820   -1.8820 C   0  0  0  0  0
   28.0180   84.6410   -3.0730 C   0  0  0  0  0
   29.1100   85.4270   -3.5320 C   0  0  0  0  0
   29.7380   85.0340   -4.6900 O   0  0  0  0  0
   30.9480   84.2800   -4.5840 C   0  0  0  0  0
   29.4950   86.5760   -2.7770 C   0  0  0  0  0
   27.7080   86.1340   -1.1320 C   0  0  0  0  0
   28.8020   86.9440   -1.5730 C   0  0  0  0  0
   29.1390   88.0440   -0.8080 O   0  0  0  0  0
   29.4950   89.2710   -1.4590 C   0  0  0  0  0
   23.3320   78.9520   -0.0530 O   0  0  0  0  0
   21.9669   79.2223   -1.5706 H   0  0  0  0  0
   22.5253   80.7125   -0.7526 H   0  0  0  0  0
   24.1661   78.8950   -2.4590 H   0  0  0  0  0
   25.3800   80.5433   -0.6862 H   0  0  0  0  0
   26.4868   79.3303   -2.1582 H   0  0  0  0  0
   24.2292   82.6032   -1.1887 H   0  0  0  0  0
   26.4692   82.8726   -3.0225 H   0  0  0  0  0
   24.4813   82.2922   -4.1376 H   0  0  0  0  0
   22.3456   83.5282   -1.3523 H   0  0  0  0  0
   18.6819   85.7132   -5.9925 H   0  0  0  0  0
   21.6750   83.0015   -7.7668 H   0  0  0  0  0
   19.0978   85.4707   -3.0823 H   0  0  0  0  0
   17.5804   86.0557   -3.9802 H   0  0  0  0  0
   17.6767   86.4462   -1.4754 H   0  0  0  0  0
   17.1087   87.6201    0.6606 H   0  0  0  0  0
   17.8173   90.0045    1.0185 H   0  0  0  0  0
   20.0464   87.7508   -5.5505 H   0  0  0  0  0
   19.0929   91.2125   -0.7734 H   0  0  0  0  0
   20.7289   90.1254   -5.1549 H   0  0  0  0  0
   20.1419   91.2563   -2.9955 H   0  0  0  0  0
   27.7140   83.7624   -3.6419 H   0  0  0  0  0
   31.6934   84.8653   -4.0456 H   0  0  0  0  0
   30.7515   83.3541   -4.0435 H   0  0  0  0  0
   31.3185   84.0477   -5.5824 H   0  0  0  0  0
   30.3306   87.1858   -3.1204 H   0  0  0  0  0
   27.1722   86.3964   -0.2198 H   0  0  0  0  0
   30.3663   89.1051   -2.0926 H   0  0  0  0  0
   28.6594   89.6123   -2.0701 H   0  0  0  0  0
   29.7290   90.0250   -0.7074 H   0  0  0  0  0
   22.6484   78.8430    0.6121 H   0  0  0  0  0
  1  2  1  0  0  0
  1 42  1  0  0  0
  2  3  1  0  0  0
  2  4  1  0  0  0
  3  8  1  0  0  0
  4  5  1  0  0  0
  4  6  1  0  0  0
  6  7  1  0  0  0
  6  8  1  0  0  0
  7 30  1  0  0  0
  8  9  1  0  0  0
  9 10  4  0  0  0
  9 18  4  0  0  0
 10 11  4  0  0  0
 11 12  4  0  0  0
 12 13  4  0  0  0
 12 18  4  0  0  0
 13 14  1  0  0  0
 13 15  4  0  0  0
 14 19  1  0  0  0
 15 16  4  0  0  0
 16 17  4  0  0  0
 17 18  4  0  0  0
 19 20  1  0  0  0
 20 21  4  0  0  0
 20 25  4  0  0  0
 21 22  4  0  0  0
 21 26  4  0  0  0
 22 23  4  0  0  0
 23 24  4  0  0  0
 24 27  4  0  0  0
 25 28  4  0  0  0
 26 27  4  0  0  0
 26 29  4  0  0  0
 28 29  4  0  0  0
 30 31  2  0  0  0
 30 32  1  0  0  0
 32 33  4  0  0  0
 32 38  4  0  0  0
 33 34  4  0  0  0
 34 35  1  0  0  0
 34 37  4  0  0  0
 35 36  1  0  0  0
 37 39  4  0  0  0
 38 39  4  0  0  0
 39 40  1  0  0  0
 40 41  1  0  0  0
  1 43  1  0  0  0
  1 44  1  0  0  0
  2 45  1  0  0  0
  4 46  1  0  0  0
  5 47  1  0  0  0
  6 48  1  0  0  0
  7 49  1  0  0  0
  8 50  1  0  0  0
 10 51  1  0  0  0
 14 52  1  0  0  0
 16 53  1  0  0  0
 19 54  1  0  0  0
 19 55  1  0  0  0
 22 56  1  0  0  0
 23 57  1  0  0  0
 24 58  1  0  0  0
 25 59  1  0  0  0
 27 60  1  0  0  0
 28 61  1  0  0  0
 29 62  1  0  0  0
 33 63  1  0  0  0
 36 64  1  0  0  0
 36 65  1  0  0  0
 36 66  1  0  0  0
 37 67  1  0  0  0
 38 68  1  0  0  0
 41 69  1  0  0  0
 41 70  1  0  0  0
 41 71  1  0  0  0
 42 72  1  0  0  0
M  END
$$$$
