2web_ligand
  -I-interpret- 

 71 73  0  0  0  0  0  0  0  0999 V2000
   18.2010    7.8270   19.5050 O   0  0  0  0  0
   23.9110    5.6370   16.7200 C   0  0  0  0  0
   23.9160    4.2660   16.5030 C   0  0  0  0  0
   23.9520    3.3420   17.5730 C   0  0  0  0  0
   24.0190    3.7490   18.8890 C   0  0  0  0  0
   24.0780    5.1750   19.1690 C   0  0  0  0  0
   24.0170    6.1060   18.0910 C   0  0  0  0  0
   23.9750    7.4950   18.3910 C   0  0  0  0  0
   24.0780    7.9680   19.6840 C   0  0  0  0  0
   24.1390    7.0520   20.7600 C   0  0  0  0  0
   24.1430    5.6960   20.4930 C   0  0  0  0  0
   19.1540    7.1550   19.9500 C   0  0  0  0  0
   24.1310    9.4520   19.9380 C   0  0  0  0  0
   23.3180    9.9480   21.1430 C   0  0  0  0  0
   20.0120    7.0900   20.9680 N   0  0  0  0  0
   19.9990    8.1170   22.0240 C   0  0  0  0  0
   21.4120    8.7170   22.0390 C   0  0  0  0  0
   21.9940    8.3710   23.0640 O   0  0  0  0  0
   19.2910    7.9150   23.3820 C   0  0  0  0  0
   18.7630    9.2450   23.8980 C   0  0  0  0  0
   17.8670    7.5800   22.8920 C   0  0  0  0  0
   21.9330    9.4890   21.0870 N   0  0  0  0  0
   23.3940   11.7670   21.2360 P   0  0  0  0  0
   24.7780   12.1980   21.1850 O   0  0  0  0  0
   22.5240   12.3700   20.2390 O   0  0  0  0  0
   23.5560   13.0060   23.4940 C   0  0  0  0  0
   22.4910   13.9300   24.0690 C   0  0  0  0  0
   21.5050   13.2300   24.9470 C   0  0  0  0  0
   20.4950   12.4600   24.3980 C   0  0  0  0  0
   21.6130   13.3050   26.3250 C   0  0  0  0  0
   19.5750   11.8200   25.2120 C   0  0  0  0  0
   20.7040   12.6680   27.1500 C   0  0  0  0  0
   19.6810   11.9290   26.5950 C   0  0  0  0  0
   24.3280   12.3200   24.6100 C   0  0  0  0  0
   25.8280   12.6910   26.4180 C   0  0  0  0  0
   22.9560   12.0280   22.6990 O   0  0  0  0  0
   24.7230   13.1570   25.5660 O   0  0  0  0  0
   24.5800   11.1490   24.6340 O   0  0  0  0  0
   23.8302    6.3383   15.8895 H   0  0  0  0  0
   23.8915    3.8913   15.4797 H   0  0  0  0  0
   23.9260    2.2752   17.3507 H   0  0  0  0  0
   24.0275    3.0200   19.6993 H   0  0  0  0  0
   23.8579    8.2084   17.5752 H   0  0  0  0  0
   24.1824    7.4115   21.7881 H   0  0  0  0  0
   24.1981    4.9979   21.3283 H   0  0  0  0  0
   19.3556    6.3314   19.2651 H   0  0  0  0  0
   25.1732    9.6934   20.1471 H   0  0  0  0  0
   23.7041    9.9323   19.0576 H   0  0  0  0  0
   23.7596    9.5263   22.0459 H   0  0  0  0  0
   20.6828    6.3231   21.0162 H   0  0  0  0  0
   19.2273    8.8333   21.7421 H   0  0  0  0  0
   19.9143    7.3100   24.0404 H   0  0  0  0  0
   19.5936    9.9391   24.0262 H   0  0  0  0  0
   18.0524    9.6553   23.1805 H   0  0  0  0  0
   18.2660    9.0902   24.8557 H   0  0  0  0  0
   17.4790    8.4151   22.3088 H   0  0  0  0  0
   17.8991    6.6851   22.2706 H   0  0  0  0  0
   17.2204    7.4039   23.7516 H   0  0  0  0  0
   21.3492    9.7669   20.2981 H   0  0  0  0  0
   21.6327   12.0296   20.3458 H   0  0  0  0  0
   24.2414   13.6069   22.8963 H   0  0  0  0  0
   21.9390   14.3552   23.2307 H   0  0  0  0  0
   22.9998   14.6769   24.6784 H   0  0  0  0  0
   20.4227   12.3561   23.3154 H   0  0  0  0  0
   22.4290   13.8762   26.7677 H   0  0  0  0  0
   18.7701   11.2325   24.7703 H   0  0  0  0  0
   20.7959   12.7498   28.2330 H   0  0  0  0  0
   18.9562   11.4308   27.2388 H   0  0  0  0  0
   25.5323   11.7719   26.9239 H   0  0  0  0  0
   26.7060   12.5011   25.8006 H   0  0  0  0  0
   26.0616   13.4559   27.1586 H   0  0  0  0  0
 12  1  2  0  0  0
  2  3  4  0  0  0
  7  2  4  0  0  0
  3  4  4  0  0  0
  5  4  4  0  0  0
  6  5  4  0  0  0
  7  6  4  0  0  0
 11  6  4  0  0  0
  8  7  4  0  0  0
  9  8  4  0  0  0
  9 10  4  0  0  0
 10 11  4  0  0  0
 15 12  1  0  0  0
 13 14  1  0  0  0
 16 15  1  0  0  0
 17 16  1  0  0  0
 16 19  1  0  0  0
 17 18  2  0  0  0
 22 17  1  0  0  0
 19 20  1  0  0  0
 19 21  1  0  0  0
 14 22  1  0  0  0
 14 23  1  0  0  0
 23 24  2  0  0  0
 23 25  1  0  0  0
 23 36  1  0  0  0
 26 27  1  0  0  0
 26 34  1  0  0  0
 36 26  1  0  0  0
 27 28  1  0  0  0
 28 29  4  0  0  0
 28 30  4  0  0  0
 29 31  4  0  0  0
 30 32  4  0  0  0
 31 33  4  0  0  0
 32 33  4  0  0  0
 34 37  1  0  0  0
 34 38  2  0  0  0
 37 35  1  0  0  0
 13  9  1  0  0  0
  2 39  1  0  0  0
  3 40  1  0  0  0
  4 41  1  0  0  0
  5 42  1  0  0  0
  8 43  1  0  0  0
 10 44  1  0  0  0
 11 45  1  0  0  0
 12 46  1  0  0  0
 13 47  1  0  0  0
 13 48  1  0  0  0
 14 49  1  0  0  0
 15 50  1  0  0  0
 16 51  1  0  0  0
 19 52  1  0  0  0
 20 53  1  0  0  0
 20 54  1  0  0  0
 20 55  1  0  0  0
 21 56  1  0  0  0
 21 57  1  0  0  0
 21 58  1  0  0  0
 22 59  1  0  0  0
 25 60  1  0  0  0
 26 61  1  0  0  0
 27 62  1  0  0  0
 27 63  1  0  0  0
 29 64  1  0  0  0
 30 65  1  0  0  0
 31 66  1  0  0  0
 32 67  1  0  0  0
 33 68  1  0  0  0
 35 69  1  0  0  0
 35 70  1  0  0  0
 35 71  1  0  0  0
M  END
$$$$
