3s3o_ligand
  -I-interpret- 

 49 52  0  0  0  0  0  0  0  0999 V2000
  -36.0990   25.7270  -19.3230 C   0  0  0  0  0
  -37.9060   33.8760  -22.7700 O   0  0  0  0  0
  -36.5400   29.1010  -17.4580 O   0  0  0  0  0
  -36.9460   33.9400  -18.7620 O   0  0  0  0  0
  -36.6720   31.7120  -17.3410 O   0  0  0  0  0
  -42.3660   39.1910  -20.5990 F   0  0  0  0  0
  -38.2040   37.5450  -19.3260 F   0  0  0  0  0
  -41.0990   38.0170  -22.2070 C   0  0  0  0  0
  -39.9210   37.3330  -22.5290 C   0  0  0  0  0
  -40.3030   38.3790  -19.9200 C   0  0  0  0  0
  -37.4590   31.6330  -21.4140 C   0  0  0  0  0
  -39.5130   27.0120  -19.4770 C   0  0  0  0  0
  -38.5090   25.9630  -19.0290 C   0  0  0  0  0
  -37.7040   36.4330  -21.9680 C   0  0  0  0  0
  -37.4100   29.2060  -21.5460 C   0  0  0  0  0
  -37.4360   35.3050  -21.0750 N   0  0  0  0  0
  -39.0950   27.8600  -20.6220 O   0  0  0  0  0
  -37.5500   34.0770  -21.6110 C   0  0  0  0  0
  -36.8870   29.1700  -18.6510 C   0  0  0  0  0
  -41.2570   38.5210  -20.9080 C   0  0  0  0  0
  -39.1520   37.7040  -20.2660 C   0  0  0  0  0
  -38.9500   37.1690  -21.5550 C   0  0  0  0  0
  -36.9200   31.6500  -18.6720 C   0  0  0  0  0
  -37.3450   32.8390  -20.7420 C   0  0  0  0  0
  -37.0260   30.4020  -19.3270 C   0  0  0  0  0
  -37.0690   32.8610  -19.3650 C   0  0  0  0  0
  -37.1730   26.6320  -18.7230 C   0  0  0  0  0
  -37.6650   27.9820  -20.7480 C   0  0  0  0  0
  -37.1790   27.9740  -19.3530 N   0  0  0  0  0
  -37.3000   30.4140  -20.7280 N   0  0  0  0  0
  -36.1592   24.7402  -18.8640 H   0  0  0  0  0
  -36.2583   25.6395  -20.3977 H   0  0  0  0  0
  -35.1157   26.1576  -19.1340 H   0  0  0  0  0
  -36.6328   32.6311  -17.0664 H   0  0  0  0  0
  -41.8808   38.1556  -22.9538 H   0  0  0  0  0
  -39.7699   36.9349  -23.5324 H   0  0  0  0  0
  -40.4524   38.7802  -18.9176 H   0  0  0  0  0
  -37.6736   31.6279  -22.4827 H   0  0  0  0  0
  -39.6531   27.6848  -18.6310 H   0  0  0  0  0
  -40.3999   26.4692  -19.8039 H   0  0  0  0  0
  -38.3732   25.2289  -19.8232 H   0  0  0  0  0
  -38.8795   25.4665  -18.1321 H   0  0  0  0  0
  -37.8443   36.0509  -22.9791 H   0  0  0  0  0
  -36.8608   37.1222  -21.9211 H   0  0  0  0  0
  -38.2535   29.3409  -22.2230 H   0  0  0  0  0
  -36.4610   29.0706  -22.0648 H   0  0  0  0  0
  -37.1766   35.4429  -20.0982 H   0  0  0  0  0
  -36.9879   26.7639  -17.6570 H   0  0  0  0  0
  -37.1359   27.1909  -21.2794 H   0  0  0  0  0
 27  1  1  0  0  0
 18  2  2  0  0  0
 19  3  2  0  0  0
 26  4  2  0  0  0
 23  5  1  0  0  0
 20  6  1  0  0  0
 21  7  1  0  0  0
  9  8  4  0  0  0
  8 20  4  0  0  0
 22  9  4  0  0  0
 10 20  4  0  0  0
 21 10  4  0  0  0
 24 11  2  0  0  0
 11 30  1  0  0  0
 12 13  1  0  0  0
 17 12  1  0  0  0
 13 27  1  0  0  0
 16 14  1  0  0  0
 14 22  1  0  0  0
 15 28  1  0  0  0
 30 15  1  0  0  0
 18 16  1  0  0  0
 28 17  1  0  0  0
 24 18  1  0  0  0
 25 19  1  0  0  0
 19 29  1  0  0  0
 22 21  4  0  0  0
 23 25  2  0  0  0
 26 23  1  0  0  0
 24 26  1  0  0  0
 25 30  1  0  0  0
 27 29  1  0  0  0
 28 29  1  0  0  0
  1 31  1  0  0  0
  1 32  1  0  0  0
  1 33  1  0  0  0
  5 34  1  0  0  0
  8 35  1  0  0  0
  9 36  1  0  0  0
 10 37  1  0  0  0
 11 38  1  0  0  0
 12 39  1  0  0  0
 12 40  1  0  0  0
 13 41  1  0  0  0
 13 42  1  0  0  0
 14 43  1  0  0  0
 14 44  1  0  0  0
 15 45  1  0  0  0
 15 46  1  0  0  0
 16 47  1  0  0  0
 27 48  1  0  0  0
 28 49  1  0  0  0
M  END
$$$$
