5khk_ligand
  -I-interpret- 

 34 37  0  0  0  0  0  0  0  0999 V2000
   12.0420    2.5750   54.3780 N   0  0  0  0  0
   12.3520    1.3840   56.3820 N   0  0  0  0  0
   12.5330    3.4130   53.2720 C   0  0  0  0  0
   12.8440    2.1580   55.3930 C   0  0  0  0  0
   14.1470    2.4630   55.4930 N   0  0  0  0  0
   14.7030    3.2090   54.5510 C   0  0  0  0  0
   13.9440    3.7140   53.4300 C   0  0  0  0  0
   14.7740    4.4540   52.6810 N   0  0  0  0  0
   15.9900    4.3980   53.2870 C   0  0  0  0  0
   15.9060    3.6400   54.3880 N   0  0  0  0  0
   16.9080    3.3120   55.3810 C   0  0  0  0  0
   17.4930    4.5300   55.7730 O   0  0  0  0  0
   17.9370    2.4640   54.7210 C   0  0  0  0  0
   18.4050    1.5560   55.7020 O   0  0  0  0  0
   18.9550    3.4740   54.3540 C   0  0  0  0  0
   20.2380    2.9810   54.2510 O   0  0  0  0  0
   21.2090    4.2640   54.0630 P   0  0  0  0  0
   20.5710    4.9490   52.9000 O   0  0  0  0  0
   22.6270    3.8530   54.0920 O   0  0  0  0  0
   18.8750    4.3610   55.5620 C   0  0  0  0  0
   19.6380    5.6360   55.4810 C   0  0  0  0  0
   20.9660    5.1730   55.3420 O   0  0  0  0  0
   11.3704    1.1068   56.3723 H   0  0  0  0  0
   12.9615    1.0759   57.1396 H   0  0  0  0  0
   11.9175    3.7619   52.4428 H   0  0  0  0  0
   16.8935    4.8935   52.9316 H   0  0  0  0  0
   16.4890    2.7855   56.2385 H   0  0  0  0  0
   17.6211    1.8727   53.8616 H   0  0  0  0  0
   19.0745    0.9866   55.3159 H   0  0  0  0  0
   18.7657    3.9218   53.3784 H   0  0  0  0  0
   19.6479    5.1219   53.0989 H   0  0  0  0  0
   19.3735    3.8979   56.4136 H   0  0  0  0  0
   19.4937    6.2821   56.3469 H   0  0  0  0  0
   19.3170    6.2809   54.6630 H   0  0  0  0  0
  1  3  4  0  0  0
  1  4  4  0  0  0
  4  2  1  0  0  0
  3  7  4  0  0  0
  4  5  4  0  0  0
  5  6  4  0  0  0
  6  7  4  0  0  0
  6 10  4  0  0  0
  7  8  4  0  0  0
  8  9  4  0  0  0
  9 10  4  0  0  0
 10 11  1  0  0  0
 11 12  1  0  0  0
 11 13  1  0  0  0
 12 20  1  0  0  0
 13 14  1  0  0  0
 13 15  1  0  0  0
 15 16  1  0  0  0
 15 20  1  0  0  0
 16 17  1  0  0  0
 17 18  1  0  0  0
 17 19  2  0  0  0
 17 22  1  0  0  0
 20 21  1  0  0  0
 21 22  1  0  0  0
  2 23  1  0  0  0
  2 24  1  0  0  0
  3 25  1  0  0  0
  9 26  1  0  0  0
 11 27  1  0  0  0
 13 28  1  0  0  0
 14 29  1  0  0  0
 15 30  1  0  0  0
 18 31  1  0  0  0
 20 32  1  0  0  0
 21 33  1  0  0  0
 21 34  1  0  0  0
M  END
$$$$
