### 
### Created by X-TOOL on Mon Sep 10 21:13:29 2018
### 

@<TRIPOS>MOLECULE
5khk_ligand
   33    36     1     0     0
SMALL
GAST_HUCK


@<TRIPOS>ATOM
      1 N1         12.0420    2.5750   54.3780 N.ar      1 6SZ        -0.2670
      2 N2         12.3520    1.3840   56.3820 N.pl3     1 6SZ        -0.3080
      3 C6         12.5330    3.4130   53.2720 C.ar      1 6SZ         0.0184
      4 C2         12.8440    2.1580   55.3930 C.ar      1 6SZ         0.1722
      5 N3         14.1470    2.4630   55.4930 N.ar      1 6SZ        -0.2423
      6 C4         14.7030    3.2090   54.5510 C.ar      1 6SZ         0.1598
      7 C5         13.9440    3.7140   53.4300 C.ar      1 6SZ         0.0734
      8 N7         14.7740    4.4540   52.6810 N.2       1 6SZ        -0.2983
      9 C8         15.9900    4.3980   53.2870 C.2       1 6SZ         0.1128
     10 N9         15.9060    3.6400   54.3880 N.pl3     1 6SZ        -0.1904
     11 C1'        16.9080    3.3120   55.3810 C.3       1 6SZ         0.2015
     12 O4'        17.4930    4.5300   55.7730 O.3       1 6SZ        -0.3361
     13 C2'        17.9370    2.4640   54.7210 C.3       1 6SZ         0.1438
     14 O2'        18.4050    1.5560   55.7020 O.3       1 6SZ        -0.3832
     15 C3'        18.9550    3.4740   54.3540 C.3       1 6SZ         0.1539
     16 O3'        20.2380    2.9810   54.2510 O.3       1 6SZ        -0.2453
     17 PA         21.2090    4.2640   54.0630 P.3       1 6SZ         0.2557
     18 O2A        20.5710    4.9490   52.9000 O.co2     1 6SZ        -0.6177
     19 O1A        22.6270    3.8530   54.0920 O.co2     1 6SZ        -0.6177
     20 C4'        18.8750    4.3610   55.5620 C.3       1 6SZ         0.1242
     21 C5'        19.6380    5.6360   55.4810 C.3       1 6SZ         0.1128
     22 O5'        20.9660    5.1730   55.3420 O.3       1 6SZ        -0.2514
     23 H1         11.3598    1.1077   56.3745 H         1 6SZ         0.1809
     24 H2         12.9685    1.0693   57.1447 H         1 6SZ         0.1809
     25 H3         11.9209    3.7599   52.4474 H         1 6SZ         0.0872
     26 H4         16.8927    4.8930   52.9320 H         1 6SZ         0.1359
     27 H5         16.4646    2.7905   56.2421 H         1 6SZ         0.0995
     28 H6         17.5551    1.9271   53.8402 H         1 6SZ         0.0680
     29 H7         19.0676    0.9925   55.3199 H         1 6SZ         0.2101
     30 H8         18.6843    3.9978   53.4254 H         1 6SZ         0.0712
     31 H9         19.2918    3.8095   56.4177 H         1 6SZ         0.0655
     32 H10        19.5165    6.2337   56.3964 H         1 6SZ         0.0647
     33 H11        19.3291    6.2324   54.6099 H         1 6SZ         0.0647
@<TRIPOS>BOND
     1    1    3 ar 
     2    1    4 ar 
     3    4    2 1  
     4    3    7 ar 
     5    4    5 ar 
     6    5    6 ar 
     7    6    7 ar 
     8    6   10 1  
     9    7    8 1  
    10    8    9 2  
    11    9   10 1  
    12   10   11 1  
    13   11   12 1  
    14   11   13 1  
    15   12   20 1  
    16   13   14 1  
    17   13   15 1  
    18   15   16 1  
    19   15   20 1  
    20   16   17 1  
    21   17   18 ar 
    22   17   19 ar 
    23   17   22 1  
    24   20   21 1  
    25   21   22 1  
    26    2   23 1  
    27    2   24 1  
    28    3   25 1  
    29    9   26 1  
    30   11   27 1  
    31   13   28 1  
    32   14   29 1  
    33   15   30 1  
    34   20   31 1  
    35   21   32 1  
    36   21   33 1  
@<TRIPOS>SUBSTRUCTURE
     1 6SZ         1

