3tam_ligand
  -I-interpret- 

 43 46  0  0  0  0  0  0  0  0999 V2000
   10.8920   12.2740   15.8080 C   0  0  0  0  0
    8.0650   12.4240   15.3740 N   0  0  0  0  0
   10.6010   11.5280   17.9940 O   0  0  0  0  0
   10.2250   15.8730   20.5460 Cl  0  0  0  0  0
   10.3260   12.7320   14.5600 C   0  0  0  0  0
    8.9730   12.7600   14.3940 C   0  0  0  0  0
    8.5070   11.9540   16.6470 C   0  0  0  0  0
   10.0440   11.9130   16.8010 C   0  0  0  0  0
   10.3600   12.1910   19.1510 C   0  0  0  0  0
   12.3960   12.2560   15.8910 C   0  0  0  0  0
   10.1040   11.3690   20.2570 C   0  0  0  0  0
    9.9160   11.9710   21.5020 C   0  0  0  0  0
    9.9460   13.4050   21.6650 C   0  0  0  0  0
   10.1850   14.1810   20.4870 C   0  0  0  0  0
   10.4020   13.5830   19.2260 C   0  0  0  0  0
    7.7480   11.5940   17.5800 O   0  0  0  0  0
    6.4720   11.0820   14.4480 C   0  0  0  0  0
    6.7570   10.8120   13.1260 N   0  0  0  0  0
    6.5790    9.4780   13.0210 N   0  0  0  0  0
    6.2210    8.8770   14.1930 C   0  0  0  0  0
    6.1310    9.8900   15.1740 C   0  0  0  0  0
    5.9940    7.5660   14.4010 N   0  0  0  0  0
    5.6820    7.2510   15.7350 C   0  0  0  0  0
    5.5270    8.1440   16.8230 C   0  0  0  0  0
    5.7690    9.5060   16.5260 C   0  0  0  0  0
    6.6150   12.4790   15.0240 C   0  0  0  0  0
    9.6830   11.1460   22.6000 C   0  0  0  0  0
    9.4950   10.4750   23.4920 N   0  0  0  0  0
   10.9809   13.0553   13.7509 H   0  0  0  0  0
    8.7738   13.8202   14.2377 H   0  0  0  0  0
    8.8090   11.9880   13.6421 H   0  0  0  0  0
    9.2913   11.6642   16.0529 H   0  0  0  0  0
   12.7933   11.5956   15.1202 H   0  0  0  0  0
   12.7791   13.2651   15.7394 H   0  0  0  0  0
   12.7001   11.8943   16.8733 H   0  0  0  0  0
   10.0530   10.2857   20.1474 H   0  0  0  0  0
    9.7941   13.8734   22.6374 H   0  0  0  0  0
   10.5958   14.1891   18.3411 H   0  0  0  0  0
    5.5428    6.1933   15.9585 H   0  0  0  0  0
    5.2414    7.8059   17.8191 H   0  0  0  0  0
    5.6842   10.2615   17.3071 H   0  0  0  0  0
    6.3286   13.2898   14.3542 H   0  0  0  0  0
    5.9452   12.7116   15.8519 H   0  0  0  0  0
  5  1  2  0  0  0
  8  1  1  0  0  0
  1 10  1  0  0  0
  2  6  1  0  0  0
  2  7  1  0  0  0
 26  2  1  0  0  0
  8  3  1  0  0  0
  3  9  1  0  0  0
 14  4  1  0  0  0
  6  5  1  0  0  0
  7  8  1  0  0  0
  7 16  2  0  0  0
  9 11  4  0  0  0
  9 15  4  0  0  0
 11 12  4  0  0  0
 12 13  4  0  0  0
 12 27  1  0  0  0
 14 13  4  0  0  0
 15 14  4  0  0  0
 17 18  4  0  0  0
 17 21  4  0  0  0
 17 26  1  0  0  0
 18 19  4  0  0  0
 19 20  4  0  0  0
 20 21  4  0  0  0
 20 22  4  0  0  0
 21 25  4  0  0  0
 22 23  4  0  0  0
 23 24  4  0  0  0
 24 25  4  0  0  0
 27 28  3  0  0  0
  5 29  1  0  0  0
  6 30  1  0  0  0
  6 31  1  0  0  0
  8 32  1  0  0  0
 10 33  1  0  0  0
 10 34  1  0  0  0
 10 35  1  0  0  0
 11 36  1  0  0  0
 13 37  1  0  0  0
 15 38  1  0  0  0
 23 39  1  0  0  0
 24 40  1  0  0  0
 25 41  1  0  0  0
 26 42  1  0  0  0
 26 43  1  0  0  0
M  END
$$$$
