5trf_ligand
  -I-interpret- 

 73 77  0  0  0  0  0  0  0  0999 V2000
  -12.1650   17.1860   22.2720 O   0  0  0  0  0
  -11.1330   14.0330   28.2800 C   0  0  0  0  0
  -11.7120   15.9220   26.7680 C   0  0  0  0  0
  -11.9850   16.7030   27.6760 O   0  0  0  0  0
  -11.4570   11.7650   30.1580 C   0  0  0  0  0
  -10.1240   12.0590   29.4950 C   0  0  0  0  0
  -12.2870   13.0270   30.2880 C   0  0  0  0  0
  -12.4730   13.7270   28.9350 C   0  0  0  0  0
  -11.3190   15.3750   24.3610 N   0  3  0  0  0
  -10.3070   12.7590   28.1450 C   0  0  0  0  0
  -10.9500   17.6970   25.0640 C   0  0  0  0  0
  -11.2270   11.2320   31.4660 O   0  0  0  0  0
  -11.8200   16.3680   25.3160 C   0  0  0  0  0
   -9.5450   15.0940   22.6020 C   0  0  0  0  0
   -7.2540   14.2610   23.2290 C   0  0  0  0  0
   -8.6340   13.8520   22.7290 C   0  0  0  0  0
   -8.4860   13.2120   21.3540 C   0  0  0  0  0
   -8.1220   19.6340   21.6770 C   0  0  0  0  0
   -6.9570   19.8050   22.4010 C   0  0  0  0  0
   -9.1160   18.8050   22.1930 C   0  0  0  0  0
  -11.3220   14.6560   26.9720 N   0  0  0  0  0
  -11.0520   17.6600   22.4910 C   0  0  0  0  0
  -10.1700   17.3530   23.7380 C   0  0  0  0  0
  -10.8700   20.1790   25.4840 C   0  0  0  0  0
  -12.7080   21.6500   25.0080 C   0  0  0  0  0
  -11.4120   21.4390   25.4480 C   0  0  0  0  0
  -13.4750   20.5580   24.6170 C   0  0  0  0  0
  -11.6310   19.0570   25.0870 C   0  0  0  0  0
   -7.7340   18.3140   24.1010 C   0  0  0  0  0
   -8.9300   18.1490   23.4080 C   0  0  0  0  0
  -10.3700   18.5030   21.6840 N   0  0  0  0  0
  -12.9440   19.2700   24.6670 C   0  0  0  0  0
   -6.7450   19.1470   23.6050 C   0  0  0  0  0
   -9.2410   12.8310   23.6920 C   0  0  0  0  0
   -9.9850   15.8170   23.8860 C   0  0  0  0  0
   -5.7380   20.8830   21.7900 Cl  0  0  0  0  0
   -9.6100   20.0720   25.9300 F   0  0  0  0  0
  -10.4430   22.7850   25.9450 Cl  0  0  0  0  0
  -10.5951   14.7352   28.9169 H   0  0  0  0  0
  -11.9967   11.0474   29.5401 H   0  0  0  0  0
   -9.6082   11.1139   29.3254 H   0  0  0  0  0
   -9.5521   12.7172   30.1491 H   0  0  0  0  0
  -11.7684   13.7110   30.9598 H   0  0  0  0  0
  -13.2702   12.7531   30.6706 H   0  0  0  0  0
  -13.0371   13.0656   28.2774 H   0  0  0  0  0
  -13.0003   14.6665   29.1006 H   0  0  0  0  0
  -11.9613   15.2925   23.5729 H   0  0  0  0  0
  -11.2454   14.4627   24.8112 H   0  0  0  0  0
   -9.3230   13.0261   27.7597 H   0  0  0  0  0
  -10.8306   12.0790   27.4730 H   0  0  0  0  0
  -10.3132   17.8911   25.9271 H   0  0  0  0  0
  -10.7017   10.4315   31.3963 H   0  0  0  0  0
  -12.8858   16.5288   25.1535 H   0  0  0  0  0
  -10.4672   14.7257   22.1525 H   0  0  0  0  0
   -8.9534   15.8258   22.0518 H   0  0  0  0  0
   -6.8067   14.9620   22.5243 H   0  0  0  0  0
   -7.3488   14.7362   24.2054 H   0  0  0  0  0
   -6.6228   13.3764   23.3138 H   0  0  0  0  0
   -9.4679   12.9155   20.9851 H   0  0  0  0  0
   -8.0398   13.9304   20.6664 H   0  0  0  0  0
   -7.8448   12.3338   21.4305 H   0  0  0  0  0
   -8.2605   20.1381   20.7205 H   0  0  0  0  0
  -11.1428   14.0816   26.1483 H   0  0  0  0  0
  -13.1211   22.6579   24.9687 H   0  0  0  0  0
  -14.4969   20.7099   24.2695 H   0  0  0  0  0
   -7.5749   17.7841   25.0401 H   0  0  0  0  0
  -10.7341   18.8727   20.8059 H   0  0  0  0  0
  -13.5613   18.4205   24.3748 H   0  0  0  0  0
   -5.8126   19.2842   24.1526 H   0  0  0  0  0
   -9.3564   13.2855   24.6760 H   0  0  0  0  0
  -10.2157   12.5165   23.3190 H   0  0  0  0  0
   -8.5820   11.9658   23.7650 H   0  0  0  0  0
   -9.1690   15.5716   24.5657 H   0  0  0  0  0
 22  1  2  0  0  0
  2  8  1  0  0  0
  2 10  1  0  0  0
 21  2  1  0  0  0
  3  4  2  0  0  0
 13  3  1  0  0  0
  3 21  1  0  0  0
  6  5  1  0  0  0
  7  5  1  0  0  0
  5 12  1  0  0  0
 10  6  1  0  0  0
  8  7  1  0  0  0
 13  9  1  0  0  0
 35  9  1  0  0  0
 11 13  1  0  0  0
 11 23  1  0  0  0
 28 11  1  0  0  0
 14 16  1  0  0  0
 35 14  1  0  0  0
 16 15  1  0  0  0
 16 17  1  0  0  0
 16 34  1  0  0  0
 18 19  4  0  0  0
 20 18  4  0  0  0
 19 33  4  0  0  0
 19 36  1  0  0  0
 30 20  4  0  0  0
 20 31  1  0  0  0
 23 22  1  0  0  0
 22 31  1  0  0  0
 23 30  1  0  0  0
 23 35  1  0  0  0
 24 26  4  0  0  0
 24 28  4  0  0  0
 24 37  1  0  0  0
 26 25  4  0  0  0
 25 27  4  0  0  0
 26 38  1  0  0  0
 27 32  4  0  0  0
 28 32  4  0  0  0
 30 29  4  0  0  0
 29 33  4  0  0  0
  2 39  1  0  0  0
  5 40  1  0  0  0
  6 41  1  0  0  0
  6 42  1  0  0  0
  7 43  1  0  0  0
  7 44  1  0  0  0
  8 45  1  0  0  0
  8 46  1  0  0  0
  9 47  1  0  0  0
  9 48  1  0  0  0
 10 49  1  0  0  0
 10 50  1  0  0  0
 11 51  1  0  0  0
 12 52  1  0  0  0
 13 53  1  0  0  0
 14 54  1  0  0  0
 14 55  1  0  0  0
 15 56  1  0  0  0
 15 57  1  0  0  0
 15 58  1  0  0  0
 17 59  1  0  0  0
 17 60  1  0  0  0
 17 61  1  0  0  0
 18 62  1  0  0  0
 21 63  1  0  0  0
 25 64  1  0  0  0
 27 65  1  0  0  0
 29 66  1  0  0  0
 31 67  1  0  0  0
 32 68  1  0  0  0
 33 69  1  0  0  0
 34 70  1  0  0  0
 34 71  1  0  0  0
 34 72  1  0  0  0
 35 73  1  0  0  0
M  END
$$$$
