5mo8_ligand
  -I-interpret- 

 61 63  0  0  0  0  0  0  0  0999 V2000
    5.4220  139.4700  351.1360 Cl  0  0  0  0  0
    4.8600  138.8410  352.6520 C   0  0  0  0  0
    4.3820  139.7010  353.6290 C   0  0  0  0  0
    4.0900  141.1420  353.3900 C   0  0  0  0  0
    2.8700  141.6960  353.7710 C   0  0  0  0  0
    2.5990  143.0350  353.5490 C   0  0  0  0  0
    3.5350  143.8410  352.9450 C   0  0  0  0  0
    4.7450  143.3110  352.5560 C   0  0  0  0  0
    5.0230  141.9720  352.7730 C   0  0  0  0  0
    4.0580  139.1510  354.8660 C   0  0  0  0  0
    4.1610  137.7900  355.0860 C   0  0  0  0  0
    4.9490  137.4800  352.8650 C   0  0  0  0  0
    4.5890  136.9340  354.0890 C   0  0  0  0  0
    4.6320  135.4420  354.3080 C   0  0  0  0  0
    5.2620  135.0590  355.5690 N   0  3  0  0  0
    5.9830  133.7920  355.4800 C   0  0  0  0  0
    6.0450  133.0710  356.8060 C   0  0  0  0  0
    6.9620  131.8740  356.7330 C   0  0  0  0  0
    6.9170  131.0430  357.9270 N   0  0  0  0  0
    8.0090  130.5050  358.4580 C   0  0  0  0  0
    9.1420  130.8300  358.1170 O   0  0  0  0  0
    7.7830  129.4210  359.4900 C   0  0  0  0  0
    8.0310  129.9120  360.8990 C   0  0  0  0  0
    7.1080  130.0350  361.6970 O   0  0  0  0  0
    9.3220  130.1790  361.1930 N   0  0  0  0  0
    9.8350  130.6990  362.4030 C   0  0  0  0  0
    8.9690  130.9800  363.4510 C   0  0  0  0  0
    9.4430  131.6070  364.5900 C   0  0  0  0  0
   10.7790  131.9490  364.6930 C   0  0  0  0  0
   11.1840  131.0120  362.5220 C   0  0  0  0  0
   11.6610  131.6480  363.6640 C   0  0  0  0  0
   13.0760  132.0980  363.7270 C   0  0  0  0  0
   13.4750  132.8300  364.6090 O   0  0  0  0  0
   13.8070  131.7130  362.7380 O   0  0  0  0  0
    2.1195  141.0672  354.2499 H   0  0  0  0  0
    1.6395  143.4523  353.8543 H   0  0  0  0  0
    3.3200  144.8959  352.7747 H   0  0  0  0  0
    5.4871  143.9483  352.0752 H   0  0  0  0  0
    5.9828  141.5629  352.4574 H   0  0  0  0  0
    3.7186  139.8019  355.6718 H   0  0  0  0  0
    3.8999  137.3847  356.0636 H   0  0  0  0  0
    5.3046  136.8295  352.0660 H   0  0  0  0  0
    5.2221  135.0082  353.5007 H   0  0  0  0  0
    3.6029  135.0836  354.3326 H   0  0  0  0  0
    4.5251  134.9506  356.2659 H   0  0  0  0  0
    5.9352  135.7848  355.8148 H   0  0  0  0  0
    7.0041  134.0062  355.1643 H   0  0  0  0  0
    5.4553  133.1524  354.7725 H   0  0  0  0  0
    5.0430  132.7270  357.0626 H   0  0  0  0  0
    6.4296  133.7590  357.5589 H   0  0  0  0  0
    7.9814  132.2451  356.6273 H   0  0  0  0  0
    6.6384  131.2610  355.8918 H   0  0  0  0  0
    6.0157  130.8678  358.3713 H   0  0  0  0  0
    8.4806  128.6086  359.2865 H   0  0  0  0  0
    6.7439  129.0990  359.4213 H   0  0  0  0  0
   10.0032  129.9834  360.4594 H   0  0  0  0  0
    7.9164  130.7070  363.3768 H   0  0  0  0  0
    8.7604  131.8322  365.4094 H   0  0  0  0  0
   11.1413  132.4574  365.5865 H   0  0  0  0  0
   11.8723  130.7577  361.7160 H   0  0  0  0  0
   13.2915  131.1419  362.1638 H   0  0  0  0  0
  1  2  1  0  0  0
  2  3  4  0  0  0
  2 12  4  0  0  0
  3  4  1  0  0  0
  3 10  4  0  0  0
  4  5  4  0  0  0
  4  9  4  0  0  0
  5  6  4  0  0  0
  6  7  4  0  0  0
  7  8  4  0  0  0
  8  9  4  0  0  0
 10 11  4  0  0  0
 11 13  4  0  0  0
 12 13  4  0  0  0
 13 14  1  0  0  0
 14 15  1  0  0  0
 15 16  1  0  0  0
 16 17  1  0  0  0
 17 18  1  0  0  0
 18 19  1  0  0  0
 19 20  1  0  0  0
 20 21  2  0  0  0
 20 22  1  0  0  0
 22 23  1  0  0  0
 23 24  2  0  0  0
 23 25  1  0  0  0
 25 26  1  0  0  0
 26 27  4  0  0  0
 26 30  4  0  0  0
 27 28  4  0  0  0
 28 29  4  0  0  0
 29 31  4  0  0  0
 30 31  4  0  0  0
 31 32  1  0  0  0
 32 33  2  0  0  0
 32 34  1  0  0  0
  5 35  1  0  0  0
  6 36  1  0  0  0
  7 37  1  0  0  0
  8 38  1  0  0  0
  9 39  1  0  0  0
 10 40  1  0  0  0
 11 41  1  0  0  0
 12 42  1  0  0  0
 14 43  1  0  0  0
 14 44  1  0  0  0
 15 45  1  0  0  0
 15 46  1  0  0  0
 16 47  1  0  0  0
 16 48  1  0  0  0
 17 49  1  0  0  0
 17 50  1  0  0  0
 18 51  1  0  0  0
 18 52  1  0  0  0
 19 53  1  0  0  0
 22 54  1  0  0  0
 22 55  1  0  0  0
 25 56  1  0  0  0
 27 57  1  0  0  0
 28 58  1  0  0  0
 29 59  1  0  0  0
 30 60  1  0  0  0
 34 61  1  0  0  0
M  END
$$$$
