2x8d_ligand
  -I-interpret- 

 25 27  0  0  0  0  0  0  0  0999 V2000
    3.4390   -7.0760   17.0400 C   0  0  0  0  0
    4.7560   -6.6960   17.0540 C   0  0  0  0  0
    2.4910   -6.3010   17.6790 C   0  0  0  0  0
    5.1290   -5.5390   17.7070 C   0  0  0  0  0
    2.8500   -5.1390   18.3400 C   0  0  0  0  0
    4.1770   -4.7760   18.3490 C   0  0  0  0  0
    2.2300   -3.1990   19.6790 C   0  0  0  0  0
    1.8550   -4.3050   19.0270 C   0  0  0  0  0
    3.6690   -2.8450   19.6220 C   0  0  0  0  0
    5.8700   -2.8530   19.1750 C   0  0  0  0  0
    0.4360   -4.7280   19.0070 C   0  0  0  0  0
    4.1850   -1.7690   20.1450 N   0  0  0  0  0
    5.5300   -1.7480   19.8820 N   0  0  0  0  0
    4.5290   -3.5840   19.0180 N   0  0  0  0  0
    6.9340   -3.2650   18.7330 O   0  0  0  0  0
    3.1402   -7.9890   16.5250 H   0  0  0  0  0
    5.5063   -7.3059   16.5509 H   0  0  0  0  0
    1.4455   -6.6087   17.6626 H   0  0  0  0  0
    6.1740   -5.2290   17.7152 H   0  0  0  0  0
    1.5125   -2.5873   20.2259 H   0  0  0  0  0
    0.0883   -4.7804   17.9753 H   0  0  0  0  0
    0.3440   -5.7091   19.4730 H   0  0  0  0  0
   -0.1652   -4.0048   19.5581 H   0  0  0  0  0
    3.6715   -1.0578   20.6656 H   0  0  0  0  0
    6.1754   -1.0139   20.1735 H   0  0  0  0  0
  2  1  4  0  0  0
  3  1  4  0  0  0
  4  2  4  0  0  0
  5  3  4  0  0  0
  6  4  4  0  0  0
  6  5  4  0  0  0
  5  8  4  0  0  0
 14  6  4  0  0  0
  7  8  4  0  0  0
  9  7  4  0  0  0
  8 11  1  0  0  0
  9 12  1  0  0  0
 14  9  4  0  0  0
 10 13  1  0  0  0
 10 14  1  0  0  0
 10 15  2  0  0  0
 12 13  1  0  0  0
  1 16  1  0  0  0
  2 17  1  0  0  0
  3 18  1  0  0  0
  4 19  1  0  0  0
  7 20  1  0  0  0
 11 21  1  0  0  0
 11 22  1  0  0  0
 11 23  1  0  0  0
 12 24  1  0  0  0
 13 25  1  0  0  0
M  END
$$$$
