2vta_ligand
  -I-interpret- 

 14 15  0  0  0  0  0  0  0  0999 V2000
   26.6470    4.4300   64.2630 C   0  0  0  0  0
   27.3290    5.6500   64.3750 C   0  0  0  0  0
   26.8640    6.7380   63.6400 C   0  0  0  0  0
   25.7620    6.6120   62.8130 C   0  0  0  0  0
   25.1030    5.4010   62.7060 C   0  0  0  0  0
   25.5450    4.3090   63.4260 C   0  0  0  0  0
   27.3080    3.5470   65.0780 N   0  0  0  0  0
   28.3840    5.4130   65.2900 C   0  0  0  0  0
   28.3640    4.1370   65.6980 N   0  0  0  0  0
   27.3735    7.6985   63.7172 H   0  0  0  0  0
   25.4113    7.4721   62.2426 H   0  0  0  0  0
   24.2348    5.3086   62.0534 H   0  0  0  0  0
   25.0296    3.3526   63.3377 H   0  0  0  0  0
   29.1075    6.1606   65.6152 H   0  0  0  0  0
  1  2  4  0  0  0
  1  6  4  0  0  0
  1  7  4  0  0  0
  2  3  4  0  0  0
  2  8  4  0  0  0
  3  4  4  0  0  0
  4  5  4  0  0  0
  5  6  4  0  0  0
  7  9  4  0  0  0
  8  9  4  0  0  0
  3 10  1  0  0  0
  4 11  1  0  0  0
  5 12  1  0  0  0
  6 13  1  0  0  0
  8 14  1  0  0  0
M  END
$$$$
