4ytc_ligand
  -I-interpret- 

 42 45  0  0  0  0  0  0  0  0999 V2000
   16.6340   13.2070    5.6330 C   0  0  0  0  0
   15.4170   13.7520    5.2280 C   0  0  0  0  0
   15.3890   14.8140    4.3190 C   0  0  0  0  0
   11.3760   12.9740    1.6380 N   0  0  0  0  0
   13.2530   13.1170    3.1520 C   0  0  0  0  0
   13.1740   14.5090    3.0510 C   0  0  0  0  0
   12.2080   15.1330    2.3410 N   0  0  0  0  0
   17.8050   14.7790    4.2520 C   0  0  0  0  0
   16.5910   15.3430    3.8520 C   0  0  0  0  0
   12.3430   12.3970    2.3750 C   0  0  0  0  0
   11.3660   14.3170    1.6840 C   0  0  0  0  0
   10.8570   10.3310    0.6420 N   0  0  0  0  0
   11.8430   10.0580    1.4960 C   0  0  0  0  0
   12.3990    8.8570    1.7040 N   0  0  0  0  0
   13.4310    9.1250    2.5680 C   0  0  0  0  0
   14.2480    8.1050    3.0160 N   0  0  0  0  0
   15.3870    8.1130    3.8710 C   0  0  0  0  0
   15.9590    9.2920    4.3670 C   0  0  0  0  0
   17.0450    9.2230    5.2450 C   0  0  0  0  0
   17.5600    7.9860    5.6290 C   0  0  0  0  0
   17.0040    6.8230    5.1350 C   0  0  0  0  0
   15.9210    6.8770    4.2540 C   0  0  0  0  0
   13.5320   10.3980    2.9120 N   0  0  0  0  0
   12.4970   11.0060    2.2130 N   0  0  0  0  0
   14.2650   15.1990    3.5500 N   0  0  0  0  0
   17.8250   13.7130    5.1380 C   0  0  0  0  0
   16.6489   12.3793    6.3421 H   0  0  0  0  0
   14.4837   13.3489    5.6212 H   0  0  0  0  0
   13.9800   12.6240    3.7974 H   0  0  0  0  0
   18.7420   15.1795    3.8651 H   0  0  0  0  0
   16.5838   16.1969    3.1746 H   0  0  0  0  0
   10.5746   14.8067    1.1165 H   0  0  0  0  0
   10.4560    9.5868    0.0712 H   0  0  0  0  0
   10.5034   11.2841    0.5591 H   0  0  0  0  0
   13.9890    7.1801    2.6728 H   0  0  0  0  0
   15.5582   10.2609    4.0690 H   0  0  0  0  0
   17.4905   10.1400    5.6306 H   0  0  0  0  0
   18.4020    7.9369    6.3195 H   0  0  0  0  0
   17.4121    5.8575    5.4339 H   0  0  0  0  0
   15.4909    5.9545    3.8640 H   0  0  0  0  0
   14.2574   16.1914    3.3146 H   0  0  0  0  0
   18.7747   13.2743    5.4442 H   0  0  0  0  0
  2  1  4  0  0  0
  1 26  4  0  0  0
  3  2  4  0  0  0
  3  9  4  0  0  0
 25  3  1  0  0  0
 10  4  4  0  0  0
  4 11  4  0  0  0
  5  6  4  0  0  0
 10  5  4  0  0  0
  6  7  4  0  0  0
  6 25  1  0  0  0
 11  7  4  0  0  0
  9  8  4  0  0  0
  8 26  4  0  0  0
 24 10  1  0  0  0
 13 12  1  0  0  0
 13 14  4  0  0  0
 13 24  4  0  0  0
 14 15  4  0  0  0
 15 16  1  0  0  0
 15 23  4  0  0  0
 16 17  1  0  0  0
 17 18  4  0  0  0
 17 22  4  0  0  0
 18 19  4  0  0  0
 19 20  4  0  0  0
 20 21  4  0  0  0
 21 22  4  0  0  0
 23 24  4  0  0  0
  1 27  1  0  0  0
  2 28  1  0  0  0
  5 29  1  0  0  0
  8 30  1  0  0  0
  9 31  1  0  0  0
 11 32  1  0  0  0
 12 33  1  0  0  0
 12 34  1  0  0  0
 16 35  1  0  0  0
 18 36  1  0  0  0
 19 37  1  0  0  0
 20 38  1  0  0  0
 21 39  1  0  0  0
 22 40  1  0  0  0
 25 41  1  0  0  0
 26 42  1  0  0  0
M  END
$$$$
