6nu1_ligand
  -I-interpret- 

 15 14  0  0  0  0  0  0  0  0999 V2000
   59.3180  -35.6500   47.5440 N   0  3  0  0  0
   60.2420  -35.5730   46.4180 C   0  0  0  0  0
   59.7960  -36.5230   45.3080 C   0  0  0  0  0
   60.2870  -36.4560   44.1780 O   0  0  0  0  0
   61.6730  -35.8980   46.8640 C   0  0  0  0  0
   61.9050  -37.5770   47.5380 S   0  0  0  0  0
   58.9240  -37.3730   45.5170 O   0  0  0  0  0
   58.3748  -35.4305   47.2239 H   0  0  0  0  0
   59.3356  -36.5928   47.9328 H   0  0  0  0  0
   59.5998  -34.9804   48.2599 H   0  0  0  0  0
   60.2333  -34.5538   46.0316 H   0  0  0  0  0
   61.9203  -35.2000   47.6639 H   0  0  0  0  0
   62.3040  -35.8236   45.9784 H   0  0  0  0  0
   63.1776  -37.7405   47.8882 H   0  0  0  0  0
   58.6331  -37.3136   46.4300 H   0  0  0  0  0
  1  2  1  0  0  0
  2  3  1  0  0  0
  2  5  1  0  0  0
  3  4  2  0  0  0
  3  7  1  0  0  0
  5  6  1  0  0  0
  1  8  1  0  0  0
  1  9  1  0  0  0
  1 10  1  0  0  0
  2 11  1  0  0  0
  5 12  1  0  0  0
  5 13  1  0  0  0
  6 14  1  0  0  0
  7 15  1  0  0  0
M  END
$$$$
