6hdn_ligand
  -I-interpret- 

 45 48  0  0  0  0  0  0  0  0999 V2000
  -28.9390   43.5240   13.3480 N   0  0  0  0  0
  -26.3150   43.6690   12.0730 N   0  0  0  0  0
  -31.2720   42.6680   16.2420 C   0  0  0  0  0
  -29.9560   43.0420   15.5510 C   0  0  0  0  0
  -30.1870   43.4760   14.1060 C   0  0  0  0  0
  -31.1730   42.5410   13.4050 C   0  0  0  0  0
  -28.6170   44.4490   12.4210 C   0  0  0  0  0
  -28.1250   46.4260   10.4870 C   0  0  0  0  0
  -24.8240   44.6530   10.5030 C   0  0  0  0  0
  -25.0820   43.6480   11.5140 C   0  0  0  0  0
  -24.2800   42.7920   11.8700 O   0  0  0  0  0
  -23.4800   44.6620    9.8230 C   0  0  0  0  0
  -25.8080   45.5350   10.1960 C   0  0  0  0  0
  -27.3470   44.5440   11.7780 C   0  0  0  0  0
  -27.1050   45.5270   10.8100 C   0  0  0  0  0
  -29.3260   46.2780   11.1500 C   0  0  0  0  0
  -29.5740   45.3380   12.0740 N   0  0  0  0  0
  -32.3720   42.2020   14.2990 C   0  0  0  0  0
  -32.3270   43.7710   16.1390 C   0  0  0  0  0
  -33.0800   43.4470   14.8350 C   0  0  0  0  0
  -31.8490   41.5270   15.5040 N   0  3  0  0  0
  -32.8620   40.7920   16.2650 C   0  0  0  0  0
  -28.2515   42.7945   13.5363 H   0  0  0  0  0
  -26.5038   42.9657   12.7872 H   0  0  0  0  0
  -31.0437   42.4703   17.2893 H   0  0  0  0  0
  -29.3060   42.1670   15.5491 H   0  0  0  0  0
  -29.5051   43.8731   16.0934 H   0  0  0  0  0
  -30.6071   44.4811   14.1417 H   0  0  0  0  0
  -30.6530   41.6139   13.1638 H   0  0  0  0  0
  -31.5437   43.0425   12.5110 H   0  0  0  0  0
  -27.9783   47.2098    9.7439 H   0  0  0  0  0
  -23.6145   44.5031    8.7531 H   0  0  0  0  0
  -22.9958   45.6241    9.9907 H   0  0  0  0  0
  -22.8605   43.8653   10.2349 H   0  0  0  0  0
  -25.6017   46.2927    9.4401 H   0  0  0  0  0
  -30.1291   46.9734   10.9058 H   0  0  0  0  0
  -33.0628   41.6085   13.7001 H   0  0  0  0  0
  -31.8833   44.7665   16.1231 H   0  0  0  0  0
  -32.9895   43.7907   17.0043 H   0  0  0  0  0
  -34.1435   43.2775   15.0031 H   0  0  0  0  0
  -33.0540   44.2746   14.1262 H   0  0  0  0  0
  -31.1812   40.7845   15.2964 H   0  0  0  0  0
  -33.6386   41.4822   16.5947 H   0  0  0  0  0
  -33.3031   40.0225   15.6315 H   0  0  0  0  0
  -32.3955   40.3263   17.1331 H   0  0  0  0  0
  1  5  1  0  0  0
  7  1  1  0  0  0
 10  2  1  0  0  0
  2 14  1  0  0  0
  4  3  1  0  0  0
  3 19  1  0  0  0
  3 21  1  0  0  0
  5  4  1  0  0  0
  5  6  1  0  0  0
  6 18  1  0  0  0
 14  7  4  0  0  0
  7 17  4  0  0  0
 15  8  4  0  0  0
  8 16  4  0  0  0
  9 10  1  0  0  0
  9 12  1  0  0  0
 13  9  2  0  0  0
 10 11  2  0  0  0
 13 15  1  0  0  0
 14 15  4  0  0  0
 16 17  4  0  0  0
 18 20  1  0  0  0
 18 21  1  0  0  0
 19 20  1  0  0  0
 21 22  1  0  0  0
  1 23  1  0  0  0
  2 24  1  0  0  0
  3 25  1  0  0  0
  4 26  1  0  0  0
  4 27  1  0  0  0
  5 28  1  0  0  0
  6 29  1  0  0  0
  6 30  1  0  0  0
  8 31  1  0  0  0
 12 32  1  0  0  0
 12 33  1  0  0  0
 12 34  1  0  0  0
 13 35  1  0  0  0
 16 36  1  0  0  0
 18 37  1  0  0  0
 19 38  1  0  0  0
 19 39  1  0  0  0
 20 40  1  0  0  0
 20 41  1  0  0  0
 21 42  1  0  0  0
 22 43  1  0  0  0
 22 44  1  0  0  0
 22 45  1  0  0  0
M  END
$$$$
