6udi_ligand
  -I-interpret- 

 96101  0  0  0  0  0  0  0  0999 V2000
    9.3110    1.4800   96.5990 C   0  0  0  0  0
   10.7610    1.5050   97.0850 C   0  0  0  0  0
   11.6240    2.2310   96.0590 C   0  0  0  0  0
   11.0200    3.6020   95.7800 C   0  0  0  0  0
   11.8740    4.5580   95.2440 C   0  0  0  0  0
   11.4200    5.8390   94.9620 C   0  0  0  0  0
   12.4980    7.0100   94.3080 Cl  0  0  0  0  0
   10.1080    6.1930   95.2200 C   0  0  0  0  0
    9.2480    5.2340   95.7500 C   0  0  0  0  0
    9.6810    3.9390   96.0310 C   0  0  0  0  0
    8.6870    2.8960   96.6240 C   0  0  0  0  0
    8.3720    3.2620   98.0790 C   0  0  0  0  0
    7.3560    2.8340   95.8270 C   0  0  0  0  0
    6.4370    3.8860   96.2440 O   0  0  0  0  0
    5.5940    3.4430   97.2050 C   0  0  0  0  0
    4.2630    3.7400   96.9180 C   0  0  0  0  0
    3.2570    3.3540   97.8020 C   0  0  0  0  0
    3.5970    2.6700   98.9670 C   0  0  0  0  0
    4.9320    2.3650   99.2330 C   0  0  0  0  0
    5.9600    2.7480   98.3620 C   0  0  0  0  0
    7.2420    2.5020   98.6510 N   0  0  0  0  0
    7.7030    1.6800   99.8010 C   0  0  0  0  0
    7.5670    2.4560  101.1260 C   0  0  0  0  0
    8.7740    3.3950  101.3760 C   0  0  0  0  0
    8.9060    2.7740  102.7810 C   0  0  0  0  0
    8.0530    1.5930  102.3030 C   0  0  0  0  0
    6.9570    1.1850  103.3110 C   0  0  0  0  0
    7.6810    0.4260  104.3070 O   0  0  0  0  0
    6.8990   -0.6580  104.8610 C   0  0  0  0  0
    6.2200    2.1650  103.9910 C   0  0  0  0  0
    4.8390    2.0220  104.1340 C   0  0  0  0  0
    3.9980    3.0590  104.8770 C   0  0  0  0  0
    3.0060    3.7760  103.9620 C   0  0  0  0  0
    1.8770    2.9040  103.6010 N   0  0  0  0  0
    0.8860    2.4340  104.5770 C   0  0  0  0  0
    1.6700    2.4860  102.3460 C   0  0  0  0  0
    0.7300    1.7540  102.0250 O   0  0  0  0  0
    2.6980    2.9500  101.2920 C   0  0  0  0  0
    2.5180    2.2050   99.9580 C   0  0  0  0  0
    1.1850    2.4230   99.4740 O   0  0  0  0  0
    2.6830    0.6780  100.0690 C   0  0  0  0  0
    2.0860   -0.0540   99.2750 O   0  0  0  0  0
    3.5100    0.2400  101.0200 N   0  0  0  0  0
    3.8310   -1.3410  101.2180 S   0  0  0  0  0
    3.7220   -2.0900   99.9240 O   0  0  0  0  0
    5.2290   -1.4450  101.7150 O   0  0  0  0  0
    2.8350   -2.0150  102.3260 N   0  0  0  0  0
    2.9020   -1.2390  103.5760 C   0  0  0  0  0
    1.4530   -2.0680  101.8250 C   0  0  0  0  0
    8.7337    0.8340   97.2605 H   0  0  0  0  0
    9.2944    1.1109   95.5735 H   0  0  0  0  0
   11.1221    0.4840   97.2084 H   0  0  0  0  0
   10.8163    2.0248   98.0415 H   0  0  0  0  0
   11.6615    1.6522   95.1361 H   0  0  0  0  0
   12.6355    2.3482   96.4479 H   0  0  0  0  0
   12.9134    4.2988   95.0425 H   0  0  0  0  0
    9.7540    7.2028   95.0126 H   0  0  0  0  0
    8.2108    5.5027   95.9500 H   0  0  0  0  0
    8.0981    4.3169   98.0978 H   0  0  0  0  0
    9.2558    3.0282   98.6726 H   0  0  0  0  0
    6.8852    1.8689   96.0139 H   0  0  0  0  0
    7.5795    2.9690   94.7687 H   0  0  0  0  0
    4.0088    4.2740   96.0024 H   0  0  0  0  0
    2.2143    3.5851   97.5839 H   0  0  0  0  0
    5.1812    1.8153  100.1406 H   0  0  0  0  0
    8.7524    1.4266   99.6508 H   0  0  0  0  0
    7.0877    0.7821   99.8574 H   0  0  0  0  0
    6.5520    2.8493  101.0686 H   0  0  0  0  0
    8.6832    4.4733  101.2449 H   0  0  0  0  0
    9.6205    3.4163  100.6897 H   0  0  0  0  0
    8.6248    3.3405  103.6687 H   0  0  0  0  0
    9.8869    2.6080  103.2264 H   0  0  0  0  0
    8.4857    0.6096  102.1191 H   0  0  0  0  0
    6.1840    0.6900  102.7232 H   0  0  0  0  0
    6.0040   -0.2539  105.3340 H   0  0  0  0  0
    6.6121   -1.3423  104.0626 H   0  0  0  0  0
    7.4939   -1.1916  105.6023 H   0  0  0  0  0
    6.7246    3.0369  104.4072 H   0  0  0  0  0
    4.3481    1.1486  103.7048 H   0  0  0  0  0
    4.6752    3.8071  105.2892 H   0  0  0  0  0
    3.4284    2.5393  105.6474 H   0  0  0  0  0
    3.5256    4.0639  103.0481 H   0  0  0  0  0
    2.6152    4.6454  104.4907 H   0  0  0  0  0
    1.3881    1.8573  105.3537 H   0  0  0  0  0
    0.3851    3.2916  105.0260 H   0  0  0  0  0
    0.1517    1.8054  104.0733 H   0  0  0  0  0
    3.6982    2.7402  101.6711 H   0  0  0  0  0
    2.5512    4.0153  101.1138 H   0  0  0  0  0
    0.5538    2.1161  100.1289 H   0  0  0  0  0
    3.9536    0.9169  101.6408 H   0  0  0  0  0
    3.9251   -1.2457  103.9519 H   0  0  0  0  0
    2.5916   -0.2123  103.3819 H   0  0  0  0  0
    2.2387   -1.6867  104.3161 H   0  0  0  0  0
    1.1067   -1.0570  101.6102 H   0  0  0  0  0
    1.4208   -2.6657  100.9140 H   0  0  0  0  0
    0.8110   -2.5205  102.5808 H   0  0  0  0  0
  1  2  1  0  0  0
  1 11  1  0  0  0
  2  3  1  0  0  0
  3  4  1  0  0  0
  4  5  4  0  0  0
  4 10  4  0  0  0
  5  6  4  0  0  0
  6  7  1  0  0  0
  6  8  4  0  0  0
  8  9  4  0  0  0
  9 10  4  0  0  0
 10 11  1  0  0  0
 11 12  1  0  0  0
 11 13  1  0  0  0
 12 21  1  0  0  0
 13 14  1  0  0  0
 14 15  1  0  0  0
 15 16  4  0  0  0
 15 20  4  0  0  0
 16 17  4  0  0  0
 17 18  4  0  0  0
 18 19  4  0  0  0
 18 39  1  0  0  0
 19 20  4  0  0  0
 20 21  1  0  0  0
 21 22  1  0  0  0
 22 23  1  0  0  0
 23 24  1  0  0  0
 23 26  1  0  0  0
 24 25  1  0  0  0
 25 26  1  0  0  0
 26 27  1  0  0  0
 27 28  1  0  0  0
 27 30  1  0  0  0
 28 29  1  0  0  0
 30 31  2  0  0  0
 31 32  1  0  0  0
 32 33  1  0  0  0
 33 34  1  0  0  0
 34 35  1  0  0  0
 34 36  1  0  0  0
 36 37  2  0  0  0
 36 38  1  0  0  0
 38 39  1  0  0  0
 39 40  1  0  0  0
 39 41  1  0  0  0
 41 42  2  0  0  0
 41 43  1  0  0  0
 43 44  1  0  0  0
 44 45  2  0  0  0
 44 46  2  0  0  0
 44 47  1  0  0  0
 47 48  1  0  0  0
 47 49  1  0  0  0
  1 50  1  0  0  0
  1 51  1  0  0  0
  2 52  1  0  0  0
  2 53  1  0  0  0
  3 54  1  0  0  0
  3 55  1  0  0  0
  5 56  1  0  0  0
  8 57  1  0  0  0
  9 58  1  0  0  0
 12 59  1  0  0  0
 12 60  1  0  0  0
 13 61  1  0  0  0
 13 62  1  0  0  0
 16 63  1  0  0  0
 17 64  1  0  0  0
 19 65  1  0  0  0
 22 66  1  0  0  0
 22 67  1  0  0  0
 23 68  1  0  0  0
 24 69  1  0  0  0
 24 70  1  0  0  0
 25 71  1  0  0  0
 25 72  1  0  0  0
 26 73  1  0  0  0
 27 74  1  0  0  0
 29 75  1  0  0  0
 29 76  1  0  0  0
 29 77  1  0  0  0
 30 78  1  0  0  0
 31 79  1  0  0  0
 32 80  1  0  0  0
 32 81  1  0  0  0
 33 82  1  0  0  0
 33 83  1  0  0  0
 35 84  1  0  0  0
 35 85  1  0  0  0
 35 86  1  0  0  0
 38 87  1  0  0  0
 38 88  1  0  0  0
 40 89  1  0  0  0
 43 90  1  0  0  0
 48 91  1  0  0  0
 48 92  1  0  0  0
 48 93  1  0  0  0
 49 94  1  0  0  0
 49 95  1  0  0  0
 49 96  1  0  0  0
M  END
$$$$
