4ysi_ligand
  -I-interpret- 

 91 92  0  0  0  0  0  0  0  0999 V2000
   31.6500  -24.9140   -7.3820 N   0  3  0  0  0
   31.3940  -23.4880   -7.2260 C   0  0  0  0  0
   31.3150  -22.8180   -8.5950 C   0  0  0  0  0
   31.9840  -23.2420   -9.5350 O   0  0  0  0  0
   32.5090  -22.8390   -6.4000 C   0  0  0  0  0
   32.5590  -21.4350   -6.6140 O   0  0  0  0  0
   30.5030  -21.7640   -8.7260 N   0  0  0  0  0
   30.4680  -21.0390  -10.0020 C   0  0  0  0  0
   31.6990  -20.1840  -10.2750 C   0  0  0  0  0
   31.7810  -19.5860  -11.3490 O   0  0  0  0  0
   29.1910  -20.1950   -9.8940 C   0  0  0  0  0
   28.9880  -20.0080   -8.4500 C   0  0  0  0  0
   29.4620  -21.2830   -7.8010 C   0  0  0  0  0
   32.6650  -20.1070   -9.3670 N   0  0  0  0  0
   33.8780  -19.3560   -9.6520 C   0  0  0  0  0
   33.6700  -17.8590   -9.7580 C   0  0  0  0  0
   34.2290  -17.2150  -10.6590 O   0  0  0  0  0
   32.8870  -17.2840   -8.8510 N   0  0  0  0  0
   32.6560  -15.8490   -8.8770 C   0  0  0  0  0
   33.9510  -15.1020   -8.6010 C   0  0  0  0  0
   34.6840  -15.4370   -7.6660 O   0  0  0  0  0
   31.6030  -15.4440   -7.8500 C   0  0  0  0  0
   31.2570  -13.9710   -7.9910 C   0  0  0  0  0
   30.1680  -13.4890   -7.0600 C   0  0  0  0  0
   29.4820  -14.3240   -6.4270 O   0  0  0  0  0
   30.0070  -12.2530   -6.9460 O   0  0  0  0  0
   34.2220  -14.0800   -9.4040 N   0  0  0  0  0
   35.3930  -13.2650   -9.2220 C   0  0  0  0  0
   35.7950  -12.5990  -10.5170 C   0  0  0  0  0
   35.0310  -12.5610  -11.4830 O   0  0  0  0  0
   37.0210  -12.0810  -10.5530 N   0  0  0  0  0
   37.5380  -11.4590  -11.7740 C   0  0  0  0  0
   37.9020  -12.5080  -12.8100 C   0  0  0  0  0
   38.0500  -13.6920  -12.5080 O   0  0  0  0  0
   38.7840  -10.7210  -11.2830 C   0  0  0  0  0
   39.2330  -11.4760  -10.1090 C   0  0  0  0  0
   38.0130  -12.0760   -9.4650 C   0  0  0  0  0
   38.0880  -12.0510  -14.0470 N   0  0  0  0  0
   38.4740  -12.9690  -15.1150 C   0  0  0  0  0
   39.9230  -13.4150  -14.9910 C   0  0  0  0  0
   40.2760  -14.4950  -15.4800 O   0  0  0  0  0
   38.2460  -12.3190  -16.4830 C   0  0  0  0  0
   39.1640  -11.2620  -16.7160 O   0  0  0  0  0
   40.7750  -12.6170  -14.3620 N   0  0  0  0  0
   42.1900  -12.9260  -14.2860 C   0  0  0  0  0
   42.8070  -12.4990  -12.9710 C   0  0  0  0  0
   42.2710  -12.7810  -11.9020 O   0  0  0  0  0
   43.8570  -11.8610  -12.9450 O   0  0  0  0  0
   30.9016  -25.3343   -7.9331 H   0  0  0  0  0
   32.5415  -25.0480   -7.8591 H   0  0  0  0  0
   31.6854  -25.3544   -6.4627 H   0  0  0  0  0
   30.4440  -23.3587   -6.7075 H   0  0  0  0  0
   33.4625  -23.2707   -6.7041 H   0  0  0  0  0
   32.3105  -23.0224   -5.3440 H   0  0  0  0  0
   33.2651  -21.0567   -6.0849 H   0  0  0  0  0
   30.4683  -21.7260  -10.8482 H   0  0  0  0  0
   28.3386  -20.6853  -10.3643 H   0  0  0  0  0
   29.2868  -19.2438  -10.4176 H   0  0  0  0  0
   27.9413  -19.8104   -8.2188 H   0  0  0  0  0
   29.5414  -19.1449   -8.0800 H   0  0  0  0  0
   29.8376  -21.1260   -6.7899 H   0  0  0  0  0
   28.6591  -22.0062   -7.6584 H   0  0  0  0  0
   32.5563  -20.5755   -8.4675 H   0  0  0  0  0
   34.2493  -19.6986  -10.6178 H   0  0  0  0  0
   34.5651  -19.5277   -8.8234 H   0  0  0  0  0
   32.4444  -17.8544   -8.1305 H   0  0  0  0  0
   32.2912  -15.5869   -9.8701 H   0  0  0  0  0
   31.9993  -15.6195   -6.8499 H   0  0  0  0  0
   30.7026  -16.0357   -8.0153 H   0  0  0  0  0
   30.8936  -13.8253   -9.0083 H   0  0  0  0  0
   32.1575  -13.4077   -7.7462 H   0  0  0  0  0
   29.7657  -15.2113   -6.6590 H   0  0  0  0  0
   33.5830  -13.8673  -10.1700 H   0  0  0  0  0
   36.2126  -13.9002   -8.8861 H   0  0  0  0  0
   35.1708  -12.4927   -8.4856 H   0  0  0  0  0
   36.8141  -10.8060  -12.2616 H   0  0  0  0  0
   38.5675   -9.6815  -11.0367 H   0  0  0  0  0
   39.5549  -10.6732  -12.0521 H   0  0  0  0  0
   39.7508  -10.8204   -9.4088 H   0  0  0  0  0
   39.9330  -12.2581  -10.4031 H   0  0  0  0  0
   38.1986  -13.0719   -9.0628 H   0  0  0  0  0
   37.6778  -11.5111   -8.5951 H   0  0  0  0  0
   37.9608  -11.0592  -14.2485 H   0  0  0  0  0
   37.8454  -13.8546  -15.0215 H   0  0  0  0  0
   37.2357  -11.9105  -16.5072 H   0  0  0  0  0
   38.3890  -13.0767  -17.2534 H   0  0  0  0  0
   38.9947  -10.8771  -17.5790 H   0  0  0  0  0
   40.4269  -11.7656  -13.9211 H   0  0  0  0  0
   42.6957  -12.3853  -15.0860 H   0  0  0  0  0
   42.3035  -14.0064  -14.3756 H   0  0  0  0  0
   44.1620  -11.7122  -13.8430 H   0  0  0  0  0
  1  2  1  0  0  0
  2  3  1  0  0  0
  2  5  1  0  0  0
  3  4  2  0  0  0
  3  7  1  0  0  0
  5  6  1  0  0  0
  7  8  1  0  0  0
  7 13  1  0  0  0
  8  9  1  0  0  0
  8 11  1  0  0  0
  9 10  2  0  0  0
  9 14  1  0  0  0
 11 12  1  0  0  0
 12 13  1  0  0  0
 14 15  1  0  0  0
 15 16  1  0  0  0
 16 17  2  0  0  0
 16 18  1  0  0  0
 18 19  1  0  0  0
 19 20  1  0  0  0
 19 22  1  0  0  0
 20 21  2  0  0  0
 20 27  1  0  0  0
 22 23  1  0  0  0
 23 24  1  0  0  0
 24 25  1  0  0  0
 24 26  2  0  0  0
 27 28  1  0  0  0
 28 29  1  0  0  0
 29 30  2  0  0  0
 29 31  1  0  0  0
 31 32  1  0  0  0
 31 37  1  0  0  0
 32 33  1  0  0  0
 32 35  1  0  0  0
 33 34  2  0  0  0
 33 38  1  0  0  0
 35 36  1  0  0  0
 36 37  1  0  0  0
 38 39  1  0  0  0
 39 40  1  0  0  0
 39 42  1  0  0  0
 40 41  2  0  0  0
 40 44  1  0  0  0
 42 43  1  0  0  0
 44 45  1  0  0  0
 45 46  1  0  0  0
 46 47  2  0  0  0
 46 48  1  0  0  0
  1 49  1  0  0  0
  1 50  1  0  0  0
  1 51  1  0  0  0
  2 52  1  0  0  0
  5 53  1  0  0  0
  5 54  1  0  0  0
  6 55  1  0  0  0
  8 56  1  0  0  0
 11 57  1  0  0  0
 11 58  1  0  0  0
 12 59  1  0  0  0
 12 60  1  0  0  0
 13 61  1  0  0  0
 13 62  1  0  0  0
 14 63  1  0  0  0
 15 64  1  0  0  0
 15 65  1  0  0  0
 18 66  1  0  0  0
 19 67  1  0  0  0
 22 68  1  0  0  0
 22 69  1  0  0  0
 23 70  1  0  0  0
 23 71  1  0  0  0
 25 72  1  0  0  0
 27 73  1  0  0  0
 28 74  1  0  0  0
 28 75  1  0  0  0
 32 76  1  0  0  0
 35 77  1  0  0  0
 35 78  1  0  0  0
 36 79  1  0  0  0
 36 80  1  0  0  0
 37 81  1  0  0  0
 37 82  1  0  0  0
 38 83  1  0  0  0
 39 84  1  0  0  0
 42 85  1  0  0  0
 42 86  1  0  0  0
 43 87  1  0  0  0
 44 88  1  0  0  0
 45 89  1  0  0  0
 45 90  1  0  0  0
 48 91  1  0  0  0
M  END
$$$$
