2ksb_ligand
  -I-interpret- 

194197  0  0  0  0  0  0  0  0999 V2000
  -25.6130   -6.3870  -23.8660 N   0  3  0  0  0
  -24.8600   -7.5930  -23.4160 C   0  0  0  0  0
  -23.3720   -7.3920  -23.7390 C   0  0  0  0  0
  -23.0160   -6.5440  -24.5570 O   0  0  0  0  0
  -25.4330   -8.8360  -24.1410 C   0  0  0  0  0
  -25.9640   -9.8740  -23.1380 C   0  0  0  0  0
  -25.5540  -11.2750  -23.6030 C   0  0  0  0  0
  -26.7330  -12.0600  -23.9500 N   0  0  0  0  0
  -27.0390  -12.3180  -25.2180 C   0  0  0  0  0
  -26.2900  -11.8490  -26.1790 N   0  0  0  0  0
  -28.0910  -13.0350  -25.5010 N   0  0  0  0  0
  -22.5100   -8.1380  -23.0960 N   0  0  0  0  0
  -21.0280   -8.0330  -23.2930 C   0  0  0  0  0
  -20.5570   -8.4650  -24.6890 C   0  0  0  0  0
  -19.4590   -8.1020  -25.1130 O   0  0  0  0  0
  -20.4530   -8.9470  -22.1940 C   0  0  0  0  0
  -21.5390   -9.9280  -21.8990 C   0  0  0  0  0
  -22.8520   -9.1760  -22.1060 C   0  0  0  0  0
  -21.3740   -9.2450  -25.3980 N   0  0  0  0  0
  -20.9980   -9.7190  -26.7380 C   0  0  0  0  0
  -21.2970   -8.6650  -27.8190 C   0  0  0  0  0
  -20.4030   -8.3000  -28.5800 O   0  0  0  0  0
  -21.7040  -11.0620  -27.0860 C   0  0  0  0  0
  -20.9510  -11.7750  -28.2090 C   0  0  0  0  0
  -20.1960  -13.0010  -27.6570 C   0  0  0  0  0
  -18.6890  -12.7250  -27.6530 C   0  0  0  0  0
  -18.0510  -13.4490  -28.7880 N   0  3  0  0  0
  -22.5170   -8.1840  -27.9230 N   0  0  0  0  0
  -22.8800   -7.1760  -28.9580 C   0  0  0  0  0
  -22.0660   -5.8900  -28.8100 C   0  0  0  0  0
  -21.8250   -5.1810  -29.7860 O   0  0  0  0  0
  -24.3860   -6.9310  -28.7350 C   0  0  0  0  0
  -24.6530   -7.3870  -27.3410 C   0  0  0  0  0
  -23.6740   -8.5280  -27.0850 C   0  0  0  0  0
  -21.6360   -5.6030  -27.5820 N   0  0  0  0  0
  -20.8390   -4.4070  -27.3100 C   0  0  0  0  0
  -19.3590   -4.7410  -27.3410 C   0  0  0  0  0
  -18.6130   -4.3930  -26.4300 O   0  0  0  0  0
  -21.2110   -3.8220  -25.9420 C   0  0  0  0  0
  -22.5720   -3.1280  -26.0320 C   0  0  0  0  0
  -23.0560   -2.7560  -24.6340 C   0  0  0  0  0
  -23.6690   -3.5750  -23.9510 O   0  0  0  0  0
  -22.8160   -1.5590  -24.1640 N   0  0  0  0  0
  -18.9390   -5.3900  -28.4150 N   0  0  0  0  0
  -17.5390   -5.7380  -28.5800 C   0  0  0  0  0
  -16.8160   -4.5300  -29.1480 C   0  0  0  0  0
  -15.7070   -4.6320  -29.6730 O   0  0  0  0  0
  -17.3930   -6.9470  -29.5190 C   0  0  0  0  0
  -16.3760   -7.9440  -28.9470 C   0  0  0  0  0
  -16.8900   -8.5430  -27.6420 C   0  0  0  0  0
  -16.4490   -8.1480  -26.5610 O   0  0  0  0  0
  -17.8000   -9.4760  -27.6780 N   0  0  0  0  0
  -17.4780   -3.3820  -29.0340 N   0  0  0  0  0
  -16.9320   -2.1350  -29.5330 C   0  0  0  0  0
  -15.8400   -1.6140  -28.6050 C   0  0  0  0  0
  -15.5220   -0.4250  -28.6130 O   0  0  0  0  0
  -18.0360   -1.0820  -29.6580 C   0  0  0  0  0
  -18.9240   -1.4120  -30.8380 C   0  0  0  0  0
  -18.4960   -1.1180  -32.1390 C   0  0  0  0  0
  -20.1740   -2.0130  -30.6340 C   0  0  0  0  0
  -19.3150   -1.4240  -33.2320 C   0  0  0  0  0
  -20.9910   -2.3210  -31.7270 C   0  0  0  0  0
  -20.5620   -2.0250  -33.0270 C   0  0  0  0  0
  -15.2710   -2.5080  -27.8020 N   0  0  0  0  0
  -14.2190   -2.1190  -26.8720 C   0  0  0  0  0
  -12.9110   -1.8900  -27.6200 C   0  0  0  0  0
  -11.8500   -1.7580  -27.0120 O   0  0  0  0  0
  -14.0100   -3.2060  -25.8160 C   0  0  0  0  0
  -15.3160   -3.4930  -25.1100 C   0  0  0  0  0
  -16.2480   -2.4670  -24.9070 C   0  0  0  0  0
  -15.6000   -4.7900  -24.6660 C   0  0  0  0  0
  -17.4590   -2.7350  -24.2580 C   0  0  0  0  0
  -16.8120   -5.0600  -24.0170 C   0  0  0  0  0
  -17.7400   -4.0320  -23.8140 C   0  0  0  0  0
  -12.9920   -1.8500  -28.9450 N   0  0  0  0  0
  -11.8060   -1.6410  -29.7660 C   0  0  0  0  0
  -11.1180   -0.3280  -29.4090 C   0  0  0  0  0
  -10.0020   -0.0610  -29.8550 O   0  0  0  0  0
  -11.7900    0.4940  -28.6050 N   0  0  0  0  0
  -11.2270    1.7790  -28.2010 C   0  0  0  0  0
  -10.0500    1.5790  -27.2520 C   0  0  0  0  0
   -9.0260    2.2510  -27.3700 O   0  0  0  0  0
  -12.2990    2.6190  -27.5010 C   0  0  0  0  0
  -12.1140    4.1070  -27.8340 C   0  0  0  0  0
  -13.1440    4.5100  -28.8950 C   0  0  0  0  0
  -12.3050    4.9730  -26.5720 C   0  0  0  0  0
  -10.2000    0.6500  -26.3120 N   0  0  0  0  0
   -9.1410    0.3700  -25.3460 C   0  0  0  0  0
   -8.1350   -0.6150  -25.9320 C   0  0  0  0  0
   -8.3310   -1.0310  -27.0610 O   0  0  0  0  0
   -9.7360   -0.2040  -24.0600 C   0  0  0  0  0
  -10.9030    0.6700  -23.5970 C   0  0  0  0  0
  -10.2760    2.0860  -22.6530 S   0  0  0  0  0
  -11.4290    3.3400  -23.2730 C   0  0  0  0  0
   -7.1840   -0.9420  -25.2400 O   0  0  0  0  0
  -25.2436   -5.5614  -23.3944 H   0  0  0  0  0
  -25.5082   -6.2791  -24.8748 H   0  0  0  0  0
  -26.6003   -6.4985  -23.6355 H   0  0  0  0  0
  -24.9630   -7.7433  -22.3413 H   0  0  0  0  0
  -24.6353   -9.2949  -24.7250 H   0  0  0  0  0
  -26.2576   -8.5162  -24.7780 H   0  0  0  0  0
  -27.0507   -9.8089  -23.0834 H   0  0  0  0  0
  -25.5453   -9.6779  -22.1509 H   0  0  0  0  0
  -25.0193  -11.7751  -22.7955 H   0  0  0  0  0
  -24.9158  -11.1850  -24.4820 H   0  0  0  0  0
  -27.3335  -12.4174  -23.2070 H   0  0  0  0  0
  -26.5275  -12.0433  -27.1518 H   0  0  0  0  0
  -25.4674  -11.2883  -25.9570 H   0  0  0  0  0
  -28.6783  -13.3974  -24.7499 H   0  0  0  0  0
  -20.6900   -6.9991  -23.2224 H   0  0  0  0  0
  -20.1679   -8.3815  -21.3069 H   0  0  0  0  0
  -19.5384   -9.4429  -22.5190 H   0  0  0  0  0
  -21.4594  -10.3114  -20.8818 H   0  0  0  0  0
  -21.4743  -10.7975  -22.5531 H   0  0  0  0  0
  -23.6546   -9.8287  -22.4492 H   0  0  0  0  0
  -23.2393   -8.7538  -21.1787 H   0  0  0  0  0
  -22.2746   -9.5172  -25.0041 H   0  0  0  0  0
  -19.9218   -9.8911  -26.7207 H   0  0  0  0  0
  -22.7233  -10.8563  -27.4128 H   0  0  0  0  0
  -21.7160  -11.6996  -26.2020 H   0  0  0  0  0
  -20.2318  -11.0838  -28.6485 H   0  0  0  0  0
  -21.6669  -12.1080  -28.9605 H   0  0  0  0  0
  -20.4021  -13.8652  -28.2885 H   0  0  0  0  0
  -20.5284  -13.1998  -26.6381 H   0  0  0  0  0
  -18.2581  -13.0696  -26.7129 H   0  0  0  0  0
  -18.5145  -11.6544  -27.7598 H   0  0  0  0  0
  -17.0476  -13.2655  -28.7857 H   0  0  0  0  0
  -18.2149  -14.4506  -28.6860 H   0  0  0  0  0
  -18.4551  -13.1249  -29.6666 H   0  0  0  0  0
  -22.6636   -7.5246  -29.9678 H   0  0  0  0  0
  -24.9936   -7.4736  -29.4593 H   0  0  0  0  0
  -24.6477   -5.8818  -28.8723 H   0  0  0  0  0
  -25.6856   -7.7149  -27.2210 H   0  0  0  0  0
  -24.5154   -6.5770  -26.6247 H   0  0  0  0  0
  -23.4120   -8.6244  -26.0314 H   0  0  0  0  0
  -24.0945   -9.5023  -27.3341 H   0  0  0  0  0
  -21.8681   -6.2322  -26.8134 H   0  0  0  0  0
  -21.0506   -3.6676  -28.0824 H   0  0  0  0  0
  -20.4546   -3.0973  -25.6407 H   0  0  0  0  0
  -21.2624   -4.6252  -25.2069 H   0  0  0  0  0
  -23.2913   -3.8040  -26.4943 H   0  0  0  0  0
  -22.4762   -2.2235  -26.6327 H   0  0  0  0  0
  -23.1373   -1.3039  -23.2301 H   0  0  0  0  0
  -22.3076   -0.8808  -24.7314 H   0  0  0  0  0
  -19.6094   -5.6499  -29.1385 H   0  0  0  0  0
  -17.1053   -6.0130  -27.6186 H   0  0  0  0  0
  -17.0450   -6.6021  -30.4927 H   0  0  0  0  0
  -18.3597   -7.4408  -29.6171 H   0  0  0  0  0
  -15.4395   -7.4215  -28.7519 H   0  0  0  0  0
  -16.2229   -8.7465  -29.6686 H   0  0  0  0  0
  -18.1493   -9.8815  -26.8097 H   0  0  0  0  0
  -18.1626   -9.8004  -28.5745 H   0  0  0  0  0
  -18.3933   -3.3788  -28.5839 H   0  0  0  0  0
  -16.5014   -2.3262  -30.5159 H   0  0  0  0  0
  -17.5847   -0.1013  -29.8085 H   0  0  0  0  0
  -18.6338   -1.0752  -28.7466 H   0  0  0  0  0
  -17.5246   -0.6506  -32.3003 H   0  0  0  0  0
  -20.5098   -2.2406  -29.6223 H   0  0  0  0  0
  -18.9812   -1.1940  -34.2438 H   0  0  0  0  0
  -21.9612   -2.7912  -31.5669 H   0  0  0  0  0
  -21.1993   -2.2627  -33.8788 H   0  0  0  0  0
  -15.5755   -3.4808  -27.8376 H   0  0  0  0  0
  -14.5239   -1.1945  -26.3816 H   0  0  0  0  0
  -13.2745   -2.8641  -25.0878 H   0  0  0  0  0
  -13.6551   -4.1155  -26.3007 H   0  0  0  0  0
  -16.0297   -1.4575  -25.2553 H   0  0  0  0  0
  -14.8776   -5.5905  -24.8254 H   0  0  0  0  0
  -18.1818   -1.9348  -24.0988 H   0  0  0  0  0
  -17.0320   -6.0698  -23.6705 H   0  0  0  0  0
  -18.6830   -4.2420  -23.3093 H   0  0  0  0  0
  -13.8995   -1.9675  -29.3957 H   0  0  0  0  0
  -12.1076   -1.6041  -30.8128 H   0  0  0  0  0
  -11.1092   -2.4602  -29.5884 H   0  0  0  0  0
  -12.7126    0.2215  -28.2661 H   0  0  0  0  0
  -10.8772    2.2946  -29.0954 H   0  0  0  0  0
  -12.2099    2.4823  -26.4233 H   0  0  0  0  0
  -13.2824    2.2977  -27.8441 H   0  0  0  0  0
  -11.1040    4.2661  -28.2118 H   0  0  0  0  0
  -12.9935    3.9095  -29.7922 H   0  0  0  0  0
  -14.1485    4.3407  -28.5072 H   0  0  0  0  0
  -13.0199    5.5654  -29.1376 H   0  0  0  0  0
  -13.3095    4.8209  -26.1772 H   0  0  0  0  0
  -11.5702    4.6845  -25.8203 H   0  0  0  0  0
  -12.1697    6.0234  -26.8298 H   0  0  0  0  0
  -11.0719    0.1227  -26.2649 H   0  0  0  0  0
   -8.6290    1.3043  -25.1157 H   0  0  0  0  0
   -8.9699   -0.2241  -23.2849 H   0  0  0  0  0
  -10.0948   -1.2159  -24.2481 H   0  0  0  0  0
  -11.5651    0.0799  -22.9633 H   0  0  0  0  0
  -11.4492    1.0318  -24.4681 H   0  0  0  0  0
  -11.3217    3.4275  -24.3542 H   0  0  0  0  0
  -12.4498    3.0446  -23.0306 H   0  0  0  0  0
  -11.2063    4.2992  -22.8057 H   0  0  0  0  0
   -7.2354   -0.4914  -24.3939 H   0  0  0  0  0
  1  2  1  0  0  0
  2  3  1  0  0  0
  2  5  1  0  0  0
  3  4  2  0  0  0
  3 12  1  0  0  0
  5  6  1  0  0  0
  6  7  1  0  0  0
  7  8  1  0  0  0
  8  9  1  0  0  0
  9 10  1  0  0  0
  9 11  2  0  0  0
 12 13  1  0  0  0
 12 18  1  0  0  0
 13 14  1  0  0  0
 13 16  1  0  0  0
 14 15  2  0  0  0
 14 19  1  0  0  0
 16 17  1  0  0  0
 17 18  1  0  0  0
 19 20  1  0  0  0
 20 21  1  0  0  0
 20 23  1  0  0  0
 21 22  2  0  0  0
 21 28  1  0  0  0
 23 24  1  0  0  0
 24 25  1  0  0  0
 25 26  1  0  0  0
 26 27  1  0  0  0
 28 29  1  0  0  0
 28 34  1  0  0  0
 29 30  1  0  0  0
 29 32  1  0  0  0
 30 31  2  0  0  0
 30 35  1  0  0  0
 32 33  1  0  0  0
 33 34  1  0  0  0
 35 36  1  0  0  0
 36 37  1  0  0  0
 36 39  1  0  0  0
 37 38  2  0  0  0
 37 44  1  0  0  0
 39 40  1  0  0  0
 40 41  1  0  0  0
 41 42  2  0  0  0
 41 43  1  0  0  0
 44 45  1  0  0  0
 45 46  1  0  0  0
 45 48  1  0  0  0
 46 47  2  0  0  0
 46 53  1  0  0  0
 48 49  1  0  0  0
 49 50  1  0  0  0
 50 51  2  0  0  0
 50 52  1  0  0  0
 53 54  1  0  0  0
 54 55  1  0  0  0
 54 57  1  0  0  0
 55 56  2  0  0  0
 55 64  1  0  0  0
 57 58  1  0  0  0
 58 59  4  0  0  0
 58 60  4  0  0  0
 59 61  4  0  0  0
 60 62  4  0  0  0
 61 63  4  0  0  0
 62 63  4  0  0  0
 64 65  1  0  0  0
 65 66  1  0  0  0
 65 68  1  0  0  0
 66 67  2  0  0  0
 66 75  1  0  0  0
 68 69  1  0  0  0
 69 70  4  0  0  0
 69 71  4  0  0  0
 70 72  4  0  0  0
 71 73  4  0  0  0
 72 74  4  0  0  0
 73 74  4  0  0  0
 75 76  1  0  0  0
 76 77  1  0  0  0
 77 78  2  0  0  0
 77 79  1  0  0  0
 79 80  1  0  0  0
 80 81  1  0  0  0
 80 83  1  0  0  0
 81 82  2  0  0  0
 81 87  1  0  0  0
 83 84  1  0  0  0
 84 85  1  0  0  0
 84 86  1  0  0  0
 87 88  1  0  0  0
 88 89  1  0  0  0
 88 91  1  0  0  0
 89 90  2  0  0  0
 89 95  1  0  0  0
 91 92  1  0  0  0
 92 93  1  0  0  0
 93 94  1  0  0  0
  1 96  1  0  0  0
  1 97  1  0  0  0
  1 98  1  0  0  0
  2 99  1  0  0  0
  5100  1  0  0  0
  5101  1  0  0  0
  6102  1  0  0  0
  6103  1  0  0  0
  7104  1  0  0  0
  7105  1  0  0  0
  8106  1  0  0  0
 10107  1  0  0  0
 10108  1  0  0  0
 11109  1  0  0  0
 13110  1  0  0  0
 16111  1  0  0  0
 16112  1  0  0  0
 17113  1  0  0  0
 17114  1  0  0  0
 18115  1  0  0  0
 18116  1  0  0  0
 19117  1  0  0  0
 20118  1  0  0  0
 23119  1  0  0  0
 23120  1  0  0  0
 24121  1  0  0  0
 24122  1  0  0  0
 25123  1  0  0  0
 25124  1  0  0  0
 26125  1  0  0  0
 26126  1  0  0  0
 27127  1  0  0  0
 27128  1  0  0  0
 27129  1  0  0  0
 29130  1  0  0  0
 32131  1  0  0  0
 32132  1  0  0  0
 33133  1  0  0  0
 33134  1  0  0  0
 34135  1  0  0  0
 34136  1  0  0  0
 35137  1  0  0  0
 36138  1  0  0  0
 39139  1  0  0  0
 39140  1  0  0  0
 40141  1  0  0  0
 40142  1  0  0  0
 43143  1  0  0  0
 43144  1  0  0  0
 44145  1  0  0  0
 45146  1  0  0  0
 48147  1  0  0  0
 48148  1  0  0  0
 49149  1  0  0  0
 49150  1  0  0  0
 52151  1  0  0  0
 52152  1  0  0  0
 53153  1  0  0  0
 54154  1  0  0  0
 57155  1  0  0  0
 57156  1  0  0  0
 59157  1  0  0  0
 60158  1  0  0  0
 61159  1  0  0  0
 62160  1  0  0  0
 63161  1  0  0  0
 64162  1  0  0  0
 65163  1  0  0  0
 68164  1  0  0  0
 68165  1  0  0  0
 70166  1  0  0  0
 71167  1  0  0  0
 72168  1  0  0  0
 73169  1  0  0  0
 74170  1  0  0  0
 75171  1  0  0  0
 76172  1  0  0  0
 76173  1  0  0  0
 79174  1  0  0  0
 80175  1  0  0  0
 83176  1  0  0  0
 83177  1  0  0  0
 84178  1  0  0  0
 85179  1  0  0  0
 85180  1  0  0  0
 85181  1  0  0  0
 86182  1  0  0  0
 86183  1  0  0  0
 86184  1  0  0  0
 87185  1  0  0  0
 88186  1  0  0  0
 91187  1  0  0  0
 91188  1  0  0  0
 92189  1  0  0  0
 92190  1  0  0  0
 94191  1  0  0  0
 94192  1  0  0  0
 94193  1  0  0  0
 95194  1  0  0  0
M  END
$$$$
