### 
### Created by X-TOOL on Mon Sep 10 21:13:05 2018
### 

@<TRIPOS>MOLECULE
2ksb_ligand
  194   197     1     0     0
SMALL
GAST_HUCK


@<TRIPOS>ATOM
      1 N         -25.6130   -6.3870  -23.8660 N.4       1 ARG         0.2379
      2 CA        -24.8600   -7.5930  -23.4160 C.3       1 ARG         0.0653
      3 C         -23.3720   -7.3920  -23.7390 C.2       1 ARG         0.2292
      4 O         -23.0160   -6.5440  -24.5570 O.2       1 ARG        -0.3905
      5 CB        -25.4330   -8.8360  -24.1410 C.3       1 ARG         0.0110
      6 CG        -25.9640   -9.8740  -23.1380 C.3       1 ARG        -0.0125
      7 CD        -25.5540  -11.2750  -23.6030 C.3       1 ARG         0.0629
      8 NE        -26.7330  -12.0600  -23.9500 N.pl3     1 ARG        -0.2723
      9 CZ        -27.0390  -12.3180  -25.2180 C.cat     1 ARG         0.2882
     10 NH1       -26.2900  -11.8490  -26.1790 N.pl3     1 ARG        -0.2849
     11 NH2       -28.0910  -13.0350  -25.5010 N.pl3     1 ARG        -0.2849
     12 N         -22.5100   -8.1380  -23.0960 N.am      1 PRO        -0.2471
     13 CA        -21.0280   -8.0330  -23.2930 C.3       1 PRO         0.1339
     14 C         -20.5570   -8.4650  -24.6890 C.2       1 PRO         0.2041
     15 O         -19.4590   -8.1020  -25.1130 O.2       1 PRO        -0.3944
     16 CB        -20.4530   -8.9470  -22.1940 C.3       1 PRO        -0.0104
     17 CG        -21.5390   -9.9280  -21.8990 C.3       1 PRO        -0.0281
     18 CD        -22.8520   -9.1760  -22.1060 C.3       1 PRO         0.0371
     19 N         -21.3740   -9.2450  -25.3980 N.am      1 LYS        -0.2637
     20 CA        -20.9980   -9.7190  -26.7380 C.3       1 LYS         0.1312
     21 C         -21.2970   -8.6650  -27.8190 C.2       1 LYS         0.2064
     22 O         -20.4030   -8.3000  -28.5800 O.2       1 LYS        -0.3942
     23 CB        -21.7040  -11.0620  -27.0860 C.3       1 LYS        -0.0122
     24 CG        -20.9510  -11.7750  -28.2090 C.3       1 LYS        -0.0440
     25 CD        -20.1960  -13.0010  -27.6570 C.3       1 LYS        -0.0124
     26 CE        -18.6890  -12.7250  -27.6530 C.3       1 LYS        -0.0354
     27 NZ        -18.0510  -13.4490  -28.7880 N.4       1 LYS         0.2185
     28 N         -22.5170   -8.1840  -27.9230 N.am      1 PRO        -0.2498
     29 CA        -22.8800   -7.1760  -28.9580 C.3       1 PRO         0.1338
     30 C         -22.0660   -5.8900  -28.8100 C.2       1 PRO         0.2041
     31 O         -21.8250   -5.1810  -29.7860 O.2       1 PRO        -0.3944
     32 CB        -24.3860   -6.9310  -28.7350 C.3       1 PRO        -0.0104
     33 CG        -24.6530   -7.3870  -27.3410 C.3       1 PRO        -0.0281
     34 CD        -23.6740   -8.5280  -27.0850 C.3       1 PRO         0.0369
     35 N         -21.6360   -5.6030  -27.5820 N.am      1 GLN        -0.2636
     36 CA        -20.8390   -4.4070  -27.3100 C.3       1 GLN         0.1330
     37 C         -19.3590   -4.7410  -27.3410 C.2       1 GLN         0.2040
     38 O         -18.6130   -4.3930  -26.4300 O.2       1 GLN        -0.3944
     39 CB        -21.2110   -3.8220  -25.9420 C.3       1 GLN         0.0045
     40 CG        -22.5720   -3.1280  -26.0320 C.3       1 GLN         0.0412
     41 CD        -23.0560   -2.7560  -24.6340 C.2       1 GLN         0.1737
     42 OE1       -23.6690   -3.5750  -23.9510 O.2       1 GLN        -0.3973
     43 NE2       -22.8160   -1.5590  -24.1640 N.am      1 GLN        -0.3009
     44 N         -18.9390   -5.3900  -28.4150 N.am      1 GLN        -0.2636
     45 CA        -17.5390   -5.7380  -28.5800 C.3       1 GLN         0.1330
     46 C         -16.8160   -4.5300  -29.1480 C.2       1 GLN         0.2042
     47 O         -15.7070   -4.6320  -29.6730 O.2       1 GLN        -0.3944
     48 CB        -17.3930   -6.9470  -29.5190 C.3       1 GLN         0.0045
     49 CG        -16.3760   -7.9440  -28.9470 C.3       1 GLN         0.0412
     50 CD        -16.8900   -8.5430  -27.6420 C.2       1 GLN         0.1737
     51 OE1       -16.4490   -8.1480  -26.5610 O.2       1 GLN        -0.3973
     52 NE2       -17.8000   -9.4760  -27.6780 N.am      1 GLN        -0.3009
     53 N         -17.4780   -3.3820  -29.0340 N.am      1 PHE        -0.2619
     54 CA        -16.9320   -2.1350  -29.5330 C.3       1 PHE         0.1404
     55 C         -15.8400   -1.6140  -28.6050 C.2       1 PHE         0.2061
     56 O         -15.5220   -0.4250  -28.6130 O.2       1 PHE        -0.3942
     57 CB        -18.0360   -1.0820  -29.6580 C.3       1 PHE         0.0214
     58 CG        -18.9240   -1.4120  -30.8380 C.ar      1 PHE        -0.0386
     59 CD1       -18.4960   -1.1180  -32.1390 C.ar      1 PHE        -0.0601
     60 CD2       -20.1740   -2.0130  -30.6340 C.ar      1 PHE        -0.0601
     61 CE1       -19.3150   -1.4240  -33.2320 C.ar      1 PHE        -0.0686
     62 CE2       -20.9910   -2.3210  -31.7270 C.ar      1 PHE        -0.0686
     63 CZ        -20.5620   -2.0250  -33.0270 C.ar      1 PHE        -0.0687
     64 N         -15.2710   -2.5080  -27.8020 N.am      1 PHE        -0.2618
     65 CA        -14.2190   -2.1190  -26.8720 C.3       1 PHE         0.1404
     66 C         -12.9110   -1.8900  -27.6200 C.2       1 PHE         0.2058
     67 O         -11.8500   -1.7580  -27.0120 O.2       1 PHE        -0.3942
     68 CB        -14.0100   -3.2060  -25.8160 C.3       1 PHE         0.0214
     69 CG        -15.3160   -3.4930  -25.1100 C.ar      1 PHE        -0.0386
     70 CD1       -16.2480   -2.4670  -24.9070 C.ar      1 PHE        -0.0601
     71 CD2       -15.6000   -4.7900  -24.6660 C.ar      1 PHE        -0.0601
     72 CE1       -17.4590   -2.7350  -24.2580 C.ar      1 PHE        -0.0686
     73 CE2       -16.8120   -5.0600  -24.0170 C.ar      1 PHE        -0.0686
     74 CZ        -17.7400   -4.0320  -23.8140 C.ar      1 PHE        -0.0687
     75 N         -12.9920   -1.8500  -28.9450 N.am      1 GLY        -0.2663
     76 CA        -11.8060   -1.6410  -29.7660 C.3       1 GLY         0.1201
     77 C         -11.1180   -0.3280  -29.4090 C.2       1 GLY         0.2007
     78 O         -10.0020   -0.0610  -29.8550 O.2       1 GLY        -0.3947
     79 N         -11.7900    0.4940  -28.6050 N.am      1 LEU        -0.2640
     80 CA        -11.2270    1.7790  -28.2010 C.3       1 LEU         0.1312
     81 C         -10.0500    1.5790  -27.2520 C.2       1 LEU         0.2033
     82 O          -9.0260    2.2510  -27.3700 O.2       1 LEU        -0.3944
     83 CB        -12.2990    2.6190  -27.5010 C.3       1 LEU        -0.0101
     84 CG        -12.1140    4.1070  -27.8340 C.3       1 LEU        -0.0425
     85 CD1       -13.1440    4.5100  -28.8950 C.3       1 LEU        -0.0625
     86 CD2       -12.3050    4.9730  -26.5720 C.3       1 LEU        -0.0625
     87 N         -10.2000    0.6500  -26.3120 N.am      1 MET        -0.2695
     88 CA         -9.1410    0.3700  -25.3460 C.3       1 MET         0.0951
     89 C          -8.1350   -0.6150  -25.9320 C.2       1 MET         0.0601
     90 O          -8.3310   -1.0310  -27.0610 O.co2     1 MET        -0.5666
     91 CB         -9.7360   -0.2040  -24.0600 C.3       1 MET        -0.0089
     92 CG        -10.9030    0.6700  -23.5970 C.3       1 MET        -0.0030
     93 SD        -10.2760    2.0860  -22.6530 S.3       1 MET        -0.1639
     94 CE        -11.4290    3.3400  -23.2730 C.3       1 MET        -0.0181
     95 OXT        -7.1840   -0.9420  -25.2400 O.co2     1 MET        -0.5666
     96 H1        -26.5924   -6.5061  -23.6596 H         1 ARG         0.2015
     97 H2        -25.4913   -6.2661  -24.8593 H         1 ARG         0.2015
     98 H3        -25.2644   -5.5737  -23.3833 H         1 ARG         0.2015
     99 H4        -24.9798   -7.7214  -22.3301 H         1 ARG         0.1098
    100 H5        -24.6376   -9.2964  -24.7454 H         1 ARG         0.0347
    101 H6        -26.2563   -8.5194  -24.7982 H         1 ARG         0.0347
    102 H7        -27.0609   -9.8092  -23.0866 H         1 ARG         0.0302
    103 H8        -25.5380   -9.6767  -22.1432 H         1 ARG         0.0302
    104 H9        -25.0075  -11.7804  -22.7931 H         1 ARG         0.0689
    105 H10       -24.9036  -11.1882  -24.4858 H         1 ARG         0.0689
    106 H11       -27.3393  -12.4209  -23.1997 H         1 ARG         0.2642
    107 H12       -26.5272  -12.0490  -27.1612 H         1 ARG         0.2615
    108 H13       -25.4618  -11.2790  -25.9550 H         1 ARG         0.2615
    109 H14       -28.6815  -13.4047  -24.7424 H         1 ARG         0.2615
    110 H15       -28.3313  -13.2315  -26.4831 H         1 ARG         0.2615
    111 H16       -20.7052   -6.9943  -23.1291 H         1 PRO         0.0802
    112 H17       -20.2056   -8.3626  -21.2955 H         1 PRO         0.0313
    113 H18       -19.5519   -9.4648  -22.5543 H         1 PRO         0.0313
    114 H19       -21.4616  -10.2835  -20.8609 H         1 PRO         0.0287
    115 H20       -21.4770  -10.7851  -22.5857 H         1 PRO         0.0287
    116 H21       -23.6311   -9.8477  -22.4956 H         1 PRO         0.0524
    117 H22       -23.1962   -8.7220  -21.1650 H         1 PRO         0.0524
    118 H23       -22.2570   -9.5119  -25.0118 H         1 LYS         0.1883
    119 H24       -19.9129   -9.8992  -26.7344 H         1 LYS         0.0800
    120 H25       -22.7347  -10.8577  -27.4115 H         1 LYS         0.0312
    121 H26       -21.7219  -11.7056  -26.1941 H         1 LYS         0.0312
    122 H27       -20.2294  -11.0784  -28.6607 H         1 LYS         0.0269
    123 H28       -21.6692  -12.1059  -28.9737 H         1 LYS         0.0269
    124 H29       -20.4053  -13.8748  -28.2916 H         1 LYS         0.0317
    125 H30       -20.5324  -13.2048  -26.6297 H         1 LYS         0.0317
    126 H31       -18.2544  -13.0736  -26.7045 H         1 LYS         0.0813
    127 H32       -18.5133  -11.6446  -27.7616 H         1 LYS         0.0813
    128 H33       -17.0593  -13.2684  -28.7867 H         1 LYS         0.1994
    129 H34       -18.4496  -13.1295  -29.6569 H         1 LYS         0.1994
    130 H35       -18.2123  -14.4390  -28.6882 H         1 LYS         0.1994
    131 H36       -22.7081   -7.5870  -29.9637 H         1 PRO         0.0802
    132 H37       -24.9822   -7.5138  -29.4525 H         1 PRO         0.0313
    133 H38       -24.6234   -5.8624  -28.8436 H         1 PRO         0.0313
    134 H39       -25.6896   -7.7425  -27.2457 H         1 PRO         0.0287
    135 H40       -24.4799   -6.5663  -26.6293 H         1 PRO         0.0287
    136 H41       -23.3908   -8.5718  -26.0230 H         1 PRO         0.0524
    137 H42       -24.1066   -9.4925  -27.3892 H         1 PRO         0.0524
    138 H43       -21.8635   -6.2198  -26.8285 H         1 GLN         0.1883
    139 H44       -21.0502   -3.6572  -28.0866 H         1 GLN         0.0801
    140 H45       -20.4474   -3.0916  -25.6365 H         1 GLN         0.0337
    141 H46       -21.2617   -4.6318  -25.1993 H         1 GLN         0.0337
    142 H47       -23.2984   -3.8081  -26.5009 H         1 GLN         0.0504
    143 H48       -22.4775   -2.2164  -26.6403 H         1 GLN         0.0504
    144 H49       -23.1307   -1.3090  -23.2483 H         1 GLN         0.1814
    145 H50       -22.3179   -0.8940  -24.7204 H         1 GLN         0.1814
    146 H51       -19.5963   -5.6448  -29.1243 H         1 GLN         0.1883
    147 H52       -17.1083   -5.9936  -27.6006 H         1 GLN         0.0801
    148 H53       -17.0480   -6.6017  -30.5047 H         1 GLN         0.0337
    149 H54       -18.3685   -7.4441  -29.6254 H         1 GLN         0.0337
    150 H55       -15.4262   -7.4229  -28.7565 H         1 GLN         0.0504
    151 H56       -16.2116   -8.7514  -29.6757 H         1 GLN         0.0504
    152 H57       -18.1422   -9.8738  -26.8267 H         1 GLN         0.1814
    153 H58       -18.1558   -9.7938  -28.5569 H         1 GLN         0.1814
    154 H59       -18.3754   -3.3789  -28.5928 H         1 PHE         0.1885
    155 H60       -16.4970   -2.3149  -30.5272 H         1 PHE         0.0823
    156 H61       -17.5815   -0.0916  -29.8081 H         1 PHE         0.0474
    157 H62       -18.6388   -1.0732  -28.7379 H         1 PHE         0.0474
    158 H63       -17.5299   -0.6532  -32.2994 H         1 PHE         0.0557
    159 H64       -20.5080   -2.2394  -29.6279 H         1 PHE         0.0557
    160 H65       -18.9830   -1.1952  -34.2382 H         1 PHE         0.0599
    161 H66       -21.9559   -2.7887  -31.5678 H         1 PHE         0.0599
    162 H67       -21.1957   -2.2614  -33.8741 H         1 PHE         0.0559
    163 H68       -15.5696   -3.4618  -27.8369 H         1 PHE         0.1885
    164 H69       -14.5152   -1.1852  -26.3718 H         1 PHE         0.0823
    165 H70       -13.2658   -2.8636  -25.0819 H         1 PHE         0.0474
    166 H71       -13.6491   -4.1238  -26.3032 H         1 PHE         0.0474
    167 H72       -16.0309   -1.4630  -25.2534 H         1 PHE         0.0557
    168 H73       -14.8815   -5.5861  -24.8245 H         1 PHE         0.0557
    169 H74       -18.1778   -1.9392  -24.0996 H         1 PHE         0.0599
    170 H75       -17.0308   -6.0642  -23.6724 H         1 PHE         0.0599
    171 H76       -18.6778   -4.2409  -23.3121 H         1 PHE         0.0559
    172 H77       -13.8817   -1.9652  -29.3868 H         1 GLY         0.1881
    173 H78       -12.1017   -1.6156  -30.8252 H         1 GLY         0.0763
    174 H79       -11.1036   -2.4714  -29.6012 H         1 GLY         0.0763
    175 H80       -12.6946    0.2268  -28.2728 H         1 LEU         0.1883
    176 H81       -10.8779    2.3123  -29.0975 H         1 LEU         0.0800
    177 H82       -12.2171    2.4780  -26.4132 H         1 LEU         0.0315
    178 H83       -13.2935    2.2927  -27.8392 H         1 LEU         0.0315
    179 H84       -11.1000    4.2664  -28.2294 H         1 LEU         0.0298
    180 H85       -13.0198    5.5750  -29.1407 H         1 LEU         0.0232
    181 H86       -14.1582    4.3396  -28.5048 H         1 LEU         0.0232
    182 H87       -12.9932    3.9047  -29.8010 H         1 LEU         0.0232
    183 H88       -11.5648    4.6820  -25.8121 H         1 LEU         0.0232
    184 H89       -13.3189    4.8213  -26.1732 H         1 LEU         0.0232
    185 H90       -12.1675    6.0333  -26.8306 H         1 LEU         0.0232
    186 H91       -11.0548    0.1330  -26.2658 H         1 MET         0.1875
    187 H92        -8.6212    1.3100  -25.1089 H         1 MET         0.0726
    188 H93        -8.9631   -0.2264  -23.2776 H         1 MET         0.0313
    189 H94       -10.0968   -1.2259  -24.2483 H         1 MET         0.0313
    190 H95       -11.5740    0.0752  -22.9599 H         1 MET         0.0378
    191 H96       -11.4574    1.0334  -24.4748 H         1 MET         0.0378
    192 H97       -11.2052    4.3086  -22.8021 H         1 MET         0.0340
    193 H98       -12.4597    3.0431  -23.0290 H         1 MET         0.0340
    194 H99       -11.3217    3.4293  -24.3641 H         1 MET         0.0340
@<TRIPOS>BOND
     1    1    2 1  
     2    2    3 1  
     3    2    5 1  
     4    3    4 2  
     5    3   12 am 
     6    5    6 1  
     7    6    7 1  
     8    7    8 1  
     9    8    9 ar 
    10    9   10 ar 
    11    9   11 ar 
    12   12   13 1  
    13   12   18 1  
    14   13   14 1  
    15   13   16 1  
    16   14   15 2  
    17   14   19 am 
    18   16   17 1  
    19   17   18 1  
    20   19   20 1  
    21   20   21 1  
    22   20   23 1  
    23   21   22 2  
    24   21   28 am 
    25   23   24 1  
    26   24   25 1  
    27   25   26 1  
    28   26   27 1  
    29   28   29 1  
    30   28   34 1  
    31   29   30 1  
    32   29   32 1  
    33   30   31 2  
    34   30   35 am 
    35   32   33 1  
    36   33   34 1  
    37   35   36 1  
    38   36   37 1  
    39   36   39 1  
    40   37   38 2  
    41   37   44 am 
    42   39   40 1  
    43   40   41 1  
    44   41   42 2  
    45   41   43 am 
    46   44   45 1  
    47   45   46 1  
    48   45   48 1  
    49   46   47 2  
    50   46   53 am 
    51   48   49 1  
    52   49   50 1  
    53   50   51 2  
    54   50   52 am 
    55   53   54 1  
    56   54   55 1  
    57   54   57 1  
    58   55   56 2  
    59   55   64 am 
    60   57   58 1  
    61   58   59 ar 
    62   58   60 ar 
    63   59   61 ar 
    64   60   62 ar 
    65   61   63 ar 
    66   62   63 ar 
    67   64   65 1  
    68   65   66 1  
    69   65   68 1  
    70   66   67 2  
    71   66   75 am 
    72   68   69 1  
    73   69   70 ar 
    74   69   71 ar 
    75   70   72 ar 
    76   71   73 ar 
    77   72   74 ar 
    78   73   74 ar 
    79   75   76 1  
    80   76   77 1  
    81   77   78 2  
    82   77   79 am 
    83   79   80 1  
    84   80   81 1  
    85   80   83 1  
    86   81   82 2  
    87   81   87 am 
    88   83   84 1  
    89   84   85 1  
    90   84   86 1  
    91   87   88 1  
    92   88   89 1  
    93   88   91 1  
    94   89   90 ar 
    95   89   95 ar 
    96   91   92 1  
    97   92   93 1  
    98   93   94 1  
    99    1   96 1  
   100    1   97 1  
   101    1   98 1  
   102    2   99 1  
   103    5  100 1  
   104    5  101 1  
   105    6  102 1  
   106    6  103 1  
   107    7  104 1  
   108    7  105 1  
   109    8  106 1  
   110   10  107 1  
   111   10  108 1  
   112   11  109 1  
   113   11  110 1  
   114   13  111 1  
   115   16  112 1  
   116   16  113 1  
   117   17  114 1  
   118   17  115 1  
   119   18  116 1  
   120   18  117 1  
   121   19  118 1  
   122   20  119 1  
   123   23  120 1  
   124   23  121 1  
   125   24  122 1  
   126   24  123 1  
   127   25  124 1  
   128   25  125 1  
   129   26  126 1  
   130   26  127 1  
   131   27  128 1  
   132   27  129 1  
   133   27  130 1  
   134   29  131 1  
   135   32  132 1  
   136   32  133 1  
   137   33  134 1  
   138   33  135 1  
   139   34  136 1  
   140   34  137 1  
   141   35  138 1  
   142   36  139 1  
   143   39  140 1  
   144   39  141 1  
   145   40  142 1  
   146   40  143 1  
   147   43  144 1  
   148   43  145 1  
   149   44  146 1  
   150   45  147 1  
   151   48  148 1  
   152   48  149 1  
   153   49  150 1  
   154   49  151 1  
   155   52  152 1  
   156   52  153 1  
   157   53  154 1  
   158   54  155 1  
   159   57  156 1  
   160   57  157 1  
   161   59  158 1  
   162   60  159 1  
   163   61  160 1  
   164   62  161 1  
   165   63  162 1  
   166   64  163 1  
   167   65  164 1  
   168   68  165 1  
   169   68  166 1  
   170   70  167 1  
   171   71  168 1  
   172   72  169 1  
   173   73  170 1  
   174   74  171 1  
   175   75  172 1  
   176   76  173 1  
   177   76  174 1  
   178   79  175 1  
   179   80  176 1  
   180   83  177 1  
   181   83  178 1  
   182   84  179 1  
   183   85  180 1  
   184   85  181 1  
   185   85  182 1  
   186   86  183 1  
   187   86  184 1  
   188   86  185 1  
   189   87  186 1  
   190   88  187 1  
   191   91  188 1  
   192   91  189 1  
   193   92  190 1  
   194   92  191 1  
   195   94  192 1  
   196   94  193 1  
   197   94  194 1  
@<TRIPOS>SUBSTRUCTURE
     1 ARG         1

