### 
### Created by X-TOOL on Mon Sep 10 21:12:56 2018
### 

@<TRIPOS>MOLECULE
2uzl_ligand
   37    39     1     0     0
SMALL
GAST_HUCK


@<TRIPOS>ATOM
      1 O4         67.9450   64.3970   20.1450 O.2       1 C94        -0.1472
      2 S2         68.0780   63.8400   18.8480 S.o2      1 C94         0.0771
      3 O3         68.4840   64.8060   17.8890 O.2       1 C94        -0.1472
      4 N6         66.7510   63.0740   18.3970 N.am      1 C94        -0.2582
      5 C16        69.3310   62.6050   18.9210 C.ar      1 C94         0.1363
      6 C15        70.3740   62.6550   19.8540 C.ar      1 C94         0.0728
      7 C24        70.4910   63.8100   20.8450 C.3       1 C94         0.3783
      8 F26        70.1170   64.9480   20.2710 F         1 C94        -0.2200
      9 F27        71.7530   63.9160   21.2410 F         1 C94        -0.2200
     10 F25        69.7190   63.5750   21.9010 F         1 C94        -0.2200
     11 C14        71.3340   61.6400   19.8720 C.ar      1 C94        -0.0222
     12 C13        71.2370   60.5810   18.9770 C.ar      1 C94         0.0404
     13 C18        70.1840   60.5270   18.0760 C.ar      1 C94        -0.0242
     14 C17        69.2370   61.5320   18.0470 C.ar      1 C94        -0.0069
     15 C4         72.2240   59.4560   18.9720 C.2       1 C94         0.1300
     16 O2         71.9790   58.2360   18.4190 O.3       1 C94        -0.2550
     17 C3         73.5250   59.4560   19.4600 C.2       1 C94        -0.0471
     18 C2         74.0640   58.1980   19.1950 C.2       1 C94        -0.0491
     19 C1         73.0820   57.4500   18.5520 C.2       1 C94         0.1153
     20 C6         73.1860   56.0590   18.0580 C.2       1 C94         0.0003
     21 C7         72.1800   55.5530   17.3180 C.2       1 C94         0.1222
     22 S1         70.7640   56.3550   16.9770 S.3       1 C94         0.0357
     23 C9         70.1780   55.0670   16.1060 C.2       1 C94         0.1924
     24 N3         69.0400   55.0560   15.5410 N.2       1 C94        -0.3844
     25 N2         71.0460   54.0500   16.0570 N.am      1 C94        -0.1898
     26 C8         72.1830   54.2920   16.7280 C.2       1 C94         0.2531
     27 O1         73.1120   53.4930   16.8100 O.2       1 C94        -0.3719
     28 H1         66.3580   62.3664   18.9843 H         1 C94         0.1638
     29 H2         66.3131   63.3020   17.5273 H         1 C94         0.1638
     30 H3         72.1522   61.6783   20.5820 H         1 C94         0.0836
     31 H4         70.1037   59.6911   17.3905 H         1 C94         0.0846
     32 H5         68.4177   61.4821   17.3390 H         1 C94         0.0712
     33 H6         74.0292   60.2838   19.9565 H         1 C94         0.0417
     34 H7         75.0692   57.8621   19.4452 H         1 C94         0.0413
     35 H8         74.0615   55.4540   18.2888 H         1 C94         0.0610
     36 H9         68.7409   54.2428   15.0259 H         1 C94         0.0547
     37 H10        70.8658   53.1956   15.5696 H         1 C94         0.2436
@<TRIPOS>BOND
     1    1    2 2  
     2    2    3 2  
     3    2    4 am 
     4    2    5 1  
     5    5    6 ar 
     6    5   14 ar 
     7    6    7 1  
     8    6   11 ar 
     9    7    8 1  
    10    7    9 1  
    11    7   10 1  
    12   11   12 ar 
    13   12   13 ar 
    14   12   15 1  
    15   13   14 ar 
    16   15   16 1  
    17   15   17 2  
    18   16   19 1  
    19   17   18 1  
    20   18   19 2  
    21   19   20 1  
    22   20   21 2  
    23   21   22 1  
    24   21   26 1  
    25   22   23 1  
    26   23   24 2  
    27   23   25 1  
    28   25   26 am 
    29   26   27 2  
    30    4   28 1  
    31    4   29 1  
    32   11   30 1  
    33   13   31 1  
    34   14   32 1  
    35   17   33 1  
    36   18   34 1  
    37   20   35 1  
    38   24   36 1  
    39   25   37 1  
@<TRIPOS>SUBSTRUCTURE
     1 C94         1

