2iit_ligand
  -I-interpret- 

 48 49  0  0  0  0  0  0  0  0999 V2000
   34.5060   50.2940   36.6290 C   0  0  0  0  0
   35.8380   50.8090   36.6640 C   0  0  0  0  0
   37.0040   49.9930   36.3950 C   0  0  0  0  0
   36.8100   48.6200   36.0840 C   0  0  0  0  0
   35.4910   48.0950   36.0480 C   0  0  0  0  0
   34.3490   48.9130   36.3110 C   0  0  0  0  0
   35.3270   46.8250   35.7560 F   0  0  0  0  0
   36.0070   52.0830   36.9620 F   0  0  0  0  0
   38.3900   50.5640   36.4280 C   0  0  0  0  0
   39.0600   50.8350   34.9990 C   0  0  0  0  0
   40.3430   51.6390   35.2880 C   0  0  0  0  0
   41.5090   50.8440   36.0310 C   0  0  0  0  0
   42.6970   51.5460   36.3720 N   0  0  0  0  0
   38.2160   51.5680   34.3990 N   0  3  0  0  0
   41.3470   49.6470   36.3160 O   0  0  0  0  0
   43.2020   52.6530   35.4770 C   0  0  0  0  0
   44.1280   52.1160   34.3920 C   0  0  0  0  0
   45.3350   51.3840   34.9880 C   0  0  0  0  0
   45.0380   50.6120   36.1920 N   0  0  0  0  0
   44.8420   50.5180   37.4650 C   0  0  0  0  0
   43.3710   51.0860   37.6760 C   0  0  0  0  0
   42.9910   51.0400   39.2170 C   0  0  0  0  0
   45.5080   50.1230   38.3960 O   0  0  0  0  0
   33.1400   48.3780   36.2630 F   0  0  0  0  0
   41.7010   50.3040   39.6050 C   0  0  0  0  0
   41.5430   50.3580   40.9130 F   0  0  0  0  0
   41.7610   49.0300   39.2640 F   0  0  0  0  0
   40.6390   50.8310   39.0300 F   0  0  0  0  0
   33.6456   50.9302   36.8367 H   0  0  0  0  0
   37.6647   47.9766   35.8753 H   0  0  0  0  0
   39.0170   49.8266   36.9293 H   0  0  0  0  0
   38.3146   51.5320   36.9234 H   0  0  0  0  0
   39.3005   49.9447   34.4180 H   0  0  0  0  0
   40.0529   52.4522   35.9533 H   0  0  0  0  0
   40.7434   51.9377   34.3192 H   0  0  0  0  0
   38.5647   51.7932   33.4673 H   0  0  0  0  0
   37.3296   51.0694   34.3203 H   0  0  0  0  0
   38.0775   52.4286   34.9287 H   0  0  0  0  0
   43.7606   53.3626   36.0874 H   0  0  0  0  0
   42.3456   53.1263   34.9967 H   0  0  0  0  0
   44.4931   52.9583   33.8044 H   0  0  0  0  0
   43.5665   51.4104   33.7797 H   0  0  0  0  0
   46.0644   52.1443   35.2672 H   0  0  0  0  0
   45.6858   50.6790   34.2343 H   0  0  0  0  0
   44.9299   49.6560   35.8532 H   0  0  0  0  0
   42.3435   51.4475   37.7168 H   0  0  0  0  0
   42.8381   52.0777   39.5133 H   0  0  0  0  0
   43.7991   50.4933   39.7030 H   0  0  0  0  0
  1  2  4  0  0  0
  1  6  4  0  0  0
  2  3  4  0  0  0
  2  8  1  0  0  0
  3  4  4  0  0  0
  3  9  1  0  0  0
  4  5  4  0  0  0
  5  6  4  0  0  0
  5  7  1  0  0  0
  6 24  1  0  0  0
  9 10  1  0  0  0
 10 11  1  0  0  0
 10 14  1  0  0  0
 11 12  1  0  0  0
 12 13  1  0  0  0
 12 15  2  0  0  0
 13 16  1  0  0  0
 13 21  1  0  0  0
 16 17  1  0  0  0
 17 18  1  0  0  0
 18 19  1  0  0  0
 19 20  1  0  0  0
 20 21  1  0  0  0
 20 23  2  0  0  0
 21 22  1  0  0  0
 22 25  1  0  0  0
 25 26  1  0  0  0
 25 27  1  0  0  0
 25 28  1  0  0  0
  1 29  1  0  0  0
  4 30  1  0  0  0
  9 31  1  0  0  0
  9 32  1  0  0  0
 10 33  1  0  0  0
 11 34  1  0  0  0
 11 35  1  0  0  0
 14 36  1  0  0  0
 14 37  1  0  0  0
 14 38  1  0  0  0
 16 39  1  0  0  0
 16 40  1  0  0  0
 17 41  1  0  0  0
 17 42  1  0  0  0
 18 43  1  0  0  0
 18 44  1  0  0  0
 19 45  1  0  0  0
 21 46  1  0  0  0
 22 47  1  0  0  0
 22 48  1  0  0  0
M  END
$$$$
