1ahx_ligand
  -I-interpret- 

 21 21  0  0  0  0  0  0  0  0999 V2000
  -10.2340   56.7110   23.8630 C   0  0  0  0  0
  -11.2720   56.7050   23.2390 O   0  0  0  0  0
  -10.1360   57.2790   25.0310 O   0  0  0  0  0
   -9.0350   56.0370   23.1180 C   0  0  0  0  0
   -9.2200   54.5170   22.7860 C   0  0  0  0  0
   -9.2120   53.5680   23.9780 C   0  0  0  0  0
   -8.0510   52.8910   24.3810 C   0  0  0  0  0
   -8.0730   52.0090   25.4680 C   0  0  0  0  0
   -9.2780   51.7920   26.1390 C   0  0  0  0  0
  -10.4490   52.4350   25.7340 C   0  0  0  0  0
  -10.4120   53.3030   24.6480 C   0  0  0  0  0
   -9.2402   57.1774   25.3608 H   0  0  0  0  0
   -8.1750   56.1080   23.7839 H   0  0  0  0  0
   -8.9309   56.5538   22.1640 H   0  0  0  0  0
   -8.3713   54.2339   22.1633 H   0  0  0  0  0
  -10.2031   54.4215   22.3250 H   0  0  0  0  0
   -7.1188   53.0541   23.8401 H   0  0  0  0  0
   -7.1633   51.4995   25.7856 H   0  0  0  0  0
   -9.3047   51.1116   26.9902 H   0  0  0  0  0
  -11.3846   52.2582   26.2645 H   0  0  0  0  0
  -11.3312   53.7841   24.3136 H   0  0  0  0  0
  1  2  2  0  0  0
  1  3  1  0  0  0
  1  4  1  0  0  0
  4  5  1  0  0  0
  5  6  1  0  0  0
  6  7  4  0  0  0
  6 11  4  0  0  0
  7  8  4  0  0  0
  8  9  4  0  0  0
  9 10  4  0  0  0
 10 11  4  0  0  0
  3 12  1  0  0  0
  4 13  1  0  0  0
  4 14  1  0  0  0
  5 15  1  0  0  0
  5 16  1  0  0  0
  7 17  1  0  0  0
  8 18  1  0  0  0
  9 19  1  0  0  0
 10 20  1  0  0  0
 11 21  1  0  0  0
M  END
$$$$
