### 
### Created by X-TOOL on Mon Sep 10 21:13:17 2018
### 

@<TRIPOS>MOLECULE
4m7y_ligand
   51    50     1     0     0
SMALL
GAST_HUCK


@<TRIPOS>ATOM
      1 OAH        -9.1720   23.2110  -21.4310 O.co2     1 2GH        -0.5537
      2 PAX        -7.7750   23.4250  -22.1730 P.3       1 2GH         0.2007
      3 OAI        -7.0310   24.7380  -21.6140 O.co2     1 2GH        -0.5537
      4 OAF        -7.8590   23.4650  -23.6570 O.co2     1 2GH        -0.5537
      5 OAS        -6.8540   22.2250  -21.6530 O.3       1 2GH        -0.2753
      6 CAP        -5.5900   22.0570  -22.2590 C.3       1 2GH         0.0880
      7 CAW        -5.4810   20.6610  -22.8810 C.3       1 2GH         0.0360
      8 CAB        -5.6180   19.6390  -21.7230 C.3       1 2GH        -0.0529
      9 CAC        -4.1000   20.5430  -23.5850 C.3       1 2GH        -0.0529
     10 CAV        -6.6700   20.4500  -23.9270 C.3       1 2GH         0.1510
     11 OAG        -6.6530   21.5370  -24.8830 O.3       1 2GH        -0.3708
     12 CAU        -6.5440   19.0990  -24.6730 C.2       1 2GH         0.2057
     13 OAE        -6.5230   18.0170  -24.0480 O.2       1 2GH        -0.3942
     14 NAR        -6.4810   19.2000  -26.0140 N.am      1 2GH        -0.2826
     15 CAN        -6.3860   18.0120  -26.8810 C.3       1 2GH         0.0477
     16 CAO        -4.9270   17.5110  -26.8930 C.3       1 2GH         0.0574
     17 CAT        -4.9000   16.1130  -27.5130 C.2       1 2GH         0.1779
     18 OAD        -5.2250   15.1340  -26.8490 O.2       1 2GH        -0.3970
     19 NAQ        -4.5920   16.0490  -28.7940 N.am      1 2GH        -0.2869
     20 CAM        -4.5720   14.7310  -29.5020 C.3       1 2GH         0.0309
     21 CAL        -4.8470   14.9160  -30.9810 C.3       1 2GH        -0.0328
     22 CAK        -3.6060   15.5080  -31.6430 C.3       1 2GH        -0.0515
     23 CAJ        -3.2010   14.7280  -32.8830 C.3       1 2GH        -0.0558
     24 CAA        -1.6960   14.9550  -33.2300 C.3       1 2GH        -0.0653
     25 H1         -4.8040   22.1782  -21.4991 H         1 2GH         0.0620
     26 H2         -5.4604   22.8157  -23.0449 H         1 2GH         0.0620
     27 H3         -5.5454   18.6176  -22.1249 H         1 2GH         0.0238
     28 H4         -6.5929   19.7709  -21.2309 H         1 2GH         0.0238
     29 H5         -4.8129   19.8033  -20.9917 H         1 2GH         0.0238
     30 H6         -4.0389   21.2809  -24.3985 H         1 2GH         0.0238
     31 H7         -3.9848   19.5305  -23.9991 H         1 2GH         0.0238
     32 H8         -3.2991   20.7342  -22.8557 H         1 2GH         0.0238
     33 H9         -7.6259   20.4626  -23.3829 H         1 2GH         0.0844
     34 H10        -6.7698   22.3614  -24.4256 H         1 2GH         0.2133
     35 H11        -6.4992   20.1074  -26.4340 H         1 2GH         0.1853
     36 H12        -6.6929   18.2768  -27.9036 H         1 2GH         0.0545
     37 H13        -7.0441   17.2201  -26.4941 H         1 2GH         0.0545
     38 H14        -4.5407   17.4682  -25.8640 H         1 2GH         0.0522
     39 H15        -4.3049   18.1939  -27.4901 H         1 2GH         0.0522
     40 H16        -4.3707   16.8859  -29.2947 H         1 2GH         0.1850
     41 H17        -5.3435   14.0767  -29.0699 H         1 2GH         0.0520
     42 H18        -3.5832   14.2665  -29.3735 H         1 2GH         0.0520
     43 H19        -5.6989   15.5987  -31.1159 H         1 2GH         0.0285
     44 H20        -5.0809   13.9431  -31.4379 H         1 2GH         0.0285
     45 H21        -2.7747   15.4884  -30.9229 H         1 2GH         0.0266
     46 H22        -3.8178   16.5484  -31.9304 H         1 2GH         0.0266
     47 H23        -3.8180   15.0585  -33.7315 H         1 2GH         0.0263
     48 H24        -3.3693   13.6560  -32.7028 H         1 2GH         0.0263
     49 H25        -1.4362   14.3781  -34.1298 H         1 2GH         0.0230
     50 H26        -1.0713   14.6222  -32.3880 H         1 2GH         0.0230
     51 H27        -1.5200   16.0246  -33.4168 H         1 2GH         0.0230
@<TRIPOS>BOND
     1    1    2 ar 
     2    2    3 ar 
     3    2    4 ar 
     4    2    5 1  
     5    5    6 1  
     6    6    7 1  
     7    7    8 1  
     8    7    9 1  
     9    7   10 1  
    10   10   11 1  
    11   10   12 1  
    12   12   13 2  
    13   12   14 am 
    14   14   15 1  
    15   15   16 1  
    16   16   17 1  
    17   17   18 2  
    18   17   19 am 
    19   19   20 1  
    20   20   21 1  
    21   21   22 1  
    22   22   23 1  
    23   23   24 1  
    24    6   25 1  
    25    6   26 1  
    26    8   27 1  
    27    8   28 1  
    28    8   29 1  
    29    9   30 1  
    30    9   31 1  
    31    9   32 1  
    32   10   33 1  
    33   11   34 1  
    34   14   35 1  
    35   15   36 1  
    36   15   37 1  
    37   16   38 1  
    38   16   39 1  
    39   19   40 1  
    40   20   41 1  
    41   20   42 1  
    42   21   43 1  
    43   21   44 1  
    44   22   45 1  
    45   22   46 1  
    46   23   47 1  
    47   23   48 1  
    48   24   49 1  
    49   24   50 1  
    50   24   51 1  
@<TRIPOS>SUBSTRUCTURE
     1 2GH         1

