4m7y_ligand
  -I-interpret- 

 53 52  0  0  0  0  0  0  0  0999 V2000
   -9.1720   23.2110  -21.4310 O   0  0  0  0  0
   -7.7750   23.4250  -22.1730 P   0  0  0  0  0
   -7.0310   24.7380  -21.6140 O   0  0  0  0  0
   -7.8590   23.4650  -23.6570 O   0  0  0  0  0
   -6.8540   22.2250  -21.6530 O   0  0  0  0  0
   -5.5900   22.0570  -22.2590 C   0  0  0  0  0
   -5.4810   20.6610  -22.8810 C   0  0  0  0  0
   -5.6180   19.6390  -21.7230 C   0  0  0  0  0
   -4.1000   20.5430  -23.5850 C   0  0  0  0  0
   -6.6700   20.4500  -23.9270 C   0  0  0  0  0
   -6.6530   21.5370  -24.8830 O   0  0  0  0  0
   -6.5440   19.0990  -24.6730 C   0  0  0  0  0
   -6.5230   18.0170  -24.0480 O   0  0  0  0  0
   -6.4810   19.2000  -26.0140 N   0  0  0  0  0
   -6.3860   18.0120  -26.8810 C   0  0  0  0  0
   -4.9270   17.5110  -26.8930 C   0  0  0  0  0
   -4.9000   16.1130  -27.5130 C   0  0  0  0  0
   -5.2250   15.1340  -26.8490 O   0  0  0  0  0
   -4.5920   16.0490  -28.7940 N   0  0  0  0  0
   -4.5720   14.7310  -29.5020 C   0  0  0  0  0
   -4.8470   14.9160  -30.9810 C   0  0  0  0  0
   -3.6060   15.5080  -31.6430 C   0  0  0  0  0
   -3.2010   14.7280  -32.8830 C   0  0  0  0  0
   -1.6960   14.9550  -33.2300 C   0  0  0  0  0
   -9.0300   23.1973  -20.4817 H   0  0  0  0  0
   -6.9858   24.6954  -20.6560 H   0  0  0  0  0
   -4.8140   22.1713  -21.5021 H   0  0  0  0  0
   -5.4676   22.8061  -23.0413 H   0  0  0  0  0
   -5.5170   18.6282  -22.1183 H   0  0  0  0  0
   -4.8371   19.8215  -20.9847 H   0  0  0  0  0
   -6.5959   19.7513  -21.2548 H   0  0  0  0  0
   -3.3073   20.7326  -22.8613 H   0  0  0  0  0
   -3.9871   19.5393  -23.9948 H   0  0  0  0  0
   -4.0407   21.2747  -24.3908 H   0  0  0  0  0
   -7.6120   20.4383  -23.3787 H   0  0  0  0  0
   -7.3653   21.4168  -25.5152 H   0  0  0  0  0
   -6.4996   20.1255  -26.4424 H   0  0  0  0  0
   -6.6927   18.2721  -27.8941 H   0  0  0  0  0
   -7.0400   17.2273  -26.5006 H   0  0  0  0  0
   -4.5373   17.4748  -25.8757 H   0  0  0  0  0
   -4.3051   18.1894  -27.4770 H   0  0  0  0  0
   -4.3662   16.9026  -29.3047 H   0  0  0  0  0
   -5.3440   14.0897  -29.0766 H   0  0  0  0  0
   -3.5877   14.2791  -29.3795 H   0  0  0  0  0
   -5.6941   15.5882  -31.1175 H   0  0  0  0  0
   -5.0841   13.9540  -31.4353 H   0  0  0  0  0
   -2.7839   15.4665  -30.9285 H   0  0  0  0  0
   -3.8322   16.5318  -31.9410 H   0  0  0  0  0
   -3.8060   15.0718  -33.7220 H   0  0  0  0  0
   -3.3564   13.6663  -32.6910 H   0  0  0  0  0
   -1.5230   16.0152  -33.4148 H   0  0  0  0  0
   -1.0781   14.6249  -32.3949 H   0  0  0  0  0
   -1.4398   14.3829  -34.1217 H   0  0  0  0  0
  1  2  1  0  0  0
  2  3  1  0  0  0
  2  4  2  0  0  0
  2  5  1  0  0  0
  5  6  1  0  0  0
  6  7  1  0  0  0
  7  8  1  0  0  0
  7  9  1  0  0  0
  7 10  1  0  0  0
 10 11  1  0  0  0
 10 12  1  0  0  0
 12 13  2  0  0  0
 12 14  1  0  0  0
 14 15  1  0  0  0
 15 16  1  0  0  0
 16 17  1  0  0  0
 17 18  2  0  0  0
 17 19  1  0  0  0
 19 20  1  0  0  0
 20 21  1  0  0  0
 21 22  1  0  0  0
 22 23  1  0  0  0
 23 24  1  0  0  0
  1 25  1  0  0  0
  3 26  1  0  0  0
  6 27  1  0  0  0
  6 28  1  0  0  0
  8 29  1  0  0  0
  8 30  1  0  0  0
  8 31  1  0  0  0
  9 32  1  0  0  0
  9 33  1  0  0  0
  9 34  1  0  0  0
 10 35  1  0  0  0
 11 36  1  0  0  0
 14 37  1  0  0  0
 15 38  1  0  0  0
 15 39  1  0  0  0
 16 40  1  0  0  0
 16 41  1  0  0  0
 19 42  1  0  0  0
 20 43  1  0  0  0
 20 44  1  0  0  0
 21 45  1  0  0  0
 21 46  1  0  0  0
 22 47  1  0  0  0
 22 48  1  0  0  0
 23 49  1  0  0  0
 23 50  1  0  0  0
 24 51  1  0  0  0
 24 52  1  0  0  0
 24 53  1  0  0  0
M  END
$$$$
