6bm6_ligand
  -I-interpret- 

 47 49  0  0  0  0  0  0  0  0999 V2000
  -10.3920   20.7220  -14.0560 N   0  3  0  0  0
   -9.7220   19.4650  -13.7020 C   0  0  0  0  0
   -9.0160   18.9270  -14.9410 C   0  0  0  0  0
   -8.1970   17.6620  -14.6860 C   0  0  0  0  0
   -9.1920   16.2180  -14.1890 S   0  0  0  0  0
   -8.7370   19.6280  -12.5470 C   0  0  0  0  0
   -8.0550   20.6720  -12.4440 O   0  0  0  0  0
   -8.6410   18.7420  -11.6700 O   0  0  0  0  0
   -9.5700   15.6710  -15.8710 C   0  0  0  0  0
   -8.5050   14.8040  -16.5320 C   0  0  0  0  0
   -8.4180   13.4900  -15.9880 O   0  0  0  0  0
   -8.8850   14.5470  -17.9710 C   0  0  0  0  0
   -8.4950   15.5950  -18.8300 O   0  0  0  0  0
   -8.1450   13.2810  -18.3270 C   0  0  0  0  0
   -6.7700   13.5470  -18.5240 O   0  0  0  0  0
   -8.2240   12.5440  -17.0290 C   0  0  0  0  0
   -9.3180   11.5780  -16.9210 N   0  0  0  0  0
  -10.4950   11.6780  -16.2300 C   0  0  0  0  0
  -11.1910   10.5130  -16.3700 N   0  0  0  0  0
  -10.4680    9.6780  -17.1550 C   0  0  0  0  0
  -10.6880    8.3870  -17.6270 C   0  0  0  0  0
  -11.7930    7.6730  -17.3350 N   0  0  0  0  0
   -9.6990    7.8350  -18.4040 N   0  0  0  0  0
   -8.5520    8.5340  -18.7400 C   0  0  0  0  0
   -8.3350    9.8140  -18.2960 N   0  0  0  0  0
   -9.2880   10.3460  -17.5050 C   0  0  0  0  0
  -11.0359   20.5565  -14.8296 H   0  0  0  0  0
  -10.9104   21.0686  -13.2488 H   0  0  0  0  0
   -9.6937   21.4113  -14.3347 H   0  0  0  0  0
  -10.4770   18.7583  -13.3574 H   0  0  0  0  0
   -8.3246   19.6981  -15.2809 H   0  0  0  0  0
   -9.7866   18.6733  -15.6690 H   0  0  0  0  0
   -7.5137   17.8804  -13.8653 H   0  0  0  0  0
   -7.7012   17.4050  -15.6220 H   0  0  0  0  0
   -8.2397   21.2483  -13.1892 H   0  0  0  0  0
   -9.6588   16.5717  -16.4784 H   0  0  0  0  0
  -10.4707   15.0607  -15.8045 H   0  0  0  0  0
   -7.5739   15.3521  -16.3883 H   0  0  0  0  0
   -9.9661   14.4680  -18.0853 H   0  0  0  0  0
   -8.7578   15.3849  -19.7291 H   0  0  0  0  0
   -8.5401   12.7892  -19.2159 H   0  0  0  0  0
   -6.3165   12.7314  -18.7492 H   0  0  0  0  0
   -7.2914   11.9840  -16.9601 H   0  0  0  0  0
  -10.8231   12.5474  -15.6602 H   0  0  0  0  0
  -12.5182    8.0756  -16.7414 H   0  0  0  0  0
  -11.9041    6.7300  -17.7076 H   0  0  0  0  0
   -7.8037    8.0561  -19.3722 H   0  0  0  0  0
  1  2  1  0  0  0
  2  3  1  0  0  0
  2  6  1  0  0  0
  3  4  1  0  0  0
  4  5  1  0  0  0
  5  9  1  0  0  0
  6  7  1  0  0  0
  6  8  2  0  0  0
  9 10  1  0  0  0
 10 11  1  0  0  0
 10 12  1  0  0  0
 11 16  1  0  0  0
 12 13  1  0  0  0
 12 14  1  0  0  0
 14 15  1  0  0  0
 14 16  1  0  0  0
 16 17  1  0  0  0
 17 18  4  0  0  0
 17 26  4  0  0  0
 18 19  4  0  0  0
 19 20  4  0  0  0
 20 21  4  0  0  0
 20 26  4  0  0  0
 21 22  1  0  0  0
 21 23  4  0  0  0
 23 24  4  0  0  0
 24 25  4  0  0  0
 25 26  4  0  0  0
  1 27  1  0  0  0
  1 28  1  0  0  0
  1 29  1  0  0  0
  2 30  1  0  0  0
  3 31  1  0  0  0
  3 32  1  0  0  0
  4 33  1  0  0  0
  4 34  1  0  0  0
  7 35  1  0  0  0
  9 36  1  0  0  0
  9 37  1  0  0  0
 10 38  1  0  0  0
 12 39  1  0  0  0
 13 40  1  0  0  0
 14 41  1  0  0  0
 15 42  1  0  0  0
 16 43  1  0  0  0
 18 44  1  0  0  0
 22 45  1  0  0  0
 22 46  1  0  0  0
 24 47  1  0  0  0
M  END
$$$$
