6ful_ligand
  -I-interpret- 

 21 21  0  0  0  0  0  0  0  0999 V2000
   23.5100    5.6480   13.9610 C   0  0  0  0  0
   22.9150    6.7560   14.0320 C   0  0  0  0  0
   22.9200    7.6240   12.8360 C   0  0  0  0  0
   22.2020    8.9530   12.8920 C   0  0  0  0  0
   23.5530    7.2480   11.7130 N   0  0  0  0  0
   23.5530    8.1140   10.5390 C   0  0  0  0  0
   24.2040    6.0240   11.6560 C   0  0  0  0  0
   24.2040    5.2240   12.7310 C   0  0  0  0  0
   23.5540    4.7920   15.0320 O   0  0  0  0  0
   22.8610   10.0080   12.7440 O   0  0  0  0  0
   20.9590    8.9380   13.0850 O   0  0  0  0  0
   24.8400    3.9840   12.7220 O   0  0  0  0  0
   22.4116    7.0652   14.9480 H   0  0  0  0  0
   23.3670    6.8668   12.1919 H   0  0  0  0  0
   24.5801    8.3661   10.2751 H   0  0  0  0  0
   23.0795    7.5945    9.7059 H   0  0  0  0  0
   22.9994    9.0261   10.7619 H   0  0  0  0  0
   24.7122    5.7151   10.7425 H   0  0  0  0  0
   24.0473    4.0046   14.7908 H   0  0  0  0  0
   20.6606    8.0296   13.1708 H   0  0  0  0  0
   24.7299    3.5630   13.5777 H   0  0  0  0  0
  1  2  2  0  0  0
  1  8  1  0  0  0
  1  9  1  0  0  0
  2  3  1  0  0  0
  3  4  1  0  0  0
  3  5  1  0  0  0
  4 10  2  0  0  0
  4 11  1  0  0  0
  5  6  1  0  0  0
  5  7  1  0  0  0
  7  8  2  0  0  0
  8 12  1  0  0  0
  2 13  1  0  0  0
  3 14  1  0  0  0
  6 15  1  0  0  0
  6 16  1  0  0  0
  6 17  1  0  0  0
  7 18  1  0  0  0
  9 19  1  0  0  0
 11 20  1  0  0  0
 12 21  1  0  0  0
M  END
$$$$
