5j8z_ligand
  -I-interpret- 

 48 50  0  0  0  0  0  0  0  0999 V2000
   -5.3970   12.3650   10.9580 C   0  0  0  0  0
   -6.4180   12.3420   10.0140 C   0  0  0  0  0
   -6.3090   11.5070    8.9200 C   0  0  0  0  0
   -7.5760   11.4540    7.7440 Cl  0  0  0  0  0
   -5.1990   10.7030    8.7560 C   0  0  0  0  0
   -4.1830   10.7380    9.7050 C   0  0  0  0  0
   -4.2680   11.5650   10.8200 C   0  0  0  0  0
   -3.2300   11.5070   11.8750 C   0  0  0  0  0
   -3.0610   10.2560   12.4090 N   0  0  0  0  0
   -2.4940   12.5820   12.2670 C   0  0  0  0  0
   -2.8000   13.8380   11.6790 C   0  0  0  0  0
   -3.0480   14.8570   11.2060 N   0  0  0  0  0
   -1.4840   12.4020   13.2800 C   0  0  0  0  0
   -0.7640   13.3060   13.7280 O   0  0  0  0  0
   -1.3650   11.1150   13.7630 N   0  0  0  0  0
   -2.1430   10.0880   13.3300 C   0  0  0  0  0
   -1.8490    8.5210   14.1050 S   0  0  0  0  0
   -2.4950    7.8990   11.4640 C   0  0  0  0  0
   -2.2030    7.2620   12.8240 C   0  0  0  0  0
   -3.3760    6.4080   13.3070 C   0  0  0  0  0
   -3.0380    5.1430   13.6330 N   0  0  0  0  0
   -5.7850    3.3060   15.3390 C   0  0  0  0  0
   -5.1390    4.2950   14.6240 C   0  0  0  0  0
   -3.7660    4.2210   14.4120 C   0  0  0  0  0
   -4.5000    6.8510   13.3750 O   0  0  0  0  0
   -3.0530    3.1470   14.9320 C   0  0  0  0  0
   -3.7070    2.1660   15.6500 C   0  0  0  0  0
   -5.0700    2.2420   15.8520 C   0  0  0  0  0
   -5.9010    0.9680   16.7340 S   0  0  0  0  0
   -5.4550    1.1040   18.0870 O   0  0  0  0  0
   -7.3080    1.1070   16.5200 O   0  0  0  0  0
   -5.4180   -0.4580   16.2000 N   0  0  0  0  0
   -5.4834   13.0228   11.8228 H   0  0  0  0  0
   -7.2955   12.9769   10.1366 H   0  0  0  0  0
   -5.1195   10.0461    7.8898 H   0  0  0  0  0
   -3.3047   10.1062    9.5726 H   0  0  0  0  0
   -0.6616   10.9258   14.4770 H   0  0  0  0  0
   -3.3625    8.5534   11.5495 H   0  0  0  0  0
   -1.6303    8.4799   11.1431 H   0  0  0  0  0
   -2.6996    7.1160   10.7339 H   0  0  0  0  0
   -1.3237    6.6345   12.6783 H   0  0  0  0  0
   -2.1437    4.8126   13.2703 H   0  0  0  0  0
   -6.8616    3.3654   15.4988 H   0  0  0  0  0
   -5.7062    5.1358   14.2247 H   0  0  0  0  0
   -1.9768    3.0794   14.7727 H   0  0  0  0  0
   -3.1440    1.3272   16.0594 H   0  0  0  0  0
   -4.8885   -1.0791   16.8118 H   0  0  0  0  0
   -5.6391   -0.7474   15.2472 H   0  0  0  0  0
  1  2  4  0  0  0
  7  1  4  0  0  0
  2  3  4  0  0  0
  3  4  1  0  0  0
  5  3  4  0  0  0
  6  5  4  0  0  0
  7  6  4  0  0  0
  8  7  1  0  0  0
  9  8  1  0  0  0
  8 10  2  0  0  0
 16  9  2  0  0  0
 10 11  1  0  0  0
 13 10  1  0  0  0
 11 12  3  0  0  0
 13 14  2  0  0  0
 15 13  1  0  0  0
 16 15  1  0  0  0
 17 16  1  0  0  0
 19 17  1  0  0  0
 19 18  1  0  0  0
 20 19  1  0  0  0
 21 20  1  0  0  0
 20 25  2  0  0  0
 24 21  1  0  0  0
 23 22  4  0  0  0
 22 28  4  0  0  0
 23 24  4  0  0  0
 24 26  4  0  0  0
 26 27  4  0  0  0
 27 28  4  0  0  0
 28 29  1  0  0  0
 29 30  2  0  0  0
 29 31  2  0  0  0
 29 32  1  0  0  0
  1 33  1  0  0  0
  2 34  1  0  0  0
  5 35  1  0  0  0
  6 36  1  0  0  0
 15 37  1  0  0  0
 18 38  1  0  0  0
 18 39  1  0  0  0
 18 40  1  0  0  0
 19 41  1  0  0  0
 21 42  1  0  0  0
 22 43  1  0  0  0
 23 44  1  0  0  0
 26 45  1  0  0  0
 27 46  1  0  0  0
 32 47  1  0  0  0
 32 48  1  0  0  0
M  END
$$$$
