1m5d_ligand
  -I-interpret- 

 21 21  0  0  0  0  0  0  0  0999 V2000
   43.3010   15.8890   18.9860 O   0  0  0  0  0
   42.5030   14.9650   18.6150 C   0  0  0  0  0
   41.8800   14.1750   19.3880 O   0  0  0  0  0
   42.2900   14.7860   17.0670 C   0  0  0  0  0
   41.3180   13.6690   16.8220 N   0  3  0  0  0
   41.8340   16.1210   16.5010 C   0  0  0  0  0
   42.0400   16.2280   15.0500 C   0  0  0  0  0
   41.1810   16.4000   14.0010 C   0  0  0  0  0
   39.3880   16.5720   14.0780 Br  0  0  0  0  0
   42.0610   16.4150   12.7880 C   0  0  0  0  0
   41.6860   16.5490   11.5880 O   0  0  0  0  0
   43.3530   16.2550   13.2030 N   0  0  0  0  0
   43.3430   16.1430   14.5470 O   0  0  0  0  0
   43.6426   16.3447   18.2132 H   0  0  0  0  0
   43.2118   14.5047   16.5578 H   0  0  0  0  0
   41.6841   12.8067   17.2256 H   0  0  0  0  0
   40.4238   13.8965   17.2568 H   0  0  0  0  0
   41.1878   13.5473   15.8177 H   0  0  0  0  0
   42.4229   16.9037   16.9792 H   0  0  0  0  0
   40.7653   16.2162   16.6932 H   0  0  0  0  0
   44.1777   16.2255   12.6035 H   0  0  0  0  0
  2  1  1  0  0  0
  2  4  1  0  0  0
  2  3  2  0  0  0
  4  6  1  0  0  0
  4  5  1  0  0  0
  6  7  1  0  0  0
  7 13  1  0  0  0
  7  8  2  0  0  0
  8 10  1  0  0  0
  8  9  1  0  0  0
 10 12  1  0  0  0
 10 11  2  0  0  0
 12 13  1  0  0  0
  1 14  1  0  0  0
  4 15  1  0  0  0
  5 16  1  0  0  0
  5 17  1  0  0  0
  5 18  1  0  0  0
  6 19  1  0  0  0
  6 20  1  0  0  0
 12 21  1  0  0  0
M  END
$$$$
