1q6n_ligand
  -I-interpret- 

 67 72  0  0  0  0  0  0  0  0999 V2000
    7.0290   42.3610   17.0280 C   0  0  0  0  0
    6.4790   43.0430   18.4250 C   0  0  0  0  0
    7.4780   43.7760   19.3290 C   0  0  0  0  0
    8.1790   43.0220   20.3570 C   0  0  0  0  0
    7.7540   45.1900   19.1850 C   0  0  0  0  0
    9.1270   43.6360   21.2070 C   0  0  0  0  0
    8.7160   45.8130   20.0540 C   0  0  0  0  0
    9.4010   45.0430   21.0580 C   0  0  0  0  0
   10.4320   45.6690   21.9330 C   0  0  0  0  0
   11.0020   46.7030   21.1860 F   0  0  0  0  0
   11.4320   44.7330   22.2100 F   0  0  0  0  0
    9.8290   46.3250   23.5680 P   0  0  0  0  0
    9.2160   45.1630   24.3080 O   0  0  0  0  0
    8.8020   47.3810   23.3690 O   0  0  0  0  0
   11.0560   46.8380   24.2700 O   0  0  0  0  0
    5.8580   41.6430   16.3090 N   0  0  0  0  0
    4.7000   41.3340   17.0700 N   0  0  0  0  0
    3.8850   40.7130   16.1270 N   0  0  0  0  0
    4.3820   40.5920   14.8760 C   0  0  0  0  0
    5.6540   41.2050   15.0190 C   0  0  0  0  0
    3.9560   40.0600   13.6310 C   0  0  0  0  0
    6.5620   41.2970   13.8590 C   0  0  0  0  0
    4.8400   40.1410   12.4800 C   0  0  0  0  0
    6.1410   40.7600   12.5900 C   0  0  0  0  0
    7.5730   43.5070   16.2000 C   0  0  0  0  0
    9.3040   43.7480   15.8590 S   0  0  0  0  0
    6.8080   44.4460   15.6350 N   0  0  0  0  0
    7.4640   45.4000   14.9090 C   0  0  0  0  0
    8.8950   45.1760   14.8990 C   0  0  0  0  0
    9.7590   46.0570   14.1800 C   0  0  0  0  0
    9.2280   47.1870   13.4540 C   0  0  0  0  0
    7.8060   47.4220   13.4740 C   0  0  0  0  0
    6.9290   46.5240   14.1960 C   0  0  0  0  0
    8.2220   41.3590   17.3700 C   0  0  0  0  0
    7.7800   40.3390   18.4120 C   0  0  0  0  0
    8.6090   39.4800   18.9190 C   0  0  0  0  0
    8.2150   38.4480   19.9210 C   0  0  0  0  0
    9.2080   37.9510   20.8020 C   0  0  0  0  0
    6.8700   37.9500   19.9880 C   0  0  0  0  0
    8.8680   36.9440   21.7620 C   0  0  0  0  0
    6.5280   36.9380   20.9540 C   0  0  0  0  0
    7.5290   36.4260   21.8450 C   0  0  0  0  0
    6.1144   42.2083   19.0237 H   0  0  0  0  0
    5.7701   43.8076   18.1073 H   0  0  0  0  0
    7.9683   41.9590   20.4745 H   0  0  0  0  0
    7.2377   45.7768   18.4253 H   0  0  0  0  0
    9.6453   43.0514   21.9671 H   0  0  0  0  0
    8.9278   46.8773   19.9511 H   0  0  0  0  0
    9.8794   44.4811   24.4365 H   0  0  0  0  0
   11.6866   46.1217   24.3744 H   0  0  0  0  0
    2.9746   39.5948   13.5388 H   0  0  0  0  0
    7.5405   41.7662   13.9613 H   0  0  0  0  0
    4.5179   39.7302   11.5232 H   0  0  0  0  0
    6.7973   40.8201   11.7218 H   0  0  0  0  0
   10.8336   45.8741   14.1791 H   0  0  0  0  0
    9.8916   47.8511   12.9001 H   0  0  0  0  0
    7.3895   48.2785   12.9439 H   0  0  0  0  0
    5.8539   46.7035   14.1977 H   0  0  0  0  0
    9.0612   41.9300   17.7671 H   0  0  0  0  0
    8.5142   40.8329   16.4612 H   0  0  0  0  0
    6.7405   40.3310   18.7397 H   0  0  0  0  0
    9.6493   39.5142   18.5955 H   0  0  0  0  0
   10.2271   38.3340   20.7490 H   0  0  0  0  0
    6.1097   38.3369   19.3095 H   0  0  0  0  0
    9.6341   36.5653   22.4385 H   0  0  0  0  0
    5.5069   36.5605   21.0082 H   0  0  0  0  0
    7.2783   35.6556   22.5742 H   0  0  0  0  0
  1  2  1  0  0  0
  1 16  1  0  0  0
  1 25  1  0  0  0
  1 34  1  0  0  0
  2  3  1  0  0  0
  3  4  4  0  0  0
  3  5  4  0  0  0
  4  6  4  0  0  0
  5  7  4  0  0  0
  6  8  4  0  0  0
  7  8  4  0  0  0
  8  9  1  0  0  0
  9 10  1  0  0  0
  9 11  1  0  0  0
  9 12  1  0  0  0
 12 13  1  0  0  0
 12 14  2  0  0  0
 12 15  1  0  0  0
 16 17  4  0  0  0
 16 20  4  0  0  0
 17 18  4  0  0  0
 18 19  4  0  0  0
 19 20  4  0  0  0
 19 21  4  0  0  0
 20 22  4  0  0  0
 21 23  4  0  0  0
 22 24  4  0  0  0
 23 24  4  0  0  0
 25 26  4  0  0  0
 25 27  4  0  0  0
 26 29  4  0  0  0
 27 28  4  0  0  0
 28 29  4  0  0  0
 28 33  4  0  0  0
 29 30  4  0  0  0
 30 31  4  0  0  0
 31 32  4  0  0  0
 32 33  4  0  0  0
 34 35  1  0  0  0
 35 36  2  0  0  0
 36 37  1  0  0  0
 37 38  4  0  0  0
 37 39  4  0  0  0
 38 40  4  0  0  0
 39 41  4  0  0  0
 40 42  4  0  0  0
 41 42  4  0  0  0
  2 43  1  0  0  0
  2 44  1  0  0  0
  4 45  1  0  0  0
  5 46  1  0  0  0
  6 47  1  0  0  0
  7 48  1  0  0  0
 13 49  1  0  0  0
 15 50  1  0  0  0
 21 51  1  0  0  0
 22 52  1  0  0  0
 23 53  1  0  0  0
 24 54  1  0  0  0
 30 55  1  0  0  0
 31 56  1  0  0  0
 32 57  1  0  0  0
 33 58  1  0  0  0
 34 59  1  0  0  0
 34 60  1  0  0  0
 35 61  1  0  0  0
 36 62  1  0  0  0
 38 63  1  0  0  0
 39 64  1  0  0  0
 40 65  1  0  0  0
 41 66  1  0  0  0
 42 67  1  0  0  0
M  END
$$$$
