### 
### Created by X-TOOL on Mon Sep 10 21:12:50 2018
### 

@<TRIPOS>MOLECULE
1q6n_ligand
   65    70     1     0     0
SMALL
GAST_HUCK


@<TRIPOS>ATOM
      1 C1          7.0290   42.3610   17.0280 C.3       1 P90         0.1408
      2 C32         6.4790   43.0430   18.4250 C.3       1 P90         0.0113
      3 C33         7.4780   43.7760   19.3290 C.ar      1 P90        -0.0168
      4 C4A         8.1790   43.0220   20.3570 C.ar      1 P90        -0.0290
      5 C4B         7.7540   45.1900   19.1850 C.ar      1 P90        -0.0290
      6 C5A         9.1270   43.6360   21.2070 C.ar      1 P90        -0.0385
      7 C5B         8.7160   45.8130   20.0540 C.ar      1 P90        -0.0385
      8 C36         9.4010   45.0430   21.0580 C.ar      1 P90         0.0219
      9 C37        10.4320   45.6690   21.9330 C.3       1 P90         0.2931
     10 F38        11.0020   46.7030   21.1860 F         1 P90        -0.2419
     11 F39        11.4320   44.7330   22.2100 F         1 P90        -0.2419
     12 P40         9.8290   46.3250   23.5680 P.3       1 P90         0.0966
     13 O41         9.2160   45.1630   24.3080 O.co2     1 P90        -0.5668
     14 O42         8.8020   47.3810   23.3690 O.co2     1 P90        -0.5668
     15 O43        11.0560   46.8380   24.2700 O.co2     1 P90        -0.5668
     16 N61         5.8580   41.6430   16.3090 N.pl3     1 P90        -0.1788
     17 N62         4.7000   41.3340   17.0700 N.2       1 P90        -0.0835
     18 N63         3.8850   40.7130   16.1270 N.2       1 P90        -0.2002
     19 C7A         4.3820   40.5920   14.8760 C.ar      1 P90         0.0752
     20 C7B         5.6540   41.2050   15.0190 C.ar      1 P90         0.1051
     21 C8A         3.9560   40.0600   13.6310 C.ar      1 P90        -0.0506
     22 C8B         6.5620   41.2970   13.8590 C.ar      1 P90        -0.0324
     23 C9A         4.8400   40.1410   12.4800 C.ar      1 P90        -0.0707
     24 C9B         6.1410   40.7600   12.5900 C.ar      1 P90        -0.0695
     25 C51         7.5730   43.5070   16.2000 C.2       1 P90         0.1313
     26 S52         9.3040   43.7480   15.8590 S.3       1 P90         0.0089
     27 N53         6.8080   44.4460   15.6350 N.2       1 P90        -0.2293
     28 C54         7.4640   45.4000   14.9090 C.ar      1 P90         0.0980
     29 C55         8.8950   45.1760   14.8990 C.ar      1 P90         0.0828
     30 C56         9.7590   46.0570   14.1800 C.ar      1 P90        -0.0292
     31 C57         9.2280   47.1870   13.4540 C.ar      1 P90        -0.0539
     32 C58         7.8060   47.4220   13.4740 C.ar      1 P90        -0.0526
     33 C59         6.9290   46.5240   14.1960 C.ar      1 P90        -0.0270
     34 C12         8.2220   41.3590   17.3700 C.3       1 P90        -0.0052
     35 C13         7.7800   40.3390   18.4120 C.2       1 P90        -0.0793
     36 C14         8.6090   39.4800   18.9190 C.2       1 P90        -0.0675
     37 C15         8.2150   38.4480   19.9210 C.ar      1 P90        -0.0410
     38 C1A         9.2080   37.9510   20.8020 C.ar      1 P90        -0.0619
     39 C1B         6.8700   37.9500   19.9880 C.ar      1 P90        -0.0619
     40 C2A         8.8680   36.9440   21.7620 C.ar      1 P90        -0.0664
     41 C2B         6.5280   36.9380   20.9540 C.ar      1 P90        -0.0664
     42 C16         7.5290   36.4260   21.8450 C.ar      1 P90        -0.0664
     43 H1          6.0308   42.2369   19.0244 H         1 P90         0.0429
     44 H2          5.7010   43.7690   18.1466 H         1 P90         0.0429
     45 H3          7.9695   41.9649   20.4738 H         1 P90         0.0652
     46 H4          7.2405   45.7736   18.4295 H         1 P90         0.0652
     47 H5          9.6424   43.0547   21.9629 H         1 P90         0.0835
     48 H6          8.9267   46.8714   19.9517 H         1 P90         0.0835
     49 H7          2.9800   39.5974   13.5393 H         1 P90         0.0596
     50 H8          7.5352   41.7636   13.9607 H         1 P90         0.0566
     51 H9          4.5196   39.7324   11.5284 H         1 P90         0.0540
     52 H10         6.7937   40.8198   11.7266 H         1 P90         0.0580
     53 H11        10.8276   45.8751   14.1791 H         1 P90         0.0613
     54 H12         9.8879   47.8474   12.9032 H         1 P90         0.0703
     55 H13         7.3918   48.2738   12.9468 H         1 P90         0.0611
     56 H14         5.8598   46.7025   14.1977 H         1 P90         0.0710
     57 H15         9.0746   41.9320   17.7633 H         1 P90         0.0396
     58 H16         8.5260   40.8318   16.4537 H         1 P90         0.0396
     59 H17         6.7414   40.3310   18.7394 H         1 P90         0.0727
     60 H18         9.6484   39.5141   18.5958 H         1 P90         0.0430
     61 H19        10.2215   38.3319   20.7493 H         1 P90         0.0579
     62 H20         6.1139   38.3347   19.3132 H         1 P90         0.0579
     63 H21         9.6299   36.5674   22.4348 H         1 P90         0.0605
     64 H22         5.5125   36.5626   21.0079 H         1 P90         0.0605
     65 H23         7.2797   35.6599   22.5702 H         1 P90         0.0579
@<TRIPOS>BOND
     1    1    2 1  
     2    1   16 1  
     3    1   25 1  
     4    1   34 1  
     5    2    3 1  
     6    3    4 ar 
     7    3    5 ar 
     8    4    6 ar 
     9    5    7 ar 
    10    6    8 ar 
    11    7    8 ar 
    12    8    9 1  
    13    9   10 1  
    14    9   11 1  
    15    9   12 1  
    16   12   13 ar 
    17   12   14 ar 
    18   12   15 ar 
    19   16   17 1  
    20   16   20 1  
    21   17   18 2  
    22   18   19 1  
    23   19   20 ar 
    24   19   21 ar 
    25   20   22 ar 
    26   21   23 ar 
    27   22   24 ar 
    28   23   24 ar 
    29   25   26 1  
    30   25   27 2  
    31   26   29 1  
    32   27   28 1  
    33   28   29 ar 
    34   28   33 ar 
    35   29   30 ar 
    36   30   31 ar 
    37   31   32 ar 
    38   32   33 ar 
    39   34   35 1  
    40   35   36 2  
    41   36   37 1  
    42   37   38 ar 
    43   37   39 ar 
    44   38   40 ar 
    45   39   41 ar 
    46   40   42 ar 
    47   41   42 ar 
    48    2   43 1  
    49    2   44 1  
    50    4   45 1  
    51    5   46 1  
    52    6   47 1  
    53    7   48 1  
    54   21   49 1  
    55   22   50 1  
    56   23   51 1  
    57   24   52 1  
    58   30   53 1  
    59   31   54 1  
    60   32   55 1  
    61   33   56 1  
    62   34   57 1  
    63   34   58 1  
    64   35   59 1  
    65   36   60 1  
    66   38   61 1  
    67   39   62 1  
    68   40   63 1  
    69   41   64 1  
    70   42   65 1  
@<TRIPOS>SUBSTRUCTURE
     1 P90         1

