3gta_ligand
  -I-interpret- 

 73 77  0  0  0  0  0  0  0  0999 V2000
   80.4330   61.7560   15.4270 O   0  0  0  0  0
   80.7700   62.1380   14.2930 C   0  0  0  0  0
   81.9750   61.3850   13.6660 C   0  0  0  0  0
   81.5290   60.2760   12.6670 C   0  0  0  0  0
   82.6820   59.6360   11.8340 C   0  0  0  0  0
   82.1550   58.5610   10.8560 C   0  0  0  0  0
   81.3870   57.4570   11.6180 C   0  0  0  0  0
   80.2200   58.0420   12.4460 C   0  0  0  0  0
   80.6940   59.1700   13.3930 C   0  0  0  0  0
   82.9150   60.8590   14.6790 N   0  0  0  0  0
   84.2370   61.0410   14.6090 C   0  0  0  0  0
   84.8010   61.5340   13.6320 O   0  0  0  0  0
   85.0630   60.5500   15.8170 C   0  0  0  0  0
   85.0360   61.5460   16.9970 C   0  0  0  0  0
   86.4270   60.1840   15.3400 N   0  3  0  0  0
   86.5950   58.9970   14.4650 C   0  0  0  0  0
   80.0850   63.1360   13.6710 N   0  0  0  0  0
   80.4050   63.7650   12.3760 C   0  0  0  0  0
   79.7530   65.1370   12.5130 C   0  0  0  0  0
   78.4790   64.8370   13.2980 C   0  0  0  0  0
   78.8720   63.7130   14.2760 C   0  0  0  0  0
   77.7280   62.7350   14.5760 C   0  0  0  0  0
   77.0680   62.7600   15.7460 N   0  0  0  0  0
   76.1040   61.7730   15.7620 C   0  0  0  0  0
   75.2040   61.4990   16.8200 C   0  0  0  0  0
   74.2910   60.4250   16.6210 C   0  0  0  0  0
   74.2730   59.6760   15.4400 C   0  0  0  0  0
   75.1600   59.9520   14.4060 C   0  0  0  0  0
   76.0830   61.0190   14.5860 C   0  0  0  0  0
   77.2660   61.5220   13.4440 S   0  0  0  0  0
   75.2100   62.2320   18.0220 C   0  0  0  0  0
   76.4280   62.5490   18.6860 C   0  0  0  0  0
   76.4440   63.2730   19.8790 C   0  0  0  0  0
   75.2470   63.6920   20.4500 C   0  0  0  0  0
   74.0380   63.3990   19.8310 C   0  0  0  0  0
   74.0100   62.6790   18.6360 C   0  0  0  0  0
   82.5221   62.1327   13.0918 H   0  0  0  0  0
   80.9027   60.7923   11.9394 H   0  0  0  0  0
   83.3793   59.1599   12.5233 H   0  0  0  0  0
   83.1620   60.4229   11.2521 H   0  0  0  0  0
   83.0021   58.1086   10.3404 H   0  0  0  0  0
   81.4779   59.0339   10.1447 H   0  0  0  0  0
   82.0798   56.9644   12.3003 H   0  0  0  0  0
   80.9755   56.7586   10.8893 H   0  0  0  0  0
   79.7962   57.2417   13.0526 H   0  0  0  0  0
   79.4870   58.4601   11.7561 H   0  0  0  0  0
   79.8061   59.6466   13.8085 H   0  0  0  0  0
   81.3340   58.7175   14.1504 H   0  0  0  0  0
   82.5371   60.3333   15.4672 H   0  0  0  0  0
   84.6101   59.6534   16.2401 H   0  0  0  0  0
   85.4490   62.5015   16.6738 H   0  0  0  0  0
   84.0072   61.6868   17.3285 H   0  0  0  0  0
   85.6328   61.1501   17.8187 H   0  0  0  0  0
   86.9481   59.9591   16.1875 H   0  0  0  0  0
   86.7238   60.9742   14.7674 H   0  0  0  0  0
   86.2429   58.1083   14.9888 H   0  0  0  0  0
   86.0160   59.1354   13.5519 H   0  0  0  0  0
   87.6491   58.8786   14.2139 H   0  0  0  0  0
   80.0371   63.1982   11.5207 H   0  0  0  0  0
   81.4753   63.8162   12.1763 H   0  0  0  0  0
   79.5541   65.6074   11.5501 H   0  0  0  0  0
   80.3958   65.8613   13.0132 H   0  0  0  0  0
   77.6611   64.5364   12.6431 H   0  0  0  0  0
   78.1090   65.7184   13.8217 H   0  0  0  0  0
   79.0822   64.0685   15.2847 H   0  0  0  0  0
   73.5842   60.1788   17.4134 H   0  0  0  0  0
   73.5536   58.8647   15.3289 H   0  0  0  0  0
   75.1485   59.3685   13.4854 H   0  0  0  0  0
   77.3717   62.2182   18.2522 H   0  0  0  0  0
   77.3921   63.5095   20.3620 H   0  0  0  0  0
   75.2573   64.2516   21.3853 H   0  0  0  0  0
   73.1042   63.7342   20.2824 H   0  0  0  0  0
   73.0519   62.4561   18.1664 H   0  0  0  0  0
  1  2  2  0  0  0
  2  3  1  0  0  0
  2 17  1  0  0  0
  3  4  1  0  0  0
  3 10  1  0  0  0
  4  5  1  0  0  0
  4  9  1  0  0  0
  5  6  1  0  0  0
  6  7  1  0  0  0
  7  8  1  0  0  0
  8  9  1  0  0  0
 10 11  1  0  0  0
 11 12  2  0  0  0
 11 13  1  0  0  0
 13 14  1  0  0  0
 13 15  1  0  0  0
 15 16  1  0  0  0
 17 18  1  0  0  0
 17 21  1  0  0  0
 18 19  1  0  0  0
 19 20  1  0  0  0
 20 21  1  0  0  0
 21 22  1  0  0  0
 22 23  4  0  0  0
 22 30  4  0  0  0
 23 24  4  0  0  0
 24 25  4  0  0  0
 24 29  4  0  0  0
 25 26  4  0  0  0
 25 31  1  0  0  0
 26 27  4  0  0  0
 27 28  4  0  0  0
 28 29  4  0  0  0
 29 30  4  0  0  0
 31 32  4  0  0  0
 31 36  4  0  0  0
 32 33  4  0  0  0
 33 34  4  0  0  0
 34 35  4  0  0  0
 35 36  4  0  0  0
  3 37  1  0  0  0
  4 38  1  0  0  0
  5 39  1  0  0  0
  5 40  1  0  0  0
  6 41  1  0  0  0
  6 42  1  0  0  0
  7 43  1  0  0  0
  7 44  1  0  0  0
  8 45  1  0  0  0
  8 46  1  0  0  0
  9 47  1  0  0  0
  9 48  1  0  0  0
 10 49  1  0  0  0
 13 50  1  0  0  0
 14 51  1  0  0  0
 14 52  1  0  0  0
 14 53  1  0  0  0
 15 54  1  0  0  0
 15 55  1  0  0  0
 16 56  1  0  0  0
 16 57  1  0  0  0
 16 58  1  0  0  0
 18 59  1  0  0  0
 18 60  1  0  0  0
 19 61  1  0  0  0
 19 62  1  0  0  0
 20 63  1  0  0  0
 20 64  1  0  0  0
 21 65  1  0  0  0
 26 66  1  0  0  0
 27 67  1  0  0  0
 28 68  1  0  0  0
 32 69  1  0  0  0
 33 70  1  0  0  0
 34 71  1  0  0  0
 35 72  1  0  0  0
 36 73  1  0  0  0
M  END
$$$$
