4x5p_ligand
  -I-interpret- 

 51 53  0  0  0  0  0  0  0  0999 V2000
  -15.1180   50.4970  -13.3420 O   0  0  0  0  0
   -6.7080   46.7120  -11.1040 C   0  0  0  0  0
   -5.4240   46.4830  -10.6460 C   0  0  0  0  0
   -2.7290   49.0840   -9.0670 O   0  0  0  0  0
   -9.4770   47.4900  -12.1610 C   0  0  0  0  0
  -10.7380   48.1140  -12.6070 C   0  0  0  0  0
  -11.4350   47.4510  -13.6330 C   0  0  0  0  0
  -12.6870   47.8930  -14.0330 C   0  0  0  0  0
   -2.1810   47.2590   -5.9550 O   0  0  0  0  0
  -13.2550   48.9940  -13.4240 C   0  0  0  0  0
   -0.0900   46.2640   -7.5790 O   0  0  0  0  0
  -12.5570   49.6660  -12.4060 C   0  0  0  0  0
  -11.2970   49.2380  -12.0070 C   0  0  0  0  0
  -14.6370   49.4830  -13.8970 C   0  0  0  0  0
   -0.0020   48.3960   -9.4240 O   0  0  0  0  0
   -2.2840   48.1090   -9.9560 C   0  0  0  0  0
   -2.6560   50.7080   -6.8170 O   0  0  0  0  0
   -3.0610   48.5350   -7.7870 C   0  0  0  0  0
  -15.1770   48.8320  -14.8210 O   0  0  0  0  0
   -9.3900   46.3470  -11.9760 O   0  0  0  0  0
   -8.3500   48.2980  -12.0300 N   0  0  0  0  0
   -7.0420   47.9790  -11.6170 C   0  0  0  0  0
   -6.0730   48.9560  -11.6470 C   0  0  0  0  0
   -4.8130   48.7120  -11.1860 C   0  0  0  0  0
   -5.0090   44.9220  -10.0830 Cl  0  0  0  0  0
   -4.4700   47.4700  -10.6730 C   0  0  0  0  0
   -3.2130   47.1260  -10.2170 O   0  0  0  0  0
   -1.0440   47.4500   -9.4520 C   0  0  0  0  0
   -1.2390   46.8460   -8.1130 C   0  0  0  0  0
   -1.8690   47.8320   -7.1810 C   0  0  0  0  0
   -3.6190   49.6710   -6.9640 C   0  0  0  0  0
   -7.4546   45.9187  -11.0681 H   0  0  0  0  0
  -10.9876   46.5831  -14.1174 H   0  0  0  0  0
  -13.2218   47.3719  -14.8271 H   0  0  0  0  0
   -1.4033   46.8224   -5.5999 H   0  0  0  0  0
   -0.2910   45.8955   -6.7156 H   0  0  0  0  0
  -13.0093   50.5328  -11.9241 H   0  0  0  0  0
  -10.7521   49.7771  -11.2321 H   0  0  0  0  0
    0.7994   47.9782   -9.1004 H   0  0  0  0  0
   -2.0918   48.6462  -10.8847 H   0  0  0  0  0
   -3.0305   51.4188   -6.2916 H   0  0  0  0  0
   -3.8192   47.7543   -7.8479 H   0  0  0  0  0
  -14.6070   48.1013  -15.0716 H   0  0  0  0  0
   -8.4954   49.2781  -12.2721 H   0  0  0  0  0
   -6.3167   49.9408  -12.0457 H   0  0  0  0  0
   -4.0651   49.5041  -11.2212 H   0  0  0  0  0
   -0.7871   46.6347  -10.1283 H   0  0  0  0  0
   -1.9267   46.0106   -8.2447 H   0  0  0  0  0
   -1.1176   48.6010   -7.0017 H   0  0  0  0  0
   -4.4959   50.0745   -7.4703 H   0  0  0  0  0
   -3.8827   49.2933   -5.9761 H   0  0  0  0  0
 14  1  2  0  0  0
  3  2  4  0  0  0
  2 22  4  0  0  0
  3 25  1  0  0  0
 26  3  4  0  0  0
 16  4  1  0  0  0
  4 18  1  0  0  0
  5  6  1  0  0  0
  5 20  2  0  0  0
 21  5  1  0  0  0
  6  7  4  0  0  0
  6 13  4  0  0  0
  7  8  4  0  0  0
  8 10  4  0  0  0
 30  9  1  0  0  0
 12 10  4  0  0  0
 10 14  1  0  0  0
 29 11  1  0  0  0
 13 12  4  0  0  0
 14 19  1  0  0  0
 28 15  1  0  0  0
 16 27  1  0  0  0
 28 16  1  0  0  0
 31 17  1  0  0  0
 18 30  1  0  0  0
 18 31  1  0  0  0
 22 21  1  0  0  0
 23 22  4  0  0  0
 24 23  4  0  0  0
 26 24  4  0  0  0
 27 26  1  0  0  0
 28 29  1  0  0  0
 29 30  1  0  0  0
  2 32  1  0  0  0
  7 33  1  0  0  0
  8 34  1  0  0  0
  9 35  1  0  0  0
 11 36  1  0  0  0
 12 37  1  0  0  0
 13 38  1  0  0  0
 15 39  1  0  0  0
 16 40  1  0  0  0
 17 41  1  0  0  0
 18 42  1  0  0  0
 19 43  1  0  0  0
 21 44  1  0  0  0
 23 45  1  0  0  0
 24 46  1  0  0  0
 28 47  1  0  0  0
 29 48  1  0  0  0
 30 49  1  0  0  0
 31 50  1  0  0  0
 31 51  1  0  0  0
M  END
$$$$
