6qls_ligand
  -I-interpret- 

 60 63  0  0  0  0  0  0  0  0999 V2000
  -18.3490    6.8600   -0.8650 C   0  0  0  0  0
  -19.8370    6.7180   -1.1330 C   0  0  0  0  0
  -20.4460    5.5940   -0.3060 C   0  0  0  0  0
  -20.0550    9.0660   -1.5080 C   0  0  0  0  0
  -22.7280    9.9810   -1.2660 C   0  0  0  0  0
  -23.6570   10.3600   -0.0930 C   0  0  0  0  0
  -25.1060   10.0330   -0.4500 C   0  0  0  0  0
  -25.4930   10.6760   -1.8680 C   0  0  0  0  0
  -24.4760   10.1910   -2.8950 C   0  0  0  0  0
  -24.7170   10.7250   -4.3350 C   0  0  0  0  0
  -18.5900    9.3650   -1.3040 C   0  0  0  0  0
  -17.8210    8.0660   -1.6700 C   0  0  0  0  0
  -15.6860    8.4850   -0.2550 C   0  0  0  0  0
  -14.3000    8.4360   -0.6350 C   0  0  0  0  0
  -13.1280    8.6210    0.1740 C   0  0  0  0  0
  -13.1890    8.5380    1.5470 C   0  0  0  0  0
  -12.0780    8.6890    2.3590 C   0  0  0  0  0
  -10.8420    8.9070    1.7860 C   0  0  0  0  0
  -10.7360    8.9620    0.4030 C   0  0  0  0  0
  -11.8770    8.8230   -0.3820 C   0  0  0  0  0
  -16.3920    8.1790   -1.4760 N   0  0  0  0  0
  -14.3330    8.0990   -2.0040 N   0  0  0  0  0
  -15.5200    7.9460   -2.4530 N   0  0  0  0  0
  -18.0950    7.1120    0.5130 O   0  0  0  0  0
  -21.8320    5.4790   -0.6030 O   0  0  0  0  0
  -20.4810    7.9370   -0.7850 O   0  0  0  0  0
  -23.2710    9.7010    1.0980 O   0  0  0  0  0
  -25.9560   10.5990    0.5400 O   0  0  0  0  0
  -26.7770   10.1490   -2.2230 O   0  0  0  0  0
  -24.7490   12.1410   -4.2420 O   0  0  0  0  0
  -23.1780   10.5350   -2.4910 O   0  0  0  0  0
  -18.1930   10.3690   -2.2330 O   0  0  0  0  0
  -21.0290   10.4860   -0.9470 S   0  0  0  0  0
  -17.8562    5.9318   -1.1544 H   0  0  0  0  0
  -19.9760    6.4853   -2.1888 H   0  0  0  0  0
  -20.3202    5.8155    0.7538 H   0  0  0  0  0
  -19.9454    4.6560   -0.5461 H   0  0  0  0  0
  -20.1991    8.8671   -2.5700 H   0  0  0  0  0
  -22.7566    8.8948   -1.3525 H   0  0  0  0  0
  -23.5715   11.4323    0.0829 H   0  0  0  0  0
  -25.2232    8.9504   -0.4990 H   0  0  0  0  0
  -25.5051   11.7653   -1.8303 H   0  0  0  0  0
  -24.5995    9.1089   -2.9373 H   0  0  0  0  0
  -25.6523   10.3402   -4.7416 H   0  0  0  0  0
  -23.9261   10.3968   -5.0095 H   0  0  0  0  0
  -18.3935    9.6937   -0.2835 H   0  0  0  0  0
  -18.0007    7.9075   -2.7333 H   0  0  0  0  0
  -16.1059    8.7027    0.7271 H   0  0  0  0  0
  -14.1543    8.3450    2.0151 H   0  0  0  0  0
  -12.1790    8.6361    3.4430 H   0  0  0  0  0
   -9.9589    9.0346    2.4121 H   0  0  0  0  0
   -9.7638    9.1133   -0.0660 H   0  0  0  0  0
  -11.7823    8.8748   -1.4666 H   0  0  0  0  0
  -18.4153    6.3738    1.0365 H   0  0  0  0  0
  -22.2124    4.7696   -0.0799 H   0  0  0  0  0
  -22.3591    9.9204    1.3027 H   0  0  0  0  0
  -25.7393   10.2258    1.3975 H   0  0  0  0  0
  -27.0470   10.5107   -3.0703 H   0  0  0  0  0
  -24.8966   12.5146   -5.1139 H   0  0  0  0  0
  -18.6525   11.1879   -2.0332 H   0  0  0  0  0
  1  2  1  0  0  0
 12  1  1  0  0  0
  1 24  1  0  0  0
  2  3  1  0  0  0
  2 26  1  0  0  0
  3 25  1  0  0  0
 11  4  1  0  0  0
  4 26  1  0  0  0
  4 33  1  0  0  0
  5  6  1  0  0  0
  5 31  1  0  0  0
 33  5  1  0  0  0
  6  7  1  0  0  0
  6 27  1  0  0  0
  7  8  1  0  0  0
  7 28  1  0  0  0
  9  8  1  0  0  0
  8 29  1  0  0  0
  9 10  1  0  0  0
 31  9  1  0  0  0
 10 30  1  0  0  0
 12 11  1  0  0  0
 11 32  1  0  0  0
 21 12  1  0  0  0
 13 14  4  0  0  0
 13 21  4  0  0  0
 14 15  1  0  0  0
 14 22  4  0  0  0
 15 16  4  0  0  0
 15 20  4  0  0  0
 16 17  4  0  0  0
 17 18  4  0  0  0
 18 19  4  0  0  0
 19 20  4  0  0  0
 21 23  4  0  0  0
 22 23  4  0  0  0
  1 34  1  0  0  0
  2 35  1  0  0  0
  3 36  1  0  0  0
  3 37  1  0  0  0
  4 38  1  0  0  0
  5 39  1  0  0  0
  6 40  1  0  0  0
  7 41  1  0  0  0
  8 42  1  0  0  0
  9 43  1  0  0  0
 10 44  1  0  0  0
 10 45  1  0  0  0
 11 46  1  0  0  0
 12 47  1  0  0  0
 13 48  1  0  0  0
 16 49  1  0  0  0
 17 50  1  0  0  0
 18 51  1  0  0  0
 19 52  1  0  0  0
 20 53  1  0  0  0
 24 54  1  0  0  0
 25 55  1  0  0  0
 27 56  1  0  0  0
 28 57  1  0  0  0
 29 58  1  0  0  0
 30 59  1  0  0  0
 32 60  1  0  0  0
M  END
$$$$
