2yc3_ligand
  -I-interpret- 

 27 29  0  0  0  0  0  0  0  0999 V2000
   17.1090   55.4690  -19.6490 O   0  0  0  0  0
   16.8120   56.6680  -19.3450 C   0  0  0  0  0
   17.6400   57.6880  -19.6690 N   0  0  0  0  0
   18.7970   57.6320  -20.3240 N   0  0  0  0  0
   19.2010   58.8760  -20.3610 C   0  0  0  0  0
   15.6430   56.9700  -18.6920 C   0  0  0  0  0
   15.4030   58.3390  -18.4580 C   0  0  0  0  0
   13.9100   58.7940  -17.7390 Cl  0  0  0  0  0
   16.1950   59.3450  -18.8200 N   0  0  0  0  0
   17.3290   59.0170  -19.4590 C   0  0  0  0  0
   18.2900   59.7730  -19.8880 N   0  0  0  0  0
   14.6590   55.9450  -18.2050 C   0  0  0  0  0
   13.6500   55.3820  -19.1800 C   0  0  0  0  0
   13.9380   55.2020  -20.5390 C   0  0  0  0  0
   13.0000   54.6660  -21.4020 C   0  0  0  0  0
   11.8100   54.2030  -20.9190 C   0  0  0  0  0
   11.5470   54.3630  -19.5530 C   0  0  0  0  0
   12.4570   54.9540  -18.7260 C   0  0  0  0  0
   20.1809   59.1696  -20.7374 H   0  0  0  0  0
   15.9528   60.3159  -18.6221 H   0  0  0  0  0
   14.0649   56.4604  -17.4503 H   0  0  0  0  0
   15.2664   55.0917  -17.9033 H   0  0  0  0  0
   14.9172   55.4891  -20.9223 H   0  0  0  0  0
   13.2111   54.6130  -22.4700 H   0  0  0  0  0
   11.0859   53.7229  -21.5773 H   0  0  0  0  0
   10.6004   54.0098  -19.1440 H   0  0  0  0  0
   12.2121   55.0828  -17.6717 H   0  0  0  0  0
  1  2  2  0  0  0
  2  3  1  0  0  0
  2  6  1  0  0  0
  3  4  4  0  0  0
  3 10  4  0  0  0
  4  5  4  0  0  0
  5 11  4  0  0  0
  6  7  2  0  0  0
  6 12  1  0  0  0
  7  8  1  0  0  0
  7  9  1  0  0  0
  9 10  1  0  0  0
 10 11  4  0  0  0
 12 13  1  0  0  0
 13 14  4  0  0  0
 13 18  4  0  0  0
 14 15  4  0  0  0
 15 16  4  0  0  0
 16 17  4  0  0  0
 17 18  4  0  0  0
  5 19  1  0  0  0
  9 20  1  0  0  0
 12 21  1  0  0  0
 12 22  1  0  0  0
 14 23  1  0  0  0
 15 24  1  0  0  0
 16 25  1  0  0  0
 17 26  1  0  0  0
 18 27  1  0  0  0
M  END
$$$$
