### 
### Created by X-TOOL on Mon Sep 10 21:13:33 2018
### 

@<TRIPOS>MOLECULE
5h13_ligand
   55    59     1     0     0
SMALL
GAST_HUCK


@<TRIPOS>ATOM
      1 C1         30.6890   13.1100   10.2880 C.2       1 LQA         0.1220
      2 C2         28.2040   11.9430    9.8100 C.2       1 LQA         0.1075
      3 C11        25.6760   12.1950    9.3640 C.ar      1 LQA        -0.0232
      4 C12        29.2240    9.8770    8.9870 C.3       1 LQA         0.0736
      5 C13        24.4680   11.5950    9.0140 C.ar      1 LQA         0.1278
      6 C14        24.3700   10.2450    8.7860 C.ar      1 LQA         0.1303
      7 C17        29.8130   17.3920   13.0540 C.ar      1 LQA         0.1311
      8 C18        25.4790    9.4000    8.9140 C.ar      1 LQA        -0.0254
      9 C19        30.3530   15.0890   12.5990 C.ar      1 LQA        -0.0231
     10 C20        30.5140   16.2270   13.4020 C.ar      1 LQA         0.1289
     11 C24        27.9480    9.1140    9.4150 C.3       1 LQA         0.0085
     12 C25        22.4450   11.1610    8.3260 C.3       1 LQA         0.1887
     13 C26        28.9360   16.2840   11.0220 C.ar      1 LQA        -0.0617
     14 C27        29.0300   17.4250   11.8620 C.ar      1 LQA        -0.0301
     15 C29        29.1540   19.5980   14.1760 C.3       1 LQA         0.0758
     16 C30        32.2830   15.2160   14.9030 C.3       1 LQA         0.0571
     17 N3         29.3140   11.2590    9.4940 N.pl3     1 LQA        -0.2142
     18 C4         30.5300   11.7910    9.6330 C.2       1 LQA         0.1171
     19 C5         29.5860   13.8090   10.6200 C.2       1 LQA         0.0064
     20 C6         28.2850   13.1800   10.3440 C.2       1 LQA        -0.0051
     21 C7         26.8190   11.3780    9.5160 C.ar      1 LQA         0.0239
     22 C8         29.6330   15.1150   11.3920 C.ar      1 LQA        -0.0176
     23 C9         26.7120    9.9960    9.2320 C.ar      1 LQA        -0.0319
     24 C10        32.0210   13.6250   10.4950 C.1       1 LQA         0.0550
     25 N15        33.0900   14.0380   10.6350 N.1       1 LQA        -0.3777
     26 N16        31.6180   11.2300    9.2660 N.2       1 LQA        -0.4279
     27 O21        23.2600   12.2490    8.8840 O.3       1 LQA        -0.2920
     28 O22        23.0770    9.8530    8.4960 O.3       1 LQA        -0.2837
     29 O23        30.0130   18.4670   13.9370 O.3       1 LQA        -0.3118
     30 O28        31.3060   16.2260   14.5720 O.3       1 LQA        -0.3228
     31 C31        28.0670   19.2180   15.2110 C.3       1 LQA        -0.0345
     32 C32        30.0850   20.6610   14.8160 C.3       1 LQA        -0.0345
     33 H1         25.7377   13.2664    9.5165 H         1 LQA         0.0562
     34 H2         29.2496    9.9128    7.8879 H         1 LQA         0.0638
     35 H3         30.0971    9.3190    9.3561 H         1 LQA         0.0638
     36 H4         25.3905    8.3288    8.7735 H         1 LQA         0.0484
     37 H5         30.8000   14.1553   12.9206 H         1 LQA         0.0571
     38 H6         28.0351    8.8274   10.4734 H         1 LQA         0.0461
     39 H7         27.8424    8.2097    8.7977 H         1 LQA         0.0461
     40 H8         22.2960   11.3453    7.2518 H         1 LQA         0.0977
     41 H9         21.4700   11.1519    8.8352 H         1 LQA         0.0977
     42 H10        28.3414   16.3108   10.1160 H         1 LQA         0.0578
     43 H11        28.5004   18.3321   11.5942 H         1 LQA         0.0541
     44 H12        28.6961   19.9621   13.2445 H         1 LQA         0.0645
     45 H13        32.7520   15.4616   15.8672 H         1 LQA         0.0573
     46 H14        33.0537   15.1804   14.1190 H         1 LQA         0.0573
     47 H15        31.7878   14.2364   14.9751 H         1 LQA         0.0573
     48 H16        27.3697   13.7229   10.5750 H         1 LQA         0.0514
     49 H17        32.4991   11.6990    9.4063 H         1 LQA         0.0317
     50 H18        27.4132   20.0841   15.3908 H         1 LQA         0.0258
     51 H19        28.5474   18.9192   16.1544 H         1 LQA         0.0258
     52 H20        27.4681   18.3808   14.8232 H         1 LQA         0.0258
     53 H21        29.5066   21.5707   15.0351 H         1 LQA         0.0258
     54 H22        30.8992   20.9036   14.1173 H         1 LQA         0.0258
     55 H23        30.5093   20.2626   15.7494 H         1 LQA         0.0258
@<TRIPOS>BOND
     1    1   18 1  
     2   19    1 2  
     3    1   24 1  
     4    2   17 1  
     5   20    2 2  
     6    2   21 1  
     7    3    5 ar 
     8   21    3 ar 
     9    4   11 1  
    10   17    4 1  
    11    5    6 ar 
    12    5   27 1  
    13    6    8 ar 
    14    6   28 1  
    15   10    7 ar 
    16   14    7 ar 
    17    7   29 1  
    18   23    8 ar 
    19    9   10 ar 
    20   22    9 ar 
    21   10   30 1  
    22   11   23 1  
    23   27   12 1  
    24   12   28 1  
    25   13   14 ar 
    26   22   13 ar 
    27   29   15 1  
    28   15   31 1  
    29   15   32 1  
    30   30   16 1  
    31   18   17 1  
    32   18   26 2  
    33   19   20 1  
    34   19   22 1  
    35   21   23 ar 
    36   24   25 3  
    37    3   33 1  
    38    4   34 1  
    39    4   35 1  
    40    8   36 1  
    41    9   37 1  
    42   11   38 1  
    43   11   39 1  
    44   12   40 1  
    45   12   41 1  
    46   13   42 1  
    47   14   43 1  
    48   15   44 1  
    49   16   45 1  
    50   16   46 1  
    51   16   47 1  
    52   20   48 1  
    53   26   49 1  
    54   31   50 1  
    55   31   51 1  
    56   31   52 1  
    57   32   53 1  
    58   32   54 1  
    59   32   55 1  
@<TRIPOS>SUBSTRUCTURE
     1 LQA         1

