5h13_ligand
  -I-interpret- 

 55 59  0  0  0  0  0  0  0  0999 V2000
   30.6890   13.1100   10.2880 C   0  0  0  0  0
   28.2040   11.9430    9.8100 C   0  0  0  0  0
   25.6760   12.1950    9.3640 C   0  0  0  0  0
   29.2240    9.8770    8.9870 C   0  0  0  0  0
   24.4680   11.5950    9.0140 C   0  0  0  0  0
   24.3700   10.2450    8.7860 C   0  0  0  0  0
   29.8130   17.3920   13.0540 C   0  0  0  0  0
   25.4790    9.4000    8.9140 C   0  0  0  0  0
   30.3530   15.0890   12.5990 C   0  0  0  0  0
   30.5140   16.2270   13.4020 C   0  0  0  0  0
   27.9480    9.1140    9.4150 C   0  0  0  0  0
   22.4450   11.1610    8.3260 C   0  0  0  0  0
   28.9360   16.2840   11.0220 C   0  0  0  0  0
   29.0300   17.4250   11.8620 C   0  0  0  0  0
   29.1540   19.5980   14.1760 C   0  0  0  0  0
   32.2830   15.2160   14.9030 C   0  0  0  0  0
   29.3140   11.2590    9.4940 N   0  0  0  0  0
   30.5300   11.7910    9.6330 C   0  0  0  0  0
   29.5860   13.8090   10.6200 C   0  0  0  0  0
   28.2850   13.1800   10.3440 C   0  0  0  0  0
   26.8190   11.3780    9.5160 C   0  0  0  0  0
   29.6330   15.1150   11.3920 C   0  0  0  0  0
   26.7120    9.9960    9.2320 C   0  0  0  0  0
   32.0210   13.6250   10.4950 C   0  0  0  0  0
   33.0900   14.0380   10.6350 N   0  0  0  0  0
   31.6180   11.2300    9.2660 N   0  0  0  0  0
   23.2600   12.2490    8.8840 O   0  0  0  0  0
   23.0770    9.8530    8.4960 O   0  0  0  0  0
   30.0130   18.4670   13.9370 O   0  0  0  0  0
   31.3060   16.2260   14.5720 O   0  0  0  0  0
   28.0670   19.2180   15.2110 C   0  0  0  0  0
   30.0850   20.6610   14.8160 C   0  0  0  0  0
   25.7380   13.2724    9.5174 H   0  0  0  0  0
   29.2073    9.9384    7.8989 H   0  0  0  0  0
   30.0732    9.3317    9.3989 H   0  0  0  0  0
   25.3900    8.3229    8.7727 H   0  0  0  0  0
   30.8024   14.1501   12.9224 H   0  0  0  0  0
   28.0350    8.8388   10.4661 H   0  0  0  0  0
   27.8429    8.2231    8.7959 H   0  0  0  0  0
   22.3233   11.3423    7.2581 H   0  0  0  0  0
   21.4911   11.1475    8.8533 H   0  0  0  0  0
   28.3381   16.3110   10.1110 H   0  0  0  0  0
   28.4974   18.3371   11.5928 H   0  0  0  0  0
   28.6622   19.9416   13.2660 H   0  0  0  0  0
   31.7911   14.2459   14.9741 H   0  0  0  0  0
   33.0460   15.1817   14.1254 H   0  0  0  0  0
   32.7470   15.4604   15.8586 H   0  0  0  0  0
   27.3688   13.7234   10.5752 H   0  0  0  0  0
   31.5948   10.3076    8.8311 H   0  0  0  0  0
   27.4743   18.3884   14.8256 H   0  0  0  0  0
   28.5443   18.9221   16.1452 H   0  0  0  0  0
   27.4198   20.0770   15.3883 H   0  0  0  0  0
   30.5047   20.2650   15.7407 H   0  0  0  0  0
   30.8913   20.9005   14.1228 H   0  0  0  0  0
   29.5108   21.5618   15.0326 H   0  0  0  0  0
  1 18  1  0  0  0
 19  1  2  0  0  0
  1 24  1  0  0  0
  2 17  1  0  0  0
 20  2  2  0  0  0
  2 21  1  0  0  0
  3  5  4  0  0  0
 21  3  4  0  0  0
  4 11  1  0  0  0
 17  4  1  0  0  0
  5  6  4  0  0  0
  5 27  1  0  0  0
  6  8  4  0  0  0
  6 28  1  0  0  0
 10  7  4  0  0  0
 14  7  4  0  0  0
  7 29  1  0  0  0
 23  8  4  0  0  0
  9 10  4  0  0  0
 22  9  4  0  0  0
 10 30  1  0  0  0
 11 23  1  0  0  0
 27 12  1  0  0  0
 12 28  1  0  0  0
 13 14  4  0  0  0
 22 13  4  0  0  0
 29 15  1  0  0  0
 15 31  1  0  0  0
 15 32  1  0  0  0
 30 16  1  0  0  0
 18 17  1  0  0  0
 18 26  2  0  0  0
 19 20  1  0  0  0
 19 22  1  0  0  0
 21 23  4  0  0  0
 24 25  3  0  0  0
  3 33  1  0  0  0
  4 34  1  0  0  0
  4 35  1  0  0  0
  8 36  1  0  0  0
  9 37  1  0  0  0
 11 38  1  0  0  0
 11 39  1  0  0  0
 12 40  1  0  0  0
 12 41  1  0  0  0
 13 42  1  0  0  0
 14 43  1  0  0  0
 15 44  1  0  0  0
 16 45  1  0  0  0
 16 46  1  0  0  0
 16 47  1  0  0  0
 20 48  1  0  0  0
 26 49  1  0  0  0
 31 50  1  0  0  0
 31 51  1  0  0  0
 31 52  1  0  0  0
 32 53  1  0  0  0
 32 54  1  0  0  0
 32 55  1  0  0  0
M  END
$$$$
