2cmo_ligand
  -I-interpret- 

 65 68  0  0  0  0  0  0  0  0999 V2000
    3.8380   30.6400   25.6870 C   0  0  0  0  0
    5.6850   28.9420   22.6550 C   0  0  0  0  0
    6.1790   30.0820   21.9990 C   0  0  0  0  0
    5.9460   31.3830   22.5080 C   0  0  0  0  0
    5.1940   31.6010   23.6910 C   0  0  0  0  0
    4.6660   30.4370   24.3900 C   0  0  0  0  0
    4.9180   29.0890   23.8560 C   0  0  0  0  0
    3.5040   32.1040   26.0480 C   0  0  0  0  0
    4.6560   33.0140   25.6950 N   0  3  0  0  0
    4.9440   32.9920   24.2180 C   0  0  0  0  0
    6.5350   32.3450   21.6870 N   0  0  0  0  0
    7.1810   31.7660   20.6180 C   0  0  0  0  0
    7.7900   32.3090   19.7210 O   0  0  0  0  0
    6.9820   30.2470   20.7710 C   0  0  0  0  0
    7.4860   29.4200   19.8840 N   0  0  0  0  0
    4.4010   34.4110   26.1520 C   0  0  0  0  0
    4.5370   26.1010   26.2450 C   0  0  0  0  0
    5.0480   27.2880   25.6510 C   0  0  0  0  0
    4.4120   27.8530   24.4930 C   0  0  0  0  0
    3.2580   27.1970   23.9500 C   0  0  0  0  0
    2.7480   26.0140   24.5390 C   0  0  0  0  0
    3.3860   25.4690   25.6840 C   0  0  0  0  0
    2.7370   23.9890   26.4220 S   0  0  0  0  0
    3.4860   22.7780   25.5210 N   0  0  0  0  0
    1.3050   23.9500   26.1630 O   0  0  0  0  0
    3.2040   23.9260   27.7970 O   0  0  0  0  0
    2.7760   22.0550   24.4610 C   0  0  0  0  0
    4.8800   22.3840   25.7470 C   0  0  0  0  0
    7.2140   28.0640   20.1490 O   0  0  0  0  0
    7.8000   27.2240   19.1280 C   0  0  0  0  0
    7.9200   25.7860   19.6740 C   0  0  0  0  0
    8.7750   25.6810   20.9400 C   0  0  0  0  0
   10.0190   26.3620   20.7750 O   0  0  0  0  0
    6.9130   27.2150   17.8580 C   0  0  0  0  0
    7.5040   27.3820   16.7500 O   0  0  0  0  0
    5.6620   27.0490   17.9910 O   0  0  0  0  0
    4.4458   30.2521   26.5044 H   0  0  0  0  0
    2.8844   30.1372   25.5256 H   0  0  0  0  0
    5.8846   27.9493   22.2516 H   0  0  0  0  0
    3.3173   32.1698   27.1199 H   0  0  0  0  0
    2.6233   32.4145   25.4857 H   0  0  0  0  0
    5.4785   32.6605   26.1838 H   0  0  0  0  0
    4.0712   33.3922   23.7021 H   0  0  0  0  0
    5.8447   33.5810   24.0450 H   0  0  0  0  0
    6.4924   33.3498   21.8572 H   0  0  0  0  0
    3.4986   34.7899   25.6721 H   0  0  0  0  0
    4.2697   34.4197   27.2340 H   0  0  0  0  0
    5.2490   35.0406   25.8826 H   0  0  0  0  0
    5.0215   25.6759   27.1240 H   0  0  0  0  0
    5.9271   27.7718   26.0766 H   0  0  0  0  0
    2.7663   27.6147   23.0715 H   0  0  0  0  0
    1.8707   25.5250   24.1155 H   0  0  0  0  0
    1.9105   21.5469   24.8864 H   0  0  0  0  0
    2.4461   22.7614   23.6993 H   0  0  0  0  0
    3.4455   21.3211   24.0123 H   0  0  0  0  0
    5.5301   23.2436   25.5842 H   0  0  0  0  0
    4.9944   22.0291   26.7712 H   0  0  0  0  0
    5.1482   21.5874   25.0530 H   0  0  0  0  0
    8.7834   27.6141   18.8657 H   0  0  0  0  0
    8.4006   25.1828   18.9038 H   0  0  0  0  0
    6.9155   25.4480   19.9288 H   0  0  0  0  0
    8.9762   24.6285   21.1399 H   0  0  0  0  0
    8.2327   26.1388   21.7673 H   0  0  0  0  0
   10.5356   26.2819   21.5801 H   0  0  0  0  0
    5.4514   26.9441   18.9217 H   0  0  0  0  0
  6  1  1  0  0  0
  1  8  1  0  0  0
  2  3  4  0  0  0
  7  2  4  0  0  0
  3  4  4  0  0  0
  3 14  1  0  0  0
  5  4  4  0  0  0
  4 11  1  0  0  0
  6  5  4  0  0  0
  5 10  1  0  0  0
  7  6  4  0  0  0
 19  7  1  0  0  0
  8  9  1  0  0  0
 10  9  1  0  0  0
  9 16  1  0  0  0
 11 12  1  0  0  0
 12 13  2  0  0  0
 14 12  1  0  0  0
 14 15  2  0  0  0
 15 29  1  0  0  0
 18 17  4  0  0  0
 17 22  4  0  0  0
 18 19  4  0  0  0
 19 20  4  0  0  0
 20 21  4  0  0  0
 21 22  4  0  0  0
 22 23  1  0  0  0
 23 24  1  0  0  0
 23 25  2  0  0  0
 23 26  2  0  0  0
 24 27  1  0  0  0
 24 28  1  0  0  0
 29 30  1  0  0  0
 30 31  1  0  0  0
 30 34  1  0  0  0
 31 32  1  0  0  0
 32 33  1  0  0  0
 34 35  2  0  0  0
 34 36  1  0  0  0
  1 37  1  0  0  0
  1 38  1  0  0  0
  2 39  1  0  0  0
  8 40  1  0  0  0
  8 41  1  0  0  0
  9 42  1  0  0  0
 10 43  1  0  0  0
 10 44  1  0  0  0
 11 45  1  0  0  0
 16 46  1  0  0  0
 16 47  1  0  0  0
 16 48  1  0  0  0
 17 49  1  0  0  0
 18 50  1  0  0  0
 20 51  1  0  0  0
 21 52  1  0  0  0
 27 53  1  0  0  0
 27 54  1  0  0  0
 27 55  1  0  0  0
 28 56  1  0  0  0
 28 57  1  0  0  0
 28 58  1  0  0  0
 30 59  1  0  0  0
 31 60  1  0  0  0
 31 61  1  0  0  0
 32 62  1  0  0  0
 32 63  1  0  0  0
 33 64  1  0  0  0
 36 65  1  0  0  0
M  END
$$$$
