5yl2_ligand
  -I-interpret- 

 49 51  0  0  0  0  0  0  0  0999 V2000
   16.8830  220.5290   47.7130 C   0  0  0  0  0
   17.1910  221.9300   47.7170 O   0  0  0  0  0
   17.4580  222.5370   46.5190 C   0  0  0  0  0
   17.3090  221.8820   45.3290 C   0  0  0  0  0
   17.5900  222.5590   44.0950 C   0  0  0  0  0
   18.0220  223.8830   44.1160 C   0  0  0  0  0
   18.3020  224.5620   42.7620 C   0  0  0  0  0
   18.9130  225.7960   42.5940 C   0  0  0  0  0
   19.0860  226.3610   41.1870 C   0  0  0  0  0
   19.9470  227.1650   40.9530 O   0  0  0  0  0
   18.1560  225.8970   40.0290 C   0  0  0  0  0
   18.7250  225.6560   38.7910 C   0  0  0  0  0
   17.9070  225.2270   37.6860 C   0  0  0  0  0
   16.5200  225.0430   37.8780 C   0  0  0  0  0
   15.7270  224.6120   36.7920 O   0  0  0  0  0
   16.0150  223.3010   36.4410 C   0  0  0  0  0
   15.9130  225.2940   39.1720 C   0  0  0  0  0
   14.4780  225.1180   39.3810 C   0  0  0  0  0
   13.8540  225.7150   40.5250 C   0  0  0  0  0
   14.7230  226.5380   41.4910 C   0  0  0  0  0
   14.7760  228.0690   41.1590 C   0  0  0  0  0
   14.1480  226.6140   42.8840 C   0  0  0  0  0
   16.1040  225.9840   41.5470 O   0  0  0  0  0
   16.7040  225.7160   40.2140 C   0  0  0  0  0
   18.1610  224.5610   45.3230 C   0  0  0  0  0
   17.8900  223.8990   46.5290 C   0  0  0  0  0
   18.0380  224.5790   47.7300 O   0  0  0  0  0
   15.9954  220.3552   47.1047 H   0  0  0  0  0
   17.7243  219.9745   47.2972 H   0  0  0  0  0
   16.6961  220.1965   48.7341 H   0  0  0  0  0
   16.9763  220.8441   45.3169 H   0  0  0  0  0
   17.4658  222.0390   43.1451 H   0  0  0  0  0
   17.9948  224.0292   41.8621 H   0  0  0  0  0
   19.2663  226.3570   43.4592 H   0  0  0  0  0
   19.7975  225.7915   38.6514 H   0  0  0  0  0
   18.3550  225.0457   36.7090 H   0  0  0  0  0
   17.0640  223.2249   36.1547 H   0  0  0  0  0
   15.8209  222.6475   37.2915 H   0  0  0  0  0
   15.3856  223.0042   35.6020 H   0  0  0  0  0
   13.8867  224.5375   38.6729 H   0  0  0  0  0
   12.7867  225.5885   40.7065 H   0  0  0  0  0
   15.1868  228.2086   40.1591 H   0  0  0  0  0
   13.7688  228.4836   41.2005 H   0  0  0  0  0
   15.4091  228.5757   41.8873 H   0  0  0  0  0
   13.1637  227.0806   42.8444 H   0  0  0  0  0
   14.0584  225.6081   43.2941 H   0  0  0  0  0
   14.8080  227.2080   43.5162 H   0  0  0  0  0
   18.4795  225.6034   45.3311 H   0  0  0  0  0
   18.3327  225.4756   47.5545 H   0  0  0  0  0
  1  2  1  0  0  0
  2  3  1  0  0  0
  3  4  4  0  0  0
  3 26  4  0  0  0
  4  5  4  0  0  0
  5  6  4  0  0  0
  6  7  1  0  0  0
  6 25  4  0  0  0
  7  8  2  0  0  0
  8  9  1  0  0  0
  9 10  2  0  0  0
  9 11  1  0  0  0
 11 12  4  0  0  0
 11 24  4  0  0  0
 12 13  4  0  0  0
 13 14  4  0  0  0
 14 15  1  0  0  0
 14 17  4  0  0  0
 15 16  1  0  0  0
 17 18  1  0  0  0
 17 24  4  0  0  0
 18 19  2  0  0  0
 19 20  1  0  0  0
 20 21  1  0  0  0
 20 22  1  0  0  0
 20 23  1  0  0  0
 23 24  1  0  0  0
 25 26  4  0  0  0
 26 27  1  0  0  0
  1 28  1  0  0  0
  1 29  1  0  0  0
  1 30  1  0  0  0
  4 31  1  0  0  0
  5 32  1  0  0  0
  7 33  1  0  0  0
  8 34  1  0  0  0
 12 35  1  0  0  0
 13 36  1  0  0  0
 16 37  1  0  0  0
 16 38  1  0  0  0
 16 39  1  0  0  0
 18 40  1  0  0  0
 19 41  1  0  0  0
 21 42  1  0  0  0
 21 43  1  0  0  0
 21 44  1  0  0  0
 22 45  1  0  0  0
 22 46  1  0  0  0
 22 47  1  0  0  0
 25 48  1  0  0  0
 27 49  1  0  0  0
M  END
$$$$
