5osl_ligand
  -I-interpret- 

 29 30  0  0  0  0  0  0  0  0999 V2000
 -135.7940 -182.9980  297.1110 C   0  0  0  0  0
 -136.5380 -183.4240  296.0180 C   0  0  0  0  0
 -136.0000 -184.2870  295.0760 C   0  0  0  0  0
 -134.6980 -184.7810  295.2180 C   0  0  0  0  0
 -133.9680 -184.3700  296.3470 C   0  0  0  0  0
 -134.4980 -183.4810  297.2660 C   0  0  0  0  0
 -132.3970 -185.0390  296.6860 Cl  0  0  0  0  0
 -136.3120 -182.0030  298.0760 C   0  0  0  0  0
 -136.2760 -180.6110  297.5420 N   0  3  0  0  0
 -134.1500 -185.6800  294.1560 C   0  0  0  0  0
 -133.0840 -185.3150  293.3170 C   0  0  0  0  0
 -132.4900 -184.1010  293.4760 O   0  0  0  0  0
 -132.6600 -186.1660  292.2940 C   0  0  0  0  0
 -133.3100 -187.3690  292.0810 C   0  0  0  0  0
 -134.3700 -187.7380  292.8940 C   0  0  0  0  0
 -134.7760 -186.9120  293.9330 C   0  0  0  0  0
 -137.5632 -183.0734  295.8989 H   0  0  0  0  0
 -136.5979 -184.5844  294.2145 H   0  0  0  0  0
 -133.8970 -183.1574  298.1158 H   0  0  0  0  0
 -135.6806 -182.0374  298.9638 H   0  0  0  0  0
 -137.3513 -182.2530  298.2893 H   0  0  0  0  0
 -136.6426 -179.9690  298.2447 H   0  0  0  0  0
 -135.3133 -180.3587  297.3184 H   0  0  0  0  0
 -136.8476 -180.5566  296.6989 H   0  0  0  0  0
 -131.7850 -184.0041  292.8316 H   0  0  0  0  0
 -131.8172 -185.8827  291.6635 H   0  0  0  0  0
 -132.9882 -188.0266  291.2735 H   0  0  0  0  0
 -134.8871 -188.6810  292.7167 H   0  0  0  0  0
 -135.5923 -187.2266  294.5832 H   0  0  0  0  0
  1  2  4  0  0  0
  1  6  4  0  0  0
  1  8  1  0  0  0
  2  3  4  0  0  0
  3  4  4  0  0  0
  4  5  4  0  0  0
  4 10  1  0  0  0
  5  6  4  0  0  0
  5  7  1  0  0  0
  8  9  1  0  0  0
 10 11  4  0  0  0
 10 16  4  0  0  0
 11 12  1  0  0  0
 11 13  4  0  0  0
 13 14  4  0  0  0
 14 15  4  0  0  0
 15 16  4  0  0  0
  2 17  1  0  0  0
  3 18  1  0  0  0
  6 19  1  0  0  0
  8 20  1  0  0  0
  8 21  1  0  0  0
  9 22  1  0  0  0
  9 23  1  0  0  0
  9 24  1  0  0  0
 12 25  1  0  0  0
 13 26  1  0  0  0
 14 27  1  0  0  0
 15 28  1  0  0  0
 16 29  1  0  0  0
M  END
$$$$
