6fo8_ligand
  -I-interpret- 

 79 80  0  0  0  0  0  0  0  0999 V2000
   -2.9010   33.0850   33.5600 C   0  0  0  0  0
   -2.8480   33.5470   34.9960 C   0  0  0  0  0
   -1.9830   34.7740   35.1870 C   0  0  0  0  0
   -1.8090   35.2140   36.6320 C   0  0  0  0  0
   -1.3900   34.0890   37.5630 C   0  0  0  0  0
   -0.9350   34.5690   38.9370 C   0  0  0  0  0
    0.5170   34.9340   39.0530 C   0  0  0  0  0
    5.8720   27.9360   34.3040 O   0  0  0  0  0
    5.5260   29.0970   33.5250 C   0  0  0  0  0
    6.8080   29.8620   33.2310 C   0  0  0  0  0
    4.8810   28.6140   32.2350 C   0  0  0  0  0
    4.5530   29.9370   34.3460 C   0  0  0  0  0
    5.1320   30.5990   35.5930 C   0  0  0  0  0
    4.4210   30.1990   36.8770 C   0  0  0  0  0
    2.9060   30.3190   36.8220 C   0  0  0  0  0
    2.2190   30.3010   38.1900 C   0  0  0  0  0
    2.3190   31.6110   38.9340 C   0  0  0  0  0
    1.3970   32.6250   38.6900 C   0  0  0  0  0
    3.3360   31.8380   39.8470 C   0  0  0  0  0
    3.4390   33.0510   40.5010 C   0  0  0  0  0
    2.5240   34.0560   40.2510 C   0  0  0  0  0
    1.4930   33.8520   39.3410 C   0  0  0  0  0
    1.0390   36.1830   38.9310 C   0  0  0  0  0
    0.3600   37.4130   38.6880 C   0  0  0  0  0
    0.9140   38.6100   38.3380 C   0  0  0  0  0
    2.3390   38.8530   38.0810 C   0  0  0  0  0
    3.0730   38.0660   37.3190 C   0  0  0  0  0
    2.8670   40.0950   38.7590 C   0  0  0  0  0
    4.2230   40.2840   38.3640 O   0  0  0  0  0
    2.0240   41.2740   38.2980 C   0  0  0  0  0
    0.5900   41.0780   38.7470 C   0  0  0  0  0
    0.5280   41.0010   40.1730 O   0  0  0  0  0
    0.0290   39.8160   38.1190 C   0  0  0  0  0
   -3.3104   33.8813   32.9384 H   0  0  0  0  0
   -1.8945   32.8391   33.2214 H   0  0  0  0  0
   -3.5362   32.2022   33.4869 H   0  0  0  0  0
   -2.4183   32.7404   35.5901 H   0  0  0  0  0
   -3.8624   33.8034   35.3014 H   0  0  0  0  0
   -2.4767   35.5933   34.6644 H   0  0  0  0  0
   -0.9910   34.5231   34.8113 H   0  0  0  0  0
   -2.7734   35.5843   36.9796 H   0  0  0  0  0
   -1.0205   35.9663   36.6523 H   0  0  0  0  0
   -0.5454   33.5793   37.0993 H   0  0  0  0  0
   -2.2592   33.4485   37.7125 H   0  0  0  0  0
   -1.0998   33.7386   39.6236 H   0  0  0  0  0
   -1.4989   35.4775   39.1483 H   0  0  0  0  0
    5.0766   27.4363   34.5021 H   0  0  0  0  0
    7.2740   30.1619   34.1696 H   0  0  0  0  0
    7.4914   29.2222   32.6727 H   0  0  0  0  0
    6.5737   30.7480   32.6409 H   0  0  0  0  0
    5.5870   27.9878   31.6895 H   0  0  0  0  0
    3.9878   28.0357   32.4713 H   0  0  0  0  0
    4.6076   29.4735   31.6230 H   0  0  0  0  0
    3.7762   29.2556   34.6928 H   0  0  0  0  0
    4.2209   30.7458   33.6952 H   0  0  0  0  0
    5.0162   31.6765   35.4760 H   0  0  0  0  0
    6.1709   30.2810   35.6807 H   0  0  0  0  0
    4.7667   30.8766   37.6577 H   0  0  0  0  0
    4.6517   29.1488   37.0558 H   0  0  0  0  0
    2.5371   29.4559   36.2678 H   0  0  0  0  0
    2.6782   31.2809   36.3627 H   0  0  0  0  0
    2.7158   29.5427   38.7952 H   0  0  0  0  0
    1.1609   30.1007   38.0217 H   0  0  0  0  0
    0.5882   32.4560   37.9791 H   0  0  0  0  0
    4.0625   31.0516   40.0516 H   0  0  0  0  0
    4.2447   33.2156   41.2165 H   0  0  0  0  0
    2.6109   35.0113   40.7687 H   0  0  0  0  0
    2.1219   36.2538   39.0325 H   0  0  0  0  0
   -0.7247   37.3952   38.7938 H   0  0  0  0  0
    2.6251   37.1908   36.8484 H   0  0  0  0  0
    4.1276   38.2907   37.1597 H   0  0  0  0  0
    2.8167   40.0049   39.8441 H   0  0  0  0  0
    4.5719   41.0713   38.7882 H   0  0  0  0  0
    2.0577   41.3408   37.2106 H   0  0  0  0  0
    2.4176   42.1931   38.7321 H   0  0  0  0  0
   -0.0097   41.9288   38.4237 H   0  0  0  0  0
   -0.3839   40.8770   40.4463 H   0  0  0  0  0
   -0.9353   39.6116   38.5843 H   0  0  0  0  0
   -0.0478   39.9832   37.0446 H   0  0  0  0  0
  2  1  1  0  0  0
  3  2  1  0  0  0
  4  3  1  0  0  0
  5  4  1  0  0  0
  6  5  1  0  0  0
  7  6  1  0  0  0
 22  7  1  0  0  0
  7 23  2  0  0  0
  9  8  1  0  0  0
  9 10  1  0  0  0
  9 11  1  0  0  0
 12  9  1  0  0  0
 13 12  1  0  0  0
 14 13  1  0  0  0
 15 14  1  0  0  0
 16 15  1  0  0  0
 17 16  1  0  0  0
 18 17  4  0  0  0
 17 19  4  0  0  0
 18 22  4  0  0  0
 19 20  4  0  0  0
 20 21  4  0  0  0
 21 22  4  0  0  0
 23 24  1  0  0  0
 24 25  2  0  0  0
 25 26  1  0  0  0
 25 33  1  0  0  0
 26 27  2  0  0  0
 26 28  1  0  0  0
 28 29  1  0  0  0
 28 30  1  0  0  0
 30 31  1  0  0  0
 31 32  1  0  0  0
 31 33  1  0  0  0
  1 34  1  0  0  0
  1 35  1  0  0  0
  1 36  1  0  0  0
  2 37  1  0  0  0
  2 38  1  0  0  0
  3 39  1  0  0  0
  3 40  1  0  0  0
  4 41  1  0  0  0
  4 42  1  0  0  0
  5 43  1  0  0  0
  5 44  1  0  0  0
  6 45  1  0  0  0
  6 46  1  0  0  0
  8 47  1  0  0  0
 10 48  1  0  0  0
 10 49  1  0  0  0
 10 50  1  0  0  0
 11 51  1  0  0  0
 11 52  1  0  0  0
 11 53  1  0  0  0
 12 54  1  0  0  0
 12 55  1  0  0  0
 13 56  1  0  0  0
 13 57  1  0  0  0
 14 58  1  0  0  0
 14 59  1  0  0  0
 15 60  1  0  0  0
 15 61  1  0  0  0
 16 62  1  0  0  0
 16 63  1  0  0  0
 18 64  1  0  0  0
 19 65  1  0  0  0
 20 66  1  0  0  0
 21 67  1  0  0  0
 23 68  1  0  0  0
 24 69  1  0  0  0
 27 70  1  0  0  0
 27 71  1  0  0  0
 28 72  1  0  0  0
 29 73  1  0  0  0
 30 74  1  0  0  0
 30 75  1  0  0  0
 31 76  1  0  0  0
 32 77  1  0  0  0
 33 78  1  0  0  0
 33 79  1  0  0  0
M  END
$$$$
