4hws_ligand
  -I-interpret- 

 48 50  0  0  0  0  0  0  0  0999 V2000
   24.2480  -37.7290  -18.3230 Cl  0  0  0  0  0
   22.8060  -37.8390  -17.3240 C   0  0  0  0  0
   21.6350  -37.6810  -17.9820 N   0  0  0  0  0
   22.9510  -38.0340  -15.9920 N   0  0  0  0  0
   21.8970  -38.0980  -15.2090 C   0  0  0  0  0
   22.0410  -38.2850  -13.8830 N   0  0  0  0  0
   20.5570  -37.9670  -15.8580 C   0  0  0  0  0
   20.4830  -37.7560  -17.3050 C   0  0  0  0  0
   19.2340  -37.6050  -17.9360 C   0  0  0  0  0
   19.3820  -38.0260  -15.1080 C   0  0  0  0  0
   18.1520  -37.9000  -15.7560 C   0  0  0  0  0
   18.0820  -37.6820  -17.1460 C   0  0  0  0  0
   16.7350  -37.4400  -17.7680 C   0  0  0  0  0
   15.5680  -37.6500  -17.0580 C   0  0  0  0  0
   16.6910  -36.8100  -19.0280 C   0  0  0  0  0
   15.4570  -36.5220  -19.6410 C   0  0  0  0  0
   14.2830  -36.7810  -18.9080 C   0  0  0  0  0
   14.3330  -37.3400  -17.6240 C   0  0  0  0  0
   12.9530  -37.6460  -16.8100 S   0  0  0  0  0
   12.4830  -38.9620  -17.1960 O   0  0  0  0  0
   13.1840  -37.5910  -15.4180 O   0  0  0  0  0
   11.8100  -36.6400  -17.2340 N   0  0  0  0  0
   11.8770  -35.3430  -16.9080 C   0  0  0  0  0
   12.8190  -34.8810  -16.2640 O   0  0  0  0  0
   10.7270  -34.4950  -17.3550 C   0  0  0  0  0
   10.3930  -33.4920  -16.3390 N   0  3  0  0  0
   11.0990  -33.7180  -18.6200 C   0  0  0  0  0
   11.0570  -34.6640  -19.8440 C   0  0  0  0  0
   10.1810  -32.6220  -18.7760 O   0  0  0  0  0
   22.9731  -38.3781  -13.4793 H   0  0  0  0  0
   21.2180  -38.3335  -13.2824 H   0  0  0  0  0
   19.1662  -37.4329  -19.0102 H   0  0  0  0  0
   19.4240  -38.1689  -14.0282 H   0  0  0  0  0
   17.2311  -37.9714  -15.1773 H   0  0  0  0  0
   15.6139  -38.0605  -16.0493 H   0  0  0  0  0
   17.6201  -36.5436  -19.5319 H   0  0  0  0  0
   15.4118  -36.1120  -20.6499 H   0  0  0  0  0
   13.3151  -36.5417  -19.3485 H   0  0  0  0  0
   11.0092  -36.9840  -17.7640 H   0  0  0  0  0
    9.8864  -35.1660  -17.5320 H   0  0  0  0  0
    9.6085  -32.9276  -16.6652 H   0  0  0  0  0
   10.1375  -33.9617  -15.4704 H   0  0  0  0  0
   11.2014  -32.8915  -16.1772 H   0  0  0  0  0
   12.1107  -33.3206  -18.5389 H   0  0  0  0  0
   11.7670  -35.4779  -19.6971 H   0  0  0  0  0
   10.0520  -35.0719  -19.9520 H   0  0  0  0  0
   11.3226  -34.1062  -20.7420 H   0  0  0  0  0
   10.4061  -32.1277  -19.5676 H   0  0  0  0  0
  1  2  1  0  0  0
  2  3  4  0  0  0
  2  4  4  0  0  0
  3  8  4  0  0  0
  4  5  4  0  0  0
  5  6  1  0  0  0
  5  7  4  0  0  0
  7  8  4  0  0  0
  7 10  4  0  0  0
  8  9  4  0  0  0
  9 12  4  0  0  0
 10 11  4  0  0  0
 11 12  4  0  0  0
 12 13  1  0  0  0
 13 14  4  0  0  0
 13 15  4  0  0  0
 14 18  4  0  0  0
 15 16  4  0  0  0
 16 17  4  0  0  0
 17 18  4  0  0  0
 18 19  1  0  0  0
 19 20  2  0  0  0
 19 21  2  0  0  0
 19 22  1  0  0  0
 22 23  1  0  0  0
 23 24  2  0  0  0
 23 25  1  0  0  0
 25 26  1  0  0  0
 25 27  1  0  0  0
 27 28  1  0  0  0
 27 29  1  0  0  0
  6 30  1  0  0  0
  6 31  1  0  0  0
  9 32  1  0  0  0
 10 33  1  0  0  0
 11 34  1  0  0  0
 14 35  1  0  0  0
 15 36  1  0  0  0
 16 37  1  0  0  0
 17 38  1  0  0  0
 22 39  1  0  0  0
 25 40  1  0  0  0
 26 41  1  0  0  0
 26 42  1  0  0  0
 26 43  1  0  0  0
 27 44  1  0  0  0
 28 45  1  0  0  0
 28 46  1  0  0  0
 28 47  1  0  0  0
 29 48  1  0  0  0
M  END
$$$$
