3kjd_ligand
  -I-interpret- 

 34 36  0  0  0  0  0  0  0  0999 V2000
   -4.5300   34.2590   39.6100 C   0  0  0  0  0
   -4.6280   33.8220   40.9280 C   0  0  0  0  0
   -5.8530   33.3540   41.4120 C   0  0  0  0  0
   -4.0360   34.9800   37.6590 C   0  0  0  0  0
   -3.4220   33.8050   41.8730 C   0  0  0  0  0
   -3.2780   35.6020   36.4930 C   0  0  0  0  0
   -1.8020   37.1720   37.5010 C   0  0  0  0  0
   -3.8660   36.9730   36.2380 C   0  0  0  0  0
   -6.9920   33.3350   40.6080 C   0  0  0  0  0
   -6.8770   33.7760   39.3110 C   0  0  0  0  0
   -5.6620   34.2220   38.8080 C   0  0  0  0  0
   -5.3070   34.6570   37.6020 N   0  0  0  0  0
   -3.5280   34.7750   38.8550 N   0  0  0  0  0
   -2.2780   34.2350   41.3790 N   0  0  0  0  0
   -3.5000   33.3150   42.9960 O   0  0  0  0  0
   -1.8660   35.8350   36.8740 N   0  3  0  0  0
   -3.1210   37.8940   37.1790 C   0  0  0  0  0
   -3.4370   34.7970   35.2110 C   0  0  0  0  0
   -5.9192   32.9964   42.4395 H   0  0  0  0  0
   -0.9533   37.7356   37.1135 H   0  0  0  0  0
   -1.6686   37.0826   38.5791 H   0  0  0  0  0
   -4.9410   36.9932   36.4169 H   0  0  0  0  0
   -3.7512   37.2767   35.1975 H   0  0  0  0  0
   -7.9466   32.9805   40.9968 H   0  0  0  0  0
   -7.7555   33.7756   38.6658 H   0  0  0  0  0
   -1.4247   34.1654   41.9335 H   0  0  0  0  0
   -2.2461   34.6373   40.4422 H   0  0  0  0  0
   -1.2595   35.7912   36.0551 H   0  0  0  0  0
   -1.5442   35.1166   37.5227 H   0  0  0  0  0
   -2.9425   38.8691   36.7257 H   0  0  0  0  0
   -3.6977   38.0943   38.0820 H   0  0  0  0  0
   -4.4951   34.7200   34.9607 H   0  0  0  0  0
   -2.9062   35.2974   34.4011 H   0  0  0  0  0
   -3.0232   33.7991   35.3564 H   0  0  0  0  0
  1  2  4  0  0  0
  1 11  4  0  0  0
 13  1  4  0  0  0
  2  3  4  0  0  0
  2  5  1  0  0  0
  3  9  4  0  0  0
  4  6  1  0  0  0
  4 12  4  0  0  0
  4 13  4  0  0  0
  5 14  1  0  0  0
  5 15  2  0  0  0
  6  8  1  0  0  0
  6 16  1  0  0  0
  6 18  1  0  0  0
 16  7  1  0  0  0
  7 17  1  0  0  0
  8 17  1  0  0  0
  9 10  4  0  0  0
 10 11  4  0  0  0
 11 12  4  0  0  0
  3 19  1  0  0  0
  7 20  1  0  0  0
  7 21  1  0  0  0
  8 22  1  0  0  0
  8 23  1  0  0  0
  9 24  1  0  0  0
 10 25  1  0  0  0
 14 26  1  0  0  0
 14 27  1  0  0  0
 16 28  1  0  0  0
 16 29  1  0  0  0
 17 30  1  0  0  0
 17 31  1  0  0  0
 18 32  1  0  0  0
 18 33  1  0  0  0
 18 34  1  0  0  0
M  END
$$$$
