### 
### Created by X-TOOL on Mon Aug  2 16:12:52 2021
### 

@<TRIPOS>MOLECULE
6d18_ligand
   29    30     1     0     0
SMALL
GAST_HUCK


@<TRIPOS>ATOM
      1 C01        24.5180   15.6410    5.3160 C.3       1 GTV        -0.0322
      2 C02        23.3980   16.2980    6.1580 C.ar      1 GTV        -0.0542
      3 C03        23.5030   16.3390    7.4870 C.ar      1 GTV        -0.0618
      4 C04        22.5260   16.8960    8.2480 C.ar      1 GTV        -0.0400
      5 C05        22.7870   16.8640    9.7150 C.3       1 GTV        -0.0303
      6 C06        21.3740   17.4700    7.6330 C.ar      1 GTV         0.0312
      7 C07        20.2700   18.1290    8.2760 C.2       1 GTV        -0.0129
      8 C08        20.1670   18.3750    9.7370 C.3       1 GTV         0.0582
      9 C13        19.2610   18.6150    7.4880 C.2       1 GTV         0.0067
     10 C14        19.2250   18.4330    6.1550 C.2       1 GTV         0.2434
     11 C17        21.2870   17.4160    6.2990 C.ar      1 GTV         0.1312
     12 C18        22.3110   16.8280    5.5410 C.ar      1 GTV        -0.0257
     13 O10        19.1440   17.3890   11.8610 O.co2     1 GTV        -0.5604
     14 O11        19.5740   15.7320   10.3530 O.co2     1 GTV        -0.5604
     15 O12        17.6100   17.3670   10.1360 O.co2     1 GTV        -0.5604
     16 O15        18.3840   18.7070    5.4620 O.2       1 GTV        -0.3890
     17 O16        20.2810   17.8870    5.5930 O.3       1 GTV        -0.2177
     18 P09        19.0270   17.1640   10.6270 P.3       1 GTV         0.0732
     19 H1         25.3099   15.2713    5.9840 H         1 GTV         0.0401
     20 H2         24.9399   16.3841    4.6234 H         1 GTV         0.0401
     21 H3         24.1003   14.8006    4.7422 H         1 GTV         0.0401
     22 H4         24.3810   15.9216    7.9666 H         1 GTV         0.0434
     23 H5         23.7470   16.3619    9.9057 H         1 GTV         0.0406
     24 H6         21.9789   16.3138   10.2193 H         1 GTV         0.0406
     25 H7         22.8278   17.8926   10.1027 H         1 GTV         0.0406
     26 H8         19.7817   19.3936    9.8920 H         1 GTV         0.0656
     27 H9         21.1725   18.2926   10.1755 H         1 GTV         0.0656
     28 H10        18.4533   19.1725    7.9600 H         1 GTV         0.0396
     29 H11        22.2340   16.7969    4.4602 H         1 GTV         0.0449
@<TRIPOS>BOND
     1    1    2 1  
     2    2    3 ar 
     3    2   12 ar 
     4    3    4 ar 
     5    4    5 1  
     6    4    6 ar 
     7    6    7 1  
     8    6   11 ar 
     9    7    8 1  
    10    7    9 2  
    11    8   18 1  
    12    9   10 1  
    13   10   16 2  
    14   10   17 1  
    15   11   12 ar 
    16   11   17 1  
    17   18   13 ar 
    18   18   14 ar 
    19   18   15 ar 
    20    1   19 1  
    21    1   20 1  
    22    1   21 1  
    23    3   22 1  
    24    5   23 1  
    25    5   24 1  
    26    5   25 1  
    27    8   26 1  
    28    8   27 1  
    29    9   28 1  
    30   12   29 1  
@<TRIPOS>SUBSTRUCTURE
     1 GTV         1

