6d18_ligand
  -I-interpret- 

 31 32  0  0  0  0  0  0  0  0999 V2000
   24.5180   15.6410    5.3160 C   0  0  0  0  0
   23.3980   16.2980    6.1580 C   0  0  0  0  0
   23.5030   16.3390    7.4870 C   0  0  0  0  0
   22.5260   16.8960    8.2480 C   0  0  0  0  0
   22.7870   16.8640    9.7150 C   0  0  0  0  0
   21.3740   17.4700    7.6330 C   0  0  0  0  0
   20.2700   18.1290    8.2760 C   0  0  0  0  0
   20.1670   18.3750    9.7370 C   0  0  0  0  0
   19.2610   18.6150    7.4880 C   0  0  0  0  0
   19.2250   18.4330    6.1550 C   0  0  0  0  0
   21.2870   17.4160    6.2990 C   0  0  0  0  0
   22.3110   16.8280    5.5410 C   0  0  0  0  0
   19.1440   17.3890   11.8610 O   0  0  0  0  0
   19.5740   15.7320   10.3530 O   0  0  0  0  0
   17.6100   17.3670   10.1360 O   0  0  0  0  0
   18.3840   18.7070    5.4620 O   0  0  0  0  0
   20.2810   17.8870    5.5930 O   0  0  0  0  0
   19.0270   17.1640   10.6270 P   0  0  0  0  0
   25.4577   16.1646    5.4919 H   0  0  0  0  0
   24.6232   14.5956    5.6062 H   0  0  0  0  0
   24.2591   15.7016    4.2589 H   0  0  0  0  0
   24.3858   15.9193    7.9692 H   0  0  0  0  0
   22.8913   15.8294   10.0417 H   0  0  0  0  0
   23.7059   17.4090    9.9312 H   0  0  0  0  0
   21.9541   17.3303   10.2412 H   0  0  0  0  0
   19.7526   19.3740    9.8721 H   0  0  0  0  0
   21.1646   18.2563   10.1599 H   0  0  0  0  0
   18.4526   19.1730    7.9605 H   0  0  0  0  0
   22.2336   16.7967    4.4542 H   0  0  0  0  0
   19.4963   15.5347    9.4167 H   0  0  0  0  0
   17.5697   17.1848    9.1943 H   0  0  0  0  0
  1  2  1  0  0  0
  2  3  4  0  0  0
  2 12  4  0  0  0
  3  4  4  0  0  0
  4  5  1  0  0  0
  4  6  4  0  0  0
  6  7  1  0  0  0
  6 11  4  0  0  0
  7  8  1  0  0  0
  7  9  2  0  0  0
  8 18  1  0  0  0
  9 10  1  0  0  0
 10 16  2  0  0  0
 10 17  1  0  0  0
 11 12  4  0  0  0
 11 17  1  0  0  0
 18 13  2  0  0  0
 18 14  1  0  0  0
 18 15  1  0  0  0
  1 19  1  0  0  0
  1 20  1  0  0  0
  1 21  1  0  0  0
  3 22  1  0  0  0
  5 23  1  0  0  0
  5 24  1  0  0  0
  5 25  1  0  0  0
  8 26  1  0  0  0
  8 27  1  0  0  0
  9 28  1  0  0  0
 12 29  1  0  0  0
 14 30  1  0  0  0
 15 31  1  0  0  0
M  END
$$$$
