2zoq_ligand
  -I-interpret- 

 33 35  0  0  0  0  0  0  0  0999 V2000
   26.7550    8.4290   14.9830 O   0  0  0  0  0
   27.6450    9.4940   15.0450 C   0  0  0  0  0
   28.9610    9.1890   15.7230 C   0  0  0  0  0
   28.8080    9.2050   17.1410 O   0  0  0  0  0
   29.7360    8.3050   17.6810 C   0  0  0  0  0
   29.0210    7.3310   18.4930 N   0  0  0  0  0
   27.8390    6.7360   18.2180 C   0  0  0  0  0
   27.4570    5.8550   19.2650 C   0  0  0  0  0
   28.5470    5.9440   20.2410 C   0  0  0  0  0
   28.9100    5.4230   21.4470 C   0  0  0  0  0
   30.0810    5.8620   21.9880 N   0  0  0  0  0
   30.8730    6.7620   21.4100 C   0  0  0  0  0
   30.5870    7.3120   20.2310 N   0  0  0  0  0
   29.4310    6.8810   19.6720 C   0  0  0  0  0
   28.1770    4.5120   22.1140 N   0  0  0  0  0
   30.4110    7.6340   16.4650 C   0  0  0  0  0
   31.4800    8.5240   16.1750 O   0  0  0  0  0
   29.4540    7.8250   15.2970 C   0  0  0  0  0
   30.1940    7.8960   14.0610 O   0  0  0  0  0
   25.7510    4.7200   19.3300 I   0  0  0  0  0
   25.9515    8.7103   14.5394 H   0  0  0  0  0
   27.1615   10.2739   15.6333 H   0  0  0  0  0
   27.8777    9.7696   14.0164 H   0  0  0  0  0
   29.6825    9.9521   15.4310 H   0  0  0  0  0
   30.4791    8.7834   18.3190 H   0  0  0  0  0
   27.2563    6.9091   17.3132 H   0  0  0  0  0
   31.7891    7.0599   21.9200 H   0  0  0  0  0
   27.2986    4.1760   21.7191 H   0  0  0  0  0
   28.5000    4.1577   23.0143 H   0  0  0  0  0
   30.6864    6.5918   16.6267 H   0  0  0  0  0
   32.1393    8.4679   16.8706 H   0  0  0  0  0
   28.6984    7.0598   15.1189 H   0  0  0  0  0
   29.5833    8.0164   13.3302 H   0  0  0  0  0
  1  2  1  0  0  0
  2  3  1  0  0  0
  3  4  1  0  0  0
  3 18  1  0  0  0
  4  5  1  0  0  0
  5  6  1  0  0  0
  5 16  1  0  0  0
  6  7  4  0  0  0
  6 14  4  0  0  0
  7  8  4  0  0  0
  8  9  4  0  0  0
  8 20  1  0  0  0
  9 10  4  0  0  0
  9 14  4  0  0  0
 10 11  4  0  0  0
 10 15  1  0  0  0
 11 12  4  0  0  0
 12 13  4  0  0  0
 13 14  4  0  0  0
 16 17  1  0  0  0
 16 18  1  0  0  0
 18 19  1  0  0  0
  1 21  1  0  0  0
  2 22  1  0  0  0
  2 23  1  0  0  0
  3 24  1  0  0  0
  5 25  1  0  0  0
  7 26  1  0  0  0
 12 27  1  0  0  0
 15 28  1  0  0  0
 15 29  1  0  0  0
 16 30  1  0  0  0
 17 31  1  0  0  0
 18 32  1  0  0  0
 19 33  1  0  0  0
M  END
$$$$
