### 
### Created by X-TOOL on Mon Aug  2 16:17:06 2021
### 

@<TRIPOS>MOLECULE
6me1_ligand
  134   134     1     0     0
SMALL
GAST_HUCK


@<TRIPOS>ATOM
      1 N          16.7050    0.0720   22.1310 N.4       1 ALA         0.2377
      2 CA         17.0990   -1.2820   22.5070 C.3       1 ALA         0.0621
      3 C          18.2660   -1.7690   21.6530 C.2       1 ALA         0.2264
      4 O          18.6520   -1.1210   20.6780 O.2       1 ALA        -0.3907
      5 CB         15.9060   -2.2440   22.3860 C.3       1 ALA        -0.0040
      6 N          18.8210   -2.9240   22.0280 N.am      1 ALA        -0.2608
      7 CA         19.9240   -3.5070   21.2720 C.3       1 ALA         0.1334
      8 C          19.4340   -3.9850   19.9080 C.2       1 ALA         0.2040
      9 O          18.2460   -4.2480   19.6960 O.2       1 ALA        -0.3944
     10 CB         20.5620   -4.6600   22.0610 C.3       1 ALA        -0.0063
     11 CG1        21.1560   -4.1450   23.3650 C.3       1 ALA        -0.0584
     12 CG2        19.5260   -5.7460   22.3300 C.3       1 ALA        -0.0584
     13 N          20.3760   -4.1200   18.9750 N.am      1 ALA        -0.2664
     14 CA         20.0460   -4.5340   17.6240 C.3       1 ALA         0.1201
     15 C          21.2270   -5.1680   16.9240 C.2       1 ALA         0.2007
     16 O          22.3770   -5.0430   17.3580 O.2       1 ALA        -0.3947
     17 N          20.9280   -5.8520   15.8150 N.am      1 ALA        -0.2640
     18 CA         21.9410   -6.5840   15.0620 C.3       1 ALA         0.1312
     19 C          21.9540   -6.2090   13.5850 C.2       1 ALA         0.2037
     20 O          22.4380   -6.9910   12.7610 O.2       1 ALA        -0.3944
     21 CB         21.7400   -8.0950   15.2080 C.3       1 ALA        -0.0101
     22 CG         22.4970   -8.7960   16.3330 C.3       1 ALA        -0.0425
     23 CD1        22.2730  -10.3000   16.2680 C.3       1 ALA        -0.0625
     24 CD2        23.9780   -8.4710   16.2570 C.3       1 ALA        -0.0625
     25 N          21.4300   -5.0450   13.2290 N.am      1 ALA        -0.2664
     26 CA         21.4790   -4.6080   11.8540 C.3       1 ALA         0.1201
     27 C          20.3390   -5.1520   11.0140 C.2       1 ALA         0.2007
     28 O          19.4070   -5.8060   11.4970 O.2       1 ALA        -0.3947
     29 N          20.4430   -4.8830    9.7150 N.am      1 ALA        -0.2642
     30 CA         19.3550   -5.1500    8.7880 C.3       1 ALA         0.1282
     31 C          19.1570   -6.6450    8.5670 C.2       1 ALA         0.2036
     32 O          20.0790   -7.4530    8.7140 O.2       1 ALA        -0.3944
     33 CB         19.6140   -4.4670    7.4460 C.3       1 ALA        -0.0244
     34 N          17.9250   -7.0000    8.2020 N.am      1 ALA        -0.2635
     35 CA         17.5410   -8.3560    7.8460 C.3       1 ALA         0.1333
     36 C          16.8120   -8.3030    6.5080 C.2       1 ALA         0.2043
     37 O          16.5220   -7.2320    5.9770 O.2       1 ALA        -0.3944
     38 CB         16.6570   -9.0150    8.9260 C.3       1 ALA        -0.0063
     39 CG1        17.4750   -9.3210   10.1740 C.3       1 ALA        -0.0584
     40 CG2        15.4790   -8.1130    9.2700 C.3       1 ALA        -0.0584
     41 N          16.5150   -9.4820    5.9680 N.am      1 ALA        -0.2619
     42 CA         15.8420   -9.5830    4.6780 C.3       1 ALA         0.1404
     43 C          14.3570   -9.2780    4.8480 C.2       1 ALA         0.2060
     44 O          13.6540   -9.9770    5.5840 O.2       1 ALA        -0.3942
     45 CB         16.0470  -10.9730    4.0780 C.3       1 ALA         0.0214
     46 CG         15.5050  -11.1220    2.6810 C.ar      1 ALA        -0.0386
     47 CD1        15.9880  -10.3320    1.6480 C.ar      1 ALA        -0.0601
     48 CD2        14.5250  -12.0590    2.4000 C.ar      1 ALA        -0.0601
     49 CE1        15.4950  -10.4670    0.3610 C.ar      1 ALA        -0.0686
     50 CE2        14.0290  -12.2020    1.1140 C.ar      1 ALA        -0.0686
     51 CZ         14.5140  -11.4040    0.0940 C.ar      1 ALA        -0.0687
     52 N          13.8830   -8.2370    4.1690 N.am      1 ALA        -0.2636
     53 CA         12.4960   -7.8050    4.2630 C.3       1 ALA         0.1312
     54 C          11.6590   -8.4220    3.1480 C.2       1 ALA         0.2031
     55 O          12.1720   -8.9610    2.1630 O.2       1 ALA        -0.3944
     56 CB         12.3960   -6.2760    4.2230 C.3       1 ALA        -0.0101
     57 CG         12.5440   -5.5340    5.5540 C.3       1 ALA        -0.0425
     58 CD1        12.4420   -4.0360    5.3350 C.3       1 ALA        -0.0625
     59 CD2        11.4910   -6.0000    6.5480 C.3       1 ALA        -0.0625
     60 N          10.3470   -8.3290    3.3200 N.am      1 ALA        -0.2722
     61 CA          9.4020   -8.9570    2.4190 C.3       1 ALA         0.0833
     62 C           8.1620   -9.3910    3.1730 C.2       1 ALA         0.0570
     63 O           7.3130  -10.0960    2.6350 O.co2     1 ALA        -0.5669
     64 OXT         7.9810   -9.0470    4.3370 O.co2     1 ALA        -0.5669
     65 H1         15.9342    0.3701   22.7082 H         1 ALA         0.2015
     66 H2         16.4240    0.0836   21.1630 H         1 ALA         0.2015
     67 H3         17.4845    0.6974   22.2622 H         1 ALA         0.2015
     68 H4         17.4248   -1.2659   23.5575 H         1 ALA         0.1095
     69 H5         16.2219   -3.2578   22.6730 H         1 ALA         0.0310
     70 H6         15.5459   -2.2527   21.3467 H         1 ALA         0.0310
     71 H7         15.0966   -1.9100   23.0517 H         1 ALA         0.0310
     72 H8         18.4755   -3.3963   22.8389 H         1 ALA         0.1885
     73 H9         20.6876   -2.7311   21.1140 H         1 ALA         0.0802
     74 H10        21.3725   -5.0927   21.4562 H         1 ALA         0.0343
     75 H11        21.6083   -4.9817   23.9175 H         1 ALA         0.0234
     76 H12        20.3620   -3.6895   23.9750 H         1 ALA         0.0234
     77 H13        21.9268   -3.3918   23.1446 H         1 ALA         0.0234
     78 H14        19.1116   -6.1020   21.3752 H         1 ALA         0.0234
     79 H15        18.7162   -5.3347   22.9505 H         1 ALA         0.0234
     80 H16        20.0028   -6.5848   22.8582 H         1 ALA         0.0234
     81 H17        21.3295   -3.9322   19.2107 H         1 ALA         0.1881
     82 H18        19.7242   -3.6523   17.0505 H         1 ALA         0.0763
     83 H19        19.2241   -5.2638   17.6665 H         1 ALA         0.0763
     84 H20        19.9817   -5.8623   15.4918 H         1 ALA         0.1883
     85 H21        22.9230   -6.3252   15.4848 H         1 ALA         0.0800
     86 H22        22.0480   -8.5624   14.2611 H         1 ALA         0.0315
     87 H23        20.6667   -8.2714   15.3719 H         1 ALA         0.0315
     88 H24        22.1098   -8.4286   17.2948 H         1 ALA         0.0298
     89 H25        22.8249  -10.7885   17.0846 H         1 ALA         0.0232
     90 H26        22.6331  -10.6829   15.3017 H         1 ALA         0.0232
     91 H27        21.1993  -10.5156   16.3708 H         1 ALA         0.0232
     92 H28        24.1171   -7.3809   16.3056 H         1 ALA         0.0232
     93 H29        24.3887   -8.8512   15.3100 H         1 ALA         0.0232
     94 H30        24.5013   -8.9453   17.1003 H         1 ALA         0.0232
     95 H31        20.9970   -4.4645   13.9186 H         1 ALA         0.1881
     96 H32        22.4293   -4.9443   11.4137 H         1 ALA         0.0763
     97 H33        21.4344   -3.5091   11.8344 H         1 ALA         0.0763
     98 H34        21.2924   -4.4865    9.3668 H         1 ALA         0.1883
     99 H35        18.4301   -4.7381    9.2180 H         1 ALA         0.0797
    100 H36        18.7815   -4.6803    6.7594 H         1 ALA         0.0277
    101 H37        20.5515   -4.8485    7.0152 H         1 ALA         0.0277
    102 H38        19.6954   -3.3805    7.5972 H         1 ALA         0.0277
    103 H39        17.2217   -6.2897    8.1712 H         1 ALA         0.1883
    104 H40        18.4521   -8.9620    7.7330 H         1 ALA         0.0802
    105 H41        16.2658   -9.9619    8.5256 H         1 ALA         0.0343
    106 H42        16.8283   -9.7894   10.9305 H         1 ALA         0.0234
    107 H43        17.8929   -8.3866   10.5768 H         1 ALA         0.0234
    108 H44        18.2944  -10.0080    9.9160 H         1 ALA         0.0234
    109 H45        14.9001   -7.9025    8.3587 H         1 ALA         0.0234
    110 H46        15.8516   -7.1689    9.6939 H         1 ALA         0.0234
    111 H47        14.8345   -8.6162   10.0057 H         1 ALA         0.0234
    112 H48        16.7590  -10.3188    6.4582 H         1 ALA         0.1885
    113 H49        16.2772   -8.8400    3.9935 H         1 ALA         0.0823
    114 H50        15.5435  -11.7068    4.7246 H         1 ALA         0.0474
    115 H51        17.1263  -11.1842    4.0548 H         1 ALA         0.0474
    116 H52        16.7611   -9.5997    1.8508 H         1 ALA         0.0557
    117 H53        14.1414  -12.6879    3.1952 H         1 ALA         0.0557
    118 H54        15.8775   -9.8392   -0.4356 H         1 ALA         0.0599
    119 H55        13.2613  -12.9390    0.9077 H         1 ALA         0.0599
    120 H56        14.1260  -11.5128   -0.9123 H         1 ALA         0.0559
    121 H57        14.5040   -7.7311    3.5703 H         1 ALA         0.1883
    122 H58        12.0941   -8.1509    5.2267 H         1 ALA         0.0800
    123 H59        11.4104   -6.0188    3.8077 H         1 ALA         0.0315
    124 H60        13.1847   -5.9095    3.5495 H         1 ALA         0.0315
    125 H61        13.5374   -5.7589    5.9694 H         1 ALA         0.0298
    126 H62        12.5500   -3.5164    6.2985 H         1 ALA         0.0232
    127 H63        11.4623   -3.7954    4.8965 H         1 ALA         0.0232
    128 H64        13.2398   -3.7102    4.6513 H         1 ALA         0.0232
    129 H65        11.5801   -7.0866    6.6940 H         1 ALA         0.0232
    130 H66        10.4896   -5.7632    6.1594 H         1 ALA         0.0232
    131 H67        11.6419   -5.4873    7.5094 H         1 ALA         0.0232
    132 H68         9.9981   -7.8074    4.0985 H         1 ALA         0.1873
    133 H69         9.8720   -9.8377    1.9570 H         1 ALA         0.0689
    134 H70         9.1170   -8.2398    1.6351 H         1 ALA         0.0689
@<TRIPOS>BOND
     1    1    2 1  
     2    2    3 1  
     3    2    5 1  
     4    3    4 2  
     5    3    6 am 
     6    6    7 1  
     7    7    8 1  
     8    7   10 1  
     9    8    9 2  
    10    8   13 am 
    11   10   11 1  
    12   10   12 1  
    13   13   14 1  
    14   14   15 1  
    15   15   16 2  
    16   15   17 am 
    17   17   18 1  
    18   18   19 1  
    19   18   21 1  
    20   19   20 2  
    21   19   25 am 
    22   21   22 1  
    23   22   23 1  
    24   22   24 1  
    25   25   26 1  
    26   26   27 1  
    27   27   28 2  
    28   27   29 am 
    29   29   30 1  
    30   30   31 1  
    31   30   33 1  
    32   31   32 2  
    33   31   34 am 
    34   34   35 1  
    35   35   36 1  
    36   35   38 1  
    37   36   37 2  
    38   36   41 am 
    39   38   39 1  
    40   38   40 1  
    41   41   42 1  
    42   42   43 1  
    43   42   45 1  
    44   43   44 2  
    45   43   52 am 
    46   45   46 1  
    47   46   47 ar 
    48   46   48 ar 
    49   47   49 ar 
    50   48   50 ar 
    51   49   51 ar 
    52   50   51 ar 
    53   52   53 1  
    54   53   54 1  
    55   53   56 1  
    56   54   55 2  
    57   54   60 am 
    58   56   57 1  
    59   57   58 1  
    60   57   59 1  
    61   60   61 1  
    62   61   62 1  
    63   62   63 ar 
    64   62   64 ar 
    65    1   65 1  
    66    1   66 1  
    67    1   67 1  
    68    2   68 1  
    69    5   69 1  
    70    5   70 1  
    71    5   71 1  
    72    6   72 1  
    73    7   73 1  
    74   10   74 1  
    75   11   75 1  
    76   11   76 1  
    77   11   77 1  
    78   12   78 1  
    79   12   79 1  
    80   12   80 1  
    81   13   81 1  
    82   14   82 1  
    83   14   83 1  
    84   17   84 1  
    85   18   85 1  
    86   21   86 1  
    87   21   87 1  
    88   22   88 1  
    89   23   89 1  
    90   23   90 1  
    91   23   91 1  
    92   24   92 1  
    93   24   93 1  
    94   24   94 1  
    95   25   95 1  
    96   26   96 1  
    97   26   97 1  
    98   29   98 1  
    99   30   99 1  
   100   33  100 1  
   101   33  101 1  
   102   33  102 1  
   103   34  103 1  
   104   35  104 1  
   105   38  105 1  
   106   39  106 1  
   107   39  107 1  
   108   39  108 1  
   109   40  109 1  
   110   40  110 1  
   111   40  111 1  
   112   41  112 1  
   113   42  113 1  
   114   45  114 1  
   115   45  115 1  
   116   47  116 1  
   117   48  117 1  
   118   49  118 1  
   119   50  119 1  
   120   51  120 1  
   121   52  121 1  
   122   53  122 1  
   123   56  123 1  
   124   56  124 1  
   125   57  125 1  
   126   58  126 1  
   127   58  127 1  
   128   58  128 1  
   129   59  129 1  
   130   59  130 1  
   131   59  131 1  
   132   60  132 1  
   133   61  133 1  
   134   61  134 1  
@<TRIPOS>SUBSTRUCTURE
     1 ALA         1

