6me1_ligand
  -I-interpret- 

135135  0  0  0  0  0  0  0  0999 V2000
   16.7050    0.0720   22.1310 N   0  3  0  0  0
   17.0990   -1.2820   22.5070 C   0  0  0  0  0
   18.2660   -1.7690   21.6530 C   0  0  0  0  0
   18.6520   -1.1210   20.6780 O   0  0  0  0  0
   15.9060   -2.2440   22.3860 C   0  0  0  0  0
   18.8210   -2.9240   22.0280 N   0  0  0  0  0
   19.9240   -3.5070   21.2720 C   0  0  0  0  0
   19.4340   -3.9850   19.9080 C   0  0  0  0  0
   18.2460   -4.2480   19.6960 O   0  0  0  0  0
   20.5620   -4.6600   22.0610 C   0  0  0  0  0
   21.1560   -4.1450   23.3650 C   0  0  0  0  0
   19.5260   -5.7460   22.3300 C   0  0  0  0  0
   20.3760   -4.1200   18.9750 N   0  0  0  0  0
   20.0460   -4.5340   17.6240 C   0  0  0  0  0
   21.2270   -5.1680   16.9240 C   0  0  0  0  0
   22.3770   -5.0430   17.3580 O   0  0  0  0  0
   20.9280   -5.8520   15.8150 N   0  0  0  0  0
   21.9410   -6.5840   15.0620 C   0  0  0  0  0
   21.9540   -6.2090   13.5850 C   0  0  0  0  0
   22.4380   -6.9910   12.7610 O   0  0  0  0  0
   21.7400   -8.0950   15.2080 C   0  0  0  0  0
   22.4970   -8.7960   16.3330 C   0  0  0  0  0
   22.2730  -10.3000   16.2680 C   0  0  0  0  0
   23.9780   -8.4710   16.2570 C   0  0  0  0  0
   21.4300   -5.0450   13.2290 N   0  0  0  0  0
   21.4790   -4.6080   11.8540 C   0  0  0  0  0
   20.3390   -5.1520   11.0140 C   0  0  0  0  0
   19.4070   -5.8060   11.4970 O   0  0  0  0  0
   20.4430   -4.8830    9.7150 N   0  0  0  0  0
   19.3550   -5.1500    8.7880 C   0  0  0  0  0
   19.1570   -6.6450    8.5670 C   0  0  0  0  0
   20.0790   -7.4530    8.7140 O   0  0  0  0  0
   19.6140   -4.4670    7.4460 C   0  0  0  0  0
   17.9250   -7.0000    8.2020 N   0  0  0  0  0
   17.5410   -8.3560    7.8460 C   0  0  0  0  0
   16.8120   -8.3030    6.5080 C   0  0  0  0  0
   16.5220   -7.2320    5.9770 O   0  0  0  0  0
   16.6570   -9.0150    8.9260 C   0  0  0  0  0
   17.4750   -9.3210   10.1740 C   0  0  0  0  0
   15.4790   -8.1130    9.2700 C   0  0  0  0  0
   16.5150   -9.4820    5.9680 N   0  0  0  0  0
   15.8420   -9.5830    4.6780 C   0  0  0  0  0
   14.3570   -9.2780    4.8480 C   0  0  0  0  0
   13.6540   -9.9770    5.5840 O   0  0  0  0  0
   16.0470  -10.9730    4.0780 C   0  0  0  0  0
   15.5050  -11.1220    2.6810 C   0  0  0  0  0
   15.9880  -10.3320    1.6480 C   0  0  0  0  0
   14.5250  -12.0590    2.4000 C   0  0  0  0  0
   15.4950  -10.4670    0.3610 C   0  0  0  0  0
   14.0290  -12.2020    1.1140 C   0  0  0  0  0
   14.5140  -11.4040    0.0940 C   0  0  0  0  0
   13.8830   -8.2370    4.1690 N   0  0  0  0  0
   12.4960   -7.8050    4.2630 C   0  0  0  0  0
   11.6590   -8.4220    3.1480 C   0  0  0  0  0
   12.1720   -8.9610    2.1630 O   0  0  0  0  0
   12.3960   -6.2760    4.2230 C   0  0  0  0  0
   12.5440   -5.5340    5.5540 C   0  0  0  0  0
   12.4420   -4.0360    5.3350 C   0  0  0  0  0
   11.4910   -6.0000    6.5480 C   0  0  0  0  0
   10.3470   -8.3290    3.3200 N   0  0  0  0  0
    9.4020   -8.9570    2.4190 C   0  0  0  0  0
    8.1620   -9.3910    3.1730 C   0  0  0  0  0
    7.3130  -10.0960    2.6350 O   0  0  0  0  0
    7.9810   -9.0470    4.3370 O   0  0  0  0  0
   17.5081    0.6949   22.2174 H   0  0  0  0  0
   16.3747    0.0731   21.1660 H   0  0  0  0  0
   15.9578    0.3910   22.7477 H   0  0  0  0  0
   17.4253   -1.2621   23.5468 H   0  0  0  0  0
   15.5868   -2.2958   21.3451 H   0  0  0  0  0
   16.2047   -3.2358   22.7255 H   0  0  0  0  0
   15.0836   -1.8801   23.0019 H   0  0  0  0  0
   18.4686   -3.4057   22.8551 H   0  0  0  0  0
   20.6851   -2.7431   21.1131 H   0  0  0  0  0
   21.3681   -5.0909   21.4672 H   0  0  0  0  0
   21.9195   -3.3988   23.1453 H   0  0  0  0  0
   20.3683   -3.6939   23.9684 H   0  0  0  0  0
   21.6039   -4.9749   23.9115 H   0  0  0  0  0
   18.7038   -5.3264   22.9098 H   0  0  0  0  0
   19.1464   -6.1270   21.3819 H   0  0  0  0  0
   19.9898   -6.5581   22.8899 H   0  0  0  0  0
   21.3486   -3.9284   19.2154 H   0  0  0  0  0
   19.7478   -3.6507   17.0592 H   0  0  0  0  0
   19.2450   -5.2713   17.6786 H   0  0  0  0  0
   19.9628   -5.8625   15.4853 H   0  0  0  0  0
   22.9054   -6.3019   15.4844 H   0  0  0  0  0
   22.1139   -8.5333   14.2827 H   0  0  0  0  0
   20.6825   -8.2317   15.4339 H   0  0  0  0  0
   22.1147   -8.4339   17.2873 H   0  0  0  0  0
   21.2087  -10.5123   16.3699 H   0  0  0  0  0
   22.6301  -10.6782   15.3101 H   0  0  0  0  0
   22.8203  -10.7829   17.0776 H   0  0  0  0  0
   24.3737   -8.8073   15.2987 H   0  0  0  0  0
   24.1177   -7.3941   16.3515 H   0  0  0  0  0
   24.5022   -8.9791   17.0664 H   0  0  0  0  0
   20.9884   -4.4529   13.9324 H   0  0  0  0  0
   22.4110   -4.9745   11.4236 H   0  0  0  0  0
   21.4032   -3.5206   11.8498 H   0  0  0  0  0
   21.3094   -4.4785    9.3599 H   0  0  0  0  0
   18.4459   -4.7458    9.2332 H   0  0  0  0  0
   19.6945   -3.3905    7.5972 H   0  0  0  0  0
   20.5431   -4.8459    7.0203 H   0  0  0  0  0
   18.7885   -4.6791    6.7665 H   0  0  0  0  0
   17.2077   -6.2755    8.1706 H   0  0  0  0  0
   18.4371   -8.9718    7.7696 H   0  0  0  0  0
   16.2710   -9.9541    8.5296 H   0  0  0  0  0
   18.2866  -10.0017    9.9170 H   0  0  0  0  0
   17.8886   -8.3944   10.5720 H   0  0  0  0  0
   16.8331   -9.7851   10.9228 H   0  0  0  0  0
   15.8506   -7.1602    9.6470 H   0  0  0  0  0
   14.8802   -7.9425    8.3753 H   0  0  0  0  0
   14.8662   -8.5930   10.0330 H   0  0  0  0  0
   16.7638  -10.3355    6.4680 H   0  0  0  0  0
   16.2721   -8.8538    3.9914 H   0  0  0  0  0
   15.5110  -11.6808    4.7104 H   0  0  0  0  0
   17.1216  -11.1491    4.0288 H   0  0  0  0  0
   16.7654   -9.5957    1.8520 H   0  0  0  0  0
   14.1392  -12.6914    3.1996 H   0  0  0  0  0
   15.8796   -9.8357   -0.4400 H   0  0  0  0  0
   13.2570  -12.9430    0.9065 H   0  0  0  0  0
   14.1239  -11.5134   -0.9179 H   0  0  0  0  0
   14.5164   -7.7210    3.5583 H   0  0  0  0  0
   12.1022   -8.1494    5.2192 H   0  0  0  0  0
   11.3896   -6.0530    3.8686 H   0  0  0  0  0
   13.2259   -5.9399    3.6014 H   0  0  0  0  0
   13.5270   -5.7593    5.9676 H   0  0  0  0  0
   13.2330   -3.7145    4.6574 H   0  0  0  0  0
   11.4709   -3.7989    4.9004 H   0  0  0  0  0
   12.5491   -3.5223    6.2904 H   0  0  0  0  0
   10.4984   -5.8038    6.1426 H   0  0  0  0  0
   11.6079   -7.0692    6.7246 H   0  0  0  0  0
   11.6148   -5.4597    7.4865 H   0  0  0  0  0
    9.9911   -7.7969    4.1141 H   0  0  0  0  0
    9.8689   -9.8332    1.9692 H   0  0  0  0  0
    9.1165   -8.2409    1.6484 H   0  0  0  0  0
    7.5819  -10.2871    1.7335 H   0  0  0  0  0
  1  2  1  0  0  0
  2  3  1  0  0  0
  2  5  1  0  0  0
  3  4  2  0  0  0
  3  6  1  0  0  0
  6  7  1  0  0  0
  7  8  1  0  0  0
  7 10  1  0  0  0
  8  9  2  0  0  0
  8 13  1  0  0  0
 10 11  1  0  0  0
 10 12  1  0  0  0
 13 14  1  0  0  0
 14 15  1  0  0  0
 15 16  2  0  0  0
 15 17  1  0  0  0
 17 18  1  0  0  0
 18 19  1  0  0  0
 18 21  1  0  0  0
 19 20  2  0  0  0
 19 25  1  0  0  0
 21 22  1  0  0  0
 22 23  1  0  0  0
 22 24  1  0  0  0
 25 26  1  0  0  0
 26 27  1  0  0  0
 27 28  2  0  0  0
 27 29  1  0  0  0
 29 30  1  0  0  0
 30 31  1  0  0  0
 30 33  1  0  0  0
 31 32  2  0  0  0
 31 34  1  0  0  0
 34 35  1  0  0  0
 35 36  1  0  0  0
 35 38  1  0  0  0
 36 37  2  0  0  0
 36 41  1  0  0  0
 38 39  1  0  0  0
 38 40  1  0  0  0
 41 42  1  0  0  0
 42 43  1  0  0  0
 42 45  1  0  0  0
 43 44  2  0  0  0
 43 52  1  0  0  0
 45 46  1  0  0  0
 46 47  4  0  0  0
 46 48  4  0  0  0
 47 49  4  0  0  0
 48 50  4  0  0  0
 49 51  4  0  0  0
 50 51  4  0  0  0
 52 53  1  0  0  0
 53 54  1  0  0  0
 53 56  1  0  0  0
 54 55  2  0  0  0
 54 60  1  0  0  0
 56 57  1  0  0  0
 57 58  1  0  0  0
 57 59  1  0  0  0
 60 61  1  0  0  0
 61 62  1  0  0  0
 62 63  1  0  0  0
 62 64  2  0  0  0
  1 65  1  0  0  0
  1 66  1  0  0  0
  1 67  1  0  0  0
  2 68  1  0  0  0
  5 69  1  0  0  0
  5 70  1  0  0  0
  5 71  1  0  0  0
  6 72  1  0  0  0
  7 73  1  0  0  0
 10 74  1  0  0  0
 11 75  1  0  0  0
 11 76  1  0  0  0
 11 77  1  0  0  0
 12 78  1  0  0  0
 12 79  1  0  0  0
 12 80  1  0  0  0
 13 81  1  0  0  0
 14 82  1  0  0  0
 14 83  1  0  0  0
 17 84  1  0  0  0
 18 85  1  0  0  0
 21 86  1  0  0  0
 21 87  1  0  0  0
 22 88  1  0  0  0
 23 89  1  0  0  0
 23 90  1  0  0  0
 23 91  1  0  0  0
 24 92  1  0  0  0
 24 93  1  0  0  0
 24 94  1  0  0  0
 25 95  1  0  0  0
 26 96  1  0  0  0
 26 97  1  0  0  0
 29 98  1  0  0  0
 30 99  1  0  0  0
 33100  1  0  0  0
 33101  1  0  0  0
 33102  1  0  0  0
 34103  1  0  0  0
 35104  1  0  0  0
 38105  1  0  0  0
 39106  1  0  0  0
 39107  1  0  0  0
 39108  1  0  0  0
 40109  1  0  0  0
 40110  1  0  0  0
 40111  1  0  0  0
 41112  1  0  0  0
 42113  1  0  0  0
 45114  1  0  0  0
 45115  1  0  0  0
 47116  1  0  0  0
 48117  1  0  0  0
 49118  1  0  0  0
 50119  1  0  0  0
 51120  1  0  0  0
 52121  1  0  0  0
 53122  1  0  0  0
 56123  1  0  0  0
 56124  1  0  0  0
 57125  1  0  0  0
 58126  1  0  0  0
 58127  1  0  0  0
 58128  1  0  0  0
 59129  1  0  0  0
 59130  1  0  0  0
 59131  1  0  0  0
 60132  1  0  0  0
 61133  1  0  0  0
 61134  1  0  0  0
 63135  1  0  0  0
M  END
$$$$
