4b7q_ligand
  -I-interpret- 

 45 45  0  0  0  0  0  0  0  0999 V2000
   26.7390   20.1080  -39.9700 C   0  0  0  0  0
   27.1130   18.9470  -39.6960 O   0  0  0  0  0
   27.5990   21.0150  -40.1590 O   0  0  0  0  0
   25.4070   20.4050  -40.0410 C   0  0  0  0  0
   24.5170   19.2330  -40.5010 C   0  0  0  0  0
   23.1250   19.6520  -40.6420 C   0  0  0  0  0
   22.9510   20.7200  -41.5440 C   0  0  0  0  0
   21.4620   21.1630  -41.5760 N   0  0  0  0  0
   20.5540   20.8030  -42.6440 C   0  0  0  0  0
   20.9310   20.1270  -43.5770 O   0  0  0  0  0
   19.1130   21.2540  -42.5970 C   0  0  0  0  0
   23.7770   21.8730  -41.2230 C   0  0  0  0  0
   25.1610   21.5280  -40.9960 O   0  0  0  0  0
   23.7100   22.8880  -42.3640 C   0  0  0  0  0
   24.3250   22.3900  -43.5130 O   0  0  0  0  0
   24.3450   24.2000  -41.9750 C   0  0  0  0  0
   23.6070   24.7980  -40.9790 O   0  0  0  0  0
   24.4450   25.1510  -43.1350 C   0  0  0  0  0
   23.2640   25.6690  -43.6700 O   0  0  0  0  0
   22.3190   18.4110  -41.0960 N   0  0  0  0  0
   20.9500   18.1190  -40.6420 C   0  0  0  0  0
   20.2820   17.1520  -41.2420 N   0  0  0  0  0
   20.3790   18.8410  -39.7000 N   0  0  0  0  0
   27.1526   21.8413  -40.3579 H   0  0  0  0  0
   25.1378   20.6663  -39.0176 H   0  0  0  0  0
   24.5686   18.4420  -39.7529 H   0  0  0  0  0
   24.8751   18.8828  -41.4691 H   0  0  0  0  0
   22.7712   20.0306  -39.6831 H   0  0  0  0  0
   23.2610   20.3483  -42.5207 H   0  0  0  0  0
   21.1080   21.7341  -40.8086 H   0  0  0  0  0
   18.8938   21.8580  -43.4774 H   0  0  0  0  0
   18.4607   20.3809  -42.5822 H   0  0  0  0  0
   18.9485   21.8474  -41.6976 H   0  0  0  0  0
   23.3815   22.2929  -40.2981 H   0  0  0  0  0
   22.6551   23.0642  -42.5745 H   0  0  0  0  0
   24.2698   23.0443  -44.2133 H   0  0  0  0  0
   25.3540   23.9764  -41.6285 H   0  0  0  0  0
   24.0159   25.6319  -40.7360 H   0  0  0  0  0
   24.8956   24.5728  -43.9416 H   0  0  0  0  0
   24.9889   26.0144  -42.7517 H   0  0  0  0  0
   23.4751   26.2570  -44.3989 H   0  0  0  0  0
   22.7608   17.7601  -41.7453 H   0  0  0  0  0
   19.3161   16.9590  -40.9772 H   0  0  0  0  0
   20.7316   16.5975  -41.9706 H   0  0  0  0  0
   20.8865   19.6162  -39.2734 H   0  0  0  0  0
  1  2  2  0  0  0
  1  3  1  0  0  0
  1  4  1  0  0  0
  4  5  1  0  0  0
  4 13  1  0  0  0
  5  6  1  0  0  0
  6  7  1  0  0  0
  6 20  1  0  0  0
  7  8  1  0  0  0
  7 12  1  0  0  0
  8  9  1  0  0  0
  9 10  2  0  0  0
  9 11  1  0  0  0
 12 13  1  0  0  0
 12 14  1  0  0  0
 14 15  1  0  0  0
 14 16  1  0  0  0
 16 17  1  0  0  0
 16 18  1  0  0  0
 18 19  1  0  0  0
 20 21  1  0  0  0
 21 22  1  0  0  0
 21 23  2  0  0  0
  3 24  1  0  0  0
  4 25  1  0  0  0
  5 26  1  0  0  0
  5 27  1  0  0  0
  6 28  1  0  0  0
  7 29  1  0  0  0
  8 30  1  0  0  0
 11 31  1  0  0  0
 11 32  1  0  0  0
 11 33  1  0  0  0
 12 34  1  0  0  0
 14 35  1  0  0  0
 15 36  1  0  0  0
 16 37  1  0  0  0
 17 38  1  0  0  0
 18 39  1  0  0  0
 18 40  1  0  0  0
 19 41  1  0  0  0
 20 42  1  0  0  0
 22 43  1  0  0  0
 22 44  1  0  0  0
 23 45  1  0  0  0
M  END
$$$$
