5u13_ligand
  -I-interpret- 

 34 36  0  0  0  0  0  0  0  0999 V2000
   10.3860    1.5700   23.7100 C   0  0  0  0  0
   10.1810    1.9890   22.5840 O   0  0  0  0  0
    8.4500   -0.0620   23.9330 N   0  0  0  0  0
    6.7910   -1.9300   25.2080 S   0  0  0  0  0
    4.7390   -4.4780   19.7030 C   0  0  0  0  0
    3.6930   -3.5930   19.4990 C   0  0  0  0  0
    3.4920   -2.5250   20.3430 C   0  0  0  0  0
    4.3390   -2.3360   21.3970 C   0  0  0  0  0
    2.4410   -5.0870   18.2200 C   0  0  0  0  0
    8.9730   -0.6750   26.0520 N   0  0  0  0  0
    9.5710    0.5920   24.3880 C   0  0  0  0  0
    7.2580   -3.8490   22.8650 O   0  0  0  0  0
   10.9210    0.6330   26.4480 N   0  0  0  0  0
    8.1220   -0.8130   24.9810 C   0  0  0  0  0
    2.7870   -3.7140   18.4480 O   0  0  0  0  0
    9.9090    0.2300   25.6700 C   0  0  0  0  0
   11.4310    1.9670   24.5300 N   0  0  0  0  0
   11.6730    1.5130   25.8510 C   0  0  0  0  0
   12.7670    2.0910   26.4690 N   0  0  0  0  0
    6.0010   -1.8620   23.6000 C   0  0  0  0  0
    6.3270   -3.0540   22.7260 C   0  0  0  0  0
    5.3860   -3.2180   21.6060 C   0  0  0  0  0
    5.5850   -4.2830   20.7640 C   0  0  0  0  0
    4.8878   -5.3202   19.0273 H   0  0  0  0  0
    2.6645   -1.8365   20.1718 H   0  0  0  0  0
    4.1915   -1.4931   22.0722 H   0  0  0  0  0
    3.3404   -5.6507   17.9724 H   0  0  0  0  0
    1.9880   -5.5006   19.1210 H   0  0  0  0  0
    1.7326   -5.1495   17.3940 H   0  0  0  0  0
   11.0838    0.2917   27.3953 H   0  0  0  0  0
   13.3256    2.7851   25.9724 H   0  0  0  0  0
    6.3639   -0.9693   23.0907 H   0  0  0  0  0
    4.9230   -1.8550   23.7611 H   0  0  0  0  0
    6.4123   -4.9711   20.9380 H   0  0  0  0  0
  1  2  2  0  0  0
 11  1  1  0  0  0
  1 17  1  0  0  0
  3 11  4  0  0  0
 14  3  4  0  0  0
  4 14  1  0  0  0
 20  4  1  0  0  0
  6  5  4  0  0  0
  5 23  4  0  0  0
  7  6  4  0  0  0
  6 15  1  0  0  0
  8  7  4  0  0  0
 22  8  4  0  0  0
 15  9  1  0  0  0
 14 10  4  0  0  0
 10 16  4  0  0  0
 16 11  4  0  0  0
 21 12  2  0  0  0
 16 13  1  0  0  0
 13 18  1  0  0  0
 18 17  4  0  0  0
 18 19  2  0  0  0
 21 20  1  0  0  0
 21 22  1  0  0  0
 22 23  4  0  0  0
  5 24  1  0  0  0
  7 25  1  0  0  0
  8 26  1  0  0  0
  9 27  1  0  0  0
  9 28  1  0  0  0
  9 29  1  0  0  0
 13 30  1  0  0  0
 19 31  1  0  0  0
 20 32  1  0  0  0
 20 33  1  0  0  0
 23 34  1  0  0  0
M  END
$$$$
