4zum_ligand
  -I-interpret- 

 40 39  0  0  0  0  0  0  0  0999 V2000
  -10.9610    0.4090  -28.1140 C   0  0  0  0  0
  -10.7140    1.3390  -26.9320 C   0  0  0  0  0
  -11.5800    2.5920  -27.0050 C   0  0  0  0  0
  -12.0470    4.7400  -25.7450 C   0  0  0  0  0
  -11.9790    5.5670  -27.0330 C   0  0  0  0  0
  -12.6560    6.9110  -26.7830 C   0  0  0  0  0
  -12.6940    7.7100  -28.0900 C   0  0  0  0  0
  -12.9810    9.1800  -27.7890 C   0  0  0  0  0
  -13.4420   10.0240  -28.9940 C   0  0  0  0  0
  -13.6520   11.4700  -28.5940 C   0  0  0  0  0
  -14.4840   11.5860  -27.5830 F   0  0  0  0  0
  -14.1470   12.1380  -29.6460 F   0  0  0  0  0
  -12.5270   12.0470  -28.2620 F   0  0  0  0  0
  -11.3340    3.4740  -25.8650 N   0  3  0  0  0
  -10.1590   -0.7930  -27.9400 N   0  3  0  0  0
  -12.4850    9.9720  -30.0320 O   0  0  0  0  0
  -14.6780    9.5370  -29.5360 O   0  0  0  0  0
  -10.6819    0.9084  -29.0418 H   0  0  0  0  0
  -12.0174    0.1447  -28.1618 H   0  0  0  0  0
   -9.6679    1.6446  -26.9499 H   0  0  0  0  0
  -10.9645    0.8028  -26.0166 H   0  0  0  0  0
  -12.6276    2.2914  -26.9918 H   0  0  0  0  0
  -11.3348    3.1308  -27.9202 H   0  0  0  0  0
  -13.0944    4.5209  -25.5376 H   0  0  0  0  0
  -11.5810    5.3172  -24.9464 H   0  0  0  0  0
  -12.4868    5.0396  -27.8405 H   0  0  0  0  0
  -10.9391    5.7224  -27.3204 H   0  0  0  0  0
  -12.0959    7.4674  -26.0314 H   0  0  0  0  0
  -13.6728    6.7466  -26.4262 H   0  0  0  0  0
  -13.4801    7.3133  -28.7324 H   0  0  0  0  0
  -11.7301    7.6262  -28.5920 H   0  0  0  0  0
  -12.0433    9.6159  -27.4442 H   0  0  0  0  0
  -13.7975    9.1962  -27.0671 H   0  0  0  0  0
  -10.3552    3.7441  -25.9619 H   0  0  0  0  0
  -11.6424    2.9334  -25.0569 H   0  0  0  0  0
  -10.3172   -1.4227  -28.7267 H   0  0  0  0  0
   -9.1720   -0.5388  -27.8996 H   0  0  0  0  0
  -10.4277   -1.2569  -27.0722 H   0  0  0  0  0
  -11.6413   10.2920  -29.7042 H   0  0  0  0  0
  -15.3548    9.5580  -28.8555 H   0  0  0  0  0
  2  1  1  0  0  0
  1 15  1  0  0  0
  3  2  1  0  0  0
 14  3  1  0  0  0
  4  5  1  0  0  0
  4 14  1  0  0  0
  5  6  1  0  0  0
  6  7  1  0  0  0
  7  8  1  0  0  0
  8  9  1  0  0  0
  9 10  1  0  0  0
  9 16  1  0  0  0
  9 17  1  0  0  0
 10 11  1  0  0  0
 10 12  1  0  0  0
 10 13  1  0  0  0
  1 18  1  0  0  0
  1 19  1  0  0  0
  2 20  1  0  0  0
  2 21  1  0  0  0
  3 22  1  0  0  0
  3 23  1  0  0  0
  4 24  1  0  0  0
  4 25  1  0  0  0
  5 26  1  0  0  0
  5 27  1  0  0  0
  6 28  1  0  0  0
  6 29  1  0  0  0
  7 30  1  0  0  0
  7 31  1  0  0  0
  8 32  1  0  0  0
  8 33  1  0  0  0
 14 34  1  0  0  0
 14 35  1  0  0  0
 15 36  1  0  0  0
 15 37  1  0  0  0
 15 38  1  0  0  0
 16 39  1  0  0  0
 17 40  1  0  0  0
M  END
$$$$
