2ow3_ligand
  -I-interpret- 

 74 80  0  0  0  0  0  0  0  0999 V2000
  -37.4230   -0.9260   74.6060 C   0  0  0  0  0
  -37.1510   -1.4660   73.2710 C   0  0  0  0  0
  -39.1660   -2.1010   74.0590 C   0  0  0  0  0
  -38.2320   -2.2000   72.9260 C   0  0  0  0  0
  -38.6120   -3.0230   71.7270 C   0  0  0  0  0
  -37.7540   -3.7970   70.9560 C   0  0  0  0  0
  -39.8630   -3.2070   71.1720 C   0  0  0  0  0
  -39.7800   -4.0330   70.0970 N   0  0  0  0  0
  -35.8740   -1.1670   72.5720 C   0  0  0  0  0
  -35.6740   -0.7390   71.2740 C   0  0  0  0  0
  -33.6960   -0.9520   72.1750 C   0  0  0  0  0
  -36.3840   -3.9890   71.0610 C   0  0  0  0  0
  -35.7450   -4.8090   70.1440 C   0  0  0  0  0
  -37.8550   -5.2320   69.0350 C   0  0  0  0  0
  -36.4770   -5.4320   69.1350 C   0  0  0  0  0
  -32.8620   -1.7450   74.6940 C   0  0  0  0  0
  -31.9270   -1.3860   73.7270 C   0  0  0  0  0
  -36.6630   -0.2130   75.2310 O   0  0  0  0  0
  -34.1300   -0.9760   68.5550 C   0  0  0  0  0
  -37.3180   -0.6450   67.7710 C   0  0  0  0  0
  -38.4480   -1.3310   67.4140 C   0  0  0  0  0
  -37.2570   -2.5440   65.7160 C   0  0  0  0  0
  -38.4590   -2.2870   66.3990 C   0  0  0  0  0
  -40.9830   -4.4150   69.3230 C   0  0  0  0  0
  -40.9610   -4.5520   67.7840 C   0  0  0  0  0
  -39.7710   -3.0000   66.0650 C   0  0  0  0  0
  -40.8500   -3.1560   67.1720 C   0  0  0  0  0
  -38.0070   -4.0700   63.6730 C   0  0  0  0  0
  -34.6160   -1.3050   73.1270 C   0  0  0  0  0
  -34.2200   -1.7100   74.3950 C   0  0  0  0  0
  -32.3390   -0.9840   72.4580 C   0  0  0  0  0
  -34.3450   -0.6050   71.0550 N   0  0  0  0  0
  -33.7090   -0.1610   69.8000 C   0  0  0  0  0
  -34.9030   -0.1300   67.5260 C   0  0  0  0  0
  -36.1440   -0.8830   67.1100 C   0  0  0  0  0
  -36.1260   -1.8260   66.0970 N   0  0  0  0  0
  -37.0670   -3.4740   64.6470 N   0  0  0  0  0
  -35.7220   -4.0060   64.3460 C   0  0  0  0  0
  -40.2540   -2.6260   74.1030 O   0  0  0  0  0
  -38.6550   -1.3280   75.0720 N   0  0  0  0  0
  -38.4880   -4.4050   69.9590 C   0  0  0  0  0
  -40.7831   -2.7552   71.5426 H   0  0  0  0  0
  -36.4592   -0.5412   70.5443 H   0  0  0  0  0
  -35.8174   -3.5014   71.8543 H   0  0  0  0  0
  -34.6686   -4.9667   70.2122 H   0  0  0  0  0
  -38.4276   -5.7167   68.2442 H   0  0  0  0  0
  -35.9704   -6.0795   68.4193 H   0  0  0  0  0
  -32.5299   -2.0535   75.6853 H   0  0  0  0  0
  -30.8637   -1.4197   73.9645 H   0  0  0  0  0
  -34.7855   -1.7810   68.8873 H   0  0  0  0  0
  -33.2241   -1.3442   68.0734 H   0  0  0  0  0
  -37.3536    0.0871   68.5778 H   0  0  0  0  0
  -39.3766   -1.1212   67.9448 H   0  0  0  0  0
  -41.6708   -3.5872   69.4956 H   0  0  0  0  0
  -41.1963   -5.4273   69.6662 H   0  0  0  0  0
  -41.8756   -5.0359   67.4413 H   0  0  0  0  0
  -40.1101   -5.1604   67.4776 H   0  0  0  0  0
  -39.4791   -4.0196   65.8133 H   0  0  0  0  0
  -40.2406   -2.3789   65.3022 H   0  0  0  0  0
  -40.5669   -2.4823   67.9808 H   0  0  0  0  0
  -41.8109   -2.9435   66.7033 H   0  0  0  0  0
  -38.7765   -4.6274   64.2070 H   0  0  0  0  0
  -38.4717   -3.2773   63.0866 H   0  0  0  0  0
  -37.4631   -4.7429   63.0101 H   0  0  0  0  0
  -34.9601   -1.9954   75.1426 H   0  0  0  0  0
  -31.6076   -0.6998   71.7014 H   0  0  0  0  0
  -34.0180    0.8703   69.6295 H   0  0  0  0  0
  -32.6334   -0.2898   69.9208 H   0  0  0  0  0
  -34.2749    0.0564   66.6549 H   0  0  0  0  0
  -35.1823    0.8259   67.9692 H   0  0  0  0  0
  -35.0547   -3.1818   64.0941 H   0  0  0  0  0
  -35.3373   -4.5328   65.2192 H   0  0  0  0  0
  -35.7852   -4.6945   63.5034 H   0  0  0  0  0
  -39.0894   -1.1025   75.9669 H   0  0  0  0  0
  2  1  1  0  0  0
  1 18  2  0  0  0
  1 40  1  0  0  0
  2  4  2  0  0  0
  9  2  1  0  0  0
  4  3  1  0  0  0
  3 39  2  0  0  0
  3 40  1  0  0  0
  4  5  1  0  0  0
  5  6  4  0  0  0
  5  7  4  0  0  0
  6 12  4  0  0  0
  6 41  4  0  0  0
  7  8  4  0  0  0
  8 24  1  0  0  0
  8 41  4  0  0  0
 10  9  4  0  0  0
 29  9  4  0  0  0
 32 10  4  0  0  0
 11 29  4  0  0  0
 11 31  4  0  0  0
 32 11  4  0  0  0
 12 13  4  0  0  0
 13 15  4  0  0  0
 14 15  4  0  0  0
 41 14  4  0  0  0
 17 16  4  0  0  0
 30 16  4  0  0  0
 31 17  4  0  0  0
 33 19  1  0  0  0
 19 34  1  0  0  0
 21 20  4  0  0  0
 20 35  4  0  0  0
 23 21  4  0  0  0
 23 22  4  0  0  0
 22 36  4  0  0  0
 22 37  1  0  0  0
 26 23  1  0  0  0
 24 25  1  0  0  0
 25 27  1  0  0  0
 27 26  1  0  0  0
 37 28  1  0  0  0
 29 30  4  0  0  0
 32 33  1  0  0  0
 34 35  1  0  0  0
 35 36  4  0  0  0
 37 38  1  0  0  0
  7 42  1  0  0  0
 10 43  1  0  0  0
 12 44  1  0  0  0
 13 45  1  0  0  0
 14 46  1  0  0  0
 15 47  1  0  0  0
 16 48  1  0  0  0
 17 49  1  0  0  0
 19 50  1  0  0  0
 19 51  1  0  0  0
 20 52  1  0  0  0
 21 53  1  0  0  0
 24 54  1  0  0  0
 24 55  1  0  0  0
 25 56  1  0  0  0
 25 57  1  0  0  0
 26 58  1  0  0  0
 26 59  1  0  0  0
 27 60  1  0  0  0
 27 61  1  0  0  0
 28 62  1  0  0  0
 28 63  1  0  0  0
 28 64  1  0  0  0
 30 65  1  0  0  0
 31 66  1  0  0  0
 33 67  1  0  0  0
 33 68  1  0  0  0
 34 69  1  0  0  0
 34 70  1  0  0  0
 38 71  1  0  0  0
 38 72  1  0  0  0
 38 73  1  0  0  0
 40 74  1  0  0  0
M  END
$$$$
