6ft9_ligand
  -I-interpret- 

 30 33  0  0  0  0  0  0  0  0999 V2000
   35.9590   29.9300   79.1190 C   0  0  0  0  0
   35.9340   30.9490   78.0710 C   0  0  0  0  0
   35.9450   30.6810   76.6020 C   0  0  0  0  0
   36.2940   29.1760   83.6640 N   0  0  0  0  0
   34.8360   30.9830   75.8190 C   0  0  0  0  0
   34.8720   30.7970   74.4440 C   0  0  0  0  0
   36.0070   30.3050   73.8370 C   0  0  0  0  0
   37.1110   29.9850   74.6060 C   0  0  0  0  0
   37.0820   30.1620   75.9790 C   0  0  0  0  0
   35.9160   32.1070   78.7770 C   0  0  0  0  0
   35.9330   30.6090   80.3560 C   0  0  0  0  0
   36.0550   29.8780   81.5400 C   0  0  0  0  0
   36.1070   30.2970   82.9490 C   0  0  0  0  0
   36.2000   33.7820   78.0430 Br  0  0  0  0  0
   35.8810   31.9540   80.1150 N   0  0  0  0  0
   36.0670   28.5450   79.0900 C   0  0  0  0  0
   36.1670   27.8330   80.2700 C   0  0  0  0  0
   36.1840   28.4970   81.4890 C   0  0  0  0  0
   36.0060   31.4250   83.4180 O   0  0  0  0  0
   36.3940   27.9660   82.8730 C   0  0  0  0  0
   36.3603   29.1761   84.6818 H   0  0  0  0  0
   33.9313   31.3688   76.2889 H   0  0  0  0  0
   33.9975   31.0415   73.8410 H   0  0  0  0  0
   36.0346   30.1687   72.7559 H   0  0  0  0  0
   38.0085   29.5915   74.1289 H   0  0  0  0  0
   37.9527   29.8944   76.5777 H   0  0  0  0  0
   36.0728   28.0194   78.1351 H   0  0  0  0  0
   36.2328   26.7453   80.2436 H   0  0  0  0  0
   35.6767   27.1968   83.1591 H   0  0  0  0  0
   37.3394   27.4385   82.9995 H   0  0  0  0  0
  1  2  4  0  0  0
 11  1  4  0  0  0
  1 16  4  0  0  0
  2  3  1  0  0  0
 10  2  4  0  0  0
  3  5  4  0  0  0
  3  9  4  0  0  0
 13  4  1  0  0  0
  4 20  1  0  0  0
  5  6  4  0  0  0
  6  7  4  0  0  0
  8  7  4  0  0  0
  9  8  4  0  0  0
 10 14  1  0  0  0
 15 10  4  0  0  0
 12 11  4  0  0  0
 11 15  4  0  0  0
 12 13  1  0  0  0
 12 18  4  0  0  0
 13 19  2  0  0  0
 16 17  4  0  0  0
 17 18  4  0  0  0
 18 20  1  0  0  0
  4 21  1  0  0  0
  5 22  1  0  0  0
  6 23  1  0  0  0
  7 24  1  0  0  0
  8 25  1  0  0  0
  9 26  1  0  0  0
 16 27  1  0  0  0
 17 28  1  0  0  0
 20 29  1  0  0  0
 20 30  1  0  0  0
M  END
$$$$
