4zbi_ligand
  -I-interpret- 

 52 56  0  0  0  0  0  0  0  0999 V2000
   -8.7400  -23.1740    8.8760 O   0  0  0  0  0
   -8.1630  -22.8940    7.7930 C   0  0  0  0  0
   -7.1030  -23.4850    7.5090 O   0  0  0  0  0
   -8.7570  -21.8540    6.8490 C   0  0  0  0  0
   -9.3750  -20.6850    7.2170 N   0  0  0  0  0
   -9.7670  -20.0430    6.1120 C   0  0  0  0  0
   -9.6300  -20.0820    8.5690 C   0  0  0  0  0
   -9.8850  -18.5530    8.5230 C   0  0  0  0  0
  -10.7520  -18.1020    7.3560 C   0  0  0  0  0
  -10.4210  -18.8310    6.0410 C   0  0  0  0  0
  -10.7580  -18.3100    4.7500 C   0  0  0  0  0
  -10.4280  -19.0390    3.5760 C   0  0  0  0  0
   -9.7550  -20.2740    3.6790 C   0  0  0  0  0
   -9.4240  -20.7650    4.9610 C   0  0  0  0  0
   -8.7670  -21.9460    5.4400 C   0  0  0  0  0
   -8.1860  -23.0770    4.6000 C   0  0  0  0  0
   -6.6800  -22.8930    4.4080 C   0  0  0  0  0
   -6.3510  -21.6510    3.5810 C   0  0  0  0  0
   -6.9540  -21.8330    2.3280 O   0  0  0  0  0
   -6.5920  -20.9200    1.3210 C   0  0  0  0  0
   -6.9550  -21.2020   -0.0050 C   0  0  0  0  0
   -7.6630  -22.3850   -0.2920 C   0  0  0  0  0
   -8.0370  -22.6870   -1.6010 C   0  0  0  0  0
   -7.7080  -21.8100   -2.6210 C   0  0  0  0  0
   -7.0100  -20.6420   -2.3350 C   0  0  0  0  0
   -6.6300  -20.3310   -1.0180 C   0  0  0  0  0
   -5.9240  -19.1430   -0.7360 C   0  0  0  0  0
   -5.5560  -18.8670    0.5730 C   0  0  0  0  0
   -5.8930  -19.7500    1.5990 C   0  0  0  0  0
   -9.5368  -22.6450    8.9588 H   0  0  0  0  0
   -8.7403  -20.2487    9.1763 H   0  0  0  0  0
  -10.5255  -20.5525    8.9751 H   0  0  0  0  0
   -8.9155  -18.0677    8.4107 H   0  0  0  0  0
  -10.4129  -18.2865    9.4386 H   0  0  0  0  0
  -10.5706  -17.0386    7.2000 H   0  0  0  0  0
  -11.7886  -18.3263    7.6073 H   0  0  0  0  0
  -11.2694  -17.3509    4.6680 H   0  0  0  0  0
  -10.6950  -18.6438    2.5959 H   0  0  0  0  0
   -9.4948  -20.8398    2.7845 H   0  0  0  0  0
   -8.6680  -23.0719    3.6224 H   0  0  0  0  0
   -8.3618  -24.0222    5.1136 H   0  0  0  0  0
   -6.2967  -23.7648    3.8777 H   0  0  0  0  0
   -6.2246  -22.7760    5.3914 H   0  0  0  0  0
   -5.2731  -21.5249    3.4798 H   0  0  0  0  0
   -6.7256  -20.7497    4.0662 H   0  0  0  0  0
   -7.9208  -23.0702    0.5156 H   0  0  0  0  0
   -8.5831  -23.6047   -1.8193 H   0  0  0  0  0
   -7.9962  -22.0353   -3.6478 H   0  0  0  0  0
   -6.7538  -19.9577   -3.1438 H   0  0  0  0  0
   -5.6703  -18.4493   -1.5376 H   0  0  0  0  0
   -5.0014  -17.9566    0.8005 H   0  0  0  0  0
   -5.6066  -19.5215    2.6256 H   0  0  0  0  0
  1  2  1  0  0  0
  2  3  2  0  0  0
  2  4  1  0  0  0
  4  5  4  0  0  0
  4 15  4  0  0  0
  5  6  4  0  0  0
  5  7  1  0  0  0
  6 10  4  0  0  0
  6 14  4  0  0  0
  7  8  1  0  0  0
  8  9  1  0  0  0
  9 10  1  0  0  0
 10 11  4  0  0  0
 11 12  4  0  0  0
 12 13  4  0  0  0
 13 14  4  0  0  0
 14 15  4  0  0  0
 15 16  1  0  0  0
 16 17  1  0  0  0
 17 18  1  0  0  0
 18 19  1  0  0  0
 19 20  1  0  0  0
 20 21  4  0  0  0
 20 29  4  0  0  0
 21 22  4  0  0  0
 21 26  4  0  0  0
 22 23  4  0  0  0
 23 24  4  0  0  0
 24 25  4  0  0  0
 25 26  4  0  0  0
 26 27  4  0  0  0
 27 28  4  0  0  0
 28 29  4  0  0  0
  1 30  1  0  0  0
  7 31  1  0  0  0
  7 32  1  0  0  0
  8 33  1  0  0  0
  8 34  1  0  0  0
  9 35  1  0  0  0
  9 36  1  0  0  0
 11 37  1  0  0  0
 12 38  1  0  0  0
 13 39  1  0  0  0
 16 40  1  0  0  0
 16 41  1  0  0  0
 17 42  1  0  0  0
 17 43  1  0  0  0
 18 44  1  0  0  0
 18 45  1  0  0  0
 22 46  1  0  0  0
 23 47  1  0  0  0
 24 48  1  0  0  0
 25 49  1  0  0  0
 27 50  1  0  0  0
 28 51  1  0  0  0
 29 52  1  0  0  0
M  END
$$$$
