3m8q_ligand
  -I-interpret- 

 65 68  0  0  0  0  0  0  0  0999 V2000
   47.0640   62.6010   17.1410 O   0  0  0  0  0
   47.5350   62.2890   15.8800 C   0  0  0  0  0
   48.7320   62.8470   15.3710 N   0  0  0  0  0
   48.5990   61.6920   13.2100 N   0  0  0  0  0
   47.4070   61.1020   13.6790 C   0  0  0  0  0
   49.2650   62.5910   14.1000 C   0  0  0  0  0
   46.8480   61.3950   15.0290 C   0  0  0  0  0
   47.8630   63.3860   18.0110 C   0  0  0  0  0
   47.9590   64.8070   17.7580 C   0  0  0  0  0
   48.7900   65.6280   18.6130 C   0  0  0  0  0
   49.4990   65.0310   19.7340 C   0  0  0  0  0
   49.3860   63.5930   19.9980 C   0  0  0  0  0
   48.5890   62.8170   19.1300 C   0  0  0  0  0
   48.5800   61.3570   19.4720 C   0  0  0  0  0
   47.2110   65.5320   16.6070 C   0  0  0  0  0
   50.2820   65.9280   20.5330 C   0  0  0  0  0
   50.4310   63.2040   13.7160 N   0  0  0  0  0
   51.3200   63.7750   14.6750 C   0  0  0  0  0
   52.7380   63.6800   14.1190 C   0  0  0  0  0
   53.5630   64.4980   15.0630 C   0  0  0  0  0
   53.1900   65.9110   15.0240 N   0  3  0  0  0
   51.8770   66.0280   15.7000 C   0  0  0  0  0
   50.7880   65.2540   14.8930 C   0  0  0  0  0
   50.9040   66.6410   21.1680 N   0  0  0  0  0
   54.2340   66.6740   15.7090 C   0  0  0  0  0
   54.0390   68.1930   15.5180 C   0  0  0  0  0
   54.5230   69.0390   16.5670 C   0  0  0  0  0
   54.3230   70.4360   16.3760 C   0  0  0  0  0
   53.6670   71.0650   15.2100 C   0  0  0  0  0
   53.1770   70.1840   14.1280 C   0  0  0  0  0
   53.3660   68.7850   14.2870 C   0  0  0  0  0
   53.4770   72.9010   15.1240 S   0  0  0  0  0
   54.2460   73.0980   13.9170 O   0  0  0  0  0
   52.0440   73.1550   14.9050 O   0  0  0  0  0
   54.4740   73.4980   16.5370 C   0  0  0  0  0
   46.8750   60.4061   13.0302 H   0  0  0  0  0
   45.9203   60.9252   15.3558 H   0  0  0  0  0
   48.8846   66.6959   18.4163 H   0  0  0  0  0
   49.9035   63.1362   20.8416 H   0  0  0  0  0
   47.5580   61.0402   19.6802 H   0  0  0  0  0
   48.9747   60.7859   18.6317 H   0  0  0  0  0
   49.2007   61.1874   20.3518 H   0  0  0  0  0
   47.5226   65.1111   15.6511 H   0  0  0  0  0
   46.1366   65.3971   16.7319 H   0  0  0  0  0
   47.4505   66.5951   16.6327 H   0  0  0  0  0
   50.6671   63.2525   12.7249 H   0  0  0  0  0
   51.3513   63.2705   15.6407 H   0  0  0  0  0
   52.8020   64.0477   13.0949 H   0  0  0  0  0
   53.0861   62.6489   14.0586 H   0  0  0  0  0
   54.6088   64.4111   14.7682 H   0  0  0  0  0
   53.3960   64.1270   16.0742 H   0  0  0  0  0
   53.1079   66.2763   14.0752 H   0  0  0  0  0
   51.5978   67.0799   15.7601 H   0  0  0  0  0
   51.9506   65.6027   16.7009 H   0  0  0  0  0
   49.8441   65.2439   15.4379 H   0  0  0  0  0
   50.6060   65.7396   13.9342 H   0  0  0  0  0
   55.1998   66.3936   15.2886 H   0  0  0  0  0
   54.1836   66.4500   16.7745 H   0  0  0  0  0
   55.0131   68.6394   17.4548 H   0  0  0  0  0
   54.6861   71.1010   17.1596 H   0  0  0  0  0
   52.6896   70.5923   13.2426 H   0  0  0  0  0
   53.0179   68.1134   13.5022 H   0  0  0  0  0
   55.4048   72.9331   16.5877 H   0  0  0  0  0
   54.6967   74.5564   16.4015 H   0  0  0  0  0
   53.9124   73.3590   17.4608 H   0  0  0  0  0
  2  1  1  0  0  0
  1  8  1  0  0  0
  3  2  4  0  0  0
  2  7  4  0  0  0
  6  3  4  0  0  0
  4  5  4  0  0  0
  4  6  4  0  0  0
  5  7  4  0  0  0
  6 17  1  0  0  0
  8  9  4  0  0  0
  8 13  4  0  0  0
  9 10  4  0  0  0
  9 15  1  0  0  0
 10 11  4  0  0  0
 11 12  4  0  0  0
 11 16  1  0  0  0
 12 13  4  0  0  0
 13 14  1  0  0  0
 16 24  3  0  0  0
 17 18  1  0  0  0
 18 19  1  0  0  0
 18 23  1  0  0  0
 19 20  1  0  0  0
 20 21  1  0  0  0
 21 22  1  0  0  0
 21 25  1  0  0  0
 22 23  1  0  0  0
 25 26  1  0  0  0
 26 27  4  0  0  0
 26 31  4  0  0  0
 27 28  4  0  0  0
 28 29  4  0  0  0
 29 30  4  0  0  0
 29 32  1  0  0  0
 30 31  4  0  0  0
 32 33  2  0  0  0
 32 34  2  0  0  0
 32 35  1  0  0  0
  5 36  1  0  0  0
  7 37  1  0  0  0
 10 38  1  0  0  0
 12 39  1  0  0  0
 14 40  1  0  0  0
 14 41  1  0  0  0
 14 42  1  0  0  0
 15 43  1  0  0  0
 15 44  1  0  0  0
 15 45  1  0  0  0
 17 46  1  0  0  0
 18 47  1  0  0  0
 19 48  1  0  0  0
 19 49  1  0  0  0
 20 50  1  0  0  0
 20 51  1  0  0  0
 21 52  1  0  0  0
 22 53  1  0  0  0
 22 54  1  0  0  0
 23 55  1  0  0  0
 23 56  1  0  0  0
 25 57  1  0  0  0
 25 58  1  0  0  0
 27 59  1  0  0  0
 28 60  1  0  0  0
 30 61  1  0  0  0
 31 62  1  0  0  0
 35 63  1  0  0  0
 35 64  1  0  0  0
 35 65  1  0  0  0
M  END
$$$$
