### 
### Created by X-TOOL on Mon Sep 10 21:13:04 2018
### 

@<TRIPOS>MOLECULE
3m8q_ligand
   64    67     1     0     0
SMALL
GAST_HUCK


@<TRIPOS>ATOM
      1 O1         47.0640   62.6010   17.1410 O.3       1 DJZ        -0.2340
      2 C2         47.5350   62.2890   15.8800 C.ar      1 DJZ         0.1916
      3 N3         48.7320   62.8470   15.3710 N.ar      1 DJZ        -0.2261
      4 N4         48.5990   61.6920   13.2100 N.ar      1 DJZ        -0.2697
      5 C5         47.4070   61.1020   13.6790 C.ar      1 DJZ         0.0034
      6 C6         49.2650   62.5910   14.1000 C.ar      1 DJZ         0.1784
      7 C7         46.8480   61.3950   15.0290 C.ar      1 DJZ         0.0096
      8 C8         47.8630   63.3860   18.0110 C.ar      1 DJZ         0.1372
      9 C9         47.9590   64.8070   17.7580 C.ar      1 DJZ        -0.0047
     10 C10        48.7900   65.6280   18.6130 C.ar      1 DJZ        -0.0392
     11 C11        49.4990   65.0310   19.7340 C.ar      1 DJZ         0.0719
     12 C12        49.3860   63.5930   19.9980 C.ar      1 DJZ        -0.0392
     13 C13        48.5890   62.8170   19.1300 C.ar      1 DJZ        -0.0047
     14 C14        48.5800   61.3570   19.4720 C.3       1 DJZ        -0.0314
     15 C15        47.2110   65.5320   16.6070 C.3       1 DJZ        -0.0314
     16 C16        50.2820   65.9280   20.5330 C.1       1 DJZ         0.0862
     17 N17        50.4310   63.2040   13.7160 N.pl3     1 DJZ        -0.2887
     18 C18        51.3200   63.7750   14.6750 C.3       1 DJZ         0.0381
     19 C19        52.7380   63.6800   14.1190 C.3       1 DJZ        -0.0480
     20 C20        53.5630   64.4980   15.0630 C.3       1 DJZ        -0.1082
     21 N21        53.1900   65.9110   15.0240 N.4       1 DJZ         0.4081
     22 C22        51.8770   66.0280   15.7000 C.3       1 DJZ        -0.1082
     23 C23        50.7880   65.2540   14.8930 C.3       1 DJZ        -0.0480
     24 N24        50.9040   66.6410   21.1680 N.1       1 DJZ        -0.3367
     25 C25        54.2340   66.6740   15.7090 C.3       1 DJZ        -0.0763
     26 C26        54.0390   68.1930   15.5180 C.ar      1 DJZ        -0.0631
     27 C27        54.5230   69.0390   16.5670 C.ar      1 DJZ        -0.0605
     28 C28        54.3230   70.4360   16.3760 C.ar      1 DJZ        -0.0438
     29 C29        53.6670   71.0650   15.2100 C.ar      1 DJZ         0.0809
     30 C30        53.1770   70.1840   14.1280 C.ar      1 DJZ        -0.0438
     31 C31        53.3660   68.7850   14.2870 C.ar      1 DJZ        -0.0605
     32 S32        53.4770   72.9010   15.1240 S.o2      1 DJZ        -0.0088
     33 O33        54.2460   73.0980   13.9170 O.2       1 DJZ        -0.1705
     34 O34        52.0440   73.1550   14.9050 O.2       1 DJZ        -0.1705
     35 C35        54.4740   73.4980   16.5370 C.3       1 DJZ         0.0587
     36 H          46.8750   60.4061   13.0302 H         1 DJZ         0.0855
     37 H          45.9203   60.9252   15.3558 H         1 DJZ         0.0601
     38 H          48.8846   66.6959   18.4163 H         1 DJZ         0.0574
     39 H          49.9035   63.1362   20.8416 H         1 DJZ         0.0574
     40 H          49.5963   60.9666   19.4196 H         1 DJZ         0.0371
     41 H          48.1898   61.2239   20.4810 H         1 DJZ         0.0371
     42 H          47.9473   60.8230   18.7631 H         1 DJZ         0.0371
     43 H          47.5226   65.1111   15.6511 H         1 DJZ         0.0371
     44 H          46.1366   65.3971   16.7319 H         1 DJZ         0.0371
     45 H          47.4505   66.5951   16.6327 H         1 DJZ         0.0371
     46 H          50.6671   63.2525   12.7249 H         1 DJZ         0.1864
     47 H          51.3513   63.2705   15.6407 H         1 DJZ         0.0559
     48 H          52.8020   64.0477   13.0949 H         1 DJZ         0.0268
     49 H          53.0861   62.6489   14.0586 H         1 DJZ         0.0268
     50 H          54.6088   64.4111   14.7682 H         1 DJZ         0.0021
     51 H          53.3960   64.1270   16.0742 H         1 DJZ         0.0021
     52 H          51.5978   67.0799   15.7601 H         1 DJZ         0.0021
     53 H          51.9506   65.6027   16.7009 H         1 DJZ         0.0021
     54 H          49.8441   65.2439   15.4379 H         1 DJZ         0.0268
     55 H          50.6060   65.7396   13.9342 H         1 DJZ         0.0268
     56 H          55.1998   66.3936   15.2886 H         1 DJZ         0.0182
     57 H          54.1836   66.4500   16.7745 H         1 DJZ         0.0182
     58 H          55.0131   68.6394   17.4548 H         1 DJZ         0.0556
     59 H          54.6861   71.1010   17.1596 H         1 DJZ         0.0618
     60 H          52.6896   70.5923   13.2426 H         1 DJZ         0.0618
     61 H          53.0179   68.1134   13.5022 H         1 DJZ         0.0556
     62 H          55.4048   72.9331   16.5877 H         1 DJZ         0.0467
     63 H          54.6967   74.5564   16.4015 H         1 DJZ         0.0467
     64 H          53.9124   73.3590   17.4608 H         1 DJZ         0.0467
@<TRIPOS>BOND
     1    2    1 1  
     2    1    8 1  
     3    3    2 ar 
     4    2    7 ar 
     5    6    3 ar 
     6    4    5 ar 
     7    4    6 ar 
     8    5    7 ar 
     9    6   17 1  
    10    8    9 ar 
    11    8   13 ar 
    12    9   10 ar 
    13    9   15 1  
    14   10   11 ar 
    15   11   12 ar 
    16   11   16 1  
    17   12   13 ar 
    18   13   14 1  
    19   16   24 3  
    20   17   18 1  
    21   18   19 1  
    22   18   23 1  
    23   19   20 1  
    24   20   21 1  
    25   21   22 1  
    26   21   25 1  
    27   22   23 1  
    28   25   26 1  
    29   26   27 ar 
    30   26   31 ar 
    31   27   28 ar 
    32   28   29 ar 
    33   29   30 ar 
    34   29   32 1  
    35   30   31 ar 
    36   32   33 2  
    37   32   34 2  
    38   32   35 1  
    39    5   36 1  
    40    7   37 1  
    41   10   38 1  
    42   12   39 1  
    43   14   40 1  
    44   14   41 1  
    45   14   42 1  
    46   15   43 1  
    47   15   44 1  
    48   15   45 1  
    49   17   46 1  
    50   18   47 1  
    51   19   48 1  
    52   19   49 1  
    53   20   50 1  
    54   20   51 1  
    55   22   52 1  
    56   22   53 1  
    57   23   54 1  
    58   23   55 1  
    59   25   56 1  
    60   25   57 1  
    61   27   58 1  
    62   28   59 1  
    63   30   60 1  
    64   31   61 1  
    65   35   62 1  
    66   35   63 1  
    67   35   64 1  
@<TRIPOS>SUBSTRUCTURE
     1 DJZ         1

