5h21_ligand
  -I-interpret- 

 43 44  0  0  0  0  0  0  0  0999 V2000
  -22.8970   -6.0270   80.2290 C   0  0  0  0  0
  -23.0760   -7.0090   79.2760 C   0  0  0  0  0
  -22.0210   -7.4860   78.5110 C   0  0  0  0  0
  -20.7510   -6.9890   78.7320 C   0  0  0  0  0
  -20.5720   -6.0030   79.7030 C   0  0  0  0  0
  -21.6270   -5.5250   80.4370 C   0  0  0  0  0
  -24.4580   -7.5410   78.9860 C   0  0  0  0  0
  -24.5450   -8.5120   77.9180 N   0  0  0  0  0
  -25.8120   -9.0710   77.5010 C   0  0  0  0  0
  -25.8050   -9.0910   75.9700 C   0  0  0  0  0
  -25.0390   -7.8940   75.3930 C   0  0  0  0  0
  -25.5490   -6.1510   75.5750 S   0  0  0  0  0
  -24.7380   -5.6710   74.2280 C   0  0  0  0  0
  -23.7450   -6.7490   73.8190 C   0  0  0  0  0
  -23.9730   -8.0000   74.5650 C   0  0  0  0  0
  -21.3820   -4.5460   81.3970 O   0  0  0  0  0
  -22.4910   -4.0970   82.1240 C   0  0  0  0  0
  -19.3240   -5.4480   79.9510 O   0  0  0  0  0
  -18.6030   -6.2740   80.8010 C   0  0  0  0  0
  -19.6620   -7.4700   77.9830 O   0  0  0  0  0
  -19.9600   -8.4900   77.0690 C   0  0  0  0  0
  -25.4080   -7.1270   79.5610 O   0  0  0  0  0
  -23.7425   -5.6542   80.8072 H   0  0  0  0  0
  -22.1921   -8.2430   77.7456 H   0  0  0  0  0
  -23.6910   -8.8103   77.4467 H   0  0  0  0  0
  -26.6418   -8.4724   77.8767 H   0  0  0  0  0
  -25.9420  -10.0766   77.9009 H   0  0  0  0  0
  -26.8362   -9.0409   75.6203 H   0  0  0  0  0
  -25.3132  -10.0060   75.6399 H   0  0  0  0  0
  -24.2018   -4.7456   74.4385 H   0  0  0  0  0
  -25.4478   -5.5059   73.4174 H   0  0  0  0  0
  -22.7381   -6.3936   74.0379 H   0  0  0  0  0
  -23.8720   -6.9517   72.7556 H   0  0  0  0  0
  -23.3612   -8.8963   74.4629 H   0  0  0  0  0
  -23.2235   -3.6692   81.4396 H   0  0  0  0  0
  -22.9374   -4.9357   82.6582 H   0  0  0  0  0
  -22.1724   -3.3378   82.8383 H   0  0  0  0  0
  -19.1423   -6.3848   81.7417 H   0  0  0  0  0
  -18.4774   -7.2515   80.3354 H   0  0  0  0  0
  -17.6248   -5.8324   80.9913 H   0  0  0  0  0
  -20.3681   -9.3476   77.6039 H   0  0  0  0  0
  -20.6928   -8.1275   76.3481 H   0  0  0  0  0
  -19.0500   -8.7853   76.5467 H   0  0  0  0  0
  1  2  4  0  0  0
  1  6  4  0  0  0
  2  3  4  0  0  0
  2  7  1  0  0  0
  3  4  4  0  0  0
  4  5  4  0  0  0
  4 20  1  0  0  0
  5  6  4  0  0  0
  5 18  1  0  0  0
  6 16  1  0  0  0
  7  8  1  0  0  0
  7 22  2  0  0  0
  8  9  1  0  0  0
  9 10  1  0  0  0
 10 11  1  0  0  0
 11 12  1  0  0  0
 11 15  2  0  0  0
 12 13  1  0  0  0
 13 14  1  0  0  0
 14 15  1  0  0  0
 16 17  1  0  0  0
 18 19  1  0  0  0
 20 21  1  0  0  0
  1 23  1  0  0  0
  3 24  1  0  0  0
  8 25  1  0  0  0
  9 26  1  0  0  0
  9 27  1  0  0  0
 10 28  1  0  0  0
 10 29  1  0  0  0
 13 30  1  0  0  0
 13 31  1  0  0  0
 14 32  1  0  0  0
 14 33  1  0  0  0
 15 34  1  0  0  0
 17 35  1  0  0  0
 17 36  1  0  0  0
 17 37  1  0  0  0
 19 38  1  0  0  0
 19 39  1  0  0  0
 19 40  1  0  0  0
 21 41  1  0  0  0
 21 42  1  0  0  0
 21 43  1  0  0  0
M  END
$$$$
