6pg6_ligand
  -I-interpret- 

 31 31  0  0  0  0  0  0  0  0999 V2000
  135.6160  -24.6890   24.9460 C   0  0  0  0  0
  135.2310  -27.6470   27.4880 C   0  0  0  0  0
  137.6320  -32.0650   20.1310 O   0  0  0  0  0
  138.1490  -31.0070   20.9310 C   0  0  0  0  0
  137.1550  -29.8370   21.0610 C   0  0  0  0  0
  135.9260  -29.7110   20.4310 C   0  0  0  0  0
  135.4210  -28.5210   20.8300 N   0  0  0  0  0
  136.3240  -27.9220   21.6550 C   0  0  0  0  0
  136.1940  -26.5390   22.2940 C   0  0  0  0  0
  134.8730  -26.2590   23.0330 C   0  0  0  0  0
  134.8160  -24.8470   23.6430 C   0  0  0  0  0
  135.1300  -25.6150   25.9510 N   0  0  0  0  0
  135.8850  -26.7540   26.4350 C   0  0  0  0  0
  136.9590  -26.9970   26.0110 O   0  0  0  0  0
  137.3730  -28.7370   21.7660 N   0  0  0  0  0
  135.4980  -23.6700   25.3145 H   0  0  0  0  0
  136.6665  -24.9001   24.7462 H   0  0  0  0  0
  135.1236  -28.6563   27.0906 H   0  0  0  0  0
  135.8558  -27.6712   28.3808 H   0  0  0  0  0
  134.2486  -27.2484   27.7412 H   0  0  0  0  0
  138.2811  -32.7702   20.0767 H   0  0  0  0  0
  139.0541  -30.6317   20.4535 H   0  0  0  0  0
  138.3429  -31.3999   21.9291 H   0  0  0  0  0
  135.4611  -30.4258   19.7520 H   0  0  0  0  0
  136.2470  -25.8184   21.4779 H   0  0  0  0  0
  136.9837  -26.4720   23.0423 H   0  0  0  0  0
  134.7886  -26.9776   23.8482 H   0  0  0  0  0
  134.0623  -26.3420   22.3091 H   0  0  0  0  0
  135.2522  -24.1644   22.9137 H   0  0  0  0  0
  133.7721  -24.6417   23.8803 H   0  0  0  0  0
  134.2010  -25.4552   26.3407 H   0  0  0  0  0
  1 11  1  0  0  0
 12  1  1  0  0  0
 13  2  1  0  0  0
  4  3  1  0  0  0
  5  4  1  0  0  0
  5  6  4  0  0  0
 15  5  4  0  0  0
  7  6  4  0  0  0
  8  7  4  0  0  0
  9  8  1  0  0  0
  8 15  4  0  0  0
 10  9  1  0  0  0
 11 10  1  0  0  0
 12 13  1  0  0  0
 13 14  2  0  0  0
  1 16  1  0  0  0
  1 17  1  0  0  0
  2 18  1  0  0  0
  2 19  1  0  0  0
  2 20  1  0  0  0
  3 21  1  0  0  0
  4 22  1  0  0  0
  4 23  1  0  0  0
  6 24  1  0  0  0
  9 25  1  0  0  0
  9 26  1  0  0  0
 10 27  1  0  0  0
 10 28  1  0  0  0
 11 29  1  0  0  0
 11 30  1  0  0  0
 12 31  1  0  0  0
M  END
$$$$
