3kqb_ligand
  -I-interpret- 

 59 63  0  0  0  0  0  0  0  0999 V2000
   38.9190   35.7510   21.2720 C   0  0  0  0  0
   38.2440   36.2550   22.3950 C   0  0  0  0  0
   38.6930   26.7360   14.6070 C   0  0  0  0  0
   38.2750   34.8280   20.4390 C   0  0  0  0  0
   36.4510   32.0370   19.9900 C   0  0  0  0  0
   39.2180   27.4260   13.4950 C   0  0  0  0  0
   37.3450   26.8990   14.9730 C   0  0  0  0  0
   35.8950   31.1360   19.0560 C   0  0  0  0  0
   36.9400   35.8220   22.6710 C   0  0  0  0  0
   35.7750   33.9240   18.6160 C   0  0  0  0  0
   37.0420   28.4310   13.1100 C   0  0  0  0  0
   33.2470   28.6910   15.2880 C   0  0  0  0  0
   36.3820   33.4310   19.7730 C   0  0  0  0  0
   36.9620   34.3880   20.7100 C   0  0  0  0  0
   38.3830   28.2770   12.7510 C   0  0  0  0  0
   36.5250   27.7630   14.2190 C   0  0  0  0  0
   35.2700   31.6520   17.9000 C   0  0  0  0  0
   35.2200   33.0360   17.6950 C   0  0  0  0  0
   36.2820   34.8950   21.8310 C   0  0  0  0  0
   34.6110   28.8150   15.4440 C   0  0  0  0  0
   33.1070   27.7780   14.2230 C   0  0  0  0  0
   38.8780   28.9660   11.5720 C   0  0  0  0  0
   38.7380   30.1840    9.7610 C   0  0  0  0  0
   35.3560   29.6420   16.4190 C   0  0  0  0  0
   34.1500   35.5420   23.5310 C   0  0  0  0  0
   31.8610   27.2770   13.6040 C   0  0  0  0  0
   34.2780   27.3450   13.7420 N   0  0  0  0  0
   40.0900   28.9300   11.1240 N   0  0  0  0  0
   35.1710   27.9790   14.5030 N   0  0  0  0  0
   38.0050   29.6770   10.8090 N   0  0  0  0  0
   40.0330   29.7040    9.9920 N   0  0  0  0  0
   34.7260   30.7960   16.9360 N   0  0  0  0  0
   38.3580   30.8980    8.8320 O   0  0  0  0  0
   36.4830   29.3160   16.7620 O   0  0  0  0  0
   33.7780   34.6220   21.0970 O   0  0  0  0  0
   34.6910   33.0830   22.8820 O   0  0  0  0  0
   34.6310   33.5280   16.6040 F   0  0  0  0  0
   31.2780   28.1370   12.7110 F   0  0  0  0  0
   32.0090   26.1490   12.8290 F   0  0  0  0  0
   30.8880   27.0000   14.5180 F   0  0  0  0  0
   34.6300   34.4100   22.2560 S   0  0  0  0  0
   39.9357   36.0754   21.0504 H   0  0  0  0  0
   38.7312   36.9788   23.0484 H   0  0  0  0  0
   39.3355   26.0727   15.1861 H   0  0  0  0  0
   38.7981   34.4419   19.5642 H   0  0  0  0  0
   36.9379   31.6534   20.8866 H   0  0  0  0  0
   40.2638   27.3003   13.2145 H   0  0  0  0  0
   36.9385   26.3630   15.8306 H   0  0  0  0  0
   35.9474   30.0604   19.2245 H   0  0  0  0  0
   36.4234   36.2074   23.5501 H   0  0  0  0  0
   35.7352   34.9979   18.4336 H   0  0  0  0  0
   36.3947   29.0785   12.5185 H   0  0  0  0  0
   32.4589   29.1847   15.8566 H   0  0  0  0  0
   34.2641   36.5640   23.1696 H   0  0  0  0  0
   33.1086   35.3644   23.7996 H   0  0  0  0  0
   34.7829   35.3917   24.4056 H   0  0  0  0  0
   37.0079   29.8079   10.9794 H   0  0  0  0  0
   40.8342   29.9046    9.3935 H   0  0  0  0  0
   33.7988   31.0238   16.5772 H   0  0  0  0  0
  1  2  4  0  0  0
  4  1  4  0  0  0
  9  2  4  0  0  0
  3  6  4  0  0  0
  7  3  4  0  0  0
 14  4  4  0  0  0
  8  5  4  0  0  0
  5 13  4  0  0  0
 15  6  4  0  0  0
 16  7  4  0  0  0
 17  8  4  0  0  0
 19  9  4  0  0  0
 10 13  4  0  0  0
 18 10  4  0  0  0
 11 15  4  0  0  0
 16 11  4  0  0  0
 20 12  4  0  0  0
 12 21  4  0  0  0
 13 14  1  0  0  0
 14 19  4  0  0  0
 15 22  1  0  0  0
 29 16  1  0  0  0
 17 18  4  0  0  0
 32 17  1  0  0  0
 18 37  1  0  0  0
 19 41  1  0  0  0
 24 20  1  0  0  0
 20 29  4  0  0  0
 21 26  1  0  0  0
 21 27  4  0  0  0
 22 28  2  0  0  0
 22 30  1  0  0  0
 30 23  1  0  0  0
 23 31  1  0  0  0
 23 33  2  0  0  0
 24 32  1  0  0  0
 24 34  2  0  0  0
 41 25  1  0  0  0
 26 38  1  0  0  0
 26 39  1  0  0  0
 26 40  1  0  0  0
 27 29  4  0  0  0
 28 31  1  0  0  0
 41 35  2  0  0  0
 41 36  2  0  0  0
  1 42  1  0  0  0
  2 43  1  0  0  0
  3 44  1  0  0  0
  4 45  1  0  0  0
  5 46  1  0  0  0
  6 47  1  0  0  0
  7 48  1  0  0  0
  8 49  1  0  0  0
  9 50  1  0  0  0
 10 51  1  0  0  0
 11 52  1  0  0  0
 12 53  1  0  0  0
 25 54  1  0  0  0
 25 55  1  0  0  0
 25 56  1  0  0  0
 30 57  1  0  0  0
 31 58  1  0  0  0
 32 59  1  0  0  0
M  END
$$$$
