6frj_ligand
  -I-interpret- 

120122  0  0  0  0  0  0  0  0999 V2000
   12.1440   15.5000    2.1820 N   0  3  0  0  0
   12.7980   14.1880    2.3220 C   0  0  0  0  0
   13.2270   13.9350    3.7780 C   0  0  0  0  0
   13.4990   14.8850    4.5070 O   0  0  0  0  0
   14.0620   14.1440    1.4510 C   0  0  0  0  0
   13.3590   12.6440    4.1720 N   0  0  0  0  0
   13.8410   12.1870    5.5270 C   0  0  0  0  0
   15.2610   12.2990    5.6280 C   0  0  0  0  0
   15.8950   12.9890    4.8240 O   0  0  0  0  0
   13.2830   10.7500    5.5310 C   0  0  0  0  0
   13.5620   10.3100    4.1490 C   0  0  0  0  0
   13.0510   11.4660    3.3640 C   0  0  0  0  0
   15.8830   11.6180    6.6120 N   0  0  0  0  0
   17.3510   11.6540    6.7560 C   0  0  0  0  0
   17.9780   10.7490    5.6820 C   0  0  0  0  0
   18.1460    9.5540    5.8960 O   0  0  0  0  0
   17.7550   11.1580    8.1560 C   0  0  0  0  0
   19.2400   11.4500    8.4700 C   0  0  0  0  0
   19.9550   11.9510    7.5780 O   0  0  0  0  0
   19.6490   11.1200    9.5970 O   0  0  0  0  0
   18.3630   11.3750    4.5540 N   0  0  0  0  0
   18.9710   10.6360    3.4210 C   0  0  0  0  0
   18.6070   11.2960    2.0640 C   0  0  0  0  0
   17.0870   11.4940    1.8810 C   0  0  0  0  0
   19.5940   12.9990    1.8260 Se  0  0  0  0  0
   20.5220   10.4760    3.5410 C   0  0  0  0  0
   21.1440    9.9570    2.6120 O   0  0  0  0  0
   21.1300   10.8980    4.6770 N   0  0  0  0  0
   22.5890   10.7670    4.8850 C   0  0  0  0  0
   22.9460    9.2700    5.0310 C   0  0  0  0  0
   22.3570    8.5910    5.8690 O   0  0  0  0  0
   22.9640   11.5190    6.1740 C   0  0  0  0  0
   24.4730   11.7690    6.2720 C   0  0  0  0  0
   24.7980   12.2390    7.6940 C   0  0  0  0  0
   26.2400   12.5200    7.8110 N   0  0  0  0  0
   26.8670   13.6880    7.5490 C   0  0  0  0  0
   26.2030   14.7860    7.1290 N   0  0  0  0  0
   28.2010   13.7560    7.7110 N   0  0  0  0  0
   23.9050    8.7560    4.2260 N   0  0  0  0  0
   24.2890    7.3060    4.2840 C   0  0  0  0  0
   24.8290    6.9080    5.5400 C   0  0  0  0  0
   25.5310    7.6710    6.2010 O   0  0  0  0  0
   25.2980    7.1450    3.1300 C   0  0  0  0  0
   25.9070    8.5190    3.1130 C   0  0  0  0  0
   24.6760    9.3760    3.1530 C   0  0  0  0  0
   24.5110    5.6790    5.9600 N   0  0  0  0  0
   18.6310   14.4860    4.0850 O   0  0  0  0  0
   18.4930   14.4360    2.6310 C   0  0  0  0  0
   18.8610   15.8330    2.0730 C   0  0  0  0  0
   18.6610   15.9200    0.6040 N   0  0  0  0  0
   20.3180   16.1720    2.4470 C   0  0  0  0  0
   20.6930   17.4550    1.9160 O   0  0  0  0  0
   20.4660   16.2040    3.9680 C   0  0  0  0  0
   19.7730   17.3620    4.4920 O   0  0  0  0  0
   19.9340   14.8950    4.6160 C   0  0  0  0  0
   19.7740   15.0780    6.1350 C   0  0  0  0  0
   20.9910   15.5620    6.7200 O   0  0  0  0  0
   18.3270   17.0800   -0.0160 C   0  0  0  0  0
   18.1740   18.1600    0.5600 O   0  0  0  0  0
   18.1650   17.0030   -1.5420 C   0  0  0  0  0
   11.3054   15.5242    2.7622 H   0  0  0  0  0
   12.7872   16.2329    2.4813 H   0  0  0  0  0
   11.8880   15.6485    1.2059 H   0  0  0  0  0
   12.0811   13.4274    2.0126 H   0  0  0  0  0
   14.7571   14.9155    1.7824 H   0  0  0  0  0
   14.5322   13.1651    1.5445 H   0  0  0  0  0
   13.7908   14.3203    0.4101 H   0  0  0  0  0
   13.5129   12.7644    6.3913 H   0  0  0  0  0
   12.2272   10.6970    5.7966 H   0  0  0  0  0
   13.7383   10.1116    6.2881 H   0  0  0  0  0
   13.0915    9.3620    3.8883 H   0  0  0  0  0
   14.6128   10.0864    3.9648 H   0  0  0  0  0
   13.5161   11.5207    2.3797 H   0  0  0  0  0
   11.9818   11.3795    3.1705 H   0  0  0  0  0
   15.3287   11.0682    7.2684 H   0  0  0  0  0
   17.7063   12.6769    6.6316 H   0  0  0  0  0
   17.6060   10.0788    8.1905 H   0  0  0  0  0
   17.1429   11.6801    8.8915 H   0  0  0  0  0
   19.4205   12.1210    6.7989 H   0  0  0  0  0
   18.2332   12.3837    4.4766 H   0  0  0  0  0
   18.5467    9.6328    3.4619 H   0  0  0  0  0
   18.9177   10.6039    1.2813 H   0  0  0  0  0
   16.7239   12.2103    2.6180 H   0  0  0  0  0
   16.8892   11.8712    0.8777 H   0  0  0  0  0
   16.5784   10.5398    2.0186 H   0  0  0  0  0
   20.5629   11.3197    5.4125 H   0  0  0  0  0
   23.1354   11.1848    4.0394 H   0  0  0  0  0
   22.6629   10.9087    7.0254 H   0  0  0  0  0
   22.4576   12.4842    6.1660 H   0  0  0  0  0
   24.7710   12.5308    5.5516 H   0  0  0  0  0
   25.0170   10.8507    6.0507 H   0  0  0  0  0
   24.5250   11.4571    8.4027 H   0  0  0  0  0
   24.2356   13.1473    7.9102 H   0  0  0  0  0
   26.8292   11.7484    8.1240 H   0  0  0  0  0
   26.7127   15.6490    6.9399 H   0  0  0  0  0
   25.1916   14.7525    7.0008 H   0  0  0  0  0
   28.7190   12.9357    8.0259 H   0  0  0  0  0
   23.4203    6.6562    4.1782 H   0  0  0  0  0
   24.8510    6.8415    2.1833 H   0  0  0  0  0
   26.0169    6.3382    3.2729 H   0  0  0  0  0
   26.5486    8.7072    2.2521 H   0  0  0  0  0
   26.6013    8.7046    3.9325 H   0  0  0  0  0
   24.8908   10.4297    3.3308 H   0  0  0  0  0
   24.1428    9.4079    2.2029 H   0  0  0  0  0
   24.8538    5.3430    6.8600 H   0  0  0  0  0
   23.9256    5.0775    5.3804 H   0  0  0  0  0
   17.4642   14.1915    2.3664 H   0  0  0  0  0
   18.1903   16.5634    2.5255 H   0  0  0  0  0
   18.7789   15.0777    0.0409 H   0  0  0  0  0
   20.9673   15.4058    2.0233 H   0  0  0  0  0
   21.6015   17.6475    2.1591 H   0  0  0  0  0
   21.5246   16.2768    4.2174 H   0  0  0  0  0
   19.8651   17.3835    5.4473 H   0  0  0  0  0
   20.6690   14.1251    4.3810 H   0  0  0  0  0
   19.5280   14.1145    6.5814 H   0  0  0  0  0
   18.9818   15.8034    6.3204 H   0  0  0  0  0
   20.8695   15.6689    7.6663 H   0  0  0  0  0
   17.1558   17.3114   -1.8150 H   0  0  0  0  0
   18.8894   17.6647   -2.0168 H   0  0  0  0  0
   18.3352   15.9785   -1.8729 H   0  0  0  0  0
  1  2  1  0  0  0
  2  3  1  0  0  0
  2  5  1  0  0  0
  3  4  2  0  0  0
  3  6  1  0  0  0
  6  7  1  0  0  0
  6 12  1  0  0  0
  7  8  1  0  0  0
  7 10  1  0  0  0
  8  9  2  0  0  0
  8 13  1  0  0  0
 10 11  1  0  0  0
 11 12  1  0  0  0
 13 14  1  0  0  0
 14 15  1  0  0  0
 14 17  1  0  0  0
 15 16  2  0  0  0
 15 21  1  0  0  0
 17 18  1  0  0  0
 18 19  1  0  0  0
 18 20  2  0  0  0
 21 22  1  0  0  0
 22 23  1  0  0  0
 22 26  1  0  0  0
 23 24  1  0  0  0
 23 25  1  0  0  0
 25 48  1  0  0  0
 26 27  2  0  0  0
 26 28  1  0  0  0
 28 29  1  0  0  0
 29 30  1  0  0  0
 29 32  1  0  0  0
 30 31  2  0  0  0
 30 39  1  0  0  0
 32 33  1  0  0  0
 33 34  1  0  0  0
 34 35  1  0  0  0
 35 36  1  0  0  0
 36 37  1  0  0  0
 36 38  2  0  0  0
 39 40  1  0  0  0
 39 45  1  0  0  0
 40 41  1  0  0  0
 40 43  1  0  0  0
 41 42  2  0  0  0
 41 46  1  0  0  0
 43 44  1  0  0  0
 44 45  1  0  0  0
 48 47  1  0  0  0
 47 55  1  0  0  0
 48 49  1  0  0  0
 49 50  1  0  0  0
 49 51  1  0  0  0
 50 58  1  0  0  0
 51 52  1  0  0  0
 51 53  1  0  0  0
 53 54  1  0  0  0
 53 55  1  0  0  0
 55 56  1  0  0  0
 56 57  1  0  0  0
 58 59  2  0  0  0
 58 60  1  0  0  0
  1 61  1  0  0  0
  1 62  1  0  0  0
  1 63  1  0  0  0
  2 64  1  0  0  0
  5 65  1  0  0  0
  5 66  1  0  0  0
  5 67  1  0  0  0
  7 68  1  0  0  0
 10 69  1  0  0  0
 10 70  1  0  0  0
 11 71  1  0  0  0
 11 72  1  0  0  0
 12 73  1  0  0  0
 12 74  1  0  0  0
 13 75  1  0  0  0
 14 76  1  0  0  0
 17 77  1  0  0  0
 17 78  1  0  0  0
 19 79  1  0  0  0
 21 80  1  0  0  0
 22 81  1  0  0  0
 23 82  1  0  0  0
 24 83  1  0  0  0
 24 84  1  0  0  0
 24 85  1  0  0  0
 28 86  1  0  0  0
 29 87  1  0  0  0
 32 88  1  0  0  0
 32 89  1  0  0  0
 33 90  1  0  0  0
 33 91  1  0  0  0
 34 92  1  0  0  0
 34 93  1  0  0  0
 35 94  1  0  0  0
 37 95  1  0  0  0
 37 96  1  0  0  0
 38 97  1  0  0  0
 40 98  1  0  0  0
 43 99  1  0  0  0
 43100  1  0  0  0
 44101  1  0  0  0
 44102  1  0  0  0
 45103  1  0  0  0
 45104  1  0  0  0
 46105  1  0  0  0
 46106  1  0  0  0
 48107  1  0  0  0
 49108  1  0  0  0
 50109  1  0  0  0
 51110  1  0  0  0
 52111  1  0  0  0
 53112  1  0  0  0
 54113  1  0  0  0
 55114  1  0  0  0
 56115  1  0  0  0
 56116  1  0  0  0
 57117  1  0  0  0
 60118  1  0  0  0
 60119  1  0  0  0
 60120  1  0  0  0
M  END
$$$$
