### 
### Created by X-TOOL on Mon Aug  2 16:12:09 2021
### 

@<TRIPOS>MOLECULE
6frj_ligand
  124   126     1     0     0
SMALL
GAST_HUCK


@<TRIPOS>ATOM
      1 N          12.1440   15.5000    2.1820 N.4       1 ALA         0.2377
      2 CA         12.7980   14.1880    2.3220 C.3       1 ALA         0.0623
      3 C          13.2270   13.9350    3.7780 C.2       1 ALA         0.2289
      4 O          13.4990   14.8850    4.5070 O.2       1 ALA        -0.3905
      5 CB         14.0620   14.1440    1.4510 C.3       1 ALA        -0.0040
      6 N          13.3590   12.6440    4.1720 N.am      1 ALA        -0.2471
      7 CA         13.8410   12.1870    5.5270 C.3       1 ALA         0.1339
      8 C          15.2610   12.2990    5.6280 C.2       1 ALA         0.2042
      9 O          15.8950   12.9890    4.8240 O.2       1 ALA        -0.3944
     10 CB         13.2830   10.7500    5.5310 C.3       1 ALA        -0.0104
     11 CG         13.5620   10.3100    4.1490 C.3       1 ALA        -0.0281
     12 CD         13.0510   11.4660    3.3640 C.3       1 ALA         0.0371
     13 N          15.8830   11.6180    6.6120 N.am      1 ALA        -0.2622
     14 CA         17.3510   11.6540    6.7560 C.3       1 ALA         0.1423
     15 C          17.9780   10.7490    5.6820 C.2       1 ALA         0.2056
     16 O          18.1460    9.5540    5.8960 O.2       1 ALA        -0.3943
     17 CB         17.7550   11.1580    8.1560 C.3       1 ALA         0.0406
     18 CG         19.2400   11.4500    8.4700 C.2       1 ALA         0.0393
     19 OD1        19.9550   11.9510    7.5780 O.co2     1 ALA        -0.5688
     20 OD2        19.6490   11.1200    9.5970 O.co2     1 ALA        -0.5688
     21 N          18.3630   11.3750    4.5540 N.am      1 ALA        -0.2633
     22 CA         18.9710   10.6360    3.4210 C.3       1 ALA         0.1340
     23 CB         18.6070   11.2960    2.0640 C.3       1 ALA         0.0034
     24 CG2        17.0870   11.4940    1.8810 C.3       1 ALA        -0.0577
     25 SEG        19.5940   12.9990    1.8260 Se        1 ALA         0.0000
     26 C          20.5220   10.4760    3.5410 C.2       1 ALA         0.2042
     27 O          21.1440    9.9570    2.6120 O.2       1 ALA        -0.3944
     28 N          21.1300   10.8980    4.6770 N.am      1 ALA        -0.2637
     29 CA         22.5890   10.7670    4.8850 C.3       1 ALA         0.1313
     30 C          22.9460    9.2700    5.0310 C.2       1 ALA         0.2064
     31 O          22.3570    8.5910    5.8690 O.2       1 ALA        -0.3942
     32 CB         22.9640   11.5190    6.1740 C.3       1 ALA        -0.0092
     33 CG         24.4730   11.7690    6.2720 C.3       1 ALA        -0.0156
     34 CD         24.7980   12.2390    7.6940 C.3       1 ALA         0.0627
     35 NE         26.2400   12.5200    7.8110 N.pl3     1 ALA        -0.2723
     36 CZ         26.8670   13.6880    7.5490 C.cat     1 ALA         0.2882
     37 NH1        26.2030   14.7860    7.1290 N.pl3     1 ALA        -0.2849
     38 NH2        28.2010   13.7560    7.7110 N.pl3     1 ALA        -0.2849
     39 N          23.9050    8.7560    4.2260 N.am      1 ALA        -0.2498
     40 CA         24.2890    7.3060    4.2840 C.3       1 ALA         0.1334
     41 C          24.8290    6.9080    5.5400 C.2       1 ALA         0.1994
     42 O          25.5310    7.6710    6.2010 O.2       1 ALA        -0.3947
     43 CB         25.2980    7.1450    3.1300 C.3       1 ALA        -0.0104
     44 CG         25.9070    8.5190    3.1130 C.3       1 ALA        -0.0281
     45 CD         24.6760    9.3760    3.1530 C.3       1 ALA         0.0369
     46 N          24.5110    5.6790    5.9600 N.am      1 ALA        -0.2990
     47 O          18.6310   14.4860    4.0850 O.3       1 ALA        -0.3634
     48 C1         18.4930   14.4360    2.6310 C.3       1 ALA         0.1128
     49 C2         18.8610   15.8330    2.0730 C.3       1 ALA         0.0989
     50 N2         18.6610   15.9200    0.6040 N.am      1 ALA        -0.2789
     51 C3         20.3180   16.1720    2.4470 C.3       1 ALA         0.1088
     52 O3         20.6930   17.4550    1.9160 O.3       1 ALA        -0.3868
     53 C4         20.4660   16.2040    3.9680 C.3       1 ALA         0.1115
     54 O4         19.7730   17.3620    4.4920 O.3       1 ALA        -0.3865
     55 C5         19.9340   14.8950    4.6160 C.3       1 ALA         0.1105
     56 C6         19.7740   15.0780    6.1350 C.3       1 ALA         0.0729
     57 O6         20.9910   15.5620    6.7200 O.3       1 ALA        -0.3924
     58 C7         18.3270   17.0800   -0.0160 C.2       1 ALA         0.1733
     59 O7         18.1740   18.1600    0.5600 O.2       1 ALA        -0.3974
     60 C8         18.1650   17.0030   -1.5420 C.3       1 ALA         0.0257
     61 H1         11.8738   15.6399    1.2210 H         1 ALA         0.2015
     62 H2         12.7852   16.2264    2.4598 H         1 ALA         0.2015
     63 H3         11.3253   15.5318    2.7692 H         1 ALA         0.2015
     64 H4         12.0984   13.4013    2.0032 H         1 ALA         0.1095
     65 H5         14.5473   13.1627    1.5584 H         1 ALA         0.0310
     66 H6         14.7567   14.9338    1.7728 H         1 ALA         0.0310
     67 H7         13.7874   14.3039    0.3979 H         1 ALA         0.0310
     68 H8         13.3883   12.7782    6.3367 H         1 ALA         0.0802
     69 H9         12.2038   10.7406    5.7435 H         1 ALA         0.0313
     70 H10        13.8067   10.1197    6.2648 H         1 ALA         0.0313
     71 H11        13.0188    9.3855    3.9037 H         1 ALA         0.0287
     72 H12        14.6389   10.1570    3.9851 H         1 ALA         0.0287
     73 H13        13.5570   11.5240    2.3890 H         1 ALA         0.0524
     74 H14        11.9656   11.3775    3.2092 H         1 ALA         0.0524
     75 H15        15.3395   11.0790    7.2555 H         1 ALA         0.1884
     76 H16        17.7071   12.6858    6.6200 H         1 ALA         0.0819
     77 H17        17.5881   10.0721    8.2095 H         1 ALA         0.0478
     78 H18        17.1281   11.6627    8.9058 H         1 ALA         0.0478
     79 H19        18.2357   12.3640    4.4781 H         1 ALA         0.1883
     80 H20        18.5383    9.6247    3.4274 H         1 ALA         0.0803
     81 H21        18.9391   10.6099    1.2709 H         1 ALA         0.0350
     82 H22        16.8933   11.9635    0.9053 H         1 ALA         0.0235
     83 H23        16.7025   12.1419    2.6824 H         1 ALA         0.0235
     84 H24        16.5821   10.5177    1.9248 H         1 ALA         0.0235
     85 H25        20.5144   12.7129    3.5955 H         1 ALA         0.0000
     86 H26        20.9117   11.7584    0.9401 H         1 ALA         0.0000
     87 H27        20.8093   14.5608    1.4465 H         1 ALA         0.0000
     88 H28        18.6736   13.2851    0.0565 H         1 ALA         0.0000
     89 H29        20.5740   11.3114    5.3981 H         1 ALA         0.1883
     90 H30        23.1314   11.1967    4.0299 H         1 ALA         0.0800
     91 H31        22.6459   10.9203    7.0402 H         1 ALA         0.0313
     92 H32        22.4418   12.4871    6.1856 H         1 ALA         0.0313
     93 H33        24.7683   12.5435    5.5489 H         1 ALA         0.0301
     94 H34        25.0179   10.8383    6.0555 H         1 ALA         0.0301
     95 H35        24.5202   11.4523    8.4108 H         1 ALA         0.0689
     96 H36        24.2288   13.1540    7.9150 H         1 ALA         0.0689
     97 H37        26.8350   11.7409    8.1270 H         1 ALA         0.2642
     98 H38        26.7175   15.6580    6.9398 H         1 ALA         0.2615
     99 H39        25.1820   14.7516    6.9978 H         1 ALA         0.2615
    100 H40        28.7238   12.9281    8.0307 H         1 ALA         0.2615
    101 H41        28.6994   14.6359    7.5153 H         1 ALA         0.2615
    102 H42        23.4022    6.6851    4.0889 H         1 ALA         0.0802
    103 H43        24.7958    6.9106    2.1798 H         1 ALA         0.0313
    104 H44        26.0474    6.3703    3.3496 H         1 ALA         0.0313
    105 H45        26.4901    8.6915    2.1964 H         1 ALA         0.0287
    106 H46        26.5465    8.6887    3.9918 H         1 ALA         0.0287
    107 H47        24.9246   10.4205    3.3923 H         1 ALA         0.0524
    108 H48        24.1322    9.3381    2.1976 H         1 ALA         0.0524
    109 H49        24.8606    5.3435    6.8348 H         1 ALA         0.1815
    110 H50        23.9236    5.0954    5.3993 H         1 ALA         0.1815
    111 H51        17.4409   14.2277    2.3866 H         1 ALA         0.0647
    112 H52        18.2008   16.5741    2.5472 H         1 ALA         0.0609
    113 H53        18.7766   15.0942    0.0520 H         1 ALA         0.1856
    114 H54        20.9833   15.4006    2.0319 H         1 ALA         0.0644
    115 H55        20.1201   18.1237    2.2725 H         1 ALA         0.2100
    116 H56        21.5346   16.2964    4.2120 H         1 ALA         0.0647
    117 H57        20.1491   18.1505    4.1187 H         1 ALA         0.2100
    118 H58        20.6628   14.0944    4.4213 H         1 ALA         0.0646
    119 H59        19.5151   14.1104    6.5897 H         1 ALA         0.0584
    120 H60        18.9682   15.8014    6.3284 H         1 ALA         0.0584
    121 H61        20.8707   15.6678    7.6564 H         1 ALA         0.2095
    122 H62        17.8957   17.9954   -1.9326 H         1 ALA         0.0467
    123 H63        17.3711   16.2833   -1.7906 H         1 ALA         0.0467
    124 H64        19.1122   16.6753   -1.9952 H         1 ALA         0.0467
@<TRIPOS>BOND
     1    1    2 1  
     2    2    3 1  
     3    2    5 1  
     4    3    4 2  
     5    3    6 am 
     6    6    7 1  
     7    6   12 1  
     8    7    8 1  
     9    7   10 1  
    10    8    9 2  
    11    8   13 am 
    12   10   11 1  
    13   11   12 1  
    14   13   14 1  
    15   14   15 1  
    16   14   17 1  
    17   15   16 2  
    18   15   21 am 
    19   17   18 1  
    20   18   19 ar 
    21   18   20 ar 
    22   21   22 1  
    23   22   23 1  
    24   22   26 1  
    25   23   24 1  
    26   23   25 1  
    27   25   48 1  
    28   26   27 2  
    29   26   28 am 
    30   28   29 1  
    31   29   30 1  
    32   29   32 1  
    33   30   31 2  
    34   30   39 am 
    35   32   33 1  
    36   33   34 1  
    37   34   35 1  
    38   35   36 ar 
    39   36   37 ar 
    40   36   38 ar 
    41   39   40 1  
    42   39   45 1  
    43   40   41 1  
    44   40   43 1  
    45   41   42 2  
    46   41   46 am 
    47   43   44 1  
    48   44   45 1  
    49   48   47 1  
    50   47   55 1  
    51   48   49 1  
    52   49   50 1  
    53   49   51 1  
    54   50   58 am 
    55   51   52 1  
    56   51   53 1  
    57   53   54 1  
    58   53   55 1  
    59   55   56 1  
    60   56   57 1  
    61   58   59 2  
    62   58   60 1  
    63    1   61 1  
    64    1   62 1  
    65    1   63 1  
    66    2   64 1  
    67    5   65 1  
    68    5   66 1  
    69    5   67 1  
    70    7   68 1  
    71   10   69 1  
    72   10   70 1  
    73   11   71 1  
    74   11   72 1  
    75   12   73 1  
    76   12   74 1  
    77   13   75 1  
    78   14   76 1  
    79   17   77 1  
    80   17   78 1  
    81   21   79 1  
    82   22   80 1  
    83   23   81 1  
    84   24   82 1  
    85   24   83 1  
    86   24   84 1  
    87   25   85 1  
    88   25   86 1  
    89   25   87 1  
    90   25   88 1  
    91   28   89 1  
    92   29   90 1  
    93   32   91 1  
    94   32   92 1  
    95   33   93 1  
    96   33   94 1  
    97   34   95 1  
    98   34   96 1  
    99   35   97 1  
   100   37   98 1  
   101   37   99 1  
   102   38  100 1  
   103   38  101 1  
   104   40  102 1  
   105   43  103 1  
   106   43  104 1  
   107   44  105 1  
   108   44  106 1  
   109   45  107 1  
   110   45  108 1  
   111   46  109 1  
   112   46  110 1  
   113   48  111 1  
   114   49  112 1  
   115   50  113 1  
   116   51  114 1  
   117   52  115 1  
   118   53  116 1  
   119   54  117 1  
   120   55  118 1  
   121   56  119 1  
   122   56  120 1  
   123   57  121 1  
   124   60  122 1  
   125   60  123 1  
   126   60  124 1  
@<TRIPOS>SUBSTRUCTURE
     1 ALA         1

