2xp5_ligand
  -I-interpret- 

 24 25  0  0  0  0  0  0  0  0999 V2000
  -37.4850   28.4410   27.3900 O   0  0  0  0  0
  -37.7380   28.1510   26.1990 C   0  0  0  0  0
  -38.7680   28.5830   25.6820 O   0  0  0  0  0
  -36.8500   27.1730   25.3390 C   0  0  0  0  0
  -37.1340   26.7090   24.0460 C   0  0  0  0  0
  -36.1190   25.8980   23.6800 N   0  0  0  0  0
  -35.2250   25.8500   24.7240 C   0  0  0  0  0
  -35.6900   26.6570   25.7080 N   0  0  0  0  0
  -34.0100   25.1430   24.7950 C   0  0  0  0  0
  -33.3370   24.7610   23.6170 C   0  0  0  0  0
  -32.1150   24.0540   23.6470 C   0  0  0  0  0
  -31.5520   23.7450   24.8990 C   0  0  0  0  0
  -32.1830   24.1480   26.0950 C   0  0  0  0  0
  -33.4200   24.8350   26.0280 C   0  0  0  0  0
  -38.3780   27.0810   23.1580 C   0  0  0  0  0
  -36.6548   28.0337   27.6479 H   0  0  0  0  0
  -33.7736   25.0195   22.6523 H   0  0  0  0  0
  -31.6200   23.7550   22.7230 H   0  0  0  0  0
  -30.6166   23.1873   24.9455 H   0  0  0  0  0
  -31.7237   23.9331   27.0598 H   0  0  0  0  0
  -33.9209   25.1287   26.9504 H   0  0  0  0  0
  -39.2920   26.7858   23.6734 H   0  0  0  0  0
  -38.3893   28.1568   22.9831 H   0  0  0  0  0
  -38.3117   26.5572   22.2044 H   0  0  0  0  0
  1  2  1  0  0  0
  2  3  2  0  0  0
  2  4  1  0  0  0
  4  5  4  0  0  0
  4  8  4  0  0  0
  5  6  4  0  0  0
  5 15  1  0  0  0
  6  7  4  0  0  0
  7  8  4  0  0  0
  7  9  1  0  0  0
  9 10  4  0  0  0
  9 14  4  0  0  0
 10 11  4  0  0  0
 11 12  4  0  0  0
 12 13  4  0  0  0
 13 14  4  0  0  0
  1 16  1  0  0  0
 10 17  1  0  0  0
 11 18  1  0  0  0
 12 19  1  0  0  0
 13 20  1  0  0  0
 14 21  1  0  0  0
 15 22  1  0  0  0
 15 23  1  0  0  0
 15 24  1  0  0  0
M  END
$$$$
