3tv5_ligand
  -I-interpret- 

 72 77  0  0  0  0  0  0  0  0999 V2000
    6.1790   34.1550   17.0120 C   0  0  0  0  0
    6.8150   34.4570   15.6470 C   0  0  0  0  0
    5.8470   34.5870   14.6040 O   0  0  0  0  0
    4.6310   35.2090   15.0310 C   0  0  0  0  0
    3.8690   34.3850   16.0780 C   0  0  0  0  0
    4.8290   33.5910   16.8530 N   0  0  0  0  0
    4.4710   32.4240   17.4090 C   0  0  0  0  0
    3.3430   31.9460   17.3180 O   0  0  0  0  0
    5.5360   31.7150   18.1940 C   0  0  0  0  0
    4.9590   31.4550   19.5830 C   0  0  0  0  0
    6.0500   30.4980   17.4470 C   0  0  0  0  0
    6.9410   29.6680   18.3500 C   0  0  0  0  0
    6.2330   29.1550   19.6040 C   0  0  0  0  0
    5.4090   30.2090   20.2000 N   0  3  0  0  0
    4.8540   29.9730   21.5380 C   0  0  0  0  0
    5.8120   29.1780   22.4200 C   0  0  0  0  0
    5.1070   28.8400   23.7390 C   0  0  0  0  0
    4.5830   31.2960   22.2450 C   0  0  0  0  0
    3.9240   31.0140   23.5940 C   0  0  0  0  0
    4.8070   30.1250   24.3680 N   0  0  0  0  0
    5.2880   30.4440   25.5900 C   0  0  0  0  0
    5.9970   29.6740   26.2390 O   0  0  0  0  0
    4.9550   31.7790   26.2340 C   0  0  0  0  0
    5.8710   32.8330   26.1970 C   0  0  0  0  0
    7.0600   32.6850   25.4850 C   0  0  0  0  0
    7.9420   33.7590   25.3910 C   0  0  0  0  0
    7.6490   34.9790   26.0120 C   0  0  0  0  0
    6.4540   35.1470   26.7140 C   0  0  0  0  0
    5.5730   34.0660   26.8290 C   0  0  0  0  0
    4.3740   34.2490   27.5090 C   0  0  0  0  0
    3.4940   33.1790   27.6060 C   0  0  0  0  0
    3.7530   31.9620   26.9290 C   0  0  0  0  0
    2.8380   30.9060   27.0150 C   0  0  0  0  0
    1.6860   31.0460   27.7830 C   0  0  0  0  0
    1.4270   32.2480   28.4540 C   0  0  0  0  0
    2.3270   33.3220   28.3690 C   0  0  0  0  0
    6.1049   35.0847   17.5761 H   0  0  0  0  0
    6.8016   33.4287   17.5344 H   0  0  0  0  0
    7.4715   33.6250   15.3924 H   0  0  0  0  0
    7.3482   35.4042   15.7285 H   0  0  0  0  0
    3.9870   35.3119   14.1576 H   0  0  0  0  0
    4.8899   36.1650   15.4861 H   0  0  0  0  0
    3.1615   33.7221   15.5799 H   0  0  0  0  0
    3.3222   35.0526   16.7439 H   0  0  0  0  0
    6.4364   32.3161   18.3205 H   0  0  0  0  0
    3.8770   31.3844   19.4718 H   0  0  0  0  0
    5.2933   32.2693   20.2259 H   0  0  0  0  0
    6.6257   30.8269   16.5819 H   0  0  0  0  0
    5.2028   29.8918   17.1263 H   0  0  0  0  0
    7.7617   30.3068   18.6762 H   0  0  0  0  0
    7.2657   28.7982   17.7790 H   0  0  0  0  0
    6.9836   28.8415   20.3295 H   0  0  0  0  0
    5.5908   28.3183   19.3291 H   0  0  0  0  0
    6.2425   30.3969   19.6429 H   0  0  0  0  0
    3.9329   29.4085   21.3932 H   0  0  0  0  0
    6.7054   29.7694   22.6204 H   0  0  0  0  0
    6.1042   28.2589   21.9120 H   0  0  0  0  0
    5.7364   28.2216   24.3789 H   0  0  0  0  0
    4.2002   28.2600   23.5677 H   0  0  0  0  0
    3.9213   31.9101   21.6342 H   0  0  0  0  0
    5.5212   31.8292   22.3988 H   0  0  0  0  0
    2.9555   30.5372   23.4428 H   0  0  0  0  0
    3.7687   31.9475   24.1349 H   0  0  0  0  0
    7.2980   31.7357   25.0052 H   0  0  0  0  0
    8.8691   33.6485   24.8286 H   0  0  0  0  0
    8.3589   35.8036   25.9470 H   0  0  0  0  0
    6.2104   36.1081   27.1668 H   0  0  0  0  0
    4.1298   35.2124   27.9567 H   0  0  0  0  0
    3.0277   29.9750   26.4809 H   0  0  0  0  0
    0.9826   30.2172   27.8627 H   0  0  0  0  0
    0.5185   32.3503   29.0475 H   0  0  0  0  0
    2.1206   34.2566   28.8905 H   0  0  0  0  0
  1  2  1  0  0  0
  1  6  1  0  0  0
  2  3  1  0  0  0
  3  4  1  0  0  0
  4  5  1  0  0  0
  5  6  1  0  0  0
  6  7  1  0  0  0
  7  8  2  0  0  0
  7  9  1  0  0  0
  9 10  1  0  0  0
  9 11  1  0  0  0
 10 14  1  0  0  0
 11 12  1  0  0  0
 12 13  1  0  0  0
 13 14  1  0  0  0
 14 15  1  0  0  0
 15 16  1  0  0  0
 15 18  1  0  0  0
 16 17  1  0  0  0
 17 20  1  0  0  0
 18 19  1  0  0  0
 19 20  1  0  0  0
 20 21  1  0  0  0
 21 22  2  0  0  0
 21 23  1  0  0  0
 23 24  4  0  0  0
 23 32  4  0  0  0
 24 25  4  0  0  0
 24 29  4  0  0  0
 25 26  4  0  0  0
 26 27  4  0  0  0
 27 28  4  0  0  0
 28 29  4  0  0  0
 29 30  4  0  0  0
 30 31  4  0  0  0
 31 32  4  0  0  0
 31 36  4  0  0  0
 32 33  4  0  0  0
 33 34  4  0  0  0
 34 35  4  0  0  0
 35 36  4  0  0  0
  1 37  1  0  0  0
  1 38  1  0  0  0
  2 39  1  0  0  0
  2 40  1  0  0  0
  4 41  1  0  0  0
  4 42  1  0  0  0
  5 43  1  0  0  0
  5 44  1  0  0  0
  9 45  1  0  0  0
 10 46  1  0  0  0
 10 47  1  0  0  0
 11 48  1  0  0  0
 11 49  1  0  0  0
 12 50  1  0  0  0
 12 51  1  0  0  0
 13 52  1  0  0  0
 13 53  1  0  0  0
 14 54  1  0  0  0
 15 55  1  0  0  0
 16 56  1  0  0  0
 16 57  1  0  0  0
 17 58  1  0  0  0
 17 59  1  0  0  0
 18 60  1  0  0  0
 18 61  1  0  0  0
 19 62  1  0  0  0
 19 63  1  0  0  0
 25 64  1  0  0  0
 26 65  1  0  0  0
 27 66  1  0  0  0
 28 67  1  0  0  0
 30 68  1  0  0  0
 33 69  1  0  0  0
 34 70  1  0  0  0
 35 71  1  0  0  0
 36 72  1  0  0  0
M  END
$$$$
