### 
### Created by X-TOOL on Mon Sep 10 21:13:05 2018
### 

@<TRIPOS>MOLECULE
3tv5_ligand
   71    76     1     0     0
SMALL
GAST_HUCK


@<TRIPOS>ATOM
      1 C29         6.1790   34.1550   17.0120 C.3       1 RCP         0.0573
      2 C30         6.8150   34.4570   15.6470 C.3       1 RCP         0.0681
      3 O28         5.8470   34.5870   14.6040 O.3       1 RCP        -0.3758
      4 C28         4.6310   35.2090   15.0310 C.3       1 RCP         0.0681
      5 C27         3.8690   34.3850   16.0780 C.3       1 RCP         0.0573
      6 N26         4.8290   33.5910   16.8530 N.am      1 RCP        -0.2687
      7 C26         4.4710   32.4240   17.4090 C.2       1 RCP         0.1797
      8 O26         3.3430   31.9460   17.3180 O.2       1 RCP        -0.3967
      9 C25         5.5360   31.7150   18.1940 C.3       1 RCP         0.0303
     10 C24         4.9590   31.4550   19.5830 C.3       1 RCP        -0.0923
     11 C23         6.0500   30.4980   17.4470 C.3       1 RCP        -0.0370
     12 C22         6.9410   29.6680   18.3500 C.3       1 RCP        -0.0695
     13 C21         6.2330   29.1550   19.6040 C.3       1 RCP        -0.1122
     14 N20         5.4090   30.2090   20.2000 N.4       1 RCP         0.4068
     15 C20         4.8540   29.9730   21.5380 C.3       1 RCP        -0.0965
     16 C19         5.8120   29.1780   22.4200 C.3       1 RCP        -0.0484
     17 C18         5.1070   28.8400   23.7390 C.3       1 RCP         0.0314
     18 C17         4.5830   31.2960   22.2450 C.3       1 RCP        -0.0484
     19 C16         3.9240   31.0140   23.5940 C.3       1 RCP         0.0314
     20 N15         4.8070   30.1250   24.3680 N.am      1 RCP        -0.2740
     21 C15         5.2880   30.4440   25.5900 C.2       1 RCP         0.2034
     22 O15         5.9970   29.6740   26.2390 O.2       1 RCP        -0.3885
     23 C14         4.9550   31.7790   26.2340 C.ar      1 RCP         0.0597
     24 C1          5.8710   32.8330   26.1970 C.ar      1 RCP        -0.0005
     25 C2          7.0600   32.6850   25.4850 C.ar      1 RCP        -0.0515
     26 C3          7.9420   33.7590   25.3910 C.ar      1 RCP        -0.0597
     27 C4          7.6490   34.9790   26.0120 C.ar      1 RCP        -0.0594
     28 C5          6.4540   35.1470   26.7140 C.ar      1 RCP        -0.0511
     29 C6          5.5730   34.0660   26.8290 C.ar      1 RCP        -0.0094
     30 C7          4.3740   34.2490   27.5090 C.ar      1 RCP        -0.0380
     31 C8          3.4940   33.1790   27.6060 C.ar      1 RCP        -0.0094
     32 C13         3.7530   31.9620   26.9290 C.ar      1 RCP        -0.0005
     33 C12         2.8380   30.9060   27.0150 C.ar      1 RCP        -0.0515
     34 C11         1.6860   31.0460   27.7830 C.ar      1 RCP        -0.0597
     35 C10         1.4270   32.2480   28.4540 C.ar      1 RCP        -0.0594
     36 C9          2.3270   33.3220   28.3690 C.ar      1 RCP        -0.0511
     37 H           6.1049   35.0847   17.5761 H         1 RCP         0.0545
     38 H           6.8016   33.4287   17.5344 H         1 RCP         0.0545
     39 H           7.4715   33.6250   15.3924 H         1 RCP         0.0580
     40 H           7.3482   35.4042   15.7285 H         1 RCP         0.0580
     41 H           3.9870   35.3119   14.1576 H         1 RCP         0.0580
     42 H           4.8899   36.1650   15.4861 H         1 RCP         0.0580
     43 H           3.1615   33.7221   15.5799 H         1 RCP         0.0545
     44 H           3.3222   35.0526   16.7439 H         1 RCP         0.0545
     45 H           6.4364   32.3161   18.3205 H         1 RCP         0.0518
     46 H           3.8770   31.3844   19.4718 H         1 RCP         0.0044
     47 H           5.2933   32.2693   20.2259 H         1 RCP         0.0044
     48 H           6.6257   30.8269   16.5819 H         1 RCP         0.0291
     49 H           5.2028   29.8918   17.1263 H         1 RCP         0.0291
     50 H           7.7617   30.3068   18.6762 H         1 RCP         0.0247
     51 H           7.2657   28.7982   17.7790 H         1 RCP         0.0247
     52 H           6.9836   28.8415   20.3295 H         1 RCP         0.0017
     53 H           5.5908   28.3183   19.3291 H         1 RCP         0.0017
     54 H           3.9329   29.4085   21.3932 H         1 RCP         0.0054
     55 H           6.7054   29.7694   22.6204 H         1 RCP         0.0267
     56 H           6.1042   28.2589   21.9120 H         1 RCP         0.0267
     57 H           5.7364   28.2216   24.3789 H         1 RCP         0.0520
     58 H           4.2002   28.2600   23.5677 H         1 RCP         0.0520
     59 H           3.9213   31.9101   21.6342 H         1 RCP         0.0267
     60 H           5.5212   31.8292   22.3988 H         1 RCP         0.0267
     61 H           2.9555   30.5372   23.4428 H         1 RCP         0.0520
     62 H           3.7687   31.9475   24.1349 H         1 RCP         0.0520
     63 H           7.2980   31.7357   25.0052 H         1 RCP         0.0620
     64 H           8.8691   33.6485   24.8286 H         1 RCP         0.0635
     65 H           8.3589   35.8036   25.9470 H         1 RCP         0.0619
     66 H           6.2104   36.1081   27.1668 H         1 RCP         0.0639
     67 H           4.1298   35.2124   27.9567 H         1 RCP         0.0709
     68 H           3.0277   29.9750   26.4809 H         1 RCP         0.0620
     69 H           0.9826   30.2172   27.8627 H         1 RCP         0.0635
     70 H           0.5185   32.3503   29.0475 H         1 RCP         0.0619
     71 H           2.1206   34.2566   28.8905 H         1 RCP         0.0639
@<TRIPOS>BOND
     1    1    2 1  
     2    1    6 1  
     3    2    3 1  
     4    3    4 1  
     5    4    5 1  
     6    5    6 1  
     7    6    7 am 
     8    7    8 2  
     9    7    9 1  
    10    9   10 1  
    11    9   11 1  
    12   10   14 1  
    13   11   12 1  
    14   12   13 1  
    15   13   14 1  
    16   14   15 1  
    17   15   16 1  
    18   15   18 1  
    19   16   17 1  
    20   17   20 1  
    21   18   19 1  
    22   19   20 1  
    23   20   21 am 
    24   21   22 2  
    25   21   23 1  
    26   23   24 ar 
    27   23   32 ar 
    28   24   25 ar 
    29   24   29 ar 
    30   25   26 ar 
    31   26   27 ar 
    32   27   28 ar 
    33   28   29 ar 
    34   29   30 ar 
    35   30   31 ar 
    36   31   32 ar 
    37   31   36 ar 
    38   32   33 ar 
    39   33   34 ar 
    40   34   35 ar 
    41   35   36 ar 
    42    1   37 1  
    43    1   38 1  
    44    2   39 1  
    45    2   40 1  
    46    4   41 1  
    47    4   42 1  
    48    5   43 1  
    49    5   44 1  
    50    9   45 1  
    51   10   46 1  
    52   10   47 1  
    53   11   48 1  
    54   11   49 1  
    55   12   50 1  
    56   12   51 1  
    57   13   52 1  
    58   13   53 1  
    59   15   54 1  
    60   16   55 1  
    61   16   56 1  
    62   17   57 1  
    63   17   58 1  
    64   18   59 1  
    65   18   60 1  
    66   19   61 1  
    67   19   62 1  
    68   25   63 1  
    69   26   64 1  
    70   27   65 1  
    71   28   66 1  
    72   30   67 1  
    73   33   68 1  
    74   34   69 1  
    75   35   70 1  
    76   36   71 1  
@<TRIPOS>SUBSTRUCTURE
     1 RCP         1

