### 
### Created by X-TOOL on Mon Sep 10 21:12:56 2018
### 

@<TRIPOS>MOLECULE
2q80_ligand
   62    61     1     0     0
SMALL
GAST_HUCK


@<TRIPOS>ATOM
      1 C20        -3.1900  -57.9630  -28.1850 C.3       1 GRG        -0.0406
      2 C19        -4.5230  -60.1520  -27.6030 C.3       1 GRG        -0.0406
      3 C18        -4.5000  -58.7400  -28.1900 C.2       1 GRG        -0.0870
      4 C17        -5.6120  -58.1270  -28.7580 C.2       1 GRG        -0.1074
      5 C16        -6.8950  -58.6330  -28.9030 C.3       1 GRG        -0.0388
      6 C14        -9.2570  -58.2620  -30.8630 C.3       1 GRG        -0.0402
      7 C13        -9.2390  -57.9470  -29.3810 C.2       1 GRG        -0.0827
      8 C15        -7.9290  -57.5260  -28.7730 C.3       1 GRG        -0.0254
      9 C12       -10.3850  -58.0230  -28.5960 C.2       1 GRG        -0.1070
     10 C11       -11.6800  -58.3840  -28.9770 C.3       1 GRG        -0.0388
     11 C9        -12.3930  -59.0790  -27.8210 C.3       1 GRG        -0.0254
     12 C8        -13.8890  -58.8340  -27.8890 C.2       1 GRG        -0.0827
     13 C10       -14.6410  -58.0240  -26.8130 C.3       1 GRG        -0.0402
     14 C7        -14.5500  -59.3770  -28.9770 C.2       1 GRG        -0.1070
     15 C6        -15.9040  -59.2710  -29.2310 C.3       1 GRG        -0.0388
     16 C5        -16.1740  -59.0590  -30.7140 C.3       1 GRG        -0.0253
     17 C3        -17.6650  -59.1500  -30.9750 C.2       1 GRG        -0.0804
     18 C4        -18.1690  -60.2110  -31.9290 C.3       1 GRG        -0.0402
     19 C2        -18.5190  -58.2680  -30.3290 C.2       1 GRG        -0.0782
     20 C1        -19.9000  -58.1660  -30.3850 C.3       1 GRG         0.0917
     21 O1        -20.4420  -58.3290  -29.0600 O.3       1 GRG        -0.2411
     22 PA        -21.8260  -57.6720  -28.5850 P.3       1 GRG         0.3288
     23 O1A       -22.8780  -57.6340  -29.8280 O.co2     1 GRG        -0.5555
     24 O3A       -21.6070  -56.2340  -28.0640 O.3       1 GRG        -0.1547
     25 O2A       -22.3010  -58.4750  -27.4630 O.co2     1 GRG        -0.5555
     26 PB        -21.3120  -54.9850  -28.9870 P.3       1 GRG         0.2070
     27 O1B       -19.9990  -54.9620  -29.6230 O.co2     1 GRG        -0.5891
     28 O2B       -22.4910  -54.9070  -30.1040 O.co2     1 GRG        -0.5891
     29 O3B       -21.5260  -53.8410  -27.9040 O.co2     1 GRG        -0.5891
     30 H1         -2.4060  -58.5691  -27.7075 H         1 GRG         0.0375
     31 H2         -3.3216  -57.0260  -27.6241 H         1 GRG         0.0375
     32 H3         -2.8962  -57.7328  -29.2197 H         1 GRG         0.0375
     33 H4         -5.5384  -60.5669  -27.6856 H         1 GRG         0.0375
     34 H5         -4.2275  -60.1138  -26.5441 H         1 GRG         0.0375
     35 H6         -3.8197  -60.7910  -28.1571 H         1 GRG         0.0375
     36 H7         -5.4546  -57.1187  -29.1382 H         1 GRG         0.0244
     37 H8         -7.0752  -59.3882  -28.1238 H         1 GRG         0.0361
     38 H9         -6.9889  -59.0996  -29.8947 H         1 GRG         0.0361
     39 H10        -8.2456  -58.1363  -31.2768 H         1 GRG         0.0375
     40 H11        -9.9501  -57.5782  -31.3748 H         1 GRG         0.0375
     41 H12        -9.5882  -59.3001  -31.0132 H         1 GRG         0.0375
     42 H13        -7.5629  -56.6274  -29.2911 H         1 GRG         0.0425
     43 H14        -8.0821  -57.2983  -27.7078 H         1 GRG         0.0425
     44 H15       -10.2557  -57.7673  -27.5454 H         1 GRG         0.0244
     45 H16       -11.6287  -59.0683  -29.8367 H         1 GRG         0.0361
     46 H17       -12.2409  -57.4811  -29.2600 H         1 GRG         0.0361
     47 H18       -12.0057  -58.6863  -26.8693 H         1 GRG         0.0425
     48 H19       -12.2014  -60.1607  -27.8765 H         1 GRG         0.0425
     49 H20       -15.7097  -57.9775  -27.0693 H         1 GRG         0.0375
     50 H21       -14.2302  -57.0046  -26.7676 H         1 GRG         0.0375
     51 H22       -14.5195  -58.5123  -25.8348 H         1 GRG         0.0375
     52 H23       -13.9513  -59.9360  -29.6947 H         1 GRG         0.0244
     53 H24       -16.3084  -58.4172  -28.6676 H         1 GRG         0.0361
     54 H25       -16.4032  -60.1952  -28.9046 H         1 GRG         0.0361
     55 H26       -15.6521  -59.8330  -31.2959 H         1 GRG         0.0425
     56 H27       -15.8092  -58.0658  -31.0147 H         1 GRG         0.0425
     57 H28       -19.2641  -60.1431  -32.0075 H         1 GRG         0.0375
     58 H29       -17.8894  -61.2058  -31.5520 H         1 GRG         0.0375
     59 H30       -17.7200  -60.0553  -32.9210 H         1 GRG         0.0375
     60 H31       -18.0292  -57.5451  -29.6783 H         1 GRG         0.0268
     61 H32       -20.3002  -58.9497  -31.0450 H         1 GRG         0.0696
     62 H33       -20.1801  -57.1775  -30.7778 H         1 GRG         0.0696
@<TRIPOS>BOND
     1    3    1 1  
     2    3    2 1  
     3    4    3 2  
     4    5    4 1  
     5    8    5 1  
     6    7    6 1  
     7    7    8 1  
     8    7    9 2  
     9    9   10 1  
    10   10   11 1  
    11   11   12 1  
    12   12   13 1  
    13   12   14 2  
    14   14   15 1  
    15   15   16 1  
    16   16   17 1  
    17   17   18 1  
    18   17   19 2  
    19   19   20 1  
    20   20   21 1  
    21   21   22 1  
    22   22   23 ar 
    23   22   24 1  
    24   22   25 ar 
    25   24   26 1  
    26   26   27 ar 
    27   26   28 ar 
    28   26   29 ar 
    29    1   30 1  
    30    1   31 1  
    31    1   32 1  
    32    2   33 1  
    33    2   34 1  
    34    2   35 1  
    35    4   36 1  
    36    5   37 1  
    37    5   38 1  
    38    6   39 1  
    39    6   40 1  
    40    6   41 1  
    41    8   42 1  
    42    8   43 1  
    43    9   44 1  
    44   10   45 1  
    45   10   46 1  
    46   11   47 1  
    47   11   48 1  
    48   13   49 1  
    49   13   50 1  
    50   13   51 1  
    51   14   52 1  
    52   15   53 1  
    53   15   54 1  
    54   16   55 1  
    55   16   56 1  
    56   18   57 1  
    57   18   58 1  
    58   18   59 1  
    59   19   60 1  
    60   20   61 1  
    61   20   62 1  
@<TRIPOS>SUBSTRUCTURE
     1 GRG         1

