2q80_ligand
  -I-interpret- 

 65 64  0  0  0  0  0  0  0  0999 V2000
   -3.1900  -57.9630  -28.1850 C   0  0  0  0  0
   -4.5230  -60.1520  -27.6030 C   0  0  0  0  0
   -4.5000  -58.7400  -28.1900 C   0  0  0  0  0
   -5.6120  -58.1270  -28.7580 C   0  0  0  0  0
   -6.8950  -58.6330  -28.9030 C   0  0  0  0  0
   -9.2570  -58.2620  -30.8630 C   0  0  0  0  0
   -9.2390  -57.9470  -29.3810 C   0  0  0  0  0
   -7.9290  -57.5260  -28.7730 C   0  0  0  0  0
  -10.3850  -58.0230  -28.5960 C   0  0  0  0  0
  -11.6800  -58.3840  -28.9770 C   0  0  0  0  0
  -12.3930  -59.0790  -27.8210 C   0  0  0  0  0
  -13.8890  -58.8340  -27.8890 C   0  0  0  0  0
  -14.6410  -58.0240  -26.8130 C   0  0  0  0  0
  -14.5500  -59.3770  -28.9770 C   0  0  0  0  0
  -15.9040  -59.2710  -29.2310 C   0  0  0  0  0
  -16.1740  -59.0590  -30.7140 C   0  0  0  0  0
  -17.6650  -59.1500  -30.9750 C   0  0  0  0  0
  -18.1690  -60.2110  -31.9290 C   0  0  0  0  0
  -18.5190  -58.2680  -30.3290 C   0  0  0  0  0
  -19.9000  -58.1660  -30.3850 C   0  0  0  0  0
  -20.4420  -58.3290  -29.0600 O   0  0  0  0  0
  -21.8260  -57.6720  -28.5850 P   0  0  0  0  0
  -22.8780  -57.6340  -29.8280 O   0  0  0  0  0
  -21.6070  -56.2340  -28.0640 O   0  0  0  0  0
  -22.3010  -58.4750  -27.4630 O   0  0  0  0  0
  -21.3120  -54.9850  -28.9870 P   0  0  0  0  0
  -19.9990  -54.9620  -29.6230 O   0  0  0  0  0
  -22.4910  -54.9070  -30.1040 O   0  0  0  0  0
  -21.5260  -53.8410  -27.9040 O   0  0  0  0  0
   -2.9000  -57.7355  -29.2108 H   0  0  0  0  0
   -3.3217  -57.0348  -27.6290 H   0  0  0  0  0
   -2.4140  -58.5646  -27.7116 H   0  0  0  0  0
   -5.2481  -60.1945  -26.7903 H   0  0  0  0  0
   -4.8043  -60.8626  -28.3801 H   0  0  0  0  0
   -3.5329  -60.4017  -27.2217 H   0  0  0  0  0
   -5.4545  -57.1178  -29.1386 H   0  0  0  0  0
   -7.0717  -59.3728  -28.1222 H   0  0  0  0  0
   -6.9855  -59.0846  -29.8909 H   0  0  0  0  0
   -9.5854  -59.2908  -31.0105 H   0  0  0  0  0
   -9.9442  -57.5838  -31.3690 H   0  0  0  0  0
   -8.2543  -58.1371  -31.2719 H   0  0  0  0  0
   -7.5658  -56.6417  -29.2966 H   0  0  0  0  0
   -8.0843  -57.3116  -27.7156 H   0  0  0  0  0
  -10.2556  -57.7670  -27.5444 H   0  0  0  0  0
  -11.6259  -59.0661  -29.8254 H   0  0  0  0  0
  -12.2349  -57.4869  -29.2516 H   0  0  0  0  0
  -12.0127  -58.6793  -26.8809 H   0  0  0  0  0
  -12.2081  -60.1512  -27.8863 H   0  0  0  0  0
  -15.1133  -57.1577  -27.2762 H   0  0  0  0  0
  -15.4036  -58.6528  -26.3536 H   0  0  0  0  0
  -13.9356  -57.6911  -26.0516 H   0  0  0  0  0
  -13.9508  -59.9365  -29.6954 H   0  0  0  0  0
  -16.2939  -58.4142  -28.6815 H   0  0  0  0  0
  -16.3889  -60.1960  -28.9189 H   0  0  0  0  0
  -15.6570  -59.8261  -31.2905 H   0  0  0  0  0
  -15.8126  -58.0747  -31.0118 H   0  0  0  0  0
  -18.8505  -60.8782  -31.4012 H   0  0  0  0  0
  -18.6939  -59.7339  -32.7566 H   0  0  0  0  0
  -17.3244  -60.7825  -32.3139 H   0  0  0  0  0
  -18.0288  -57.5444  -29.6777 H   0  0  0  0  0
  -20.2975  -58.9410  -31.0404 H   0  0  0  0  0
  -20.1787  -57.1875  -30.7761 H   0  0  0  0  0
  -22.5167  -57.0945  -30.5351 H   0  0  0  0  0
  -23.3457  -54.9233  -29.6672 H   0  0  0  0  0
  -22.4066  -53.9173  -27.5294 H   0  0  0  0  0
  3  1  1  0  0  0
  3  2  1  0  0  0
  4  3  2  0  0  0
  5  4  1  0  0  0
  8  5  1  0  0  0
  7  6  1  0  0  0
  7  8  1  0  0  0
  7  9  2  0  0  0
  9 10  1  0  0  0
 10 11  1  0  0  0
 11 12  1  0  0  0
 12 13  1  0  0  0
 12 14  2  0  0  0
 14 15  1  0  0  0
 15 16  1  0  0  0
 16 17  1  0  0  0
 17 18  1  0  0  0
 17 19  2  0  0  0
 19 20  1  0  0  0
 20 21  1  0  0  0
 21 22  1  0  0  0
 22 23  1  0  0  0
 22 24  1  0  0  0
 22 25  2  0  0  0
 24 26  1  0  0  0
 26 27  2  0  0  0
 26 28  1  0  0  0
 26 29  1  0  0  0
  1 30  1  0  0  0
  1 31  1  0  0  0
  1 32  1  0  0  0
  2 33  1  0  0  0
  2 34  1  0  0  0
  2 35  1  0  0  0
  4 36  1  0  0  0
  5 37  1  0  0  0
  5 38  1  0  0  0
  6 39  1  0  0  0
  6 40  1  0  0  0
  6 41  1  0  0  0
  8 42  1  0  0  0
  8 43  1  0  0  0
  9 44  1  0  0  0
 10 45  1  0  0  0
 10 46  1  0  0  0
 11 47  1  0  0  0
 11 48  1  0  0  0
 13 49  1  0  0  0
 13 50  1  0  0  0
 13 51  1  0  0  0
 14 52  1  0  0  0
 15 53  1  0  0  0
 15 54  1  0  0  0
 16 55  1  0  0  0
 16 56  1  0  0  0
 18 57  1  0  0  0
 18 58  1  0  0  0
 18 59  1  0  0  0
 19 60  1  0  0  0
 20 61  1  0  0  0
 20 62  1  0  0  0
 23 63  1  0  0  0
 28 64  1  0  0  0
 29 65  1  0  0  0
M  END
$$$$
