3wiz_ligand
  -I-interpret- 

110116  0  0  0  0  0  0  0  0999 V2000
   34.2320   10.6560  -45.5370 C   0  0  0  0  0
   46.4070   15.0630  -41.7730 C   0  0  0  0  0
   45.3430   15.4540  -42.5530 C   0  0  0  0  0
   34.2080    9.6830  -46.5210 C   0  0  0  0  0
   33.4140   10.5400  -44.4300 C   0  0  0  0  0
   49.3610   15.5030  -45.5210 C   0  0  0  0  0
   47.6690   14.9800  -42.3240 C   0  0  0  0  0
   45.5510   15.7580  -43.8810 C   0  0  0  0  0
   49.1440   15.1990  -44.1940 C   0  0  0  0  0
   37.8220   10.5670  -49.0750 C   0  0  0  0  0
   36.5070   10.7690  -49.4360 C   0  0  0  0  0
   30.3640   10.0300  -47.9590 C   0  0  0  0  0
   48.3050   15.8960  -46.3120 C   0  0  0  0  0
   33.3650    8.5960  -46.3950 C   0  0  0  0  0
   32.5650    9.4550  -44.3130 C   0  0  0  0  0
   30.9980   10.9670  -48.7520 C   0  0  0  0  0
   36.3450   12.5830  -47.8600 C   0  0  0  0  0
   30.9870   12.5040  -46.9130 C   0  0  0  0  0
   47.8780   15.2850  -43.6520 C   0  0  0  0  0
   46.8130   15.6760  -44.4390 C   0  0  0  0  0
   38.3990   11.3670  -48.1080 C   0  0  0  0  0
   35.7840   11.7730  -48.8270 C   0  0  0  0  0
   37.6650   12.3710  -47.5050 C   0  0  0  0  0
   42.7160   13.1220  -47.9860 C   0  0  0  0  0
   30.0350   10.2990  -46.6420 C   0  0  0  0  0
   30.3570   11.5530  -46.1430 C   0  0  0  0  0
   47.0380   15.9770  -45.7690 C   0  0  0  0  0
   32.5400    8.4790  -45.2940 C   0  0  0  0  0
   31.3060   12.1950  -48.2140 C   0  0  0  0  0
   42.0430   11.9960  -47.5760 C   0  0  0  0  0
   41.7250   13.9060  -48.6300 C   0  0  0  0  0
   42.4220   10.8140  -46.8840 C   0  0  0  0  0
   41.5020    9.8730  -46.6300 C   0  0  0  0  0
   40.1340   10.0570  -47.0470 C   0  0  0  0  0
   39.7860   11.1730  -47.7040 C   0  0  0  0  0
   34.3880   11.9400  -49.2370 C   0  0  0  0  0
   41.8430   15.1970  -49.2540 C   0  0  0  0  0
   38.3110   13.2240  -46.4670 C   0  0  0  0  0
   26.0100    4.6270  -45.5260 C   0  0  0  0  0
   25.1650    6.5610  -44.4860 C   0  0  0  0  0
   44.1470   13.4060  -47.7870 C   0  0  0  0  0
   44.3880   14.6410  -46.9570 C   0  0  0  0  0
   28.2330    7.3450  -45.3990 C   0  0  0  0  0
   26.9850    6.7270  -45.9860 C   0  0  0  0  0
   45.6820   15.2660  -47.4130 C   0  0  0  0  0
   30.3960    7.2220  -46.6190 C   0  0  0  0  0
   29.1190    8.0420  -46.4060 C   0  0  0  0  0
   40.5390   13.2940  -48.6100 N   0  0  0  0  0
   40.7350   12.1320  -47.9680 N   0  0  0  0  0
   29.3950    9.3490  -45.8180 N   0  0  0  0  0
   33.7870   13.1720  -48.8790 N   0  0  0  0  0
   26.3800    5.9070  -44.9430 N   0  3  0  0  0
   30.0700   11.9520  -44.7810 N   0  0  0  0  0
   29.4100   11.2120  -44.0500 O   0  0  0  0  0
   33.8050   11.0430  -49.8210 O   0  0  0  0  0
   42.8450   15.5970  -49.8250 O   0  0  0  0  0
   30.5310   13.0390  -44.4250 O   0  0  0  0  0
   31.7420   14.7010  -48.6230 O   0  0  0  0  0
   31.8560   13.0630  -50.5770 O   0  0  0  0  0
   40.7080   15.9330  -49.1260 O   0  0  0  0  0
   45.9830   16.3760  -46.5740 O   0  0  0  0  0
   31.4520    7.0970  -45.1260 S   0  0  0  0  0
   32.1240   13.4250  -49.1980 S   0  0  0  0  0
   34.8967   11.5142  -45.6356 H   0  0  0  0  0
   46.2530   14.8193  -40.7218 H   0  0  0  0  0
   44.3434   15.5228  -42.1239 H   0  0  0  0  0
   34.8536    9.7744  -47.3945 H   0  0  0  0  0
   33.4378   11.3018  -43.6508 H   0  0  0  0  0
   50.3640   15.4325  -45.9420 H   0  0  0  0  0
   48.5095   14.6701  -41.7030 H   0  0  0  0  0
   44.7087   16.0674  -44.4999 H   0  0  0  0  0
   49.9799   14.8880  -43.5674 H   0  0  0  0  0
   38.4047    9.7784  -49.5512 H   0  0  0  0  0
   36.0428   10.1407  -50.1961 H   0  0  0  0  0
   30.1171    9.0557  -48.3807 H   0  0  0  0  0
   48.4682   16.1419  -47.3613 H   0  0  0  0  0
   33.3510    7.8275  -47.1679 H   0  0  0  0  0
   31.9125    9.3679  -43.4443 H   0  0  0  0  0
   31.2501   10.7369  -49.7872 H   0  0  0  0  0
   35.7607   13.3721  -47.3867 H   0  0  0  0  0
   31.2283   13.4831  -46.4993 H   0  0  0  0  0
   43.4539   10.6736  -46.5620 H   0  0  0  0  0
   41.7899    8.9624  -46.1046 H   0  0  0  0  0
   39.3872    9.2935  -46.8295 H   0  0  0  0  0
   38.2914   14.2648  -46.7901 H   0  0  0  0  0
   37.7684   13.1238  -45.5270 H   0  0  0  0  0
   39.3439   12.9049  -46.3276 H   0  0  0  0  0
   25.5137    4.0158  -44.7722 H   0  0  0  0  0
   25.3333    4.7930  -46.3642 H   0  0  0  0  0
   26.9067    4.1163  -45.8770 H   0  0  0  0  0
   24.4948    6.7120  -45.3323 H   0  0  0  0  0
   24.6753    5.9348  -43.7403 H   0  0  0  0  0
   25.4170    7.5249  -44.0439 H   0  0  0  0  0
   44.5940   13.5705  -48.7674 H   0  0  0  0  0
   44.5851   12.5587  -47.2594 H   0  0  0  0  0
   44.4492   14.3781  -45.9010 H   0  0  0  0  0
   43.5655   15.3451  -47.0832 H   0  0  0  0  0
   28.8181    6.5336  -44.9663 H   0  0  0  0  0
   27.9091    8.0996  -44.6822 H   0  0  0  0  0
   27.2300    6.1206  -46.8580 H   0  0  0  0  0
   26.2922    7.5006  -46.3170 H   0  0  0  0  0
   45.5836   15.6021  -48.4452 H   0  0  0  0  0
   46.4855   14.5319  -47.3529 H   0  0  0  0  0
   30.9805    7.7247  -47.3896 H   0  0  0  0  0
   30.0918    6.2104  -46.8878 H   0  0  0  0  0
   28.6583    8.1483  -47.3881 H   0  0  0  0  0
   29.1370    9.5658  -44.8553 H   0  0  0  0  0
   34.3414   13.9035  -48.4341 H   0  0  0  0  0
   27.0320    5.7794  -44.1690 H   0  0  0  0  0
   40.0511   15.4249  -48.6444 H   0  0  0  0  0
  4  1  4  0  0  0
  5  1  4  0  0  0
  3  2  4  0  0  0
  7  2  4  0  0  0
  8  3  4  0  0  0
 14  4  4  0  0  0
 15  5  4  0  0  0
  6  9  4  0  0  0
 13  6  4  0  0  0
 19  7  4  0  0  0
 20  8  4  0  0  0
 19  9  4  0  0  0
 11 10  4  0  0  0
 10 21  4  0  0  0
 22 11  4  0  0  0
 16 12  4  0  0  0
 12 25  4  0  0  0
 27 13  4  0  0  0
 28 14  4  0  0  0
 28 15  4  0  0  0
 29 16  4  0  0  0
 22 17  4  0  0  0
 17 23  4  0  0  0
 18 26  4  0  0  0
 29 18  4  0  0  0
 20 19  4  0  0  0
 27 20  4  0  0  0
 23 21  4  0  0  0
 21 35  1  0  0  0
 36 22  1  0  0  0
 23 38  1  0  0  0
 30 24  4  0  0  0
 31 24  4  0  0  0
 24 41  1  0  0  0
 26 25  4  0  0  0
 25 50  1  0  0  0
 26 53  1  0  0  0
 61 27  1  0  0  0
 62 28  1  0  0  0
 63 29  1  0  0  0
 30 32  4  0  0  0
 49 30  4  0  0  0
 31 37  1  0  0  0
 48 31  4  0  0  0
 33 32  4  0  0  0
 34 33  4  0  0  0
 35 34  4  0  0  0
 35 49  4  0  0  0
 51 36  1  0  0  0
 36 55  2  0  0  0
 37 56  2  0  0  0
 37 60  1  0  0  0
 52 39  1  0  0  0
 52 40  1  0  0  0
 41 42  1  0  0  0
 42 45  1  0  0  0
 43 44  1  0  0  0
 47 43  1  0  0  0
 44 52  1  0  0  0
 45 61  1  0  0  0
 47 46  1  0  0  0
 46 62  1  0  0  0
 50 47  1  0  0  0
 49 48  4  0  0  0
 51 63  1  0  0  0
 53 54  2  0  0  0
 53 57  2  0  0  0
 63 58  2  0  0  0
 63 59  2  0  0  0
  1 64  1  0  0  0
  2 65  1  0  0  0
  3 66  1  0  0  0
  4 67  1  0  0  0
  5 68  1  0  0  0
  6 69  1  0  0  0
  7 70  1  0  0  0
  8 71  1  0  0  0
  9 72  1  0  0  0
 10 73  1  0  0  0
 11 74  1  0  0  0
 12 75  1  0  0  0
 13 76  1  0  0  0
 14 77  1  0  0  0
 15 78  1  0  0  0
 16 79  1  0  0  0
 17 80  1  0  0  0
 18 81  1  0  0  0
 32 82  1  0  0  0
 33 83  1  0  0  0
 34 84  1  0  0  0
 38 85  1  0  0  0
 38 86  1  0  0  0
 38 87  1  0  0  0
 39 88  1  0  0  0
 39 89  1  0  0  0
 39 90  1  0  0  0
 40 91  1  0  0  0
 40 92  1  0  0  0
 40 93  1  0  0  0
 41 94  1  0  0  0
 41 95  1  0  0  0
 42 96  1  0  0  0
 42 97  1  0  0  0
 43 98  1  0  0  0
 43 99  1  0  0  0
 44100  1  0  0  0
 44101  1  0  0  0
 45102  1  0  0  0
 45103  1  0  0  0
 46104  1  0  0  0
 46105  1  0  0  0
 47106  1  0  0  0
 50107  1  0  0  0
 51108  1  0  0  0
 52109  1  0  0  0
 60110  1  0  0  0
M  END
$$$$
