6bsm_ligand
  -I-interpret- 

 55 56  0  0  0  0  0  0  0  0999 V2000
   19.2860  -15.1300  -26.6890 C   0  0  0  0  0
   19.2940  -14.3280  -25.4030 C   0  0  0  0  0
   19.2080  -15.1220  -24.0680 C   0  0  0  0  0
   18.3120  -14.5020  -22.9790 C   0  0  0  0  0
   18.0400  -15.3000  -21.7150 C   0  0  0  0  0
   17.5220  -14.5060  -20.5420 C   0  0  0  0  0
   17.0760  -15.3410  -19.3180 C   0  0  0  0  0
   16.7600  -14.5000  -18.2070 N   0  3  0  0  0
   17.6550  -13.8110  -17.5940 O   0  0  0  0  0
   15.4380  -14.3520  -17.7520 C   0  0  0  0  0
   15.2490  -13.5760  -16.7930 O   0  0  0  0  0
   16.3910  -13.5940  -20.9240 C   0  0  0  0  0
   15.2670  -14.0050  -21.1770 O   0  0  0  0  0
   16.6890  -12.1450  -20.9580 N   0  0  0  0  0
   15.6430  -11.2100  -21.3170 C   0  0  0  0  0
   15.2120  -11.4340  -22.7230 N   0  0  0  0  0
   16.1540  -11.2370  -23.7430 C   0  0  0  0  0
   17.2460  -10.8960  -23.5110 O   0  0  0  0  0
   15.6470  -11.5220  -25.1450 C   0  0  0  0  0
   16.2740  -11.1140  -26.3470 C   0  0  0  0  0
   15.4400  -11.6120  -27.4030 C   0  0  0  0  0
   15.5880  -11.4990  -28.8290 C   0  0  0  0  0
   14.6220  -12.0860  -29.6810 C   0  0  0  0  0
   13.5270  -12.7760  -29.1170 C   0  0  0  0  0
   13.3580  -12.9080  -27.6990 C   0  0  0  0  0
   12.2170  -13.6190  -27.3060 O   0  0  0  0  0
   11.8080  -14.0100  -26.0210 C   0  0  0  0  0
   14.3440  -12.3030  -26.8300 C   0  0  0  0  0
   14.4980  -12.2380  -25.4230 O   0  0  0  0  0
   20.1392  -15.8083  -26.6980 H   0  0  0  0  0
   18.3622  -15.7052  -26.7512 H   0  0  0  0  0
   19.3508  -14.4512  -27.5394 H   0  0  0  0  0
   18.3984  -13.7076  -25.4361 H   0  0  0  0  0
   20.2556  -13.8153  -25.3805 H   0  0  0  0  0
   20.2179  -15.1485  -23.6588 H   0  0  0  0  0
   18.7718  -16.0906  -24.3123 H   0  0  0  0  0
   17.3373  -14.3786  -23.4510 H   0  0  0  0  0
   18.8479  -13.6142  -22.6433 H   0  0  0  0  0
   18.9953  -15.7233  -21.4046 H   0  0  0  0  0
   17.2640  -16.0230  -21.9663 H   0  0  0  0  0
   18.3969  -13.9304  -20.2398 H   0  0  0  0  0
   17.8931  -16.0033  -19.0320 H   0  0  0  0  0
   16.1858  -15.9085  -19.5894 H   0  0  0  0  0
   14.6132  -14.8920  -18.2170 H   0  0  0  0  0
   17.6241  -11.8073  -20.7303 H   0  0  0  0  0
   16.0246  -10.1937  -21.2190 H   0  0  0  0  0
   14.7899  -11.3584  -20.6550 H   0  0  0  0  0
   14.2579  -11.7228  -22.9392 H   0  0  0  0  0
   17.1962  -10.5419  -26.4488 H   0  0  0  0  0
   16.4390  -10.9645  -29.2512 H   0  0  0  0  0
   14.7227  -12.0060  -30.7634 H   0  0  0  0  0
   12.7864  -13.2226  -29.7805 H   0  0  0  0  0
   12.5672  -14.6561  -25.5803 H   0  0  0  0  0
   11.6760  -13.1252  -25.3982 H   0  0  0  0  0
   10.8643  -14.5511  -26.0904 H   0  0  0  0  0
  1  2  1  0  0  0
  2  3  1  0  0  0
  3  4  1  0  0  0
  4  5  1  0  0  0
  5  6  1  0  0  0
  6  7  1  0  0  0
  6 12  1  0  0  0
  7  8  1  0  0  0
  8  9  2  0  0  0
  8 10  1  0  0  0
 10 11  2  0  0  0
 12 13  2  0  0  0
 12 14  1  0  0  0
 14 15  1  0  0  0
 15 16  1  0  0  0
 16 17  1  0  0  0
 17 18  2  0  0  0
 17 19  1  0  0  0
 19 20  4  0  0  0
 19 29  4  0  0  0
 20 21  4  0  0  0
 21 22  4  0  0  0
 21 28  4  0  0  0
 22 23  4  0  0  0
 23 24  4  0  0  0
 24 25  4  0  0  0
 25 26  1  0  0  0
 25 28  4  0  0  0
 26 27  1  0  0  0
 28 29  4  0  0  0
  1 30  1  0  0  0
  1 31  1  0  0  0
  1 32  1  0  0  0
  2 33  1  0  0  0
  2 34  1  0  0  0
  3 35  1  0  0  0
  3 36  1  0  0  0
  4 37  1  0  0  0
  4 38  1  0  0  0
  5 39  1  0  0  0
  5 40  1  0  0  0
  6 41  1  0  0  0
  7 42  1  0  0  0
  7 43  1  0  0  0
 10 44  1  0  0  0
 14 45  1  0  0  0
 15 46  1  0  0  0
 15 47  1  0  0  0
 16 48  1  0  0  0
 20 49  1  0  0  0
 22 50  1  0  0  0
 23 51  1  0  0  0
 24 52  1  0  0  0
 27 53  1  0  0  0
 27 54  1  0  0  0
 27 55  1  0  0  0
M  END
$$$$
