2w4i_ligand
  -I-interpret- 

 46 50  0  0  0  0  0  0  0  0999 V2000
   15.9620   -1.0420    4.7040 N   0  0  0  0  0
   17.2450   -0.8280    4.8860 C   0  0  0  0  0
   17.6710    0.0300    6.0610 C   0  0  0  0  0
   15.9730    1.6150    5.9020 C   0  0  0  0  0
   17.2240    1.3990    5.7600 N   0  0  0  0  0
   14.9550    0.5950    6.2440 C   0  0  0  0  0
   14.9560   -0.6190    5.5650 C   0  0  0  0  0
   13.9200   -1.4920    5.8640 C   0  0  0  0  0
   12.9080   -1.2060    6.7670 C   0  0  0  0  0
   12.8790    0.0020    7.4350 C   0  0  0  0  0
   13.9090    0.8930    7.1600 C   0  0  0  0  0
   15.4240    2.9330    5.5090 C   0  0  0  0  0
   18.1730   -1.3400    4.0020 N   0  0  0  0  0
   18.1130   -2.2440    2.8210 C   0  0  0  0  0
   19.5950   -1.9540    2.5100 C   0  0  0  0  0
   19.6360   -1.2310    3.8470 C   0  0  0  0  0
   16.2570    4.0230    5.2400 C   0  0  0  0  0
   15.7180    5.2340    4.8330 C   0  0  0  0  0
   14.3490    5.3750    4.6810 C   0  0  0  0  0
   13.5090    4.2940    4.9120 C   0  0  0  0  0
   14.0430    3.0740    5.3090 C   0  0  0  0  0
   19.1040    0.1500    6.4670 C   0  0  0  0  0
   19.8440    1.7350    6.4890 S   0  0  0  0  0
   21.3280    1.0350    7.1180 C   0  0  0  0  0
   21.1870   -0.2810    7.2690 C   0  0  0  0  0
   19.9430   -0.7830    6.9190 C   0  0  0  0  0
   20.4520   -3.0900    2.4900 O   0  0  0  0  0
   17.2257   -0.4993    6.9034 H   0  0  0  0  0
   13.9008   -2.4582    5.3599 H   0  0  0  0  0
   12.1264   -1.9429    6.9518 H   0  0  0  0  0
   12.0869    0.2448    8.1434 H   0  0  0  0  0
   13.9155    1.8583    7.6663 H   0  0  0  0  0
   17.3570   -2.0813    2.0528 H   0  0  0  0  0
   17.7774   -3.2737    2.9442 H   0  0  0  0  0
   19.8896   -1.5008    1.5635 H   0  0  0  0  0
   20.2811   -1.6164    4.6365 H   0  0  0  0  0
   20.1012   -0.2468    3.9014 H   0  0  0  0  0
   17.3365    3.9203    5.3508 H   0  0  0  0  0
   16.3756    6.0796    4.6316 H   0  0  0  0  0
   13.9305    6.3353    4.3798 H   0  0  0  0  0
   12.4322    4.4021    4.7821 H   0  0  0  0  0
   13.3837    2.2203    5.4661 H   0  0  0  0  0
   22.2329    1.5963    7.3509 H   0  0  0  0  0
   21.9908   -0.9166    7.6405 H   0  0  0  0  0
   19.6768   -1.8365    7.0048 H   0  0  0  0  0
   21.3480   -2.8100    2.2891 H   0  0  0  0  0
  1  2  2  0  0  0
  1  7  1  0  0  0
  2  3  1  0  0  0
  2 13  1  0  0  0
  3  5  1  0  0  0
  3 22  1  0  0  0
  5  4  2  0  0  0
  4  6  1  0  0  0
  4 12  1  0  0  0
  6  7  4  0  0  0
  6 11  4  0  0  0
  7  8  4  0  0  0
  8  9  4  0  0  0
  9 10  4  0  0  0
 10 11  4  0  0  0
 12 17  4  0  0  0
 12 21  4  0  0  0
 13 14  1  0  0  0
 13 16  1  0  0  0
 14 15  1  0  0  0
 15 16  1  0  0  0
 15 27  1  0  0  0
 17 18  4  0  0  0
 18 19  4  0  0  0
 19 20  4  0  0  0
 20 21  4  0  0  0
 22 23  4  0  0  0
 22 26  4  0  0  0
 23 24  4  0  0  0
 24 25  4  0  0  0
 25 26  4  0  0  0
  3 28  1  0  0  0
  8 29  1  0  0  0
  9 30  1  0  0  0
 10 31  1  0  0  0
 11 32  1  0  0  0
 14 33  1  0  0  0
 14 34  1  0  0  0
 15 35  1  0  0  0
 16 36  1  0  0  0
 16 37  1  0  0  0
 17 38  1  0  0  0
 18 39  1  0  0  0
 19 40  1  0  0  0
 20 41  1  0  0  0
 21 42  1  0  0  0
 24 43  1  0  0  0
 25 44  1  0  0  0
 26 45  1  0  0  0
 27 46  1  0  0  0
M  END
$$$$
