3guz_ligand
  -I-interpret- 

 22 21  0  0  0  0  0  0  0  0999 V2000
   10.7970  -12.2620    0.3240 O   0  0  0  0  0
   10.2210  -11.9000   -0.7230 C   0  0  0  0  0
    9.0580  -11.4290   -0.8090 O   0  0  0  0  0
   11.0630  -11.9320   -1.9960 C   0  0  0  0  0
   10.8930  -10.6780   -2.6850 O   0  0  0  0  0
   10.7810  -13.1240   -2.9290 C   0  0  0  0  0
   11.0140  -14.4470   -2.1540 C   0  0  0  0  0
    9.3140  -13.0570   -3.5090 C   0  0  0  0  0
   11.7240  -13.0270   -4.1610 C   0  0  0  0  0
   13.1430  -12.9540   -3.8010 O   0  0  0  0  0
    8.8604  -11.2331   -1.7278 H   0  0  0  0  0
   12.0999  -12.0744   -1.6917 H   0  0  0  0  0
   11.0748   -9.9548   -2.0804 H   0  0  0  0  0
   10.3076  -14.5110   -1.3264 H   0  0  0  0  0
   10.8651  -15.2917   -2.8266 H   0  0  0  0  0
   12.0325  -14.4649   -1.7662 H   0  0  0  0  0
    9.1552  -13.8935   -4.1896 H   0  0  0  0  0
    8.5977  -13.1128   -2.6893 H   0  0  0  0  0
    9.1799  -12.1186   -4.0471 H   0  0  0  0  0
   11.4727  -12.1117   -4.6968 H   0  0  0  0  0
   11.5813  -13.9286   -4.7567 H   0  0  0  0  0
   13.6721  -12.8960   -4.5999 H   0  0  0  0  0
  1  2  2  0  0  0
  2  3  1  0  0  0
  2  4  1  0  0  0
  4  5  1  0  0  0
  4  6  1  0  0  0
  6  7  1  0  0  0
  6  8  1  0  0  0
  6  9  1  0  0  0
  9 10  1  0  0  0
  3 11  1  0  0  0
  4 12  1  0  0  0
  5 13  1  0  0  0
  7 14  1  0  0  0
  7 15  1  0  0  0
  7 16  1  0  0  0
  8 17  1  0  0  0
  8 18  1  0  0  0
  8 19  1  0  0  0
  9 20  1  0  0  0
  9 21  1  0  0  0
 10 22  1  0  0  0
M  END
$$$$
