3lmp_ligand
  -I-interpret- 

 59 63  0  0  0  0  0  0  0  0999 V2000
   15.2380   51.2990   66.9070 C   0  0  0  0  0
   16.1160   51.2530   65.6560 C   0  0  0  0  0
   17.2390   51.7540   65.6560 O   0  0  0  0  0
   15.5580   50.5930   64.4030 C   0  0  0  0  0
   14.6580   49.3320   64.5750 C   0  0  0  0  0
   14.6510   48.3690   63.3260 C   0  0  0  0  0
   14.7470   49.2040   62.0370 C   0  0  0  0  0
   15.2970   50.4520   62.0030 C   0  0  0  0  0
   15.8010   51.0400   63.1300 C   0  0  0  0  0
   14.2220   48.5820   60.9340 O   0  0  0  0  0
   13.2080   47.8180   61.5070 C   0  0  0  0  0
   13.3760   47.6470   62.8830 C   0  0  0  0  0
   12.1030   47.2470   60.8360 C   0  0  0  0  0
   11.1650   46.4950   61.5950 C   0  0  0  0  0
   11.3580   46.3380   62.9860 C   0  0  0  0  0
   12.4550   46.9100   63.6240 C   0  0  0  0  0
   15.8420   47.3840   63.4340 C   0  0  0  0  0
   14.0110   49.0930   65.5930 O   0  0  0  0  0
   16.5890   52.1440   62.9430 O   0  0  0  0  0
   12.6070   46.7340   64.9740 O   0  0  0  0  0
   10.0770   45.9370   60.9140 O   0  0  0  0  0
    9.1190   45.0120   61.4890 C   0  0  0  0  0
   11.9920   47.4800   59.3280 C   0  0  0  0  0
   12.9970   47.7110   58.6580 O   0  0  0  0  0
   10.8290   47.4120   58.6520 N   0  0  0  0  0
   10.4680   48.2180   57.4680 C   0  0  0  0  0
    8.9520   48.5290   57.3970 C   0  0  0  0  0
    7.9170   47.5620   57.5500 C   0  0  0  0  0
    6.5400   47.9910   57.4640 C   0  0  0  0  0
    6.2490   49.3350   57.2340 C   0  0  0  0  0
    7.2760   50.2650   57.0870 C   0  0  0  0  0
    8.6080   49.8690   57.1680 C   0  0  0  0  0
    5.5070   47.0510   57.6130 C   0  0  0  0  0
    5.8090   45.7110   57.8430 C   0  0  0  0  0
    7.1330   45.2880   57.9270 C   0  0  0  0  0
    8.1760   46.2010   57.7840 C   0  0  0  0  0
   15.7462   50.7884   67.7250 H   0  0  0  0  0
   15.0551   52.3375   67.1830 H   0  0  0  0  0
   14.2890   50.8038   66.7017 H   0  0  0  0  0
   15.3355   50.9921   61.0570 H   0  0  0  0  0
   10.6383   45.7614   63.5671 H   0  0  0  0  0
   15.8336   46.7104   62.5771 H   0  0  0  0  0
   16.7762   47.9455   63.4473 H   0  0  0  0  0
   15.7512   46.8055   64.3533 H   0  0  0  0  0
   16.6625   52.3279   62.0036 H   0  0  0  0  0
   11.8811   46.2032   65.3101 H   0  0  0  0  0
    9.6393   44.1164   61.8284 H   0  0  0  0  0
    8.6202   45.4863   62.3342 H   0  0  0  0  0
    8.3801   44.7407   60.7349 H   0  0  0  0  0
   10.1353   46.7439   58.9878 H   0  0  0  0  0
   10.7345   47.6458   56.5794 H   0  0  0  0  0
   11.0017   49.1662   57.5329 H   0  0  0  0  0
    5.2108   49.6604   57.1687 H   0  0  0  0  0
    7.0341   51.3125   56.9069 H   0  0  0  0  0
    9.3964   50.6126   57.0515 H   0  0  0  0  0
    4.4670   47.3709   57.5485 H   0  0  0  0  0
    5.0021   44.9873   57.9582 H   0  0  0  0  0
    7.3550   44.2359   58.1058 H   0  0  0  0  0
    9.2070   45.8545   57.8547 H   0  0  0  0  0
  1  2  1  0  0  0
  2  3  2  0  0  0
  2  4  1  0  0  0
  4  5  1  0  0  0
  4  9  2  0  0  0
  5  6  1  0  0  0
  5 18  2  0  0  0
  6  7  1  0  0  0
  6 12  1  0  0  0
  6 17  1  0  0  0
  7  8  2  0  0  0
  7 10  1  0  0  0
  8  9  1  0  0  0
  9 19  1  0  0  0
 10 11  1  0  0  0
 11 12  4  0  0  0
 11 13  4  0  0  0
 12 16  4  0  0  0
 13 14  4  0  0  0
 13 23  1  0  0  0
 14 15  4  0  0  0
 14 21  1  0  0  0
 15 16  4  0  0  0
 16 20  1  0  0  0
 21 22  1  0  0  0
 23 24  2  0  0  0
 23 25  1  0  0  0
 25 26  1  0  0  0
 26 27  1  0  0  0
 27 28  4  0  0  0
 27 32  4  0  0  0
 28 29  4  0  0  0
 28 36  4  0  0  0
 29 30  4  0  0  0
 29 33  4  0  0  0
 30 31  4  0  0  0
 31 32  4  0  0  0
 33 34  4  0  0  0
 34 35  4  0  0  0
 35 36  4  0  0  0
  1 37  1  0  0  0
  1 38  1  0  0  0
  1 39  1  0  0  0
  8 40  1  0  0  0
 15 41  1  0  0  0
 17 42  1  0  0  0
 17 43  1  0  0  0
 17 44  1  0  0  0
 19 45  1  0  0  0
 20 46  1  0  0  0
 22 47  1  0  0  0
 22 48  1  0  0  0
 22 49  1  0  0  0
 25 50  1  0  0  0
 26 51  1  0  0  0
 26 52  1  0  0  0
 30 53  1  0  0  0
 31 54  1  0  0  0
 32 55  1  0  0  0
 33 56  1  0  0  0
 34 57  1  0  0  0
 35 58  1  0  0  0
 36 59  1  0  0  0
M  END
$$$$
