4n4s_ligand
  -I-interpret- 

 56 60  0  0  0  0  0  0  0  0999 V2000
  -14.7550   14.4550    1.7480 C   0  0  0  0  0
  -14.9230   14.0570    0.2870 C   0  0  0  0  0
  -14.0650   12.8260   -0.0400 C   0  0  0  0  0
  -14.5340   15.1730   -0.5610 N   0  0  0  0  0
  -13.4790   15.7770   -0.5360 N   0  0  0  0  0
  -15.3400   15.6760   -1.4940 C   0  0  0  0  0
  -16.5860   15.3130   -1.8390 N   0  0  0  0  0
  -17.2350   15.9920   -2.8500 C   0  0  0  0  0
  -16.5670   17.0390   -3.4770 N   0  0  0  0  0
  -15.3250   17.3750   -3.0790 C   0  0  0  0  0
  -14.6880   18.3610   -3.7150 N   0  0  0  0  0
  -14.6970   16.6970   -2.0930 C   0  0  0  0  0
  -13.5000   16.7240   -1.4670 C   0  0  0  0  0
  -12.4560   17.5490   -1.6330 C   0  0  0  0  0
  -12.6570   18.9290   -1.6480 C   0  0  0  0  0
  -11.1540   17.0500   -1.7190 C   0  0  0  0  0
  -10.0700   17.9110   -1.8560 C   0  0  0  0  0
   -8.7730   17.3890   -1.9630 C   0  0  0  0  0
  -10.2860   19.2920   -1.8950 C   0  0  0  0  0
   -9.2470   20.1380   -2.0360 N   0  0  0  0  0
  -11.5850   19.7980   -1.7940 C   0  0  0  0  0
  -11.8100   21.1730   -1.8290 C   0  0  0  0  0
  -10.7160   22.0250   -1.9680 C   0  0  0  0  0
   -9.4230   21.4840   -2.0700 C   0  0  0  0  0
   -8.3460   22.3240   -2.2130 O   0  0  0  0  0
   -7.1410   21.6300   -2.5590 C   0  0  0  0  0
   -6.1530   22.1010   -1.6770 C   0  0  0  0  0
   -5.6870   23.4100   -1.7800 C   0  0  0  0  0
   -4.7050   23.8720   -0.9100 C   0  0  0  0  0
   -4.1830   23.0370    0.0710 C   0  0  0  0  0
   -4.6420   21.7330    0.1850 C   0  0  0  0  0
   -5.6200   21.2680   -0.6890 C   0  0  0  0  0
  -13.7124   14.7116    1.9358 H   0  0  0  0  0
  -15.3871   15.3165    1.9636 H   0  0  0  0  0
  -15.0458   13.6206    2.3863 H   0  0  0  0  0
  -15.9675   13.8039    0.1051 H   0  0  0  0  0
  -14.2096   12.5511   -1.0848 H   0  0  0  0  0
  -13.0147   13.0603    0.1334 H   0  0  0  0  0
  -14.3639   11.9959    0.6001 H   0  0  0  0  0
  -18.2457   15.7150   -3.1498 H   0  0  0  0  0
  -15.1425   18.8462   -4.4886 H   0  0  0  0  0
  -13.7468   18.6291   -3.4273 H   0  0  0  0  0
  -13.6657   19.3288   -1.5441 H   0  0  0  0  0
  -10.9856   15.9739   -1.6783 H   0  0  0  0  0
   -8.5409   16.8100   -1.0692 H   0  0  0  0  0
   -8.7132   16.7450   -2.8404 H   0  0  0  0  0
   -8.0603   18.2077   -2.0623 H   0  0  0  0  0
  -12.8206   21.5736   -1.7493 H   0  0  0  0  0
  -10.8623   23.1047   -1.9974 H   0  0  0  0  0
   -6.8636   21.8157   -3.5966 H   0  0  0  0  0
   -7.2679   20.5512   -2.4685 H   0  0  0  0  0
   -6.0928   24.0733   -2.5438 H   0  0  0  0  0
   -4.3422   24.8961   -0.9981 H   0  0  0  0  0
   -3.4142   23.4063    0.7497 H   0  0  0  0  0
   -4.2386   21.0758    0.9554 H   0  0  0  0  0
   -5.9750   20.2411   -0.6021 H   0  0  0  0  0
  1  2  1  0  0  0
  2  3  1  0  0  0
  2  4  1  0  0  0
  4  5  4  0  0  0
  4  6  4  0  0  0
  5 13  4  0  0  0
  6  7  4  0  0  0
  6 12  4  0  0  0
  7  8  4  0  0  0
  8  9  4  0  0  0
  9 10  4  0  0  0
 10 11  1  0  0  0
 10 12  4  0  0  0
 12 13  4  0  0  0
 13 14  1  0  0  0
 14 15  4  0  0  0
 14 16  4  0  0  0
 15 21  4  0  0  0
 16 17  4  0  0  0
 17 18  1  0  0  0
 17 19  4  0  0  0
 19 20  4  0  0  0
 19 21  4  0  0  0
 20 24  4  0  0  0
 21 22  4  0  0  0
 22 23  4  0  0  0
 23 24  4  0  0  0
 24 25  1  0  0  0
 25 26  1  0  0  0
 26 27  1  0  0  0
 27 28  4  0  0  0
 27 32  4  0  0  0
 28 29  4  0  0  0
 29 30  4  0  0  0
 30 31  4  0  0  0
 31 32  4  0  0  0
  1 33  1  0  0  0
  1 34  1  0  0  0
  1 35  1  0  0  0
  2 36  1  0  0  0
  3 37  1  0  0  0
  3 38  1  0  0  0
  3 39  1  0  0  0
  8 40  1  0  0  0
 11 41  1  0  0  0
 11 42  1  0  0  0
 15 43  1  0  0  0
 16 44  1  0  0  0
 18 45  1  0  0  0
 18 46  1  0  0  0
 18 47  1  0  0  0
 22 48  1  0  0  0
 23 49  1  0  0  0
 26 50  1  0  0  0
 26 51  1  0  0  0
 28 52  1  0  0  0
 29 53  1  0  0  0
 30 54  1  0  0  0
 31 55  1  0  0  0
 32 56  1  0  0  0
M  END
$$$$
