2o4h_ligand
  -I-interpret- 

 23 22  0  0  0  0  0  0  0  0999 V2000
  -41.9710    9.6210  -39.3200 C   0  0  0  0  0
  -42.7180    9.5120  -40.9470 P   0  0  0  0  0
  -44.2310    8.9610  -40.8000 O   0  0  0  0  0
  -42.7220   10.8440  -41.5630 O   0  0  0  0  0
  -41.8770    8.3600  -41.7090 N   0  0  0  0  0
  -42.4630    7.8770  -42.9760 C   0  0  0  0  0
  -43.4070    6.6550  -42.7570 C   0  0  0  0  0
  -44.4220    6.5840  -43.4770 O   0  0  0  0  0
  -43.1170    5.8060  -41.8830 O   0  0  0  0  0
  -41.2840    7.4890  -43.8800 C   0  0  0  0  0
  -41.3850    8.0210  -45.3200 C   0  0  0  0  0
  -41.8310    9.1860  -45.5040 O   0  0  0  0  0
  -40.9900    7.2320  -46.2080 O   0  0  0  0  0
  -40.9480    9.9851  -39.4149 H   0  0  0  0  0
  -42.5473   10.3098  -38.7024 H   0  0  0  0  0
  -41.9653    8.6341  -38.8574 H   0  0  0  0  0
  -44.2154    8.0901  -40.3963 H   0  0  0  0  0
  -41.0006    7.9916  -41.3395 H   0  0  0  0  0
  -43.0777    8.6566  -43.4260 H   0  0  0  0  0
  -42.2973    6.0591  -41.4521 H   0  0  0  0  0
  -41.2726    6.4008  -43.9412 H   0  0  0  0  0
  -40.3869    7.9249  -43.4403 H   0  0  0  0  0
  -42.0635    9.5757  -44.6580 H   0  0  0  0  0
  1  2  1  0  0  0
  2  3  1  0  0  0
  2  4  2  0  0  0
  2  5  1  0  0  0
  5  6  1  0  0  0
  6  7  1  0  0  0
  6 10  1  0  0  0
  7  8  2  0  0  0
  7  9  1  0  0  0
 10 11  1  0  0  0
 11 12  1  0  0  0
 11 13  2  0  0  0
  1 14  1  0  0  0
  1 15  1  0  0  0
  1 16  1  0  0  0
  3 17  1  0  0  0
  5 18  1  0  0  0
  6 19  1  0  0  0
  9 20  1  0  0  0
 10 21  1  0  0  0
 10 22  1  0  0  0
 12 23  1  0  0  0
M  END
$$$$
