### 
### Created by X-TOOL on Mon Sep 10 21:12:56 2018
### 

@<TRIPOS>MOLECULE
2o4h_ligand
   20    19     1     0     0
SMALL
GAST_HUCK


@<TRIPOS>ATOM
      1 CAA       -41.9710    9.6210  -39.3200 C.3       1 AS9         0.0175
      2 PAM       -42.7180    9.5120  -40.9470 P.3       1 AS9         0.0602
      3 OAG       -44.2310    8.9610  -40.8000 O.co2     1 AS9        -0.6071
      4 OAD       -42.7220   10.8440  -41.5630 O.co2     1 AS9        -0.6071
      5 N         -41.8770    8.3600  -41.7090 N.am      1 AS9        -0.2795
      6 CA        -42.4630    7.8770  -42.9760 C.3       1 AS9         0.0974
      7 C         -43.4070    6.6550  -42.7570 C.2       1 AS9         0.0579
      8 OXT       -44.4220    6.5840  -43.4770 O.co2     1 AS9        -0.5669
      9 O         -43.1170    5.8060  -41.8830 O.co2     1 AS9        -0.5669
     10 CB        -41.2840    7.4890  -43.8800 C.3       1 AS9         0.0316
     11 CG        -41.3850    8.0210  -45.3200 C.2       1 AS9         0.0383
     12 OD2       -41.8310    9.1860  -45.5040 O.co2     1 AS9        -0.5688
     13 OD1       -40.9900    7.2320  -46.2080 O.co2     1 AS9        -0.5688
     14 H1        -41.9646    8.6255  -38.8521 H         1 AS9         0.0443
     15 H2        -42.5518   10.3159  -38.6957 H         1 AS9         0.0443
     16 H3        -40.9385    9.9883  -39.4144 H         1 AS9         0.0443
     17 H4        -41.0178    7.9988  -41.3467 H         1 AS9         0.1661
     18 H5        -43.0401    8.6876  -43.4448 H         1 AS9         0.0698
     19 H6        -41.2294    6.3912  -43.9220 H         1 AS9         0.0467
     20 H7        -40.3613    7.8851  -43.4309 H         1 AS9         0.0467
@<TRIPOS>BOND
     1    1    2 1  
     2    2    3 ar 
     3    2    4 ar 
     4    2    5 am 
     5    5    6 1  
     6    6    7 1  
     7    6   10 1  
     8    7    8 ar 
     9    7    9 ar 
    10   10   11 1  
    11   11   12 ar 
    12   11   13 ar 
    13    1   14 1  
    14    1   15 1  
    15    1   16 1  
    16    5   17 1  
    17    6   18 1  
    18   10   19 1  
    19   10   20 1  
@<TRIPOS>SUBSTRUCTURE
     1 AS9         1

