### 
### Created by X-TOOL on Fri Nov 18 12:30:21 2016
### 

@<TRIPOS>MOLECULE
1ct8_ligand
   55    56     1     0     0
SMALL
GAST_HUCK


@<TRIPOS>ATOM
      1 F1         65.0330   24.5750   35.6880 F         1 TAA        -0.1704
      2 F2         66.7840   24.7680   34.2370 F         1 TAA        -0.1704
      3 F3         65.5050   22.9310   34.1260 F         1 TAA        -0.1704
      4 CL1        59.0390   36.1050   27.2630 Cl        1 TAA        -0.0800
      5 CL2        57.9370   37.2690   29.7060 Cl        1 TAA        -0.0800
      6 P1         59.6710   29.6930   30.2390 P.3       1 TAA         0.1331
      7 O1         59.1360   31.1000   29.6780 O.3       1 TAA        -0.2594
      8 O2         59.7220   28.6960   29.1910 O.co2     1 TAA        -0.6189
      9 O3         58.8370   29.3040   31.4270 O.co2     1 TAA        -0.6189
     10 C1         61.2770   30.1090   30.6770 C.3       1 TAA         0.0650
     11 C2         62.0410   29.0300   31.3560 C.ar      1 TAA        -0.0376
     12 C3         61.7030   28.7660   32.6780 C.ar      1 TAA        -0.0709
     13 C7         63.0570   28.3010   30.7110 C.ar      1 TAA        -0.0709
     14 C4         62.3420   27.8030   33.3960 C.ar      1 TAA        -0.0462
     15 C5         63.3690   27.0570   32.8110 C.ar      1 TAA         0.0617
     16 C6         63.7270   27.3010   31.4530 C.ar      1 TAA        -0.0462
     17 N1         64.1250   26.1400   33.7200 N.am      1 TAA        -0.2294
     18 C8         64.6080   24.9730   33.2980 C.2       1 TAA         0.3245
     19 O4         64.4920   24.4900   32.1670 O.2       1 TAA        -0.3276
     20 C9         65.4890   24.2770   34.3790 C.3       1 TAA         0.4797
     21 C10        57.8250   31.1850   29.0340 C.3       1 TAA         0.1542
     22 C11        57.1850   32.4170   29.5720 C.3       1 TAA         0.1069
     23 C12        56.6940   32.1900   31.0920 C.3       1 TAA         0.0719
     24 O5         56.2660   33.4180   31.6930 O.3       1 TAA        -0.3925
     25 N2         57.9860   33.5890   29.4070 N.am      1 TAA        -0.2744
     26 C13        57.5180   34.7540   29.0350 C.2       1 TAA         0.2096
     27 O6         56.3360   34.9730   28.7820 O.2       1 TAA        -0.3941
     28 C14        58.5690   35.8120   28.9600 C.3       1 TAA         0.1958
     29 C15        57.8470   31.0960   27.5440 C.ar      1 TAA        -0.0007
     30 C16        56.8800   30.4200   26.8530 C.ar      1 TAA        -0.0488
     31 C20        58.9010   31.7230   26.8860 C.ar      1 TAA        -0.0488
     32 C17        56.9570   30.3600   25.5000 C.ar      1 TAA        -0.0252
     33 C18        58.0210   30.9900   24.8280 C.ar      1 TAA         0.1925
     34 C19        58.9850   31.6680   25.5200 C.ar      1 TAA        -0.0252
     35 N3         58.1100   30.9530   23.4030 N.2       1 TAA         0.3095
     36 O7         58.9130   31.7220   22.8550 O.2       1 TAA         0.1751
     37 O8         57.3770   30.1790   22.7570 O.2       1 TAA         0.1751
     38 H1         61.2329   30.9745   31.3545 H         1 TAA         0.0621
     39 H2         61.8195   30.3873   29.7614 H         1 TAA         0.0621
     40 H3         60.9125   29.3402   33.1476 H         1 TAA         0.0523
     41 H4         63.3179   28.4997   29.6778 H         1 TAA         0.0523
     42 H5         62.0540   27.6140   34.4238 H         1 TAA         0.0493
     43 H6         64.5144   26.7188   30.9882 H         1 TAA         0.0493
     44 H7         64.2717   26.4111   34.6713 H         1 TAA         0.2256
     45 H8         57.2313   30.3250   29.3773 H         1 TAA         0.0862
     46 H9         56.2776   32.5837   28.9729 H         1 TAA         0.0634
     47 H10        57.5270   31.7758   31.6789 H         1 TAA         0.0583
     48 H11        55.8546   31.4790   31.0944 H         1 TAA         0.0583
     49 H12        56.9881   34.0352   31.6982 H         1 TAA         0.2095
     50 H13        58.9668   33.5146   29.5872 H         1 TAA         0.1859
     51 H14        59.4570   35.4797   29.5176 H         1 TAA         0.0879
     52 H15        56.0634   29.9388   27.3789 H         1 TAA         0.0575
     53 H16        59.6553   32.2548   27.4545 H         1 TAA         0.0575
     54 H17        56.1995   29.8271   24.9368 H         1 TAA         0.0676
     55 H18        59.8012   32.1534   24.9973 H         1 TAA         0.0676
@<TRIPOS>BOND
     1   28    5 1  
     2   28    4 1  
     3   20    1 1  
     4   20    2 1  
     5   20    3 1  
     6   10    6 1  
     7    6    9 ar 
     8    6    8 ar 
     9    6    7 1  
    10    7   21 1  
    11   21   29 1  
    12   21   22 1  
    13   22   25 1  
    14   22   23 1  
    15   23   24 1  
    16   25   26 am 
    17   26   28 1  
    18   26   27 2  
    19   29   31 ar 
    20   29   30 ar 
    21   30   32 ar 
    22   32   33 ar 
    23   33   35 1  
    24   34   33 ar 
    25   31   34 ar 
    26   35   37 2  
    27   35   36 2  
    28   11   10 1  
    29   13   11 ar 
    30   12   11 ar 
    31   14   12 ar 
    32   15   14 ar 
    33   17   15 1  
    34   15   16 ar 
    35   16   13 ar 
    36   18   17 am 
    37   18   20 1  
    38   18   19 2  
    39   10   38 1  
    40   10   39 1  
    41   12   40 1  
    42   13   41 1  
    43   14   42 1  
    44   16   43 1  
    45   17   44 1  
    46   21   45 1  
    47   22   46 1  
    48   23   47 1  
    49   23   48 1  
    50   24   49 1  
    51   25   50 1  
    52   28   51 1  
    53   30   52 1  
    54   31   53 1  
    55   32   54 1  
    56   34   55 1  
@<TRIPOS>SUBSTRUCTURE
     1 TAA         1

