1ct8_ligand
  -I-interpret- 

 56 57  0  0  0  0  0  0  0  0999 V2000
   65.0330   24.5750   35.6880 F   0  0  0  0  0
   66.7840   24.7680   34.2370 F   0  0  0  0  0
   65.5050   22.9310   34.1260 F   0  0  0  0  0
   59.0390   36.1050   27.2630 Cl  0  0  0  0  0
   57.9370   37.2690   29.7060 Cl  0  0  0  0  0
   59.6710   29.6930   30.2390 P   0  0  0  0  0
   59.1360   31.1000   29.6780 O   0  0  0  0  0
   59.7220   28.6960   29.1910 O   0  0  0  0  0
   58.8370   29.3040   31.4270 O   0  0  0  0  0
   61.2770   30.1090   30.6770 C   0  0  0  0  0
   62.0410   29.0300   31.3560 C   0  0  0  0  0
   61.7030   28.7660   32.6780 C   0  0  0  0  0
   63.0570   28.3010   30.7110 C   0  0  0  0  0
   62.3420   27.8030   33.3960 C   0  0  0  0  0
   63.3690   27.0570   32.8110 C   0  0  0  0  0
   63.7270   27.3010   31.4530 C   0  0  0  0  0
   64.1250   26.1400   33.7200 N   0  0  0  0  0
   64.6080   24.9730   33.2980 C   0  0  0  0  0
   64.4920   24.4900   32.1670 O   0  0  0  0  0
   65.4890   24.2770   34.3790 C   0  0  0  0  0
   57.8250   31.1850   29.0340 C   0  0  0  0  0
   57.1850   32.4170   29.5720 C   0  0  0  0  0
   56.6940   32.1900   31.0920 C   0  0  0  0  0
   56.2660   33.4180   31.6930 O   0  0  0  0  0
   57.9860   33.5890   29.4070 N   0  0  0  0  0
   57.5180   34.7540   29.0350 C   0  0  0  0  0
   56.3360   34.9730   28.7820 O   0  0  0  0  0
   58.5690   35.8120   28.9600 C   0  0  0  0  0
   57.8470   31.0960   27.5440 C   0  0  0  0  0
   56.8800   30.4200   26.8530 C   0  0  0  0  0
   58.9010   31.7230   26.8860 C   0  0  0  0  0
   56.9570   30.3600   25.5000 C   0  0  0  0  0
   58.0210   30.9900   24.8280 C   0  0  0  0  0
   58.9850   31.6680   25.5200 C   0  0  0  0  0
   58.1100   30.9530   23.4030 N   0  0  0  0  0
   58.9130   31.7220   22.8550 O   0  0  0  0  0
   57.3770   30.1790   22.7570 O   0  0  0  0  0
   58.8533   30.0130   32.0740 H   0  0  0  0  0
   61.2069   30.9372   31.3822 H   0  0  0  0  0
   61.8071   30.3364   29.7521 H   0  0  0  0  0
   60.9082   29.3434   33.1502 H   0  0  0  0  0
   63.3193   28.5008   29.6721 H   0  0  0  0  0
   62.0524   27.6129   34.4295 H   0  0  0  0  0
   64.5188   26.7156   30.9856 H   0  0  0  0  0
   64.2746   26.4166   34.6903 H   0  0  0  0  0
   57.2290   30.3055   29.2776 H   0  0  0  0  0
   56.2970   32.6087   28.9697 H   0  0  0  0  0
   57.5295   31.7950   31.6699 H   0  0  0  0  0
   55.8524   31.4973   31.0837 H   0  0  0  0  0
   55.9809   33.2496   32.5941 H   0  0  0  0  0
   58.9864   33.5131   29.5908 H   0  0  0  0  0
   59.4650   35.4920   29.4918 H   0  0  0  0  0
   56.0588   29.9361   27.3819 H   0  0  0  0  0
   59.6595   32.2577   27.4577 H   0  0  0  0  0
   56.1953   29.8242   24.9337 H   0  0  0  0  0
   59.8057   32.1561   24.9944 H   0  0  0  0  0
 28  5  1  0  0  0
 28  4  1  0  0  0
 20  1  1  0  0  0
 20  2  1  0  0  0
 20  3  1  0  0  0
 10  6  1  0  0  0
  6  9  1  0  0  0
  6  8  2  0  0  0
  6  7  1  0  0  0
  7 21  1  0  0  0
 21 29  1  0  0  0
 21 22  1  0  0  0
 22 25  1  0  0  0
 22 23  1  0  0  0
 23 24  1  0  0  0
 25 26  1  0  0  0
 26 28  1  0  0  0
 26 27  2  0  0  0
 29 31  4  0  0  0
 29 30  4  0  0  0
 30 32  4  0  0  0
 32 33  4  0  0  0
 33 35  1  0  0  0
 34 33  4  0  0  0
 31 34  4  0  0  0
 35 37  2  0  0  0
 35 36  2  0  0  0
 11 10  1  0  0  0
 13 11  4  0  0  0
 12 11  4  0  0  0
 14 12  4  0  0  0
 15 14  4  0  0  0
 17 15  1  0  0  0
 15 16  4  0  0  0
 16 13  4  0  0  0
 18 17  1  0  0  0
 18 20  1  0  0  0
 18 19  2  0  0  0
  9 38  1  0  0  0
 10 39  1  0  0  0
 10 40  1  0  0  0
 12 41  1  0  0  0
 13 42  1  0  0  0
 14 43  1  0  0  0
 16 44  1  0  0  0
 17 45  1  0  0  0
 21 46  1  0  0  0
 22 47  1  0  0  0
 23 48  1  0  0  0
 23 49  1  0  0  0
 24 50  1  0  0  0
 25 51  1  0  0  0
 28 52  1  0  0  0
 30 53  1  0  0  0
 31 54  1  0  0  0
 32 55  1  0  0  0
 34 56  1  0  0  0
M  END
$$$$
