3rik_ligand
  -I-interpret- 

 32 32  0  0  0  0  0  0  0  0999 V2000
   10.0930   -5.8000   37.6670 O   0  0  0  0  0
    9.7280  -11.8710   38.3290 O   0  0  0  0  0
   13.1520   -8.4060   41.2000 O   0  0  0  0  0
   11.8580  -12.7500   39.5230 O   0  0  0  0  0
   13.3330  -11.4830   41.3050 O   0  0  0  0  0
    9.2950   -6.9430   38.0300 C   0  0  0  0  0
    9.4740   -7.3710   39.5080 C   0  0  0  0  0
    9.6280   -9.7830   39.2170 C   0  0  0  0  0
   10.7700   -8.7080   41.0580 C   0  0  0  0  0
   10.5970  -10.8560   38.7680 C   0  0  0  0  0
   12.1300   -9.3910   41.3230 C   0  0  0  0  0
   11.3570  -11.4830   39.9440 C   0  0  0  0  0
   12.5210  -10.6330   40.4870 C   0  0  0  0  0
   10.3560   -8.5680   39.6450 N   0  3  0  0  0
    9.9396   -5.5841   36.7443 H   0  0  0  0  0
   10.2429  -12.6180   38.0152 H   0  0  0  0  0
   14.0070   -8.8117   41.3615 H   0  0  0  0  0
   12.3379  -13.1595   40.2466 H   0  0  0  0  0
   13.5865  -12.2611   40.8031 H   0  0  0  0  0
    9.6117   -7.7778   37.4047 H   0  0  0  0  0
    8.2486   -6.6720   37.8900 H   0  0  0  0  0
    8.4927   -7.6248   39.9091 H   0  0  0  0  0
    9.9373   -6.5446   40.0469 H   0  0  0  0  0
    9.0479  -10.1614   40.0587 H   0  0  0  0  0
    8.9741   -9.5270   38.3833 H   0  0  0  0  0
   10.8657   -7.6928   41.4431 H   0  0  0  0  0
   10.0198   -9.3445   41.5273 H   0  0  0  0  0
   11.3196  -10.4565   38.0564 H   0  0  0  0  0
   12.0175   -9.8062   42.3245 H   0  0  0  0  0
   10.6472  -11.5666   40.7670 H   0  0  0  0  0
   13.0315  -10.2366   39.6093 H   0  0  0  0  0
   11.1801   -8.4508   39.0554 H   0  0  0  0  0
  6  1  1  0  0  0
 10  2  1  0  0  0
 11  3  1  0  0  0
 12  4  1  0  0  0
 13  5  1  0  0  0
  7  6  1  0  0  0
 14  7  1  0  0  0
  8 10  1  0  0  0
 14  8  1  0  0  0
 11  9  1  0  0  0
  9 14  1  0  0  0
 10 12  1  0  0  0
 11 13  1  0  0  0
 12 13  1  0  0  0
  1 15  1  0  0  0
  2 16  1  0  0  0
  3 17  1  0  0  0
  4 18  1  0  0  0
  5 19  1  0  0  0
  6 20  1  0  0  0
  6 21  1  0  0  0
  7 22  1  0  0  0
  7 23  1  0  0  0
  8 24  1  0  0  0
  8 25  1  0  0  0
  9 26  1  0  0  0
  9 27  1  0  0  0
 10 28  1  0  0  0
 11 29  1  0  0  0
 12 30  1  0  0  0
 13 31  1  0  0  0
 14 32  1  0  0  0
M  END
$$$$
