### 
### Created by X-TOOL on Wed Jan  1 15:39:34 2020
### 

@<TRIPOS>MOLECULE
6g0q_ligand
  176   176     1     0     0
SMALL
GAST_HUCK


@<TRIPOS>ATOM
      1 N          27.3310   21.1420   24.6890 N.4       1 SER         0.2396
      2 CA         28.5320   22.0360   24.6100 C.3       1 SER         0.0884
      3 C          29.7850   21.3580   24.1010 C.2       1 SER         0.2288
      4 O          30.7660   22.0370   23.8820 O.2       1 SER        -0.3906
      5 CB         28.8260   22.6400   25.9740 C.3       1 SER         0.1041
      6 OG         29.0140   21.6270   26.9450 O.3       1 SER        -0.3870
      7 N          29.7890   20.0390   23.9450 N.am      1 GLY        -0.2636
      8 CA         30.8660   19.3590   23.2480 C.3       1 GLY         0.1202
      9 C          30.3840   18.2460   22.3540 C.2       1 GLY         0.2007
     10 O          29.2190   17.9140   22.2620 O.2       1 GLY        -0.3947
     11 OH         35.3460   20.9370   16.4870 O.2       1 ALY        -0.3974
     12 CH         35.1100   20.0420   15.6660 C.2       1 ALY         0.1729
     13 CH3        35.9820   19.7910   14.4910 C.3       1 ALY         0.0256
     14 NZ         34.0340   19.2620   15.7260 N.am      1 ALY        -0.2872
     15 CE         33.0410   19.3420   16.8100 C.3       1 ALY         0.0309
     16 CD         33.1480   18.1060   17.6890 C.3       1 ALY        -0.0325
     17 CG         32.0840   18.0820   18.7860 C.3       1 ALY        -0.0470
     18 CB         32.1540   16.7360   19.5220 C.3       1 ALY        -0.0123
     19 CA         31.1070   16.6560   20.6480 C.3       1 ALY         0.1310
     20 N          31.3590   17.6790   21.6600 N.am      1 ALY        -0.2640
     21 C          31.1420   15.2340   21.1870 C.2       1 ALY         0.2037
     22 O          30.7840   14.3120   20.4770 O.2       1 ALY        -0.3944
     23 N          31.5970   15.0590   22.4300 N.am      1 GLY        -0.2664
     24 CA         31.6210   13.7340   23.0460 C.3       1 GLY         0.1201
     25 C          32.8610   12.9580   22.6910 C.2       1 GLY         0.2007
     26 O          33.7540   13.3980   21.9910 O.2       1 GLY        -0.3947
     27 N          32.9240   11.7380   23.1970 N.am      1 LYS        -0.2640
     28 CA         34.0330   10.8470   22.9440 C.3       1 LYS         0.1310
     29 C          33.9830   10.3990   21.4980 C.2       1 LYS         0.2039
     30 O          32.9090   10.3260   20.8640 O.2       1 LYS        -0.3944
     31 CB         33.9920    9.6600   23.8950 C.3       1 LYS        -0.0122
     32 CG         34.2310   10.0320   25.3720 C.3       1 LYS        -0.0440
     33 CD         35.6730   10.3490   25.7280 C.3       1 LYS        -0.0124
     34 CE         35.8690   10.5070   27.2450 C.3       1 LYS        -0.0354
     35 NZ         37.3280   10.6670   27.5290 N.4       1 LYS         0.2185
     36 OH         33.5500   15.2740   15.6600 O.2       1 ALY        -0.3974
     37 CH         32.6890   14.4490   15.9060 C.2       1 ALY         0.1729
     38 CH3        31.5290   14.2210   15.0160 C.3       1 ALY         0.0256
     39 NZ         32.7120   13.7250   17.0090 N.am      1 ALY        -0.2872
     40 CE         33.7630   13.7280   17.9800 C.3       1 ALY         0.0309
     41 CD         34.5080   12.4000   17.8610 C.3       1 ALY        -0.0325
     42 CG         35.6440   12.2760   18.8730 C.3       1 ALY        -0.0470
     43 CB         36.1990   10.8590   18.8810 C.3       1 ALY        -0.0123
     44 CA         35.2960    9.7950   19.5360 C.3       1 ALY         0.1310
     45 N          35.1550   10.1240   20.9490 N.am      1 ALY        -0.2637
     46 C          35.9380    8.4570   19.3430 C.2       1 ALY         0.2039
     47 O          36.8710    8.1090   20.0470 O.2       1 ALY        -0.3944
     48 N          35.4660    7.7290   18.3350 N.am      1 LYS        -0.2637
     49 CA         36.1310    6.5220   17.8640 C.3       1 LYS         0.1310
     50 C          37.1160    6.8740   16.7710 C.2       1 LYS         0.2039
     51 O          36.8770    7.7920   16.0030 O.2       1 LYS        -0.3944
     52 CB         35.1200    5.5210   17.3510 C.3       1 LYS        -0.0122
     53 CG         34.0780    5.1450   18.3820 C.3       1 LYS        -0.0440
     54 CD         33.1940    3.9950   18.0100 C.3       1 LYS        -0.0124
     55 CE         32.1780    3.7010   19.1090 C.3       1 LYS        -0.0354
     56 NZ         31.4030    2.4520   18.8680 N.4       1 LYS         0.2185
     57 N          38.2240    6.1630   16.6960 N.am      1 ARG        -0.2637
     58 CA         39.1150    6.3330   15.5660 C.3       1 ARG         0.1311
     59 C          38.5660    5.6620   14.3140 C.2       1 ARG         0.2037
     60 O          37.7350    4.7530   14.3930 O.2       1 ARG        -0.3944
     61 CB         40.5070    5.8140   15.8680 C.3       1 ARG        -0.0092
     62 CG         40.5740    4.3390   16.2120 C.3       1 ARG        -0.0156
     63 CD         41.9930    3.7910   16.1640 C.3       1 ARG         0.0627
     64 NE         42.3360    3.5190   14.7600 N.pl3     1 ARG        -0.2723
     65 CZ         43.4270    2.9070   14.3900 C.cat     1 ARG         0.2882
     66 NH1        43.6190    2.6880   13.1000 N.pl3     1 ARG        -0.2849
     67 NH2        44.3220    2.5400   15.2760 N.pl3     1 ARG        -0.2849
     68 N          39.0730    6.0980   13.1680 N.am      1 GLY        -0.2664
     69 CA         38.8140    5.4150   11.9000 C.3       1 GLY         0.1201
     70 C          39.7620    4.2400   11.7010 C.2       1 GLY         0.2003
     71 O          40.6350    3.9270   12.5120 O.2       1 GLY        -0.3947
     72 N          39.6110    3.6020   10.5500 N.am      1 TYR        -0.2681
     73 CA         40.5310    2.5680   10.1530 C.3       1 TYR         0.1025
     74 C          41.9140    3.1310    9.8390 C.2       1 TYR         0.0619
     75 O          42.0030    4.2590    9.3680 O.co2     1 TYR        -0.5665
     76 CB         39.9340    1.8020    8.9670 C.3       1 TYR         0.0108
     77 CG         38.7090    0.9830    9.3510 C.ar      1 TYR        -0.0499
     78 CD1        38.8230   -0.3000    9.8890 C.ar      1 TYR        -0.0686
     79 CD2        37.4450    1.5190    9.2270 C.ar      1 TYR        -0.0686
     80 CE1        37.6990   -1.0150   10.2660 C.ar      1 TYR        -0.0398
     81 CE2        36.3200    0.8350    9.6150 C.ar      1 TYR        -0.0398
     82 CZ         36.4500   -0.4190   10.1510 C.ar      1 TYR         0.0805
     83 OH         35.3210   -1.1010   10.5120 O.3       1 TYR        -0.3376
     84 OXT        42.9140    2.4650   10.1830 O.co2     1 TYR        -0.5665
     85 H1         26.5434   21.6672   25.0352 H         1 SER         0.2016
     86 H2         27.5238   20.3747   25.3136 H         1 SER         0.2016
     87 H3         27.1183   20.7831   23.7714 H         1 SER         0.2016
     88 H4         28.2881   22.8513   23.9130 H         1 SER         0.1122
     89 H5         27.9809   23.2760   26.2761 H         1 SER         0.0640
     90 H6         29.7390   23.2500   25.9086 H         1 SER         0.0640
     91 H7         29.1959   22.0271   27.7872 H         1 SER         0.2099
     92 H8         29.0321   19.5014   24.3165 H         1 GLY         0.1882
     93 H9         31.5531   18.9348   23.9950 H         1 GLY         0.0763
     94 H10        31.4032   20.0948   22.6316 H         1 GLY         0.0763
     95 H11        35.5769   18.9519   13.9064 H         1 ALY         0.0467
     96 H12        36.9971   19.5425   14.8341 H         1 ALY         0.0467
     97 H13        36.0180   20.6926   13.8618 H         1 ALY         0.0467
     98 H14        33.8929   18.5890   14.9999 H         1 ALY         0.1850
     99 H15        32.0308   19.3983   16.3783 H         1 ALY         0.0520
    100 H16        33.2314   20.2401   17.4159 H         1 ALY         0.0520
    101 H17        34.1421   18.0914   18.1597 H         1 ALY         0.0285
    102 H18        33.0273   17.2122   17.0593 H         1 ALY         0.0285
    103 H19        31.0878   18.2048   18.3361 H         1 ALY         0.0268
    104 H20        32.2688   18.9009   19.4968 H         1 ALY         0.0268
    105 H21        33.1573   16.6179   19.9573 H         1 ALY         0.0312
    106 H22        31.9685   15.9247   18.8027 H         1 ALY         0.0312
    107 H23        30.1090   16.8427   20.2249 H         1 ALY         0.0800
    108 H24        32.3022   17.9614   21.8351 H         1 ALY         0.1883
    109 H25        31.9270   15.8480   22.9483 H         1 GLY         0.1881
    110 H26        30.7411   13.1695   22.7039 H         1 GLY         0.0763
    111 H27        31.5789   13.8518   24.1389 H         1 GLY         0.0763
    112 H28        32.1747   11.4195   23.7776 H         1 LYS         0.1883
    113 H29        34.9732   11.3929   23.1115 H         1 LYS         0.0800
    114 H30        34.7688    8.9441   23.5885 H         1 LYS         0.0312
    115 H31        33.0031    9.1853   23.8135 H         1 LYS         0.0312
    116 H32        33.9038    9.1861   25.9944 H         1 LYS         0.0269
    117 H33        33.6197   10.9164   25.6046 H         1 LYS         0.0269
    118 H34        35.9634   11.2872   25.2326 H         1 LYS         0.0317
    119 H35        36.3155    9.5311   25.3700 H         1 LYS         0.0317
    120 H36        35.4877    9.6140   27.7619 H         1 LYS         0.0813
    121 H37        35.3244   11.3953   27.5975 H         1 LYS         0.0813
    122 H38        37.4675   10.7714   28.5218 H         1 LYS         0.1994
    123 H39        37.6753   11.4849   27.0531 H         1 LYS         0.1994
    124 H40        37.8249    9.8526   27.2037 H         1 LYS         0.1994
    125 H41        30.8899   13.4331   15.4412 H         1 ALY         0.0467
    126 H42        31.8845   13.9086   14.0230 H         1 ALY         0.0467
    127 H43        30.9502   15.1517   14.9222 H         1 ALY         0.0467
    128 H44        31.9307   13.1249   17.1804 H         1 ALY         0.1850
    129 H45        33.3398   13.8310   18.9901 H         1 ALY         0.0520
    130 H46        34.4518   14.5629   17.7841 H         1 ALY         0.0520
    131 H47        34.9279   12.3203   16.8474 H         1 ALY         0.0285
    132 H48        33.7952   11.5791   18.0282 H         1 ALY         0.0285
    133 H49        35.2639   12.5214   19.8756 H         1 ALY         0.0268
    134 H50        36.4471   12.9777   18.6034 H         1 ALY         0.0268
    135 H51        37.1551   10.8728   19.4247 H         1 ALY         0.0312
    136 H52        36.3747   10.5582   17.8376 H         1 ALY         0.0312
    137 H53        34.3043    9.7964   19.0602 H         1 ALY         0.0800
    138 H54        35.9731   10.1425   21.5238 H         1 ALY         0.1883
    139 H55        34.6229    8.0214   17.8836 H         1 LYS         0.1883
    140 H56        36.6789    6.0699   18.7038 H         1 LYS         0.0800
    141 H57        35.6545    4.6094   17.0455 H         1 LYS         0.0312
    142 H58        34.6086    5.9557   16.4795 H         1 LYS         0.0312
    143 H59        33.4383    6.0231   18.5543 H         1 LYS         0.0269
    144 H60        34.6010    4.8838   19.3138 H         1 LYS         0.0269
    145 H61        33.8159    3.1022   17.8484 H         1 LYS         0.0317
    146 H62        32.6572    4.2408   17.0819 H         1 LYS         0.0317
    147 H63        31.4738    4.5439   19.1697 H         1 LYS         0.0813
    148 H64        32.7142    3.6016   20.0643 H         1 LYS         0.0813
    149 H65        30.7507    2.3104   19.6233 H         1 LYS         0.1994
    150 H66        32.0352    1.6685   18.8188 H         1 LYS         0.1994
    151 H67        30.8986    2.5319   17.9990 H         1 LYS         0.1994
    152 H68        38.4489    5.5079   17.4174 H         1 ARG         0.1883
    153 H69        39.1935    7.4115   15.3643 H         1 ARG         0.0800
    154 H70        40.9070    6.3828   16.7203 H         1 ARG         0.0313
    155 H71        41.1367    5.9880   14.9831 H         1 ARG         0.0313
    156 H72        39.9564    3.7810   15.4929 H         1 ARG         0.0301
    157 H73        40.1750    4.1954   17.2270 H         1 ARG         0.0301
    158 H74        42.0525    2.8609   16.7482 H         1 ARG         0.0689
    159 H75        42.6918    4.5312   16.5808 H         1 ARG         0.0689
    160 H76        41.6793    3.8285   14.0293 H         1 ARG         0.2642
    161 H77        44.4719    2.2068   12.7807 H         1 ARG         0.2615
    162 H78        42.9157    2.9986   12.4146 H         1 ARG         0.2615
    163 H79        44.1583    2.7174   16.2773 H         1 ARG         0.2615
    164 H80        45.1885    2.0744   14.9704 H         1 ARG         0.2615
    165 H81        39.6481    6.9161   13.1709 H         1 GLY         0.1881
    166 H82        38.9498    6.1288   11.0742 H         1 GLY         0.0763
    167 H83        37.7784    5.0442   11.8976 H         1 GLY         0.0763
    168 H84        38.8484    3.8415    9.9492 H         1 TYR         0.1877
    169 H85        40.6417    1.8659   10.9925 H         1 TYR         0.0747
    170 H86        40.7000    1.1219    8.5661 H         1 TYR         0.0446
    171 H87        39.6439    2.5257    8.1911 H         1 TYR         0.0446
    172 H88        39.8048   -0.7424   10.0133 H         1 TYR         0.0530
    173 H89        37.3359    2.5134    8.8093 H         1 TYR         0.0530
    174 H90        37.7926   -2.0260   10.6457 H         1 TYR         0.0525
    175 H91        35.3394    1.2822    9.4986 H         1 TYR         0.0525
    176 H92        35.5639   -1.9487   10.8654 H         1 TYR         0.2458
@<TRIPOS>BOND
     1    2    1 1  
     2    3    2 1  
     3    2    5 1  
     4    3    4 2  
     5    7    3 am 
     6    5    6 1  
     7    8    7 1  
     8    9    8 1  
     9    9   10 2  
    10   20    9 am 
    11   12   11 2  
    12   12   13 1  
    13   14   12 am 
    14   15   14 1  
    15   16   15 1  
    16   17   16 1  
    17   18   17 1  
    18   19   18 1  
    19   19   20 1  
    20   21   19 1  
    21   21   22 2  
    22   23   21 am 
    23   24   23 1  
    24   25   24 1  
    25   25   26 2  
    26   27   25 am 
    27   28   27 1  
    28   29   28 1  
    29   28   31 1  
    30   29   30 2  
    31   45   29 am 
    32   31   32 1  
    33   32   33 1  
    34   33   34 1  
    35   34   35 1  
    36   37   36 2  
    37   37   38 1  
    38   39   37 am 
    39   40   39 1  
    40   41   40 1  
    41   42   41 1  
    42   43   42 1  
    43   44   43 1  
    44   44   45 1  
    45   44   46 1  
    46   46   47 2  
    47   46   48 am 
    48   48   49 1  
    49   49   50 1  
    50   49   52 1  
    51   50   51 2  
    52   50   57 am 
    53   52   53 1  
    54   53   54 1  
    55   54   55 1  
    56   55   56 1  
    57   57   58 1  
    58   58   59 1  
    59   58   61 1  
    60   59   60 2  
    61   59   68 am 
    62   61   62 1  
    63   62   63 1  
    64   63   64 1  
    65   64   65 ar 
    66   65   66 ar 
    67   65   67 ar 
    68   68   69 1  
    69   69   70 1  
    70   70   71 2  
    71   70   72 am 
    72   72   73 1  
    73   73   74 1  
    74   73   76 1  
    75   74   75 ar 
    76   74   84 ar 
    77   76   77 1  
    78   77   78 ar 
    79   77   79 ar 
    80   78   80 ar 
    81   79   81 ar 
    82   80   82 ar 
    83   81   82 ar 
    84   82   83 1  
    85    1   85 1  
    86    1   86 1  
    87    1   87 1  
    88    2   88 1  
    89    5   89 1  
    90    5   90 1  
    91    6   91 1  
    92    7   92 1  
    93    8   93 1  
    94    8   94 1  
    95   13   95 1  
    96   13   96 1  
    97   13   97 1  
    98   14   98 1  
    99   15   99 1  
   100   15  100 1  
   101   16  101 1  
   102   16  102 1  
   103   17  103 1  
   104   17  104 1  
   105   18  105 1  
   106   18  106 1  
   107   19  107 1  
   108   20  108 1  
   109   23  109 1  
   110   24  110 1  
   111   24  111 1  
   112   27  112 1  
   113   28  113 1  
   114   31  114 1  
   115   31  115 1  
   116   32  116 1  
   117   32  117 1  
   118   33  118 1  
   119   33  119 1  
   120   34  120 1  
   121   34  121 1  
   122   35  122 1  
   123   35  123 1  
   124   35  124 1  
   125   38  125 1  
   126   38  126 1  
   127   38  127 1  
   128   39  128 1  
   129   40  129 1  
   130   40  130 1  
   131   41  131 1  
   132   41  132 1  
   133   42  133 1  
   134   42  134 1  
   135   43  135 1  
   136   43  136 1  
   137   44  137 1  
   138   45  138 1  
   139   48  139 1  
   140   49  140 1  
   141   52  141 1  
   142   52  142 1  
   143   53  143 1  
   144   53  144 1  
   145   54  145 1  
   146   54  146 1  
   147   55  147 1  
   148   55  148 1  
   149   56  149 1  
   150   56  150 1  
   151   56  151 1  
   152   57  152 1  
   153   58  153 1  
   154   61  154 1  
   155   61  155 1  
   156   62  156 1  
   157   62  157 1  
   158   63  158 1  
   159   63  159 1  
   160   64  160 1  
   161   66  161 1  
   162   66  162 1  
   163   67  163 1  
   164   67  164 1  
   165   68  165 1  
   166   69  166 1  
   167   69  167 1  
   168   72  168 1  
   169   73  169 1  
   170   76  170 1  
   171   76  171 1  
   172   78  172 1  
   173   79  173 1  
   174   80  174 1  
   175   81  175 1  
   176   83  176 1  
@<TRIPOS>SUBSTRUCTURE
     1 SER         1

