6g0q_ligand
  -I-interpret- 

176176  0  0  0  0  0  0  0  0999 V2000
   27.3310   21.1420   24.6890 N   0  3  0  0  0
   28.5320   22.0360   24.6100 C   0  0  0  0  0
   29.7850   21.3580   24.1010 C   0  0  0  0  0
   30.7660   22.0370   23.8820 O   0  0  0  0  0
   28.8260   22.6400   25.9740 C   0  0  0  0  0
   29.0140   21.6270   26.9450 O   0  0  0  0  0
   29.7890   20.0390   23.9450 N   0  0  0  0  0
   30.8660   19.3590   23.2480 C   0  0  0  0  0
   30.3840   18.2460   22.3540 C   0  0  0  0  0
   29.2190   17.9140   22.2620 O   0  0  0  0  0
   35.3460   20.9370   16.4870 O   0  0  0  0  0
   35.1100   20.0420   15.6660 C   0  0  0  0  0
   35.9820   19.7910   14.4910 C   0  0  0  0  0
   34.0340   19.2620   15.7260 N   0  0  0  0  0
   33.0410   19.3420   16.8100 C   0  0  0  0  0
   33.1480   18.1060   17.6890 C   0  0  0  0  0
   32.0840   18.0820   18.7860 C   0  0  0  0  0
   32.1540   16.7360   19.5220 C   0  0  0  0  0
   31.1070   16.6560   20.6480 C   0  0  0  0  0
   31.3590   17.6790   21.6600 N   0  0  0  0  0
   31.1420   15.2340   21.1870 C   0  0  0  0  0
   30.7840   14.3120   20.4770 O   0  0  0  0  0
   31.5970   15.0590   22.4300 N   0  0  0  0  0
   31.6210   13.7340   23.0460 C   0  0  0  0  0
   32.8610   12.9580   22.6910 C   0  0  0  0  0
   33.7540   13.3980   21.9910 O   0  0  0  0  0
   32.9240   11.7380   23.1970 N   0  0  0  0  0
   34.0330   10.8470   22.9440 C   0  0  0  0  0
   33.9830   10.3990   21.4980 C   0  0  0  0  0
   32.9090   10.3260   20.8640 O   0  0  0  0  0
   33.9920    9.6600   23.8950 C   0  0  0  0  0
   34.2310   10.0320   25.3720 C   0  0  0  0  0
   35.6730   10.3490   25.7280 C   0  0  0  0  0
   35.8690   10.5070   27.2450 C   0  0  0  0  0
   37.3280   10.6670   27.5290 N   0  3  0  0  0
   33.5500   15.2740   15.6600 O   0  0  0  0  0
   32.6890   14.4490   15.9060 C   0  0  0  0  0
   31.5290   14.2210   15.0160 C   0  0  0  0  0
   32.7120   13.7250   17.0090 N   0  0  0  0  0
   33.7630   13.7280   17.9800 C   0  0  0  0  0
   34.5080   12.4000   17.8610 C   0  0  0  0  0
   35.6440   12.2760   18.8730 C   0  0  0  0  0
   36.1990   10.8590   18.8810 C   0  0  0  0  0
   35.2960    9.7950   19.5360 C   0  0  0  0  0
   35.1550   10.1240   20.9490 N   0  0  0  0  0
   35.9380    8.4570   19.3430 C   0  0  0  0  0
   36.8710    8.1090   20.0470 O   0  0  0  0  0
   35.4660    7.7290   18.3350 N   0  0  0  0  0
   36.1310    6.5220   17.8640 C   0  0  0  0  0
   37.1160    6.8740   16.7710 C   0  0  0  0  0
   36.8770    7.7920   16.0030 O   0  0  0  0  0
   35.1200    5.5210   17.3510 C   0  0  0  0  0
   34.0780    5.1450   18.3820 C   0  0  0  0  0
   33.1940    3.9950   18.0100 C   0  0  0  0  0
   32.1780    3.7010   19.1090 C   0  0  0  0  0
   31.4030    2.4520   18.8680 N   0  3  0  0  0
   38.2240    6.1630   16.6960 N   0  0  0  0  0
   39.1150    6.3330   15.5660 C   0  0  0  0  0
   38.5660    5.6620   14.3140 C   0  0  0  0  0
   37.7350    4.7530   14.3930 O   0  0  0  0  0
   40.5070    5.8140   15.8680 C   0  0  0  0  0
   40.5740    4.3390   16.2120 C   0  0  0  0  0
   41.9930    3.7910   16.1640 C   0  0  0  0  0
   42.3360    3.5190   14.7600 N   0  0  0  0  0
   43.4270    2.9070   14.3900 C   0  0  0  0  0
   43.6190    2.6880   13.1000 N   0  0  0  0  0
   44.3220    2.5400   15.2760 N   0  0  0  0  0
   39.0730    6.0980   13.1680 N   0  0  0  0  0
   38.8140    5.4150   11.9000 C   0  0  0  0  0
   39.7620    4.2400   11.7010 C   0  0  0  0  0
   40.6350    3.9270   12.5120 O   0  0  0  0  0
   39.6110    3.6020   10.5500 N   0  0  0  0  0
   40.5310    2.5680   10.1530 C   0  0  0  0  0
   41.9140    3.1310    9.8390 C   0  0  0  0  0
   42.0030    4.2590    9.3680 O   0  0  0  0  0
   39.9340    1.8020    8.9670 C   0  0  0  0  0
   38.7090    0.9830    9.3510 C   0  0  0  0  0
   38.8230   -0.3000    9.8890 C   0  0  0  0  0
   37.4450    1.5190    9.2270 C   0  0  0  0  0
   37.6990   -1.0150   10.2660 C   0  0  0  0  0
   36.3200    0.8350    9.6150 C   0  0  0  0  0
   36.4500   -0.4190   10.1510 C   0  0  0  0  0
   35.3210   -1.1010   10.5120 O   0  0  0  0  0
   42.9140    2.4650   10.1830 O   0  0  0  0  0
   27.1442   20.7434   23.7689 H   0  0  0  0  0
   27.5106   20.3914   25.3559 H   0  0  0  0  0
   26.5239   21.6851   24.9957 H   0  0  0  0  0
   28.2703   22.8040   23.8821 H   0  0  0  0  0
   27.9803   23.2594   26.2728 H   0  0  0  0  0
   29.7377   23.2335   25.9055 H   0  0  0  0  0
   29.1979   22.0313   27.7961 H   0  0  0  0  0
   29.0169   19.4906   24.3239 H   0  0  0  0  0
   31.5205   18.9188   24.0003 H   0  0  0  0  0
   31.3687   20.0939   22.6192 H   0  0  0  0  0
   36.0169   20.6850   13.8685 H   0  0  0  0  0
   36.9875   19.5449   14.8323 H   0  0  0  0  0
   35.5796   18.9594   13.9126 H   0  0  0  0  0
   33.8901   18.5756   14.9854 H   0  0  0  0  0
   32.0401   19.3974   16.3820 H   0  0  0  0  0
   33.2300   20.2319   17.4104 H   0  0  0  0  0
   34.1274   18.1144   18.1673 H   0  0  0  0  0
   33.0041   17.2286   17.0585 H   0  0  0  0  0
   31.0962   18.2072   18.3425 H   0  0  0  0  0
   32.2633   18.8951   19.4895 H   0  0  0  0  0
   33.1454   16.6341   19.9634 H   0  0  0  0  0
   31.9535   15.9391   18.8058 H   0  0  0  0  0
   30.1008   16.8659   20.2852 H   0  0  0  0  0
   32.3210   17.9671   21.8386 H   0  0  0  0  0
   31.9336   15.8638   22.9586 H   0  0  0  0  0
   30.7585   13.1767   22.6806 H   0  0  0  0  0
   31.6035   13.8649   24.1280 H   0  0  0  0  0
   32.1597   11.4131   23.7892 H   0  0  0  0  0
   34.9736   11.3690   23.1197 H   0  0  0  0  0
   34.7913    8.9806   23.5991 H   0  0  0  0  0
   32.9943    9.2261   23.8280 H   0  0  0  0  0
   33.9434    9.1644   25.9658 H   0  0  0  0  0
   33.6526   10.9351   25.5669 H   0  0  0  0  0
   35.9439   11.2899   25.2490 H   0  0  0  0  0
   36.2981    9.5236   25.3872 H   0  0  0  0  0
   35.4872    9.6256   27.7603 H   0  0  0  0  0
   35.3260   11.3837   27.5980 H   0  0  0  0  0
   37.4680   10.7726   28.5338 H   0  0  0  0  0
   37.8297    9.8424   27.1994 H   0  0  0  0  0
   37.6782   11.4948   27.0469 H   0  0  0  0  0
   30.9564   15.1439   14.9239 H   0  0  0  0  0
   31.8826   13.9116   14.0325 H   0  0  0  0  0
   30.8965   13.4402   15.4384 H   0  0  0  0  0
   31.9150   13.1129   17.1838 H   0  0  0  0  0
   33.3527   13.8444   18.9831 H   0  0  0  0  0
   34.4423   14.5616   17.8015 H   0  0  0  0  0
   34.9396   12.3443   16.8616 H   0  0  0  0  0
   33.7969   11.5965   18.0528 H   0  0  0  0  0
   35.2609   12.5117   19.8659 H   0  0  0  0  0
   36.4408   12.9667   18.5971 H   0  0  0  0  0
   37.1176   10.8892   19.4670 H   0  0  0  0  0
   36.3164   10.5662   17.8376 H   0  0  0  0  0
   34.3032    9.7714   19.0866 H   0  0  0  0  0
   35.9894   10.1429   21.5353 H   0  0  0  0  0
   34.6061    8.0272   17.8746 H   0  0  0  0  0
   36.6670    6.0702   18.6987 H   0  0  0  0  0
   35.6607    4.6137   17.0815 H   0  0  0  0  0
   34.6012    5.9777   16.5081 H   0  0  0  0  0
   33.4283    6.0123   18.4993 H   0  0  0  0  0
   34.6206    4.8439   19.2781 H   0  0  0  0  0
   33.8156    3.1113   17.8658 H   0  0  0  0  0
   32.6550    4.2517   17.0980 H   0  0  0  0  0
   31.4707    4.5299   19.1370 H   0  0  0  0  0
   32.7264    3.5760   20.0427 H   0  0  0  0  0
   30.7433    2.3097   19.6328 H   0  0  0  0  0
   30.8931    2.5341   17.9884 H   0  0  0  0  0
   32.0438    1.6599   18.8183 H   0  0  0  0  0
   38.4534    5.4948   17.4318 H   0  0  0  0  0
   39.1831    7.4047   15.3792 H   0  0  0  0  0
   40.8659    6.3594   16.7408 H   0  0  0  0  0
   41.1008    5.9559   14.9650 H   0  0  0  0  0
   39.9795    3.7958   15.4774 H   0  0  0  0  0
   40.2003    4.2142   17.2283 H   0  0  0  0  0
   42.0595    2.8740   16.7494 H   0  0  0  0  0
   42.6885    4.5171   16.5848 H   0  0  0  0  0
   41.6857    3.8254   14.0364 H   0  0  0  0  0
   44.4721    2.2280   12.7822 H   0  0  0  0  0
   42.9140    2.9791   12.4228 H   0  0  0  0  0
   44.1686    2.7325   16.2658 H   0  0  0  0  0
   39.6596    6.9324   13.1709 H   0  0  0  0  0
   38.9651    6.1245   11.0864 H   0  0  0  0  0
   37.7914    5.0378   11.9115 H   0  0  0  0  0
   38.8331    3.8463    9.9371 H   0  0  0  0  0
   40.6748    1.8757   10.9825 H   0  0  0  0  0
   40.6938    1.1134    8.5974 H   0  0  0  0  0
   39.6265    2.5321    8.2184 H   0  0  0  0  0
   39.8102   -0.7449   10.0140 H   0  0  0  0  0
   37.3353    2.5189    8.8070 H   0  0  0  0  0
   37.7931   -2.0316   10.6478 H   0  0  0  0  0
   35.3340    1.2847    9.4979 H   0  0  0  0  0
   34.5524   -0.5439   10.3687 H   0  0  0  0  0
   42.6286    1.6144   10.5245 H   0  0  0  0  0
  2  1  1  0  0  0
  3  2  1  0  0  0
  2  5  1  0  0  0
  3  4  2  0  0  0
  7  3  1  0  0  0
  5  6  1  0  0  0
  8  7  1  0  0  0
  9  8  1  0  0  0
  9 10  2  0  0  0
 20  9  1  0  0  0
 12 11  2  0  0  0
 12 13  1  0  0  0
 14 12  1  0  0  0
 15 14  1  0  0  0
 16 15  1  0  0  0
 17 16  1  0  0  0
 18 17  1  0  0  0
 19 18  1  0  0  0
 19 20  1  0  0  0
 21 19  1  0  0  0
 21 22  2  0  0  0
 23 21  1  0  0  0
 24 23  1  0  0  0
 25 24  1  0  0  0
 25 26  2  0  0  0
 27 25  1  0  0  0
 28 27  1  0  0  0
 29 28  1  0  0  0
 28 31  1  0  0  0
 29 30  2  0  0  0
 45 29  1  0  0  0
 31 32  1  0  0  0
 32 33  1  0  0  0
 33 34  1  0  0  0
 34 35  1  0  0  0
 37 36  2  0  0  0
 37 38  1  0  0  0
 39 37  1  0  0  0
 40 39  1  0  0  0
 41 40  1  0  0  0
 42 41  1  0  0  0
 43 42  1  0  0  0
 44 43  1  0  0  0
 44 45  1  0  0  0
 44 46  1  0  0  0
 46 47  2  0  0  0
 46 48  1  0  0  0
 48 49  1  0  0  0
 49 50  1  0  0  0
 49 52  1  0  0  0
 50 51  2  0  0  0
 50 57  1  0  0  0
 52 53  1  0  0  0
 53 54  1  0  0  0
 54 55  1  0  0  0
 55 56  1  0  0  0
 57 58  1  0  0  0
 58 59  1  0  0  0
 58 61  1  0  0  0
 59 60  2  0  0  0
 59 68  1  0  0  0
 61 62  1  0  0  0
 62 63  1  0  0  0
 63 64  1  0  0  0
 64 65  1  0  0  0
 65 66  1  0  0  0
 65 67  2  0  0  0
 68 69  1  0  0  0
 69 70  1  0  0  0
 70 71  2  0  0  0
 70 72  1  0  0  0
 72 73  1  0  0  0
 73 74  1  0  0  0
 73 76  1  0  0  0
 74 75  2  0  0  0
 74 84  1  0  0  0
 76 77  1  0  0  0
 77 78  4  0  0  0
 77 79  4  0  0  0
 78 80  4  0  0  0
 79 81  4  0  0  0
 80 82  4  0  0  0
 81 82  4  0  0  0
 82 83  1  0  0  0
  1 85  1  0  0  0
  1 86  1  0  0  0
  1 87  1  0  0  0
  2 88  1  0  0  0
  5 89  1  0  0  0
  5 90  1  0  0  0
  6 91  1  0  0  0
  7 92  1  0  0  0
  8 93  1  0  0  0
  8 94  1  0  0  0
 13 95  1  0  0  0
 13 96  1  0  0  0
 13 97  1  0  0  0
 14 98  1  0  0  0
 15 99  1  0  0  0
 15100  1  0  0  0
 16101  1  0  0  0
 16102  1  0  0  0
 17103  1  0  0  0
 17104  1  0  0  0
 18105  1  0  0  0
 18106  1  0  0  0
 19107  1  0  0  0
 20108  1  0  0  0
 23109  1  0  0  0
 24110  1  0  0  0
 24111  1  0  0  0
 27112  1  0  0  0
 28113  1  0  0  0
 31114  1  0  0  0
 31115  1  0  0  0
 32116  1  0  0  0
 32117  1  0  0  0
 33118  1  0  0  0
 33119  1  0  0  0
 34120  1  0  0  0
 34121  1  0  0  0
 35122  1  0  0  0
 35123  1  0  0  0
 35124  1  0  0  0
 38125  1  0  0  0
 38126  1  0  0  0
 38127  1  0  0  0
 39128  1  0  0  0
 40129  1  0  0  0
 40130  1  0  0  0
 41131  1  0  0  0
 41132  1  0  0  0
 42133  1  0  0  0
 42134  1  0  0  0
 43135  1  0  0  0
 43136  1  0  0  0
 44137  1  0  0  0
 45138  1  0  0  0
 48139  1  0  0  0
 49140  1  0  0  0
 52141  1  0  0  0
 52142  1  0  0  0
 53143  1  0  0  0
 53144  1  0  0  0
 54145  1  0  0  0
 54146  1  0  0  0
 55147  1  0  0  0
 55148  1  0  0  0
 56149  1  0  0  0
 56150  1  0  0  0
 56151  1  0  0  0
 57152  1  0  0  0
 58153  1  0  0  0
 61154  1  0  0  0
 61155  1  0  0  0
 62156  1  0  0  0
 62157  1  0  0  0
 63158  1  0  0  0
 63159  1  0  0  0
 64160  1  0  0  0
 66161  1  0  0  0
 66162  1  0  0  0
 67163  1  0  0  0
 68164  1  0  0  0
 69165  1  0  0  0
 69166  1  0  0  0
 72167  1  0  0  0
 73168  1  0  0  0
 76169  1  0  0  0
 76170  1  0  0  0
 78171  1  0  0  0
 79172  1  0  0  0
 80173  1  0  0  0
 81174  1  0  0  0
 83175  1  0  0  0
 84176  1  0  0  0
M  END
$$$$
