5ecv_ligand
  -I-interpret- 

 30 31  0  0  0  0  0  0  0  0999 V2000
   31.8980   74.9700   61.5560 C   0  0  0  0  0
   35.1240   78.1480   62.8420 C   0  0  0  0  0
   32.1090   76.9240   60.3030 C   0  0  0  0  0
   32.5830   76.0140   61.3090 C   0  0  0  0  0
   33.8240   76.2350   62.0710 C   0  0  0  0  0
   34.2240   75.3290   63.0140 C   0  0  0  0  0
   33.5300   74.2450   63.3010 C   0  0  0  0  0
   32.3570   74.0340   62.5900 C   0  0  0  0  0
   31.5040   73.0590   62.6620 N   0  0  0  0  0
   30.4120   73.3150   61.6820 C   0  0  0  0  0
   30.6390   74.4260   61.0370 C   0  0  0  0  0
   34.7060   77.4050   61.8440 C   0  0  0  0  0
   35.1080   77.6350   60.5770 O   0  0  0  0  0
   36.3450   79.1660   62.7160 C   0  0  0  0  0
   36.6010   79.6970   61.4560 O   0  0  0  0  0
   37.5880   79.0850   63.6820 C   0  0  0  0  0
   38.7180   79.2900   63.1370 O   0  0  0  0  0
   37.3430   78.7740   64.8930 O   0  0  0  0  0
   34.6129   78.0654   63.8012 H   0  0  0  0  0
   32.0399   76.4036   59.3477 H   0  0  0  0  0
   31.1250   77.2971   60.5870 H   0  0  0  0  0
   32.8038   77.7591   60.2139 H   0  0  0  0  0
   35.1552   75.5104   63.5507 H   0  0  0  0  0
   33.8640   73.5434   64.0654 H   0  0  0  0  0
   29.5486   72.6681   61.5264 H   0  0  0  0  0
   30.0127   74.8658   60.2608 H   0  0  0  0  0
   34.6993   76.9934   59.9914 H   0  0  0  0  0
   35.8185   79.9499   63.2604 H   0  0  0  0  0
   35.7897   79.7058   60.9428 H   0  0  0  0  0
   36.3949   78.6841   65.0136 H   0  0  0  0  0
  4  1  4  0  0  0
  1  8  4  0  0  0
  1 11  4  0  0  0
 12  2  2  0  0  0
  2 14  1  0  0  0
  4  3  1  0  0  0
  5  4  4  0  0  0
  5  6  4  0  0  0
  5 12  1  0  0  0
  6  7  4  0  0  0
  7  8  4  0  0  0
  8  9  4  0  0  0
  9 10  4  0  0  0
 10 11  4  0  0  0
 12 13  1  0  0  0
 14 15  1  0  0  0
 14 16  1  0  0  0
 16 17  2  0  0  0
 16 18  1  0  0  0
  2 19  1  0  0  0
  3 20  1  0  0  0
  3 21  1  0  0  0
  3 22  1  0  0  0
  6 23  1  0  0  0
  7 24  1  0  0  0
 10 25  1  0  0  0
 11 26  1  0  0  0
 13 27  1  0  0  0
 14 28  1  0  0  0
 15 29  1  0  0  0
 18 30  1  0  0  0
M  END
$$$$
