5hes_ligand
  -I-interpret- 

 50 53  0  0  0  0  0  0  0  0999 V2000
   28.5690   71.5270   -5.7080 C   0  0  0  0  0
   26.8860   72.2050    2.7770 C   0  0  0  0  0
   26.3120   69.9160    1.9600 C   0  0  0  0  0
   26.1880   68.7280    4.1680 C   0  0  0  0  0
   25.5870   68.4590    5.3950 C   0  0  0  0  0
   24.3230   68.9480    5.6840 C   0  0  0  0  0
   24.3670   70.0400    3.5700 C   0  0  0  0  0
   27.9730   72.5170   -1.6180 C   0  0  0  0  0
   28.2020   73.8030   -1.1440 C   0  0  0  0  0
   27.9760   74.2030    0.0990 N   0  0  0  0  0
   27.4660   71.5530   -0.7380 C   0  0  0  0  0
   27.2820   73.3990    2.2550 N   0  0  0  0  0
   26.8220   71.2610    1.7910 C   0  0  0  0  0
   27.2470   71.9280    0.5810 C   0  0  0  0  0
   27.5230   73.2560    0.9230 C   0  0  0  0  0
   28.2350   72.1890   -3.0310 C   0  0  0  0  0
   25.6060   69.5390    3.2370 C   0  0  0  0  0
   23.7120   69.7620    4.7580 C   0  0  0  0  0
   23.7970   70.9030    2.7120 F   0  0  0  0  0
   27.3620   68.1420    3.8940 F   0  0  0  0  0
   26.3580   67.7260    6.3290 N   0  0  0  0  0
   26.0450   67.3550    7.8610 S   0  0  0  0  0
   27.1540   66.6220    8.3170 O   0  0  0  0  0
   24.7510   66.7690    7.9240 O   0  0  0  0  0
   25.9480   68.9480    8.6250 C   0  0  0  0  0
   27.1480   69.6740    8.8500 C   0  0  0  0  0
   26.8540   71.0220    9.5280 C   0  0  0  0  0
   28.7260   70.9360   -3.4040 C   0  0  0  0  0
   28.9140   70.6100   -4.7350 C   0  0  0  0  0
   28.0890   72.7720   -5.3790 C   0  0  0  0  0
   27.9350   73.1030   -4.0450 C   0  0  0  0  0
   28.6980   71.0750   -7.4060 Cl  0  0  0  0  0
   26.3960   69.0400    1.1550 O   0  0  0  0  0
   26.6541   72.0283    3.8273 H   0  0  0  0  0
   23.8258   68.6945    6.6203 H   0  0  0  0  0
   28.5967   74.5370   -1.8465 H   0  0  0  0  0
   27.2500   70.5400   -1.0777 H   0  0  0  0  0
   22.7261   70.1822    4.9568 H   0  0  0  0  0
   27.2498   67.3799    5.9750 H   0  0  0  0  0
   25.5413   68.7601    9.6187 H   0  0  0  0  0
   25.3741   69.5601    7.9293 H   0  0  0  0  0
   27.6295   69.8617    7.8903 H   0  0  0  0  0
   27.7958   69.0876    9.5016 H   0  0  0  0  0
   26.2000   71.6142    8.8879 H   0  0  0  0  0
   26.3649   70.8463   10.4861 H   0  0  0  0  0
   27.7894   71.5579    9.6890 H   0  0  0  0  0
   28.9650   70.2029   -2.6336 H   0  0  0  0  0
   29.3294   69.6412   -5.0124 H   0  0  0  0  0
   27.8331   73.4891   -6.1590 H   0  0  0  0  0
   27.5726   74.0960   -3.7792 H   0  0  0  0  0
 29  1  4  0  0  0
  1 30  4  0  0  0
  1 32  1  0  0  0
 12  2  4  0  0  0
 13  2  4  0  0  0
 13  3  1  0  0  0
  3 17  1  0  0  0
  3 33  2  0  0  0
  4  5  4  0  0  0
 17  4  4  0  0  0
  4 20  1  0  0  0
  5  6  4  0  0  0
  5 21  1  0  0  0
 18  6  4  0  0  0
 17  7  4  0  0  0
  7 18  4  0  0  0
  7 19  1  0  0  0
  8  9  4  0  0  0
  8 11  4  0  0  0
 16  8  1  0  0  0
  9 10  4  0  0  0
 10 15  4  0  0  0
 11 14  4  0  0  0
 15 12  4  0  0  0
 14 13  4  0  0  0
 14 15  4  0  0  0
 28 16  4  0  0  0
 16 31  4  0  0  0
 21 22  1  0  0  0
 22 23  2  0  0  0
 22 24  2  0  0  0
 22 25  1  0  0  0
 25 26  1  0  0  0
 26 27  1  0  0  0
 28 29  4  0  0  0
 30 31  4  0  0  0
  2 34  1  0  0  0
  6 35  1  0  0  0
  9 36  1  0  0  0
 11 37  1  0  0  0
 18 38  1  0  0  0
 21 39  1  0  0  0
 25 40  1  0  0  0
 25 41  1  0  0  0
 26 42  1  0  0  0
 26 43  1  0  0  0
 27 44  1  0  0  0
 27 45  1  0  0  0
 27 46  1  0  0  0
 28 47  1  0  0  0
 29 48  1  0  0  0
 30 49  1  0  0  0
 31 50  1  0  0  0
M  END
$$$$
