3buo_ligand
  -I-interpret- 

183185  0  0  0  0  0  0  0  0999 V2000
   -4.8340   -6.2640   12.8420 N   0  3  0  0  0
   -5.7210   -7.4520   12.6210 C   0  0  0  0  0
   -6.0050   -7.6380   11.1030 C   0  0  0  0  0
   -5.3590   -6.9960   10.2430 O   0  0  0  0  0
   -7.0400   -7.2870   13.4160 C   0  0  0  0  0
   -7.8480   -8.4630   13.4280 O   0  0  0  0  0
   -6.9750   -8.4980   10.7910 N   0  0  0  0  0
   -7.3340   -8.8200    9.4120 C   0  0  0  0  0
   -7.8270   -7.6720    8.4940 C   0  0  0  0  0
   -8.3820   -6.6630    8.9360 O   0  0  0  0  0
   -8.3690   -9.9530    9.3930 C   0  0  0  0  0
   -8.5900  -10.5460    8.0220 C   0  0  0  0  0
   -9.7940  -11.1680    7.7030 C   0  0  0  0  0
   -7.6080  -10.4470    7.0350 C   0  0  0  0  0
  -10.0160  -11.6740    6.4210 C   0  0  0  0  0
   -7.8210  -10.9480    5.7540 C   0  0  0  0  0
   -9.0280  -11.5620    5.4460 C   0  0  0  0  0
   -7.6180   -7.8770    7.1990 N   0  0  0  0  0
   -7.9850   -6.9410    6.1790 C   0  0  0  0  0
   -9.1500   -7.4040    5.3050 C   0  0  0  0  0
   -9.8570   -8.3700    5.6150 O   0  0  0  0  0
   -6.7780   -6.6680    5.2650 C   0  0  0  0  0
   -5.3540   -6.5910    5.8410 C   0  0  0  0  0
   -4.8770   -7.9730    6.2750 C   0  0  0  0  0
   -4.4180   -6.0220    4.7740 C   0  0  0  0  0
   -9.3050   -6.6830    4.1990 N   0  0  0  0  0
  -10.3250   -6.8650    3.1460 C   0  0  0  0  0
  -10.0490   -5.8100    2.0560 C   0  0  0  0  0
  -10.2970   -6.0080    0.8560 O   0  0  0  0  0
  -11.7390   -6.6230    3.6950 C   0  0  0  0  0
  -12.2820   -7.6700    4.6900 C   0  0  0  0  0
  -13.5120   -7.1570    5.4640 C   0  0  0  0  0
  -13.4780   -6.0680    6.0760 O   0  0  0  0  0
  -14.6020   -7.9330    5.4350 N   0  0  0  0  0
   -9.5170   -4.6950    2.5550 N   0  0  0  0  0
   -9.1110   -3.5050    1.8370 C   0  0  0  0  0
   -8.8110   -3.5880    0.3230 C   0  0  0  0  0
   -9.3410   -2.7920   -0.4720 O   0  0  0  0  0
   -7.8720   -2.9170    2.5310 C   0  0  0  0  0
   -7.9700   -2.7600    4.0470 C   0  0  0  0  0
   -6.5880   -2.8010    4.7060 C   0  0  0  0  0
   -6.1610   -1.5170    5.2590 N   0  0  0  0  0
   -5.0420   -1.3450    5.9600 C   0  0  0  0  0
   -4.2390   -2.3690    6.1910 N   0  0  0  0  0
   -4.7310   -0.1520    6.4410 N   0  0  0  0  0
   -7.9990   -4.5580   -0.0790 N   0  0  0  0  0
   -7.5630   -4.6410   -1.4850 C   0  0  0  0  0
   -8.4900   -5.1880   -2.5540 C   0  0  0  0  0
   -9.1630   -6.1700   -2.3580 O   0  0  0  0  0
   -6.2130   -5.3560   -1.5170 C   0  0  0  0  0
   -5.1740   -4.5850   -0.7220 C   0  0  0  0  0
   -4.6780   -3.3360   -1.1910 C   0  0  0  0  0
   -4.6910   -5.1000    0.5160 C   0  0  0  0  0
   -3.7170   -2.6420   -0.4080 C   0  0  0  0  0
   -3.7380   -4.4100    1.2900 C   0  0  0  0  0
   -3.2770   -3.1920    0.8120 C   0  0  0  0  0
   -2.3170   -2.5010    1.6180 O   0  0  0  0  0
   -1.9370   -2.7920    3.1880 P   0  0  0  0  0
   -3.1640   -3.1180    3.9400 O   0  0  0  0  0
   -1.2870   -1.5850    3.7900 O   0  0  0  0  0
   -1.0140   -3.9570    3.2810 O   0  0  0  0  0
   -8.4310   -4.5130   -3.7040 N   0  0  0  0  0
   -9.2360   -4.7770   -4.8880 C   0  0  0  0  0
   -8.5220   -5.3500   -6.1300 C   0  0  0  0  0
   -7.3330   -5.1160   -6.3370 O   0  0  0  0  0
   -9.9420   -3.5010   -5.2920 C   0  0  0  0  0
  -11.1450   -3.3730   -4.5700 O   0  0  0  0  0
   -9.2460   -6.0840   -6.9700 N   0  0  0  0  0
   -8.6440   -6.6930   -8.1500 C   0  0  0  0  0
   -8.2080   -5.7170   -9.2060 C   0  0  0  0  0
   -8.8550   -4.7030   -9.4250 O   0  0  0  0  0
   -9.6180   -7.6870   -8.8000 C   0  0  0  0  0
   -9.7500   -8.8820   -8.0440 O   0  0  0  0  0
   -7.1060   -6.0220   -9.8740 N   0  0  0  0  0
   -6.6640   -5.1390  -10.9380 C   0  0  0  0  0
   -7.7080   -5.0250  -12.0570 C   0  0  0  0  0
   -8.0760   -6.0380  -12.6880 O   0  0  0  0  0
   -5.3180   -5.6050  -11.5300 C   0  0  0  0  0
   -5.1070   -5.1430  -12.9910 C   0  0  0  0  0
   -5.6950   -4.1180  -13.4040 O   0  0  0  0  0
   -4.3380   -5.8070  -13.7290 O   0  0  0  0  0
   -8.2200   -3.8020  -12.2950 N   0  0  0  0  0
   -9.2180   -3.5690  -13.3360 C   0  0  0  0  0
   -8.6350   -3.8320  -14.7280 C   0  0  0  0  0
   -8.2160   -2.9040  -15.4360 O   0  0  0  0  0
   -9.6100   -2.1100  -13.1110 C   0  0  0  0  0
   -8.3580   -1.5030  -12.6040 C   0  0  0  0  0
   -7.8760   -2.5370  -11.6190 C   0  0  0  0  0
   -8.6010   -5.1150  -15.0880 N   0  0  0  0  0
   -8.0890   -5.5840  -16.3670 C   0  0  0  0  0
   -8.5080   -7.0340  -16.6950 C   0  0  0  0  0
   -8.1790   -7.9820  -15.9610 O   0  0  0  0  0
   -6.5450   -5.4890  -16.4060 C   0  0  0  0  0
   -6.1480   -4.1070  -16.3680 O   0  0  0  0  0
   -5.9990   -6.1570  -17.6720 C   0  0  0  0  0
   -9.2345   -7.2729  -17.7831 O   0  0  0  0  0
   -3.9695   -6.3838   12.3141 H   0  0  0  0  0
   -5.3125   -5.4204   12.5261 H   0  0  0  0  0
   -4.6185   -6.1822   13.8356 H   0  0  0  0  0
   -5.2134   -8.3463   12.9826 H   0  0  0  0  0
   -7.6169   -6.4980   12.9336 H   0  0  0  0  0
   -6.7741   -7.0616   14.4488 H   0  0  0  0  0
   -8.6465   -8.2961   13.9342 H   0  0  0  0  0
   -7.4883   -8.9504   11.5475 H   0  0  0  0  0
   -6.3764   -9.1055    8.9766 H   0  0  0  0  0
   -9.3188   -9.5339    9.7251 H   0  0  0  0  0
   -7.9947  -10.7487   10.0371 H   0  0  0  0  0
  -10.5710  -11.2608    8.4618 H   0  0  0  0  0
   -6.6575   -9.9689    7.2716 H   0  0  0  0  0
  -10.9636  -12.1572    6.1829 H   0  0  0  0  0
   -7.0434  -10.8588    4.9954 H   0  0  0  0  0
   -9.2015  -11.9550    4.4442 H   0  0  0  0  0
   -7.1715   -8.7490    6.9149 H   0  0  0  0  0
   -8.3067   -6.0411    6.7032 H   0  0  0  0  0
   -6.9612   -5.6667    4.8752 H   0  0  0  0  0
   -6.7488   -7.5304    4.5991 H   0  0  0  0  0
   -5.3529   -5.9417    6.7165 H   0  0  0  0  0
   -5.5480   -8.3639    7.0399 H   0  0  0  0  0
   -4.8756   -8.6422    5.4146 H   0  0  0  0  0
   -3.8677   -7.8971    6.6796 H   0  0  0  0  0
   -4.4277   -6.6727    3.8996 H   0  0  0  0  0
   -4.7557   -5.0252    4.4904 H   0  0  0  0  0
   -3.4057   -5.9639    5.1741 H   0  0  0  0  0
   -8.6450   -5.9175    4.0619 H   0  0  0  0  0
  -10.2711   -7.8839    2.7624 H   0  0  0  0  0
  -12.4057   -6.6524    2.8332 H   0  0  0  0  0
  -11.6921   -5.6823    4.2435 H   0  0  0  0  0
  -11.4957   -7.8908    5.4118 H   0  0  0  0  0
  -12.5820   -8.5516    4.1236 H   0  0  0  0  0
  -15.4481   -7.6424    5.9250 H   0  0  0  0  0
  -14.5866   -8.8150    4.9229 H   0  0  0  0  0
   -9.3790   -4.6776    3.5655 H   0  0  0  0  0
  -10.0097   -2.8895    1.8771 H   0  0  0  0  0
   -7.7397   -1.9138    2.1259 H   0  0  0  0  0
   -7.0557   -3.6153    2.3463 H   0  0  0  0  0
   -8.5653   -3.5834    4.4416 H   0  0  0  0  0
   -8.4282   -1.7954    4.2653 H   0  0  0  0  0
   -5.8684   -3.0792    3.9360 H   0  0  0  0  0
   -6.6425   -3.5094    5.5326 H   0  0  0  0  0
   -6.7558   -0.7041    5.0983 H   0  0  0  0  0
   -4.4758   -3.2939    5.8320 H   0  0  0  0  0
   -3.8773   -0.0283    6.9852 H   0  0  0  0  0
   -5.3450    0.6438    6.2675 H   0  0  0  0  0
   -7.6731   -5.2536    0.5921 H   0  0  0  0  0
   -7.5315   -3.5960   -1.7935 H   0  0  0  0  0
   -5.8793   -5.4297   -2.5520 H   0  0  0  0  0
   -6.3294   -6.3457   -1.0754 H   0  0  0  0  0
   -5.0295   -2.9191   -2.1348 H   0  0  0  0  0
   -5.0706   -6.0568    0.8746 H   0  0  0  0  0
   -3.3210   -1.6860   -0.7505 H   0  0  0  0  0
   -3.3749   -4.8191    2.2328 H   0  0  0  0  0
   -0.4891   -1.3745    3.2995 H   0  0  0  0  0
   -0.2077   -3.7644    2.7969 H   0  0  0  0  0
   -7.7628   -3.7442   -3.7581 H   0  0  0  0  0
   -9.9072   -5.5755   -4.5718 H   0  0  0  0  0
  -10.1633   -3.5335   -6.3588 H   0  0  0  0  0
   -9.2985   -2.6484   -5.0748 H   0  0  0  0  0
  -11.5884   -2.5622   -4.8302 H   0  0  0  0  0
  -10.2395   -6.2233   -6.7856 H   0  0  0  0  0
   -7.7490   -7.1898   -7.7756 H   0  0  0  0  0
   -9.2282   -7.9495   -9.7835 H   0  0  0  0  0
  -10.5977   -7.2127   -8.8580 H   0  0  0  0  0
  -10.3655   -9.4720   -8.4851 H   0  0  0  0  0
   -6.5767   -6.8632   -9.6447 H   0  0  0  0  0
   -6.5318   -4.1540  -10.4904 H   0  0  0  0  0
   -5.3119   -6.6950  -11.5226 H   0  0  0  0  0
   -4.5216   -5.1699  -10.9262 H   0  0  0  0  0
   -3.9860   -6.5512  -13.2352 H   0  0  0  0  0
  -10.0793   -4.2350  -13.2840 H   0  0  0  0  0
  -10.4441   -1.9988  -12.4182 H   0  0  0  0  0
   -9.9772   -1.6268  -14.0164 H   0  0  0  0  0
   -8.5083   -0.5208  -12.1558 H   0  0  0  0  0
   -7.6348   -1.2906  -13.3913 H   0  0  0  0  0
   -6.8139   -2.4486  -11.3907 H   0  0  0  0  0
   -8.3353   -2.4384  -10.6354 H   0  0  0  0  0
   -8.9544   -5.8084  -14.4287 H   0  0  0  0  0
   -8.5295   -4.9314  -17.1208 H   0  0  0  0  0
   -6.1360   -6.0076  -15.5389 H   0  0  0  0  0
   -5.1900   -4.0496  -16.3923 H   0  0  0  0  0
   -6.2904   -7.2073  -17.6816 H   0  0  0  0  0
   -6.4077   -5.6571  -18.5502 H   0  0  0  0  0
   -4.9118   -6.0802  -17.6818 H   0  0  0  0  0
   -9.4052   -6.4462  -18.2404 H   0  0  0  0  0
  1  2  1  0  0  0
  2  3  1  0  0  0
  2  5  1  0  0  0
  3  4  2  0  0  0
  3  7  1  0  0  0
  5  6  1  0  0  0
  7  8  1  0  0  0
  8  9  1  0  0  0
  8 11  1  0  0  0
  9 10  2  0  0  0
  9 18  1  0  0  0
 11 12  1  0  0  0
 12 13  4  0  0  0
 12 14  4  0  0  0
 13 15  4  0  0  0
 14 16  4  0  0  0
 15 17  4  0  0  0
 16 17  4  0  0  0
 18 19  1  0  0  0
 19 20  1  0  0  0
 19 22  1  0  0  0
 20 21  2  0  0  0
 20 26  1  0  0  0
 22 23  1  0  0  0
 23 24  1  0  0  0
 23 25  1  0  0  0
 26 27  1  0  0  0
 27 28  1  0  0  0
 27 30  1  0  0  0
 28 29  2  0  0  0
 28 35  1  0  0  0
 30 31  1  0  0  0
 31 32  1  0  0  0
 32 33  2  0  0  0
 32 34  1  0  0  0
 35 36  1  0  0  0
 36 37  1  0  0  0
 36 39  1  0  0  0
 37 38  2  0  0  0
 37 46  1  0  0  0
 39 40  1  0  0  0
 40 41  1  0  0  0
 41 42  1  0  0  0
 42 43  1  0  0  0
 43 44  2  0  0  0
 43 45  1  0  0  0
 46 47  1  0  0  0
 47 48  1  0  0  0
 47 50  1  0  0  0
 48 49  2  0  0  0
 48 62  1  0  0  0
 50 51  1  0  0  0
 51 52  4  0  0  0
 51 53  4  0  0  0
 52 54  4  0  0  0
 53 55  4  0  0  0
 54 56  4  0  0  0
 55 56  4  0  0  0
 56 57  1  0  0  0
 57 58  1  0  0  0
 58 59  2  0  0  0
 58 60  1  0  0  0
 58 61  1  0  0  0
 62 63  1  0  0  0
 63 64  1  0  0  0
 63 66  1  0  0  0
 64 65  2  0  0  0
 64 68  1  0  0  0
 66 67  1  0  0  0
 68 69  1  0  0  0
 69 70  1  0  0  0
 69 72  1  0  0  0
 70 71  2  0  0  0
 70 74  1  0  0  0
 72 73  1  0  0  0
 74 75  1  0  0  0
 75 76  1  0  0  0
 75 78  1  0  0  0
 76 77  2  0  0  0
 76 82  1  0  0  0
 78 79  1  0  0  0
 79 80  2  0  0  0
 79 81  1  0  0  0
 82 83  1  0  0  0
 82 88  1  0  0  0
 83 84  1  0  0  0
 83 86  1  0  0  0
 84 85  2  0  0  0
 84 89  1  0  0  0
 86 87  1  0  0  0
 87 88  1  0  0  0
 89 90  1  0  0  0
 90 91  1  0  0  0
 90 93  1  0  0  0
 91 92  2  0  0  0
 93 94  1  0  0  0
 93 95  1  0  0  0
 91 96  1  0  0  0
  1 97  1  0  0  0
  1 98  1  0  0  0
  1 99  1  0  0  0
  2100  1  0  0  0
  5101  1  0  0  0
  5102  1  0  0  0
  6103  1  0  0  0
  7104  1  0  0  0
  8105  1  0  0  0
 11106  1  0  0  0
 11107  1  0  0  0
 13108  1  0  0  0
 14109  1  0  0  0
 15110  1  0  0  0
 16111  1  0  0  0
 17112  1  0  0  0
 18113  1  0  0  0
 19114  1  0  0  0
 22115  1  0  0  0
 22116  1  0  0  0
 23117  1  0  0  0
 24118  1  0  0  0
 24119  1  0  0  0
 24120  1  0  0  0
 25121  1  0  0  0
 25122  1  0  0  0
 25123  1  0  0  0
 26124  1  0  0  0
 27125  1  0  0  0
 30126  1  0  0  0
 30127  1  0  0  0
 31128  1  0  0  0
 31129  1  0  0  0
 34130  1  0  0  0
 34131  1  0  0  0
 35132  1  0  0  0
 36133  1  0  0  0
 39134  1  0  0  0
 39135  1  0  0  0
 40136  1  0  0  0
 40137  1  0  0  0
 41138  1  0  0  0
 41139  1  0  0  0
 42140  1  0  0  0
 44141  1  0  0  0
 45142  1  0  0  0
 45143  1  0  0  0
 46144  1  0  0  0
 47145  1  0  0  0
 50146  1  0  0  0
 50147  1  0  0  0
 52148  1  0  0  0
 53149  1  0  0  0
 54150  1  0  0  0
 55151  1  0  0  0
 60152  1  0  0  0
 61153  1  0  0  0
 62154  1  0  0  0
 63155  1  0  0  0
 66156  1  0  0  0
 66157  1  0  0  0
 67158  1  0  0  0
 68159  1  0  0  0
 69160  1  0  0  0
 72161  1  0  0  0
 72162  1  0  0  0
 73163  1  0  0  0
 74164  1  0  0  0
 75165  1  0  0  0
 78166  1  0  0  0
 78167  1  0  0  0
 81168  1  0  0  0
 83169  1  0  0  0
 86170  1  0  0  0
 86171  1  0  0  0
 87172  1  0  0  0
 87173  1  0  0  0
 88174  1  0  0  0
 88175  1  0  0  0
 89176  1  0  0  0
 90177  1  0  0  0
 93178  1  0  0  0
 94179  1  0  0  0
 95180  1  0  0  0
 95181  1  0  0  0
 95182  1  0  0  0
 96183  1  0  0  0
M  END
$$$$
