### 
### Created by X-TOOL on Mon Sep 10 21:12:59 2018
### 

@<TRIPOS>MOLECULE
3buo_ligand
  181   183     1     0     0
SMALL
GAST_HUCK


@<TRIPOS>ATOM
      1 N          -4.8340   -6.2640   12.8420 N.4       1 SER         0.2396
      2 CA         -5.7210   -7.4520   12.6210 C.3       1 SER         0.0885
      3 C          -6.0050   -7.6380   11.1030 C.2       1 SER         0.2291
      4 O          -5.3590   -6.9960   10.2430 O.2       1 SER        -0.3906
      5 CB         -7.0400   -7.2870   13.4160 C.3       1 SER         0.1041
      6 OG         -7.8480   -8.4630   13.4280 O.3       1 SER        -0.3870
      7 N          -6.9750   -8.4980   10.7910 N.am      1 PHE        -0.2592
      8 CA         -7.3340   -8.8200    9.4120 C.3       1 PHE         0.1406
      9 C          -7.8270   -7.6720    8.4940 C.2       1 PHE         0.2060
     10 O          -8.3820   -6.6630    8.9360 O.2       1 PHE        -0.3942
     11 CB         -8.3690   -9.9530    9.3930 C.3       1 PHE         0.0214
     12 CG         -8.5900  -10.5460    8.0220 C.ar      1 PHE        -0.0386
     13 CD1        -9.7940  -11.1680    7.7030 C.ar      1 PHE        -0.0601
     14 CD2        -7.6080  -10.4470    7.0350 C.ar      1 PHE        -0.0601
     15 CE1       -10.0160  -11.6740    6.4210 C.ar      1 PHE        -0.0686
     16 CE2        -7.8210  -10.9480    5.7540 C.ar      1 PHE        -0.0686
     17 CZ         -9.0280  -11.5620    5.4460 C.ar      1 PHE        -0.0687
     18 N          -7.6180   -7.8770    7.1990 N.am      1 LEU        -0.2636
     19 CA         -7.9850   -6.9410    6.1790 C.3       1 LEU         0.1312
     20 C          -9.1500   -7.4040    5.3050 C.2       1 LEU         0.2039
     21 O          -9.8570   -8.3700    5.6150 O.2       1 LEU        -0.3944
     22 CB         -6.7780   -6.6680    5.2650 C.3       1 LEU        -0.0101
     23 CG         -5.3540   -6.5910    5.8410 C.3       1 LEU        -0.0425
     24 CD1        -4.8770   -7.9730    6.2750 C.3       1 LEU        -0.0625
     25 CD2        -4.4180   -6.0220    4.7740 C.3       1 LEU        -0.0625
     26 N          -9.3050   -6.6830    4.1990 N.am      1 GLN        -0.2636
     27 CA        -10.3250   -6.8650    3.1460 C.3       1 GLN         0.1330
     28 C         -10.0490   -5.8100    2.0560 C.2       1 GLN         0.2040
     29 O         -10.2970   -6.0080    0.8560 O.2       1 GLN        -0.3944
     30 CB        -11.7390   -6.6230    3.6950 C.3       1 GLN         0.0045
     31 CG        -12.2820   -7.6700    4.6900 C.3       1 GLN         0.0412
     32 CD        -13.5120   -7.1570    5.4640 C.2       1 GLN         0.1737
     33 OE1       -13.4780   -6.0680    6.0760 O.2       1 GLN        -0.3973
     34 NE2       -14.6020   -7.9330    5.4350 N.am      1 GLN        -0.3009
     35 N          -9.5170   -4.6950    2.5550 N.am      1 ARG        -0.2637
     36 CA         -9.1110   -3.5050    1.8370 C.3       1 ARG         0.1311
     37 C          -8.8110   -3.5880    0.3230 C.2       1 ARG         0.2041
     38 O          -9.3410   -2.7920   -0.4720 O.2       1 ARG        -0.3944
     39 CB         -7.8720   -2.9170    2.5310 C.3       1 ARG        -0.0092
     40 CG         -7.9700   -2.7600    4.0470 C.3       1 ARG        -0.0156
     41 CD         -6.5880   -2.8010    4.7060 C.3       1 ARG         0.0627
     42 NE         -6.1610   -1.5170    5.2590 N.pl3     1 ARG        -0.2723
     43 CZ         -5.0420   -1.3450    5.9600 C.cat     1 ARG         0.2882
     44 NH1        -4.2390   -2.3690    6.1910 N.pl3     1 ARG        -0.2849
     45 NH2        -4.7310   -0.1520    6.4410 N.pl3     1 ARG        -0.2849
     46 N          -7.9990   -4.5580   -0.0790 N.am      1 PTR        -0.2607
     47 CA         -7.5630   -4.6410   -1.4850 C.3       1 PTR         0.1468
     48 C          -8.4900   -5.1880   -2.5540 C.2       1 PTR         0.2075
     49 O          -9.1630   -6.1700   -2.3580 O.2       1 PTR        -0.3941
     50 CB         -6.2130   -5.3560   -1.5170 C.3       1 PTR         0.0400
     51 CG         -5.1740   -4.5850   -0.7220 C.ar      1 PTR        -0.0004
     52 CD1        -4.6780   -3.3360   -1.1910 C.ar      1 PTR        -0.0239
     53 CD2        -4.6910   -5.1000    0.5160 C.ar      1 PTR        -0.0239
     54 CE1        -3.7170   -2.6420   -0.4080 C.ar      1 PTR         0.0115
     55 CE2        -3.7380   -4.4100    1.2900 C.ar      1 PTR         0.0115
     56 CZ         -3.2770   -3.1920    0.8120 C.ar      1 PTR         0.1728
     57 OH         -2.3170   -2.5010    1.6180 O.3       1 PTR        -0.2040
     58 P          -1.9370   -2.7920    3.1880 P.3       1 PTR         0.1348
     59 O1P        -3.1640   -3.1180    3.9400 O.co2     1 PTR        -0.6653
     60 O2P        -1.2870   -1.5850    3.7900 O.co2     1 PTR        -0.6653
     61 O3P        -1.0140   -3.9570    3.2810 O.co2     1 PTR        -0.6653
     62 N          -8.4310   -4.5130   -3.7040 N.am      1 SER        -0.2613
     63 CA         -9.2360   -4.7770   -4.8880 C.3       1 SER         0.1539
     64 C          -8.5220   -5.3500   -6.1300 C.2       1 SER         0.2062
     65 O          -7.3330   -5.1160   -6.3370 O.2       1 SER        -0.3943
     66 CB         -9.9420   -3.5010   -5.2920 C.3       1 SER         0.0843
     67 OG        -11.1450   -3.3730   -4.5700 O.3       1 SER        -0.3903
     68 N          -9.2460   -6.0840   -6.9700 N.am      1 SER        -0.2615
     69 CA         -8.6440   -6.6930   -8.1500 C.3       1 SER         0.1539
     70 C          -8.2080   -5.7170   -9.2060 C.2       1 SER         0.2063
     71 O          -8.8550   -4.7030   -9.4250 O.2       1 SER        -0.3943
     72 CB         -9.6180   -7.6870   -8.8000 C.3       1 SER         0.0843
     73 OG         -9.7500   -8.8820   -8.0440 O.3       1 SER        -0.3903
     74 N          -7.1060   -6.0220   -9.8740 N.am      1 ASP        -0.2621
     75 CA         -6.6640   -5.1390  -10.9380 C.3       1 ASP         0.1425
     76 C          -7.7080   -5.0250  -12.0570 C.2       1 ASP         0.2081
     77 O          -8.0760   -6.0380  -12.6880 O.2       1 ASP        -0.3941
     78 CB         -5.3180   -5.6050  -11.5300 C.3       1 ASP         0.0406
     79 CG         -5.1070   -5.1430  -12.9910 C.2       1 ASP         0.0393
     80 OD1        -5.6950   -4.1180  -13.4040 O.co2     1 ASP        -0.5688
     81 OD2        -4.3380   -5.8070  -13.7290 O.co2     1 ASP        -0.5688
     82 N          -8.2200   -3.8020  -12.2950 N.am      1 PRO        -0.2497
     83 CA         -9.2180   -3.5690  -13.3360 C.3       1 PRO         0.1338
     84 C          -8.6350   -3.8320  -14.7280 C.2       1 PRO         0.2043
     85 O          -8.2160   -2.9040  -15.4360 O.2       1 PRO        -0.3944
     86 CB         -9.6100   -2.1100  -13.1110 C.3       1 PRO        -0.0104
     87 CG         -8.3580   -1.5030  -12.6040 C.3       1 PRO        -0.0281
     88 CD         -7.8760   -2.5370  -11.6190 C.3       1 PRO         0.0369
     89 N          -8.6010   -5.1150  -15.0880 N.am      1 THR        -0.2602
     90 CA         -8.0890   -5.5840  -16.3670 C.3       1 THR         0.1677
     91 C          -8.5080   -7.0340  -16.6950 C.2       1 THR         0.2597
     92 O          -8.1790   -7.9820  -15.9610 O.2       1 THR        -0.3679
     93 CB         -6.5450   -5.4890  -16.4060 C.3       1 THR         0.0937
     94 OG1        -6.1480   -4.1070  -16.3680 O.3       1 THR        -0.3873
     95 CG2        -5.9990   -6.1570  -17.6720 C.3       1 THR        -0.0344
     96 H1         -4.6581   -6.1550   13.8285 H         1 SER         0.2016
     97 H2         -5.2869   -5.4360   12.4880 H         1 SER         0.2016
     98 H3         -3.9606   -6.4022   12.3582 H         1 SER         0.2016
     99 H4         -5.2028   -8.3495   12.9897 H         1 SER         0.1122
    100 H5         -7.6205   -6.4704   12.9619 H         1 SER         0.0640
    101 H6         -6.7901   -7.0257   14.4549 H         1 SER         0.0640
    102 H7         -8.6382   -8.2979   13.9289 H         1 SER         0.2099
    103 H8         -7.4783   -8.9415   11.5326 H         1 PHE         0.1886
    104 H9         -6.4139   -9.2033    8.9467 H         1 PHE         0.0823
    105 H10        -9.3272   -9.5551    9.7585 H         1 PHE         0.0474
    106 H11        -8.0231  -10.7516   10.0657 H         1 PHE         0.0474
    107 H12       -10.5667  -11.2603    8.4576 H         1 PHE         0.0557
    108 H13        -6.6627   -9.9715    7.2703 H         1 PHE         0.0557
    109 H14       -10.9584  -12.1546    6.1842 H         1 PHE         0.0599
    110 H15        -7.0477  -10.8593    4.9996 H         1 PHE         0.0599
    111 H16        -9.2005  -11.9529    4.4497 H         1 PHE         0.0559
    112 H17        -7.1803   -8.7319    6.9205 H         1 LEU         0.1883
    113 H18        -8.2790   -6.0030    6.6726 H         1 LEU         0.0800
    114 H19        -6.9695   -5.7032    4.7726 H         1 LEU         0.0315
    115 H20        -6.7682   -7.4689    4.5110 H         1 LEU         0.0315
    116 H21        -5.3543   -5.9236    6.7153 H         1 LEU         0.0298
    117 H22        -3.8585   -7.8977    6.6835 H         1 LEU         0.0232
    118 H23        -4.8750   -8.6494    5.4075 H         1 LEU         0.0232
    119 H24        -5.5534   -8.3687    7.0470 H         1 LEU         0.0232
    120 H25        -4.7719   -5.0261    4.4692 H         1 LEU         0.0232
    121 H26        -4.4080   -6.6907    3.9006 H         1 LEU         0.0232
    122 H27        -3.4008   -5.9398    5.1846 H         1 LEU         0.0232
    123 H28        -8.6579   -5.9325    4.0646 H         1 GLN         0.1883
    124 H29       -10.2564   -7.8802    2.7282 H         1 GLN         0.0801
    125 H30       -12.4282   -6.5878    2.8384 H         1 GLN         0.0337
    126 H31       -11.7370   -5.6481    4.2044 H         1 GLN         0.0337
    127 H32       -11.4888   -7.9183    5.4105 H         1 GLN         0.0504
    128 H33       -12.5668   -8.5742    4.1321 H         1 GLN         0.0504
    129 H34       -15.4299   -7.6505    5.9195 H         1 GLN         0.1814
    130 H35       -14.5885   -8.7953    4.9288 H         1 GLN         0.1814
    131 H36        -9.3817   -4.6780    3.5457 H         1 ARG         0.1883
    132 H37        -9.9398   -2.7898    1.9443 H         1 ARG         0.0800
    133 H38        -7.6843   -1.9224    2.1004 H         1 ARG         0.0313
    134 H39        -7.0191   -3.5771    2.3147 H         1 ARG         0.0313
    135 H40        -8.5836   -3.5781    4.4522 H         1 ARG         0.0301
    136 H41        -8.4469   -1.7957    4.2764 H         1 ARG         0.0301
    137 H42        -5.8526   -3.1153    3.9508 H         1 ARG         0.0689
    138 H43        -6.6142   -3.5386    5.5216 H         1 ARG         0.0689
    139 H44        -6.7617   -0.6962    5.0967 H         1 ARG         0.2642
    140 H45        -3.3741   -2.2331    6.7335 H         1 ARG         0.2615
    141 H46        -4.4781   -3.3030    5.8285 H         1 ARG         0.2615
    142 H47        -5.3511    0.6516    6.2658 H         1 ARG         0.2615
    143 H48        -3.8689   -0.0270    6.9906 H         1 ARG         0.2615
    144 H49        -7.6795   -5.2399    0.5789 H         1 PTR         0.1886
    145 H50        -7.3811   -3.5992   -1.7877 H         1 PTR         0.0840
    146 H51        -5.8762   -5.4436   -2.5605 H         1 PTR         0.0584
    147 H52        -6.3267   -6.3603   -1.0828 H         1 PTR         0.0584
    148 H53        -5.0276   -2.9214   -2.1296 H         1 PTR         0.0703
    149 H54        -5.0685   -6.0515    0.8726 H         1 PTR         0.0703
    150 H55        -3.3231   -1.6912   -0.7486 H         1 PTR         0.0736
    151 H56        -3.3769   -4.8169    2.2276 H         1 PTR         0.0736
    152 H57        -7.7759   -3.7593   -3.7570 H         1 SER         0.1884
    153 H58        -9.9951   -5.5161   -4.5922 H         1 SER         0.0823
    154 H59       -10.1638   -3.5314   -6.3690 H         1 SER         0.0606
    155 H60        -9.2927   -2.6399   -5.0755 H         1 SER         0.0606
    156 H61       -11.5838   -2.5707   -4.8275 H         1 SER         0.2097
    157 H62       -10.2200   -6.2206   -6.7892 H         1 SER         0.1884
    158 H63        -7.7532   -7.2439   -7.8140 H         1 SER         0.0823
    159 H64        -9.2465   -7.9421   -9.8034 H         1 SER         0.0606
    160 H65       -10.6059   -7.2107   -8.8848 H         1 SER         0.0606
    161 H66       -10.3591   -9.4659   -8.4805 H         1 SER         0.2097
    162 H67        -6.5871   -6.8467   -9.6492 H         1 ASP         0.1884
    163 H68        -6.5193   -4.1386  -10.5041 H         1 ASP         0.0819
    164 H69        -5.2846   -6.7041  -11.5019 H         1 ASP         0.0478
    165 H70        -4.5039   -5.1975  -10.9127 H         1 ASP         0.0478
    166 H71       -10.0902   -4.2235  -13.1913 H         1 PRO         0.0802
    167 H72       -10.4179   -2.0276  -12.3691 H         1 PRO         0.0313
    168 H73        -9.9264   -1.6360  -14.0519 H         1 PRO         0.0313
    169 H74        -8.5540   -0.5410  -12.1078 H         1 PRO         0.0287
    170 H75        -7.6298   -1.3555  -13.4151 H         1 PRO         0.0287
    171 H76        -6.7914   -2.4554  -11.4551 H         1 PRO         0.0524
    172 H77        -8.4003   -2.4446  -10.6564 H         1 PRO         0.0524
    173 H78        -8.9475   -5.7948  -14.4416 H         1 THR         0.1885
    174 H79        -8.4979   -4.9278  -17.1494 H         1 THR         0.0843
    175 O          -9.2345   -7.2729  -17.7831 O.3       1 THR        -0.2909
    176 H80        -6.1330   -6.0050  -15.5262 H         1 THR         0.0641
    177 H81        -6.4701   -3.7080  -15.5683 H         1 THR         0.2101
    178 H82        -4.9017   -6.0801  -17.6830 H         1 THR         0.0257
    179 H83        -6.4107   -5.6534  -18.5590 H         1 THR         0.0257
    180 H84        -6.2924   -7.2171  -17.6829 H         1 THR         0.0257
    181 H85       -10.0586   -7.6725  -17.5308 H         1 THR         0.2540
@<TRIPOS>BOND
     1    1    2 1  
     2    2    3 1  
     3    2    5 1  
     4    3    4 2  
     5    3    7 am 
     6    5    6 1  
     7    7    8 1  
     8    8    9 1  
     9    8   11 1  
    10    9   10 2  
    11    9   18 am 
    12   11   12 1  
    13   12   13 ar 
    14   12   14 ar 
    15   13   15 ar 
    16   14   16 ar 
    17   15   17 ar 
    18   16   17 ar 
    19   18   19 1  
    20   19   20 1  
    21   19   22 1  
    22   20   21 2  
    23   20   26 am 
    24   22   23 1  
    25   23   24 1  
    26   23   25 1  
    27   26   27 1  
    28   27   28 1  
    29   27   30 1  
    30   28   29 2  
    31   28   35 am 
    32   30   31 1  
    33   31   32 1  
    34   32   33 2  
    35   32   34 am 
    36   35   36 1  
    37   36   37 1  
    38   36   39 1  
    39   37   38 2  
    40   37   46 am 
    41   39   40 1  
    42   40   41 1  
    43   41   42 1  
    44   42   43 ar 
    45   43   44 ar 
    46   43   45 ar 
    47   46   47 1  
    48   47   48 1  
    49   47   50 1  
    50   48   49 2  
    51   48   62 am 
    52   50   51 1  
    53   51   52 ar 
    54   51   53 ar 
    55   52   54 ar 
    56   53   55 ar 
    57   54   56 ar 
    58   55   56 ar 
    59   56   57 1  
    60   57   58 1  
    61   58   59 ar 
    62   58   60 ar 
    63   58   61 ar 
    64   62   63 1  
    65   63   64 1  
    66   63   66 1  
    67   64   65 2  
    68   64   68 am 
    69   66   67 1  
    70   68   69 1  
    71   69   70 1  
    72   69   72 1  
    73   70   71 2  
    74   70   74 am 
    75   72   73 1  
    76   74   75 1  
    77   75   76 1  
    78   75   78 1  
    79   76   77 2  
    80   76   82 am 
    81   78   79 1  
    82   79   80 ar 
    83   79   81 ar 
    84   82   83 1  
    85   82   88 1  
    86   83   84 1  
    87   83   86 1  
    88   84   85 2  
    89   84   89 am 
    90   86   87 1  
    91   87   88 1  
    92   89   90 1  
    93   90   91 1  
    94   90   93 1  
    95   91   92 2  
    96   93   94 1  
    97   93   95 1  
    98    1   96 1  
    99    1   97 1  
   100    1   98 1  
   101    2   99 1  
   102    5  100 1  
   103    5  101 1  
   104    6  102 1  
   105    7  103 1  
   106    8  104 1  
   107   11  105 1  
   108   11  106 1  
   109   13  107 1  
   110   14  108 1  
   111   15  109 1  
   112   16  110 1  
   113   17  111 1  
   114   18  112 1  
   115   19  113 1  
   116   22  114 1  
   117   22  115 1  
   118   23  116 1  
   119   24  117 1  
   120   24  118 1  
   121   24  119 1  
   122   25  120 1  
   123   25  121 1  
   124   25  122 1  
   125   26  123 1  
   126   27  124 1  
   127   30  125 1  
   128   30  126 1  
   129   31  127 1  
   130   31  128 1  
   131   34  129 1  
   132   34  130 1  
   133   35  131 1  
   134   36  132 1  
   135   39  133 1  
   136   39  134 1  
   137   40  135 1  
   138   40  136 1  
   139   41  137 1  
   140   41  138 1  
   141   42  139 1  
   142   44  140 1  
   143   44  141 1  
   144   45  142 1  
   145   45  143 1  
   146   46  144 1  
   147   47  145 1  
   148   50  146 1  
   149   50  147 1  
   150   52  148 1  
   151   53  149 1  
   152   54  150 1  
   153   55  151 1  
   154   62  152 1  
   155   63  153 1  
   156   66  154 1  
   157   66  155 1  
   158   67  156 1  
   159   68  157 1  
   160   69  158 1  
   161   72  159 1  
   162   72  160 1  
   163   73  161 1  
   164   74  162 1  
   165   75  163 1  
   166   78  164 1  
   167   78  165 1  
   168   83  166 1  
   169   86  167 1  
   170   86  168 1  
   171   87  169 1  
   172   87  170 1  
   173   88  171 1  
   174   88  172 1  
   175   89  173 1  
   176   90  174 1  
   177   91  175 1  
   178   93  176 1  
   179   94  177 1  
   180   95  178 1  
   181   95  179 1  
   182   95  180 1  
   183  175  181 1  
@<TRIPOS>SUBSTRUCTURE
     1 SER         1

