3u92_ligand
  -I-interpret- 

 31 31  0  0  0  0  0  0  0  0999 V2000
   44.2120   34.7670   16.9680 N   0  3  0  0  0
   45.5870   35.2750   17.0840 C   0  0  0  0  0
   47.3110   36.1150   20.4660 C   0  0  0  0  0
   48.2810   35.9450   18.1800 C   0  0  0  0  0
   43.7470   34.5300   18.3200 C   0  0  0  0  0
   44.9360   34.6980   19.2120 C   0  0  0  0  0
   45.7580   33.4380   19.3810 C   0  0  0  0  0
   45.6890   35.7510   18.4960 C   0  0  0  0  0
   45.2000   32.3080   20.2680 C   0  0  0  0  0
   47.1410   35.9750   19.0540 C   0  0  0  0  0
   42.6500   35.4850   18.6960 C   0  0  0  0  0
   42.1320   36.1830   17.7910 O   0  0  0  0  0
   44.2540   32.5480   21.0770 O   0  0  0  0  0
   45.6970   31.1250   20.1910 O   0  0  0  0  0
   42.2350   35.5780   19.8920 O   0  0  0  0  0
   44.1842   33.9096   16.4162 H   0  0  0  0  0
   43.6132   35.4388   16.4878 H   0  0  0  0  0
   45.7914   36.0708   16.3678 H   0  0  0  0  0
   46.3275   34.5084   16.8558 H   0  0  0  0  0
   46.4455   36.0654   21.1267 H   0  0  0  0  0
   48.3062   36.2714   20.8823 H   0  0  0  0  0
   48.8400   36.8752   18.2820 H   0  0  0  0  0
   48.9206   35.1040   18.4479 H   0  0  0  0  0
   47.9442   35.8331   17.1494 H   0  0  0  0  0
   43.3241   33.5299   18.4147 H   0  0  0  0  0
   44.6636   34.9446   20.2382 H   0  0  0  0  0
   46.6749   33.7605   19.8743 H   0  0  0  0  0
   45.8276   33.0075   18.3820 H   0  0  0  0  0
   45.2951   36.7601   18.6168 H   0  0  0  0  0
   46.3984   31.1158   19.5356 H   0  0  0  0  0
   42.7361   34.9796   20.4509 H   0  0  0  0  0
  2  1  1  0  0  0
  5  1  1  0  0  0
  8  2  1  0  0  0
 10  3  2  0  0  0
 10  4  1  0  0  0
  6  5  1  0  0  0
  5 11  1  0  0  0
  6  7  1  0  0  0
  8  6  1  0  0  0
  7  9  1  0  0  0
  8 10  1  0  0  0
  9 13  2  0  0  0
  9 14  1  0  0  0
 11 12  2  0  0  0
 11 15  1  0  0  0
  1 16  1  0  0  0
  1 17  1  0  0  0
  2 18  1  0  0  0
  2 19  1  0  0  0
  3 20  1  0  0  0
  3 21  1  0  0  0
  4 22  1  0  0  0
  4 23  1  0  0  0
  4 24  1  0  0  0
  5 25  1  0  0  0
  6 26  1  0  0  0
  7 27  1  0  0  0
  7 28  1  0  0  0
  8 29  1  0  0  0
 14 30  1  0  0  0
 15 31  1  0  0  0
M  END
$$$$
