5z1c_ligand
  -I-interpret- 

 18 18  0  0  0  0  0  0  0  0999 V2000
   32.7820   17.8130    4.1300 C   0  0  0  0  0
   31.4150   17.2450    3.9610 C   0  0  0  0  0
   30.9900   16.8720    2.6850 C   0  0  0  0  0
   29.7230   16.3530    2.4950 C   0  0  0  0  0
   28.8950   16.2220    3.5920 C   0  0  0  0  0
   29.3000   16.6110    4.8610 C   0  0  0  0  0
   30.5700   17.1260    5.0550 C   0  0  0  0  0
   26.9860   15.4710    3.3180 I   0  0  0  0  0
   33.7970   17.0720    3.3400 N   0  3  0  0  0
   33.0522   17.7404    5.1835 H   0  0  0  0  0
   32.7666   18.8452    3.7803 H   0  0  0  0  0
   31.6606   16.9906    1.8339 H   0  0  0  0  0
   29.3856   16.0542    1.5025 H   0  0  0  0  0
   28.6178   16.5110    5.7052 H   0  0  0  0  0
   30.8998   17.4321    6.0478 H   0  0  0  0  0
   34.7141   17.4941    3.4857 H   0  0  0  0  0
   33.8175   16.0983    3.6431 H   0  0  0  0  0
   33.5544   17.1162    2.3503 H   0  0  0  0  0
  1  2  1  0  0  0
  1  9  1  0  0  0
  2  3  4  0  0  0
  2  7  4  0  0  0
  3  4  4  0  0  0
  4  5  4  0  0  0
  5  6  4  0  0  0
  5  8  1  0  0  0
  6  7  4  0  0  0
  1 10  1  0  0  0
  1 11  1  0  0  0
  3 12  1  0  0  0
  4 13  1  0  0  0
  6 14  1  0  0  0
  7 15  1  0  0  0
  9 16  1  0  0  0
  9 17  1  0  0  0
  9 18  1  0  0  0
M  END
$$$$
