5lgt_ligand
  -I-interpret- 

 64 68  0  0  0  0  0  0  0  0999 V2000
  -66.2450  -33.6330  -36.9640 C   0  0  0  0  0
  -70.7670  -39.1150  -40.5060 C   0  0  0  0  0
  -70.8400  -37.7300  -40.4810 C   0  0  0  0  0
  -70.1660  -37.0110  -39.4890 C   0  0  0  0  0
  -65.8770  -38.0260  -36.5120 C   0  0  0  0  0
  -65.9390  -39.7650  -34.3550 C   0  0  0  0  0
  -65.9230  -33.8270  -33.8340 C   0  0  0  0  0
  -68.2620  -35.9550  -35.0670 C   0  0  0  0  0
  -62.5760  -37.4160  -33.4400 C   0  0  0  0  0
  -63.8210  -37.1060  -31.2730 C   0  0  0  0  0
  -61.7610  -36.2460  -32.9990 C   0  0  0  0  0
  -61.5480  -36.4810  -31.5500 N   0  3  0  0  0
  -60.3980  -35.7080  -31.0440 C   0  0  0  0  0
  -62.7640  -36.1100  -30.8270 C   0  0  0  0  0
  -63.9330  -37.1830  -32.7850 C   0  0  0  0  0
  -64.7340  -38.3100  -33.0240 O   0  0  0  0  0
  -65.2920  -38.5460  -34.2390 C   0  0  0  0  0
  -66.5570  -40.1190  -35.5380 C   0  0  0  0  0
  -65.2570  -37.6680  -35.3230 C   0  0  0  0  0
  -66.5320  -39.2510  -36.6240 C   0  0  0  0  0
  -67.1750  -39.5940  -37.7850 O   0  0  0  0  0
  -68.6180  -39.8210  -37.5910 C   0  0  0  0  0
  -69.3560  -39.0830  -38.5320 C   0  0  0  0  0
  -70.0330  -39.7860  -39.5330 C   0  0  0  0  0
  -69.4020  -37.6710  -38.5180 C   0  0  0  0  0
  -68.7540  -37.0630  -37.4950 N   0  0  0  0  0
  -68.4420  -35.7340  -37.4090 C   0  0  0  0  0
  -68.6370  -34.8410  -38.2440 O   0  0  0  0  0
  -67.9030  -35.4170  -36.2320 C   0  0  0  0  0
  -67.5240  -35.3740  -34.1320 C   0  0  0  0  0
  -67.2480  -35.3500  -32.5660 S   0  0  0  0  0
  -66.1000  -34.2220  -32.5770 C   0  0  0  0  0
  -66.7160  -34.4700  -34.7120 C   0  0  0  0  0
  -66.9680  -34.5030  -36.0230 N   0  0  0  0  0
  -65.6991  -34.2481  -37.6793 H   0  0  0  0  0
  -66.9581  -33.0023  -37.4949 H   0  0  0  0  0
  -65.5442  -33.0064  -36.4124 H   0  0  0  0  0
  -71.2830  -39.6758  -41.2854 H   0  0  0  0  0
  -71.4232  -37.2017  -41.2352 H   0  0  0  0  0
  -70.2360  -35.9234  -39.4711 H   0  0  0  0  0
  -65.8515  -37.3453  -37.3629 H   0  0  0  0  0
  -65.9605  -40.4494  -33.5069 H   0  0  0  0  0
  -65.2068  -33.0586  -34.1251 H   0  0  0  0  0
  -69.0177  -36.7252  -34.9126 H   0  0  0  0  0
  -62.1309  -38.3662  -33.1449 H   0  0  0  0  0
  -62.6462  -37.4868  -34.5254 H   0  0  0  0  0
  -64.7830  -36.7802  -30.8774 H   0  0  0  0  0
  -63.5369  -38.0911  -30.9030 H   0  0  0  0  0
  -62.2614  -35.2975  -33.1940 H   0  0  0  0  0
  -60.8219  -36.1673  -33.5467 H   0  0  0  0  0
  -61.3417  -37.4690  -31.4028 H   0  0  0  0  0
  -59.4971  -36.0065  -31.5801 H   0  0  0  0  0
  -60.5797  -34.6446  -31.2000 H   0  0  0  0  0
  -60.2705  -35.9037  -29.9793 H   0  0  0  0  0
  -62.6132  -36.1438  -29.7480 H   0  0  0  0  0
  -63.0627  -35.0851  -31.0472 H   0  0  0  0  0
  -64.3358  -36.2551  -33.1910 H   0  0  0  0  0
  -67.0650  -41.0799  -35.6206 H   0  0  0  0  0
  -64.7468  -36.7087  -35.2366 H   0  0  0  0  0
  -68.8979  -39.5007  -36.5874 H   0  0  0  0  0
  -68.8331  -40.8816  -37.7212 H   0  0  0  0  0
  -69.9851  -40.8748  -39.5514 H   0  0  0  0  0
  -68.4714  -37.6538  -36.7130 H   0  0  0  0  0
  -65.5618  -33.8475  -31.7062 H   0  0  0  0  0
 34  1  1  0  0  0
  3  2  4  0  0  0
 24  2  4  0  0  0
  4  3  4  0  0  0
 25  4  4  0  0  0
  5 19  4  0  0  0
 20  5  4  0  0  0
  6 17  4  0  0  0
 18  6  4  0  0  0
  7 32  4  0  0  0
 33  7  4  0  0  0
  8 29  4  0  0  0
 30  8  4  0  0  0
  9 11  1  0  0  0
 15  9  1  0  0  0
 10 14  1  0  0  0
 15 10  1  0  0  0
 11 12  1  0  0  0
 12 13  1  0  0  0
 14 12  1  0  0  0
 16 15  1  0  0  0
 17 16  1  0  0  0
 19 17  4  0  0  0
 20 18  4  0  0  0
 21 20  1  0  0  0
 22 21  1  0  0  0
 23 22  1  0  0  0
 23 24  4  0  0  0
 25 23  4  0  0  0
 26 25  1  0  0  0
 27 26  1  0  0  0
 27 28  2  0  0  0
 29 27  1  0  0  0
 29 34  4  0  0  0
 30 31  4  0  0  0
 30 33  4  0  0  0
 31 32  4  0  0  0
 33 34  4  0  0  0
  1 35  1  0  0  0
  1 36  1  0  0  0
  1 37  1  0  0  0
  2 38  1  0  0  0
  3 39  1  0  0  0
  4 40  1  0  0  0
  5 41  1  0  0  0
  6 42  1  0  0  0
  7 43  1  0  0  0
  8 44  1  0  0  0
  9 45  1  0  0  0
  9 46  1  0  0  0
 10 47  1  0  0  0
 10 48  1  0  0  0
 11 49  1  0  0  0
 11 50  1  0  0  0
 12 51  1  0  0  0
 13 52  1  0  0  0
 13 53  1  0  0  0
 13 54  1  0  0  0
 14 55  1  0  0  0
 14 56  1  0  0  0
 15 57  1  0  0  0
 18 58  1  0  0  0
 19 59  1  0  0  0
 22 60  1  0  0  0
 22 61  1  0  0  0
 24 62  1  0  0  0
 26 63  1  0  0  0
 32 64  1  0  0  0
M  END
$$$$
