1zgv_ligand
  -I-interpret- 

 45 47  0  0  0  0  0  0  0  0999 V2000
   10.7320  -12.5100   23.7680 C   0  0  0  0  0
   11.6150  -12.6110   22.6210 C   0  0  0  0  0
   12.5060  -11.5690   22.2370 C   0  0  0  0  0
   12.5770  -10.3810   22.9890 C   0  0  0  0  0
   11.7790  -10.2680   24.1490 C   0  0  0  0  0
   10.8750  -11.3150   24.5610 C   0  0  0  0  0
   13.3400  -11.7050   21.0830 N   0  0  0  0  0
   14.6110  -12.3990   21.2230 C   0  0  0  0  0
   15.7110  -12.1700   20.4040 N   0  0  0  0  0
   16.6100  -13.0750   20.8400 C   0  0  0  0  0
   16.1280  -13.7970   21.8780 N   0  0  0  0  0
   14.9310  -13.4270   22.1280 N   0  0  0  0  0
   17.8630  -13.1950   20.3310 N   0  0  0  0  0
   18.7030  -14.1750   20.8500 C   0  0  0  0  0
   18.3090  -15.0510   21.9870 C   0  0  0  0  0
   16.9750  -14.8270   22.5700 C   0  0  0  0  0
   16.5790  -15.6550   23.7440 N   0  0  0  0  0
   17.7690  -16.2390   24.4090 C   0  0  0  0  0
   18.4020  -15.1740   25.3320 C   0  0  0  0  0
   19.8840  -15.4410   25.6620 C   0  0  0  0  0
   20.4920  -14.3270   26.4940 C   0  0  0  0  0
   20.0680  -14.3670   20.1790 C   0  0  0  0  0
   11.9740   -8.7900   25.0390 Cl  0  0  0  0  0
   11.6720  -13.8410   21.8100 C   0  0  0  0  0
   10.0080  -13.2869   24.0138 H   0  0  0  0  0
   13.2333   -9.5664   22.6829 H   0  0  0  0  0
   10.2966  -11.2012   25.4779 H   0  0  0  0  0
   13.0502  -11.3241   20.1823 H   0  0  0  0  0
   18.9767  -15.8225   22.3705 H   0  0  0  0  0
   15.6169  -15.8008   24.0497 H   0  0  0  0  0
   18.4938  -16.5519   23.6574 H   0  0  0  0  0
   17.4723  -17.1067   24.9982 H   0  0  0  0  0
   17.8511  -15.1891   26.2724 H   0  0  0  0  0
   18.3517  -14.2187   24.8095 H   0  0  0  0  0
   20.4354  -15.5051   24.7240 H   0  0  0  0  0
   19.9437  -16.3658   26.2358 H   0  0  0  0  0
   20.4295  -13.3884   25.9433 H   0  0  0  0  0
   19.9451  -14.2363   27.4325 H   0  0  0  0  0
   21.5366  -14.5590   26.7017 H   0  0  0  0  0
   19.9225  -14.6365   19.1329 H   0  0  0  0  0
   20.6356  -13.4385   20.2408 H   0  0  0  0  0
   20.6130  -15.1621   20.6879 H   0  0  0  0  0
   11.9785  -14.6761   22.4399 H   0  0  0  0  0
   10.6869  -14.0436   21.3898 H   0  0  0  0  0
   12.3926  -13.7094   21.0028 H   0  0  0  0  0
  1  2  4  0  0  0
  1  6  4  0  0  0
  2  3  4  0  0  0
  2 24  1  0  0  0
  3  4  4  0  0  0
  3  7  1  0  0  0
  4  5  4  0  0  0
  5  6  4  0  0  0
  5 23  1  0  0  0
  7  8  1  0  0  0
  8  9  4  0  0  0
  8 12  4  0  0  0
  9 10  4  0  0  0
 10 11  4  0  0  0
 10 13  4  0  0  0
 11 12  4  0  0  0
 11 16  4  0  0  0
 13 14  4  0  0  0
 14 15  4  0  0  0
 14 22  1  0  0  0
 15 16  4  0  0  0
 16 17  1  0  0  0
 17 18  1  0  0  0
 18 19  1  0  0  0
 19 20  1  0  0  0
 20 21  1  0  0  0
  1 25  1  0  0  0
  4 26  1  0  0  0
  6 27  1  0  0  0
  7 28  1  0  0  0
 15 29  1  0  0  0
 17 30  1  0  0  0
 18 31  1  0  0  0
 18 32  1  0  0  0
 19 33  1  0  0  0
 19 34  1  0  0  0
 20 35  1  0  0  0
 20 36  1  0  0  0
 21 37  1  0  0  0
 21 38  1  0  0  0
 21 39  1  0  0  0
 22 40  1  0  0  0
 22 41  1  0  0  0
 22 42  1  0  0  0
 24 43  1  0  0  0
 24 44  1  0  0  0
 24 45  1  0  0  0
M  END
$$$$
