2x2l_ligand
  -I-interpret- 

 34 36  0  0  0  0  0  0  0  0999 V2000
   -9.5690  -23.8960   11.0240 C   0  0  0  0  0
   -9.3310  -22.5630   11.3760 C   0  0  0  0  0
  -10.3100  -21.8630   12.0870 C   0  0  0  0  0
  -10.0260  -20.5570   12.4200 O   0  0  0  0  0
  -11.5240  -22.5030   12.4110 C   0  0  0  0  0
  -11.7420  -23.8410   12.0380 C   0  0  0  0  0
  -10.7600  -24.5710   11.3370 C   0  0  0  0  0
  -10.8820  -25.9190   10.8840 C   0  0  0  0  0
  -11.8860  -26.9070   11.0450 C   0  0  0  0  0
  -11.7210  -28.2440   10.6730 C   0  0  0  0  0
  -10.6670  -28.9520   10.0970 C   0  0  0  0  0
  -10.8060  -30.3170    9.8550 C   0  0  0  0  0
  -11.9620  -31.0210   10.1590 C   0  0  0  0  0
  -13.0120  -30.3170   10.7400 C   0  0  0  0  0
  -12.9030  -28.9380   10.9970 C   0  0  0  0  0
  -10.6720  -19.9110   13.5880 C   0  0  0  0  0
  -13.7610  -28.0740   11.5550 N   0  0  0  0  0
  -13.1930  -26.8610   11.5620 C   0  0  0  0  0
   -9.7800  -30.9630    9.3060 N   0  0  0  0  0
  -13.7740  -25.8940   12.0100 O   0  0  0  0  0
   -8.7933  -24.4361   10.4812 H   0  0  0  0  0
   -8.3952  -22.0771   11.0997 H   0  0  0  0  0
  -12.2969  -21.9580   12.9530 H   0  0  0  0  0
  -12.6858  -24.3220   12.2950 H   0  0  0  0  0
  -10.0301  -26.2577   10.2944 H   0  0  0  0  0
   -9.7399  -28.4407    9.8376 H   0  0  0  0  0
  -12.0447  -32.0876    9.9501 H   0  0  0  0  0
  -13.9318  -30.8410   10.9997 H   0  0  0  0  0
  -11.7531  -19.9095   13.4489 H   0  0  0  0  0
  -10.4216  -20.4651   14.4926 H   0  0  0  0  0
  -10.3145  -18.8852   13.6780 H   0  0  0  0  0
  -14.6886  -28.3010   11.9134 H   0  0  0  0  0
   -8.9241  -30.4584    9.0753 H   0  0  0  0  0
   -9.8496  -31.9627    9.1159 H   0  0  0  0  0
  1  2  4  0  0  0
  1  7  4  0  0  0
  2  3  4  0  0  0
  3  4  1  0  0  0
  3  5  4  0  0  0
  4 16  1  0  0  0
  5  6  4  0  0  0
  6  7  4  0  0  0
  7  8  1  0  0  0
  8  9  2  0  0  0
  9 10  1  0  0  0
  9 18  1  0  0  0
 10 11  4  0  0  0
 10 15  4  0  0  0
 11 12  4  0  0  0
 12 13  4  0  0  0
 12 19  1  0  0  0
 13 14  4  0  0  0
 14 15  4  0  0  0
 15 17  1  0  0  0
 17 18  1  0  0  0
 18 20  2  0  0  0
  1 21  1  0  0  0
  2 22  1  0  0  0
  5 23  1  0  0  0
  6 24  1  0  0  0
  8 25  1  0  0  0
 11 26  1  0  0  0
 13 27  1  0  0  0
 14 28  1  0  0  0
 16 29  1  0  0  0
 16 30  1  0  0  0
 16 31  1  0  0  0
 17 32  1  0  0  0
 19 33  1  0  0  0
 19 34  1  0  0  0
M  END
$$$$
