5vqv_ligand
  -I-interpret- 

 63 66  0  0  0  0  0  0  0  0999 V2000
  844.9300  -33.3550  141.2160 N   0  0  0  0  0
  846.7470  -30.7280  143.4270 C   0  0  0  0  0
  845.3490  -35.6380  141.7570 N   0  0  0  0  0
  843.0000  -27.0410  147.0240 N   0  0  0  0  0
  847.0050  -30.3970  145.8350 C   0  0  0  0  0
  839.8470  -32.6630  151.3400 N   0  0  0  0  0
  848.9350  -30.1630  144.3630 C   0  0  0  0  0
  846.3480  -31.3500  141.1310 C   0  0  0  0  0
  845.6860  -34.5270  140.9950 C   0  0  0  0  0
  848.1270  -30.4590  143.2500 C   0  0  0  0  0
  846.1960  -30.6880  144.7220 C   0  0  0  0  0
  848.3760  -30.1320  145.6540 C   0  0  0  0  0
  844.8600  -30.9590  144.8640 O   0  0  0  0  0
  845.8600  -31.0270  142.4170 O   0  0  0  0  0
  845.2740  -32.1950  140.4340 C   0  0  0  0  0
  844.3380  -35.6920  142.7100 C   0  0  0  0  0
  843.5970  -34.4510  142.8910 C   0  0  0  0  0
  843.9110  -33.3590  142.1570 C   0  0  0  0  0
  844.0800  -30.4110  145.8520 C   0  0  0  0  0
  843.4060  -31.2710  146.7450 C   0  0  0  0  0
  842.5800  -30.7330  147.7640 C   0  0  0  0  0
  842.4240  -29.3230  147.8850 C   0  0  0  0  0
  843.1050  -28.4640  146.9770 C   0  0  0  0  0
  843.9180  -29.0180  145.9670 C   0  0  0  0  0
  841.9040  -31.5900  148.6670 C   0  0  0  0  0
  841.0830  -31.0660  149.6840 C   0  0  0  0  0
  840.9310  -29.6730  149.8060 C   0  0  0  0  0
  841.5950  -28.8090  148.9140 C   0  0  0  0  0
  846.6040  -34.5970  140.1780 O   0  0  0  0  0
  844.1300  -36.7350  143.3220 O   0  0  0  0  0
  840.3950  -31.9550  150.6050 C   0  0  0  0  0
  843.5860  -32.7780  146.5950 C   0  0  0  0  0
  843.8530  -26.2750  147.7520 C   0  0  0  0  0
  843.7690  -25.0460  147.7960 O   0  0  0  0  0
  844.9630  -26.9670  148.5600 C   0  0  0  0  0
  841.9220  -26.4360  146.2360 C   0  0  0  0  0
  845.9650  -25.9720  149.1580 C   0  0  0  0  0
  845.8905  -36.4888  141.6042 H   0  0  0  0  0
  846.5719  -30.3767  146.8350 H   0  0  0  0  0
  849.9965  -29.9572  144.2250 H   0  0  0  0  0
  847.2834  -31.9048  141.2047 H   0  0  0  0  0
  846.5522  -30.4440  140.5604 H   0  0  0  0  0
  848.5627  -30.4814  142.2511 H   0  0  0  0  0
  849.0047  -29.9027  146.5144 H   0  0  0  0  0
  844.3800  -31.5842  140.3083 H   0  0  0  0  0
  845.6652  -32.5285  139.4728 H   0  0  0  0  0
  842.7877  -34.4022  143.6195 H   0  0  0  0  0
  843.3393  -32.4439  142.3115 H   0  0  0  0  0
  844.4282  -28.3580  145.2655 H   0  0  0  0  0
  842.0210  -32.6696  148.5733 H   0  0  0  0  0
  840.2982  -29.2616  150.5923 H   0  0  0  0  0
  841.4700  -27.7310  149.0160 H   0  0  0  0  0
  843.2457  -33.0867  145.6066 H   0  0  0  0  0
  844.6398  -33.0303  146.7131 H   0  0  0  0  0
  843.0007  -33.2903  147.3586 H   0  0  0  0  0
  845.5078  -27.6267  147.8847 H   0  0  0  0  0
  844.4929  -27.5051  149.3831 H   0  0  0  0  0
  842.0558  -26.6899  145.1845 H   0  0  0  0  0
  840.9617  -26.8169  146.5837 H   0  0  0  0  0
  841.9498  -25.3530  146.3560 H   0  0  0  0  0
  846.4377  -25.4071  148.3545 H   0  0  0  0  0
  845.4413  -25.2878  149.8256 H   0  0  0  0  0
  846.7258  -26.5164  149.7175 H   0  0  0  0  0
  1  9  1  0  0  0
 15  1  1  0  0  0
  1 18  1  0  0  0
  2 10  4  0  0  0
 11  2  4  0  0  0
  2 14  1  0  0  0
  9  3  1  0  0  0
  3 16  1  0  0  0
 23  4  1  0  0  0
  4 33  1  0  0  0
  4 36  1  0  0  0
 11  5  4  0  0  0
  5 12  4  0  0  0
 31  6  3  0  0  0
 10  7  4  0  0  0
 12  7  4  0  0  0
 14  8  1  0  0  0
  8 15  1  0  0  0
  9 29  2  0  0  0
 13 11  1  0  0  0
 19 13  1  0  0  0
 17 16  1  0  0  0
 16 30  2  0  0  0
 18 17  2  0  0  0
 20 19  4  0  0  0
 19 24  4  0  0  0
 21 20  4  0  0  0
 20 32  1  0  0  0
 21 22  4  0  0  0
 25 21  4  0  0  0
 22 23  4  0  0  0
 22 28  4  0  0  0
 23 24  4  0  0  0
 26 25  4  0  0  0
 26 27  4  0  0  0
 26 31  1  0  0  0
 27 28  4  0  0  0
 33 34  2  0  0  0
 33 35  1  0  0  0
 35 37  1  0  0  0
  3 38  1  0  0  0
  5 39  1  0  0  0
  7 40  1  0  0  0
  8 41  1  0  0  0
  8 42  1  0  0  0
 10 43  1  0  0  0
 12 44  1  0  0  0
 15 45  1  0  0  0
 15 46  1  0  0  0
 17 47  1  0  0  0
 18 48  1  0  0  0
 24 49  1  0  0  0
 25 50  1  0  0  0
 27 51  1  0  0  0
 28 52  1  0  0  0
 32 53  1  0  0  0
 32 54  1  0  0  0
 32 55  1  0  0  0
 35 56  1  0  0  0
 35 57  1  0  0  0
 36 58  1  0  0  0
 36 59  1  0  0  0
 36 60  1  0  0  0
 37 61  1  0  0  0
 37 62  1  0  0  0
 37 63  1  0  0  0
M  END
$$$$
