5f63_ligand
  -I-interpret- 

 77 80  0  0  0  0  0  0  0  0999 V2000
    8.3940   -7.4130   -0.0420 C   0  0  0  0  0
   10.4780   -6.1660   -0.1050 C   0  0  0  0  0
   12.6820   -5.1760    0.2330 C   0  0  0  0  0
   14.7690   -4.0090    0.4880 C   0  0  0  0  0
   14.5900   -5.7590   -1.0670 C   0  0  0  0  0
   14.6270   -7.6000   -2.7230 C   0  0  0  0  0
   13.0420   -9.4010   -3.1850 C   0  0  0  0  0
   13.8930   -9.8640   -4.2510 C   0  0  0  0  0
    7.3570   -8.6970   -2.1620 Cl  0  0  0  0  0
    8.5610   -7.7510   -1.4000 C   0  0  0  0  0
    9.6760   -7.2800   -2.1250 C   0  0  0  0  0
    9.8070   -7.6180   -3.4410 N   0  0  0  0  0
   10.3680   -6.6260   -4.6840 S   0  0  0  0  0
    9.0210   -5.5100   -5.1680 C   0  0  0  0  0
    7.8240   -6.3890   -5.6120 C   0  0  0  0  0
    9.5630   -4.6600   -6.3400 C   0  0  0  0  0
    8.6280   -4.6180   -3.9610 C   0  0  0  0  0
   10.6710   -7.5900   -5.8730 O   0  0  0  0  0
   11.6100   -5.8210   -4.1950 O   0  0  0  0  0
   10.6160   -6.4880   -1.4620 C   0  0  0  0  0
    9.3560   -6.6350    0.6040 C   0  0  0  0  0
   11.3750   -5.3930    0.5750 N   0  0  0  0  0
   13.4330   -4.1630    0.8820 C   0  0  0  0  0
   12.8940   -3.2640    1.9330 C   0  0  0  0  0
   15.2980   -4.7860   -0.4710 N   0  0  0  0  0
   15.1160   -6.5280   -2.0460 N   0  0  0  0  0
   13.4050   -8.2570   -2.3910 C   0  0  0  0  0
   11.9040  -10.0720   -2.9150 F   0  0  0  0  0
   13.6000  -11.0210   -5.0690 C   0  0  0  0  0
   14.6340  -11.8470   -5.4780 N   0  0  0  0  0
   14.6590  -13.1400   -6.1340 C   0  0  0  0  0
   13.3850  -13.4970   -6.9520 C   0  0  0  0  0
   13.6520  -14.8180   -7.7250 C   0  0  0  0  0
   14.0530  -15.9500   -6.8200 N   0  3  0  0  0
   14.1170  -17.2860   -7.4860 C   0  0  0  0  0
   15.1590  -15.6330   -5.8550 C   0  0  0  0  0
   14.9510  -14.2800   -5.1120 C   0  0  0  0  0
   12.4050  -11.3670   -5.2120 O   0  0  0  0  0
   15.1020   -9.1620   -4.5100 C   0  0  0  0  0
   15.5120   -8.0430   -3.7780 C   0  0  0  0  0
   13.2960   -5.9470   -0.7060 N   0  0  0  0  0
    7.5153   -7.7585    0.5027 H   0  0  0  0  0
   15.3867   -3.2488    0.9661 H   0  0  0  0  0
    9.5381   -8.5675   -3.6989 H   0  0  0  0  0
    8.1249   -7.0115   -6.4547 H   0  0  0  0  0
    7.5136   -7.0239   -4.7822 H   0  0  0  0  0
    6.9948   -5.7475   -5.9103 H   0  0  0  0  0
   10.4363   -4.0992   -6.0070 H   0  0  0  0  0
    9.8436   -5.3163   -7.1638 H   0  0  0  0  0
    8.7900   -3.9673   -6.6727 H   0  0  0  0  0
    8.2982   -5.2497   -3.1362 H   0  0  0  0  0
    9.4916   -4.0312   -3.6481 H   0  0  0  0  0
    7.8191   -3.9486   -4.2537 H   0  0  0  0  0
   11.4776   -6.1113   -2.0131 H   0  0  0  0  0
    9.2382   -6.3901    1.6596 H   0  0  0  0  0
   11.0379   -4.9324    1.4203 H   0  0  0  0  0
   12.0587   -2.6931    1.5276 H   0  0  0  0  0
   12.5517   -3.8603    2.7788 H   0  0  0  0  0
   13.6772   -2.5808    2.2616 H   0  0  0  0  0
   16.0560   -6.2521   -2.3299 H   0  0  0  0  0
   12.7748   -7.9083   -1.5729 H   0  0  0  0  0
   15.5611  -11.4715   -5.2783 H   0  0  0  0  0
   15.4678  -13.0537   -6.8596 H   0  0  0  0  0
   13.1553  -12.6947   -7.6532 H   0  0  0  0  0
   12.5347  -13.6227   -6.2817 H   0  0  0  0  0
   14.4724  -14.6388   -8.4200 H   0  0  0  0  0
   12.7283  -15.1034   -8.2283 H   0  0  0  0  0
   13.2571  -16.0583   -6.1914 H   0  0  0  0  0
   13.1363  -17.5362   -7.8906 H   0  0  0  0  0
   14.8474  -17.2529   -8.2944 H   0  0  0  0  0
   14.4139  -18.0401   -6.7571 H   0  0  0  0  0
   16.0853  -15.5594   -6.4248 H   0  0  0  0  0
   15.1811  -16.4234   -5.1047 H   0  0  0  0  0
   14.1039  -14.3740   -4.4326 H   0  0  0  0  0
   15.8568  -14.0364   -4.5567 H   0  0  0  0  0
   15.7414   -9.5136   -5.3197 H   0  0  0  0  0
   16.4503   -7.5310   -3.9915 H   0  0  0  0  0
  1 10  4  0  0  0
 21  1  4  0  0  0
  2 20  4  0  0  0
  2 21  4  0  0  0
 22  2  1  0  0  0
  3 22  1  0  0  0
  3 23  4  0  0  0
 41  3  4  0  0  0
  4 23  4  0  0  0
 25  4  4  0  0  0
  5 25  4  0  0  0
 26  5  1  0  0  0
  5 41  4  0  0  0
  6 26  1  0  0  0
 27  6  4  0  0  0
  6 40  4  0  0  0
  7  8  4  0  0  0
  7 27  4  0  0  0
  7 28  1  0  0  0
  8 29  1  0  0  0
  8 39  4  0  0  0
 10  9  1  0  0  0
 10 11  4  0  0  0
 11 12  1  0  0  0
 11 20  4  0  0  0
 12 13  1  0  0  0
 13 14  1  0  0  0
 13 18  2  0  0  0
 13 19  2  0  0  0
 14 15  1  0  0  0
 14 16  1  0  0  0
 14 17  1  0  0  0
 23 24  1  0  0  0
 29 30  1  0  0  0
 29 38  2  0  0  0
 30 31  1  0  0  0
 31 32  1  0  0  0
 31 37  1  0  0  0
 32 33  1  0  0  0
 33 34  1  0  0  0
 34 35  1  0  0  0
 34 36  1  0  0  0
 36 37  1  0  0  0
 39 40  4  0  0  0
  1 42  1  0  0  0
  4 43  1  0  0  0
 12 44  1  0  0  0
 15 45  1  0  0  0
 15 46  1  0  0  0
 15 47  1  0  0  0
 16 48  1  0  0  0
 16 49  1  0  0  0
 16 50  1  0  0  0
 17 51  1  0  0  0
 17 52  1  0  0  0
 17 53  1  0  0  0
 20 54  1  0  0  0
 21 55  1  0  0  0
 22 56  1  0  0  0
 24 57  1  0  0  0
 24 58  1  0  0  0
 24 59  1  0  0  0
 26 60  1  0  0  0
 27 61  1  0  0  0
 30 62  1  0  0  0
 31 63  1  0  0  0
 32 64  1  0  0  0
 32 65  1  0  0  0
 33 66  1  0  0  0
 33 67  1  0  0  0
 34 68  1  0  0  0
 35 69  1  0  0  0
 35 70  1  0  0  0
 35 71  1  0  0  0
 36 72  1  0  0  0
 36 73  1  0  0  0
 37 74  1  0  0  0
 37 75  1  0  0  0
 39 76  1  0  0  0
 40 77  1  0  0  0
M  END
$$$$
