5uex_ligand
  -I-interpret- 

 58 61  0  0  0  0  0  0  0  0999 V2000
   13.4910   13.6830   24.2620 C   0  0  0  0  0
   13.0870   11.3290   24.2570 C   0  0  0  0  0
   12.0450   12.1130   18.7650 C   0  0  0  0  0
   13.4920   13.7250   22.8780 C   0  0  0  0  0
    9.6640   11.8460   18.7590 C   0  0  0  0  0
   13.2890   12.5380   22.1840 C   0  0  0  0  0
   15.1480   13.3900   17.0330 C   0  0  0  0  0
   13.2680   12.1870   17.9760 C   0  0  0  0  0
   15.6020   12.1270   16.4070 C   0  0  0  0  0
   13.7530   16.1740   20.0570 C   0  0  0  0  0
   14.4820   15.1440   19.2210 C   0  0  0  0  0
    8.1390    8.9960   16.7620 C   0  0  0  0  0
    8.6850   10.1270   15.9230 C   0  0  0  0  0
    9.6600   12.0130   20.1250 C   0  0  0  0  0
   10.8360   12.2180   20.8130 C   0  0  0  0  0
   10.8650   11.8950   18.0800 C   0  0  0  0  0
   12.0480   12.2630   20.1420 C   0  0  0  0  0
   13.2710   12.5070   24.9400 C   0  0  0  0  0
   13.1100   11.3550   22.8810 C   0  0  0  0  0
   13.6720   11.0640   17.3850 C   0  0  0  0  0
   14.0380   13.3810   17.7830 C   0  0  0  0  0
   13.7820   15.0690   22.2680 C   0  0  0  0  0
   12.8960   15.5460   21.1390 C   0  0  0  0  0
   15.1910    9.7730   16.0050 C   0  0  0  0  0
   14.8030   11.0190   16.6170 N   0  0  0  0  0
    8.3730   11.6210   18.1590 N   0  0  0  0  0
   16.6280   12.1360   15.7470 O   0  0  0  0  0
    6.6460   11.6820   16.2620 O   0  0  0  0  0
    8.8830   12.7380   15.8410 O   0  0  0  0  0
   13.2800   12.4880   20.7900 O   0  0  0  0  0
   13.5160   14.5060   18.3970 O   0  0  0  0  0
   13.2620   12.5140   26.2810 F   0  0  0  0  0
   12.9100   10.2060   22.2260 F   0  0  0  0  0
    8.0810   11.7050   16.4670 S   0  0  0  0  0
   13.6680   14.5995   24.8248 H   0  0  0  0  0
   12.9262   10.3938   24.7934 H   0  0  0  0  0
   15.7086   14.3131   16.8857 H   0  0  0  0  0
   13.0969   16.7396   19.3954 H   0  0  0  0  0
   14.5002   16.8015   20.5428 H   0  0  0  0  0
   14.9801   14.4154   19.8607 H   0  0  0  0  0
   15.2499   15.6203   18.6114 H   0  0  0  0  0
    8.4390    9.1379   17.8003 H   0  0  0  0  0
    7.0511    8.9878   16.6947 H   0  0  0  0  0
    8.5342    8.0490   16.3944 H   0  0  0  0  0
    8.3637    9.9745   14.8926 H   0  0  0  0  0
    9.7712   10.1267   16.0138 H   0  0  0  0  0
    8.7158   11.9828   20.6688 H   0  0  0  0  0
   10.8130   12.3460   21.8952 H   0  0  0  0  0
   10.8825   11.7611   16.9984 H   0  0  0  0  0
   13.0849   10.1552   17.5170 H   0  0  0  0  0
   14.7780   14.9795   21.8343 H   0  0  0  0  0
   13.6347   15.7886   23.0734 H   0  0  0  0  0
   12.3480   14.7000   20.7241 H   0  0  0  0  0
   12.1894   16.2844   21.5180 H   0  0  0  0  0
   15.2233    9.8960   14.9224 H   0  0  0  0  0
   16.1767    9.4825   16.3685 H   0  0  0  0  0
   14.4654    9.0016   16.2628 H   0  0  0  0  0
    7.5888   11.3996   18.7726 H   0  0  0  0  0
  4  1  4  0  0  0
  1 18  4  0  0  0
  2 18  4  0  0  0
 19  2  4  0  0  0
  3  8  1  0  0  0
 16  3  4  0  0  0
  3 17  4  0  0  0
  6  4  4  0  0  0
  4 22  1  0  0  0
  5 14  4  0  0  0
  5 16  4  0  0  0
 26  5  1  0  0  0
  6 19  4  0  0  0
 30  6  1  0  0  0
  7  9  1  0  0  0
 21  7  2  0  0  0
  8 20  2  0  0  0
  8 21  1  0  0  0
 25  9  1  0  0  0
  9 27  2  0  0  0
 11 10  1  0  0  0
 10 23  1  0  0  0
 31 11  1  0  0  0
 13 12  1  0  0  0
 34 13  1  0  0  0
 14 15  4  0  0  0
 15 17  4  0  0  0
 17 30  1  0  0  0
 18 32  1  0  0  0
 19 33  1  0  0  0
 20 25  1  0  0  0
 21 31  1  0  0  0
 22 23  1  0  0  0
 25 24  1  0  0  0
 26 34  1  0  0  0
 34 28  2  0  0  0
 34 29  2  0  0  0
  1 35  1  0  0  0
  2 36  1  0  0  0
  7 37  1  0  0  0
 10 38  1  0  0  0
 10 39  1  0  0  0
 11 40  1  0  0  0
 11 41  1  0  0  0
 12 42  1  0  0  0
 12 43  1  0  0  0
 12 44  1  0  0  0
 13 45  1  0  0  0
 13 46  1  0  0  0
 14 47  1  0  0  0
 15 48  1  0  0  0
 16 49  1  0  0  0
 20 50  1  0  0  0
 22 51  1  0  0  0
 22 52  1  0  0  0
 23 53  1  0  0  0
 23 54  1  0  0  0
 24 55  1  0  0  0
 24 56  1  0  0  0
 24 57  1  0  0  0
 26 58  1  0  0  0
M  END
$$$$
