3vg1_ligand
  -I-interpret- 

 69 72  0  0  0  0  0  0  0  0999 V2000
   27.2780   78.1810   16.4870 F   0  0  0  0  0
   28.4680   77.9880   17.1190 C   0  0  0  0  0
   29.4560   78.6440   16.4510 F   0  0  0  0  0
   28.3650   78.4970   18.5770 C   0  0  0  0  0
   29.4060   77.8650   19.4680 C   0  0  0  0  0
   30.3940   78.4840   20.1410 C   0  0  0  0  0
   31.1010   77.6140   20.8180 N   0  0  0  0  0
   30.6400   76.3630   20.6390 C   0  0  0  0  0
   29.5400   76.3970   19.7790 C   0  0  0  0  0
   28.8520   75.2250   19.4060 C   0  0  0  0  0
   29.3130   73.9890   19.9310 C   0  0  0  0  0
   30.4330   73.9530   20.8140 C   0  0  0  0  0
   31.1130   75.1460   21.1790 C   0  0  0  0  0
   28.5850   72.6980   19.5180 C   0  0  0  0  0
   29.4810   71.7990   18.5950 C   0  0  0  0  0
   28.7550   70.4740   18.1840 C   0  0  0  0  0
   29.6390   69.5290   17.3040 C   0  0  0  0  0
   30.1760   70.1620   15.9900 C   0  0  0  0  0
   31.1560   71.6080   16.4040 S   0  0  0  0  0
   29.9530   72.5700   17.3210 C   0  0  0  0  0
   32.2430   71.2260   17.2860 O   0  0  0  0  0
   31.4390   72.3350   15.1800 O   0  0  0  0  0
   28.9890   68.2090   17.0760 N   0  3  0  0  0
   29.7510   67.0670   16.4890 C   0  0  0  0  0
   30.9690   66.7700   17.3790 C   0  0  0  0  0
   30.7620   66.2930   18.6920 C   0  0  0  0  0
   31.8270   65.9990   19.5880 C   0  0  0  0  0
   33.1490   66.2110   19.0910 C   0  0  0  0  0
   33.3850   66.6870   17.7750 C   0  0  0  0  0
   32.2960   66.9670   16.9150 C   0  0  0  0  0
   31.4680   65.4810   21.0280 C   0  0  0  0  0
   32.6940   64.8830   21.7910 C   0  0  0  0  0
   30.9150   66.6340   21.9230 C   0  0  0  0  0
   30.3600   64.3790   20.9760 C   0  0  0  0  0
   28.4120   69.7400   19.3760 O   0  0  0  0  0
   28.7079   76.9248   17.1336 H   0  0  0  0  0
   27.3799   78.2339   18.9622 H   0  0  0  0  0
   28.5256   79.5751   18.5750 H   0  0  0  0  0
   30.5794   79.5580   20.1247 H   0  0  0  0  0
   27.9933   75.2661   18.7358 H   0  0  0  0  0
   30.7717   72.9973   21.2141 H   0  0  0  0  0
   31.9699   75.1231   21.8523 H   0  0  0  0  0
   27.6865   72.9714   18.9648 H   0  0  0  0  0
   28.3454   72.1344   20.4197 H   0  0  0  0  0
   30.3600   71.5348   19.1829 H   0  0  0  0  0
   27.8819   70.7688   17.6018 H   0  0  0  0  0
   30.5355   69.3587   17.9002 H   0  0  0  0  0
   29.3416   70.4515   15.3512 H   0  0  0  0  0
   30.7920   69.4385   15.4559 H   0  0  0  0  0
   30.4143   73.5084   17.6288 H   0  0  0  0  0
   29.0896   72.7545   16.6818 H   0  0  0  0  0
   28.2663   68.4057   16.3836 H   0  0  0  0  0
   28.7459   67.8881   18.0132 H   0  0  0  0  0
   30.0838   67.3245   15.4835 H   0  0  0  0  0
   29.1110   66.1863   16.4350 H   0  0  0  0  0
   29.7383   66.1431   19.0349 H   0  0  0  0  0
   33.9995   66.0016   19.7398 H   0  0  0  0  0
   34.4066   66.8373   17.4258 H   0  0  0  0  0
   32.4752   67.3314   15.9035 H   0  0  0  0  0
   33.0950   64.0403   21.2279 H   0  0  0  0  0
   33.4624   65.6486   21.8981 H   0  0  0  0  0
   32.3766   64.5445   22.7773 H   0  0  0  0  0
   31.6689   67.4161   22.0128 H   0  0  0  0  0
   30.0147   67.0461   21.4672 H   0  0  0  0  0
   30.6766   66.2422   22.9118 H   0  0  0  0  0
   29.4597   64.7920   20.5211 H   0  0  0  0  0
   30.7149   63.5365   20.3824 H   0  0  0  0  0
   30.1358   64.0430   21.9884 H   0  0  0  0  0
   27.9661   68.9256   19.1318 H   0  0  0  0  0
  1  2  1  0  0  0
  2  3  1  0  0  0
  2  4  1  0  0  0
  4  5  1  0  0  0
  5  6  4  0  0  0
  5  9  4  0  0  0
  6  7  4  0  0  0
  7  8  4  0  0  0
  8  9  4  0  0  0
  8 13  4  0  0  0
  9 10  4  0  0  0
 10 11  4  0  0  0
 11 12  4  0  0  0
 11 14  1  0  0  0
 12 13  4  0  0  0
 14 15  1  0  0  0
 15 16  1  0  0  0
 15 20  1  0  0  0
 16 17  1  0  0  0
 16 35  1  0  0  0
 17 18  1  0  0  0
 17 23  1  0  0  0
 18 19  1  0  0  0
 19 20  1  0  0  0
 19 21  2  0  0  0
 19 22  2  0  0  0
 23 24  1  0  0  0
 24 25  1  0  0  0
 25 26  4  0  0  0
 25 30  4  0  0  0
 26 27  4  0  0  0
 27 28  4  0  0  0
 27 31  1  0  0  0
 28 29  4  0  0  0
 29 30  4  0  0  0
 31 32  1  0  0  0
 31 33  1  0  0  0
 31 34  1  0  0  0
  2 36  1  0  0  0
  4 37  1  0  0  0
  4 38  1  0  0  0
  6 39  1  0  0  0
 10 40  1  0  0  0
 12 41  1  0  0  0
 13 42  1  0  0  0
 14 43  1  0  0  0
 14 44  1  0  0  0
 15 45  1  0  0  0
 16 46  1  0  0  0
 17 47  1  0  0  0
 18 48  1  0  0  0
 18 49  1  0  0  0
 20 50  1  0  0  0
 20 51  1  0  0  0
 23 52  1  0  0  0
 23 53  1  0  0  0
 24 54  1  0  0  0
 24 55  1  0  0  0
 26 56  1  0  0  0
 28 57  1  0  0  0
 29 58  1  0  0  0
 30 59  1  0  0  0
 32 60  1  0  0  0
 32 61  1  0  0  0
 32 62  1  0  0  0
 33 63  1  0  0  0
 33 64  1  0  0  0
 33 65  1  0  0  0
 34 66  1  0  0  0
 34 67  1  0  0  0
 34 68  1  0  0  0
 35 69  1  0  0  0
M  END
$$$$
