4aw8_ligand
  -I-interpret- 

 42 42  0  0  0  0  0  0  0  0999 V2000
   18.7160   22.6150   -8.3090 C   0  0  0  0  0
   19.1680   21.8640   -9.4330 O   0  0  0  0  0
   18.1360   21.0470   -9.9750 C   0  0  0  0  0
   17.8530   21.5210  -11.3900 C   0  0  0  0  0
   16.6870   20.8550  -11.8610 O   0  0  0  0  0
   16.7520   19.4390  -11.6220 C   0  0  0  0  0
   16.5740   18.7090  -12.9510 C   0  0  0  0  0
   16.0220   17.4070  -12.7530 O   0  0  0  0  0
   15.0750   17.0940  -13.7700 C   0  0  0  0  0
   13.7650   17.7320  -13.3410 C   0  0  0  0  0
   13.9210   17.9910  -11.9460 O   0  0  0  0  0
   15.2450   18.5010  -11.7590 C   0  0  0  0  0
   15.1870   20.0070  -11.5690 C   0  0  0  0  0
   14.8080   20.2810  -10.2220 O   0  0  0  0  0
   15.0840   21.6490   -9.8670 C   0  0  0  0  0
   14.0540   22.5410  -10.5430 C   0  0  0  0  0
   13.5170   23.4730   -9.6030 O   0  0  0  0  0
   14.2060   23.4000   -8.3940 C   0  0  0  0  0
   17.8923   23.2610   -8.6127 H   0  0  0  0  0
   18.3759   21.9322   -7.5304 H   0  0  0  0  0
   19.5354   23.2241   -7.9273 H   0  0  0  0  0
   17.2357   21.1253   -9.3655 H   0  0  0  0  0
   18.4491   20.0030   -9.9841 H   0  0  0  0  0
   18.7002   21.2927  -12.0367 H   0  0  0  0  0
   17.6958   22.5996  -11.3980 H   0  0  0  0  0
   17.4519   18.9002  -10.9833 H   0  0  0  0  0
   17.5499   18.6055  -13.4253 H   0  0  0  0  0
   15.8924   19.2852  -13.5767 H   0  0  0  0  0
   14.9668   16.0158  -13.8874 H   0  0  0  0  0
   15.3986   17.4749  -14.7386 H   0  0  0  0  0
   12.9140   17.0802  -13.5386 H   0  0  0  0  0
   13.5568   18.6438  -13.9008 H   0  0  0  0  0
   15.8503   18.2689  -12.6353 H   0  0  0  0  0
   15.6898   18.0409  -10.8766 H   0  0  0  0  0
   14.6890   20.8047  -12.1201 H   0  0  0  0  0
   16.0864   21.9234  -10.1956 H   0  0  0  0  0
   15.0286   21.7708   -8.7852 H   0  0  0  0  0
   13.2463   21.9217  -10.9331 H   0  0  0  0  0
   14.5333   23.0884  -11.3546 H   0  0  0  0  0
   14.1156   22.3933   -7.9860 H   0  0  0  0  0
   15.2576   23.6323   -8.5620 H   0  0  0  0  0
   13.7818   24.1175   -7.6916 H   0  0  0  0  0
  1  2  1  0  0  0
  2  3  1  0  0  0
  3  4  1  0  0  0
  4  5  1  0  0  0
  5  6  1  0  0  0
  6  7  1  0  0  0
  6 13  1  0  0  0
  7  8  1  0  0  0
  8  9  1  0  0  0
  9 10  1  0  0  0
 10 11  1  0  0  0
 11 12  1  0  0  0
 12 13  1  0  0  0
 13 14  1  0  0  0
 14 15  1  0  0  0
 15 16  1  0  0  0
 16 17  1  0  0  0
 17 18  1  0  0  0
  1 19  1  0  0  0
  1 20  1  0  0  0
  1 21  1  0  0  0
  3 22  1  0  0  0
  3 23  1  0  0  0
  4 24  1  0  0  0
  4 25  1  0  0  0
  6 26  1  0  0  0
  7 27  1  0  0  0
  7 28  1  0  0  0
  9 29  1  0  0  0
  9 30  1  0  0  0
 10 31  1  0  0  0
 10 32  1  0  0  0
 12 33  1  0  0  0
 12 34  1  0  0  0
 13 35  1  0  0  0
 15 36  1  0  0  0
 15 37  1  0  0  0
 16 38  1  0  0  0
 16 39  1  0  0  0
 18 40  1  0  0  0
 18 41  1  0  0  0
 18 42  1  0  0  0
M  END
$$$$
