4bt9_ligand
  -I-interpret- 

109114  0  0  0  0  0  0  0  0999 V2000
   77.7600   25.9090  -19.1310 N   0  3  0  0  0
   78.9090   25.0140  -18.9610 C   0  0  0  0  0
   79.3680   24.9220  -17.5070 C   0  0  0  0  0
   79.4710   25.9390  -16.8200 O   0  0  0  0  0
   79.9950   25.6700  -19.8190 C   0  0  0  0  0
   79.5960   27.1030  -19.9100 C   0  0  0  0  0
   78.0950   27.0850  -19.9520 C   0  0  0  0  0
   79.6650   23.7000  -17.0490 N   0  0  0  0  0
   79.9770   23.4070  -15.6430 C   0  0  0  0  0
   81.2860   24.0370  -15.1660 C   0  0  0  0  0
   82.1160   24.4180  -15.9880 O   0  0  0  0  0
   80.1040   21.8860  -15.6370 C   0  0  0  0  0
   80.5270   21.5410  -17.0390 C   0  0  0  0  0
   79.8000   22.5110  -17.9130 C   0  0  0  0  0
   81.4650   24.1360  -13.8510 N   0  0  0  0  0
   82.6910   24.6740  -13.2900 C   0  0  0  0  0
   83.5550   23.6200  -12.6240 C   0  0  0  0  0
   83.0520   22.5930  -12.1750 O   0  0  0  0  0
   84.8710   23.8670  -12.5590 N   0  0  0  0  0
   85.7830   22.9040  -11.9300 C   0  0  0  0  0
   85.4750   22.7670  -10.4380 C   0  0  0  0  0
   84.9320   23.7050   -9.8540 O   0  0  0  0  0
   87.1640   23.5330  -12.1430 C   0  0  0  0  0
   86.8960   25.0000  -12.3550 C   0  0  0  0  0
   85.5550   25.0990  -12.9940 C   0  0  0  0  0
   85.7910   21.6040   -9.8400 N   0  0  0  0  0
   85.4510   21.3210   -8.4360 C   0  0  0  0  0
   85.9630   22.3680   -7.4420 C   0  0  0  0  0
   87.0960   22.8450   -7.5560 O   0  0  0  0  0
   86.1440   19.9780   -8.1800 C   0  0  0  0  0
   86.1620   19.3140   -9.5360 C   0  0  0  0  0
   86.4290   20.4460  -10.4970 C   0  0  0  0  0
   85.1240   22.7270   -6.4800 N   0  0  0  0  0
   85.5570   23.5900   -5.3960 C   0  0  0  0  0
   86.0810   22.7240   -4.2700 C   0  0  0  0  0
   85.9590   21.5010   -4.3340 O   0  0  0  0  0
   86.6770   23.3480   -3.2400 N   0  0  0  0  0
   87.1810   22.5860   -2.0890 C   0  0  0  0  0
   86.0640   21.7900   -1.4080 C   0  0  0  0  0
   84.9220   22.2520   -1.3570 O   0  0  0  0  0
   87.7060   23.6820   -1.1500 C   0  0  0  0  0
   88.0770   24.8230   -2.0750 C   0  0  0  0  0
   87.0070   24.7850   -3.1470 C   0  0  0  0  0
   86.3860   20.5860   -0.9080 N   0  0  0  0  0
   85.3830   19.7740   -0.2110 C   0  0  0  0  0
   85.1880   20.2450    1.2260 C   0  0  0  0  0
   85.8130   21.2270    1.6370 O   0  0  0  0  0
   85.9970   18.3700   -0.2300 C   0  0  0  0  0
   87.4810   18.6000   -0.3120 C   0  0  0  0  0
   87.6550   19.8610   -1.1210 C   0  0  0  0  0
   84.3270   19.5640    1.9760 N   0  0  0  0  0
   84.1630   19.8610    3.3900 C   0  0  0  0  0
   82.8580   20.5440    3.7580 C   0  0  0  0  0
   81.7740   20.0720    3.4100 O   0  0  0  0  0
   82.8470   21.5790    4.4300 O   0  0  0  0  0
   77.4701   26.2352  -18.2091 H   0  0  0  0  0
   77.0186   25.3909  -19.6026 H   0  0  0  0  0
   78.6725   23.9899  -19.2496 H   0  0  0  0  0
   80.0693   25.2066  -20.8028 H   0  0  0  0  0
   80.9854   25.5521  -19.3792 H   0  0  0  0  0
   80.0195   27.5857  -20.7908 H   0  0  0  0  0
   79.9701   27.6815  -19.0653 H   0  0  0  0  0
   77.6489   28.0058  -19.5763 H   0  0  0  0  0
   77.6996   27.0214  -20.9657 H   0  0  0  0  0
   79.2171   23.8096  -14.9732 H   0  0  0  0  0
   79.1698   21.3980  -15.3591 H   0  0  0  0  0
   80.8224   21.5378  -14.8949 H   0  0  0  0  0
   80.2835   20.5090  -17.2917 H   0  0  0  0  0
   81.6072   21.6155  -17.1646 H   0  0  0  0  0
   80.3299   22.7219  -18.8419 H   0  0  0  0  0
   78.8396   22.1295  -18.2596 H   0  0  0  0  0
   80.7235   23.8266  -13.2227 H   0  0  0  0  0
   82.4142   25.4038  -12.5291 H   0  0  0  0  0
   83.2676   25.1056  -14.1082 H   0  0  0  0  0
   85.7023   21.9009  -12.3488 H   0  0  0  0  0
   87.6826   23.0902  -12.9933 H   0  0  0  0  0
   87.8216   23.3616  -11.2908 H   0  0  0  0  0
   87.6626   25.4486  -12.9869 H   0  0  0  0  0
   86.9173   25.5405  -11.4087 H   0  0  0  0  0
   85.0181   26.0003  -12.6981 H   0  0  0  0  0
   85.6157   25.1808  -14.0792 H   0  0  0  0  0
   84.3709   21.3214   -8.2896 H   0  0  0  0  0
   85.6230   19.3793   -7.4329 H   0  0  0  0  0
   87.1449   20.1010   -7.7662 H   0  0  0  0  0
   85.2264   18.7996   -9.7552 H   0  0  0  0  0
   86.9177   18.5313   -9.6014 H   0  0  0  0  0
   87.4924   20.5999  -10.6803 H   0  0  0  0  0
   86.0295   20.2550  -11.4930 H   0  0  0  0  0
   84.1608   22.3921   -6.5020 H   0  0  0  0  0
   84.7194   24.1915   -5.0430 H   0  0  0  0  0
   86.3425   24.2599   -5.7457 H   0  0  0  0  0
   87.9349   21.8508   -2.3706 H   0  0  0  0  0
   88.5553   23.3419   -0.5575 H   0  0  0  0  0
   86.9623   23.9790   -0.4105 H   0  0  0  0  0
   89.0801   24.7127   -2.4870 H   0  0  0  0  0
   88.1106   25.7816   -1.5573 H   0  0  0  0  0
   86.1420   25.4010   -2.9011 H   0  0  0  0  0
   87.3457   25.2019   -4.0955 H   0  0  0  0  0
   84.3999   19.8291   -0.6784 H   0  0  0  0  0
   85.6313   17.7788   -1.0695 H   0  0  0  0  0
   85.7239   17.7959    0.6554 H   0  0  0  0  0
   87.9888   17.7556   -0.7781 H   0  0  0  0  0
   87.9230   18.6998    0.6794 H   0  0  0  0  0
   88.5242   20.4403   -0.8095 H   0  0  0  0  0
   87.8481   19.6579   -2.1744 H   0  0  0  0  0
   83.7720   18.8205    1.5523 H   0  0  0  0  0
   84.9642   20.5486    3.6610 H   0  0  0  0  0
   84.1758   18.9057    3.9147 H   0  0  0  0  0
   83.7492   21.8374    4.6323 H   0  0  0  0  0
  1  2  1  0  0  0
  1  7  1  0  0  0
  2  3  1  0  0  0
  2  5  1  0  0  0
  3  4  2  0  0  0
  3  8  1  0  0  0
  5  6  1  0  0  0
  6  7  1  0  0  0
  8  9  1  0  0  0
  8 14  1  0  0  0
  9 10  1  0  0  0
  9 12  1  0  0  0
 10 11  2  0  0  0
 10 15  1  0  0  0
 12 13  1  0  0  0
 13 14  1  0  0  0
 15 16  1  0  0  0
 16 17  1  0  0  0
 17 18  2  0  0  0
 17 19  1  0  0  0
 19 20  1  0  0  0
 19 25  1  0  0  0
 20 21  1  0  0  0
 20 23  1  0  0  0
 21 22  2  0  0  0
 21 26  1  0  0  0
 23 24  1  0  0  0
 24 25  1  0  0  0
 26 27  1  0  0  0
 26 32  1  0  0  0
 27 28  1  0  0  0
 27 30  1  0  0  0
 28 29  2  0  0  0
 28 33  1  0  0  0
 30 31  1  0  0  0
 31 32  1  0  0  0
 33 34  1  0  0  0
 34 35  1  0  0  0
 35 36  2  0  0  0
 35 37  1  0  0  0
 37 38  1  0  0  0
 37 43  1  0  0  0
 38 39  1  0  0  0
 38 41  1  0  0  0
 39 40  2  0  0  0
 39 44  1  0  0  0
 41 42  1  0  0  0
 42 43  1  0  0  0
 44 45  1  0  0  0
 44 50  1  0  0  0
 45 46  1  0  0  0
 45 48  1  0  0  0
 46 47  2  0  0  0
 46 51  1  0  0  0
 48 49  1  0  0  0
 49 50  1  0  0  0
 51 52  1  0  0  0
 52 53  1  0  0  0
 53 54  2  0  0  0
 53 55  1  0  0  0
  1 56  1  0  0  0
  1 57  1  0  0  0
  2 58  1  0  0  0
  5 59  1  0  0  0
  5 60  1  0  0  0
  6 61  1  0  0  0
  6 62  1  0  0  0
  7 63  1  0  0  0
  7 64  1  0  0  0
  9 65  1  0  0  0
 12 66  1  0  0  0
 12 67  1  0  0  0
 13 68  1  0  0  0
 13 69  1  0  0  0
 14 70  1  0  0  0
 14 71  1  0  0  0
 15 72  1  0  0  0
 16 73  1  0  0  0
 16 74  1  0  0  0
 20 75  1  0  0  0
 23 76  1  0  0  0
 23 77  1  0  0  0
 24 78  1  0  0  0
 24 79  1  0  0  0
 25 80  1  0  0  0
 25 81  1  0  0  0
 27 82  1  0  0  0
 30 83  1  0  0  0
 30 84  1  0  0  0
 31 85  1  0  0  0
 31 86  1  0  0  0
 32 87  1  0  0  0
 32 88  1  0  0  0
 33 89  1  0  0  0
 34 90  1  0  0  0
 34 91  1  0  0  0
 38 92  1  0  0  0
 41 93  1  0  0  0
 41 94  1  0  0  0
 42 95  1  0  0  0
 42 96  1  0  0  0
 43 97  1  0  0  0
 43 98  1  0  0  0
 45 99  1  0  0  0
 48100  1  0  0  0
 48101  1  0  0  0
 49102  1  0  0  0
 49103  1  0  0  0
 50104  1  0  0  0
 50105  1  0  0  0
 51106  1  0  0  0
 52107  1  0  0  0
 52108  1  0  0  0
 55109  1  0  0  0
M  END
$$$$
