4aji_ligand
  -I-interpret- 

 32 32  0  0  0  0  0  0  0  0999 V2000
   16.3310  -12.2350    6.6250 C   0  0  0  0  0
   15.3780  -13.2870    6.5400 O   0  0  0  0  0
   14.8900  -13.8030    7.7110 C   0  0  0  0  0
   15.6690  -14.3640    8.7120 C   0  0  0  0  0
   15.0680  -14.8800    9.8700 C   0  0  0  0  0
   13.6880  -14.8220   10.0300 C   0  0  0  0  0
   12.9170  -14.2750    9.0140 C   0  0  0  0  0
   13.4940  -13.7570    7.8720 C   0  0  0  0  0
   12.7930  -13.1900    6.8520 O   0  0  0  0  0
   11.4660  -12.6830    7.1470 C   0  0  0  0  0
   13.0080  -15.4020   11.2260 C   0  0  0  0  0
   12.3200  -16.7450   10.9320 C   0  0  0  0  0
   13.3410  -17.8070   10.6100 C   0  0  0  0  0
   14.3990  -17.8520   11.1690 O   0  0  0  0  0
   12.9610  -18.6800    9.6960 O   0  0  0  0  0
   11.4810  -17.2020   12.0950 C   0  0  0  0  0
   11.8120  -18.1680   12.7680 O   0  0  0  0  0
   10.3970  -16.4440   12.3270 O   0  0  0  0  0
   15.8889  -11.3874    7.1486 H   0  0  0  0  0
   17.2076  -12.5838    7.1709 H   0  0  0  0  0
   16.6245  -11.9303    5.6204 H   0  0  0  0  0
   16.7523  -14.4042    8.5986 H   0  0  0  0  0
   15.6858  -15.3285   10.6480 H   0  0  0  0  0
   11.8324  -14.2539    9.1201 H   0  0  0  0  0
   10.8390  -13.4982    7.5082 H   0  0  0  0  0
   11.5356  -11.9100    7.9123 H   0  0  0  0  0
   11.0299  -12.2613    6.2414 H   0  0  0  0  0
   12.2398  -14.6979   11.5457 H   0  0  0  0  0
   13.7676  -15.5773   11.9879 H   0  0  0  0  0
   11.6694  -16.5909   10.0712 H   0  0  0  0  0
   12.0821  -18.4527    9.3839 H   0  0  0  0  0
   10.3476  -15.7479   11.6677 H   0  0  0  0  0
  1  2  1  0  0  0
  2  3  1  0  0  0
  3  4  4  0  0  0
  3  8  4  0  0  0
  4  5  4  0  0  0
  5  6  4  0  0  0
  6  7  4  0  0  0
  6 11  1  0  0  0
  7  8  4  0  0  0
  8  9  1  0  0  0
  9 10  1  0  0  0
 11 12  1  0  0  0
 12 13  1  0  0  0
 12 16  1  0  0  0
 13 14  2  0  0  0
 13 15  1  0  0  0
 16 17  2  0  0  0
 16 18  1  0  0  0
  1 19  1  0  0  0
  1 20  1  0  0  0
  1 21  1  0  0  0
  4 22  1  0  0  0
  5 23  1  0  0  0
  7 24  1  0  0  0
 10 25  1  0  0  0
 10 26  1  0  0  0
 10 27  1  0  0  0
 11 28  1  0  0  0
 11 29  1  0  0  0
 12 30  1  0  0  0
 15 31  1  0  0  0
 18 32  1  0  0  0
M  END
$$$$
