### 
### Created by X-TOOL on Mon Sep 10 21:13:19 2018
### 

@<TRIPOS>MOLECULE
4uu7_ligand
  137   138     1     0     0
SMALL
GAST_HUCK


@<TRIPOS>ATOM
      1 C         -33.3440  -26.3460   12.0550 C.2       1 BEZ         0.2070
      2 O1        -33.7580  -27.2960   11.3780 O.2       1 BEZ        -0.3845
      3 C1        -33.9120  -26.0910   13.3010 C.ar      1 BEZ         0.0500
      4 C2        -34.8350  -25.0590   13.4250 C.ar      1 BEZ        -0.0419
      5 C3        -35.4180  -24.7860   14.6470 C.ar      1 BEZ        -0.0562
      6 C4        -35.0690  -25.5580   15.7470 C.ar      1 BEZ        -0.0575
      7 C5        -34.1530  -26.5930   15.6320 C.ar      1 BEZ        -0.0562
      8 C6        -33.5700  -26.8650   14.4050 C.ar      1 BEZ        -0.0419
      9 N         -32.4010  -25.4450   11.6660 N.am      1 GLY        -0.2676
     10 CA        -31.6280  -25.5460   10.3820 C.3       1 GLY         0.1197
     11 C         -31.8540  -24.2910    9.5610 C.2       1 GLY         0.2007
     12 O         -32.9420  -23.7060    9.5390 O.2       1 GLY        -0.3947
     13 N         -30.7930  -23.8760    8.8800 N.am      1 VAL        -0.2637
     14 CA        -30.8370  -22.7200    8.0010 C.3       1 VAL         0.1332
     15 C         -31.6220  -23.0440    6.7330 C.2       1 VAL         0.2041
     16 O         -31.4000  -24.0760    6.1120 O.2       1 VAL        -0.3944
     17 CB        -29.4170  -22.3220    7.5770 C.3       1 VAL        -0.0063
     18 CG1       -29.4450  -21.0260    6.7910 C.3       1 VAL        -0.0584
     19 CG2       -28.5090  -22.2030    8.7890 C.3       1 VAL        -0.0584
     20 N         -32.5410  -22.1700    6.3380 N.am      1 LEU        -0.2637
     21 CA        -33.2730  -22.3780    5.0900 C.3       1 LEU         0.1312
     22 C         -32.4600  -21.9370    3.8760 C.2       1 LEU         0.2039
     23 O         -31.9160  -20.8360    3.8550 O.2       1 LEU        -0.3944
     24 CB        -34.6040  -21.6220    5.0980 C.3       1 LEU        -0.0101
     25 CG        -35.7520  -22.3560    5.7820 C.3       1 LEU        -0.0425
     26 CD1       -37.0590  -22.1590    5.0220 C.3       1 LEU        -0.0625
     27 CD2       -35.4230  -23.8310    5.8820 C.3       1 LEU        -0.0625
     28 N         -32.3860  -22.8000    2.8660 N.am      1 LYS        -0.2637
     29 CA        -31.8020  -22.4230    1.5980 C.3       1 LYS         0.1310
     30 C         -32.3690  -21.0200    1.2710 C.2       1 LYS         0.2039
     31 O         -33.5430  -20.7570    1.5260 O.2       1 LYS        -0.3944
     32 CB        -32.2070  -23.4400    0.5320 C.3       1 LYS        -0.0122
     33 CG        -31.2080  -23.2960   -0.5800 C.3       1 LYS        -0.0440
     34 CD        -31.9330  -23.9220   -1.7650 C.3       1 LYS        -0.0124
     35 CE        -31.1330  -23.4240   -2.9450 C.3       1 LYS        -0.0354
     36 NZ        -30.7870  -24.6010   -3.7320 N.4       1 LYS         0.2185
     37 N         -31.5350  -20.1480    0.7010 N.am      1 GLU        -0.2636
     38 CA        -31.8500  -18.7140    0.4850 C.3       1 GLU         0.1325
     39 C         -32.7440  -18.0420    1.5690 C.2       1 GLU         0.2041
     40 O         -33.4100  -17.0240    1.3090 O.2       1 GLU        -0.3944
     41 CB        -32.3920  -18.4820   -0.9480 C.3       1 GLU        -0.0008
     42 CG        -31.4220  -17.7050   -1.8530 C.3       1 GLU         0.0044
     43 CD        -31.4280  -18.1660   -3.3060 C.2       1 GLU         0.0350
     44 OE1       -31.1390  -19.3600   -3.5580 O.co2     1 GLU        -0.5690
     45 OE2       -31.6960  -17.3240   -4.1960 O.co2     1 GLU        -0.5690
     46 N         -32.7010  -18.6000    2.7820 N.am      1 TYR        -0.2621
     47 CA        -33.4610  -18.1170    3.9590 C.3       1 TYR         0.1390
     48 C         -34.9880  -18.2550    3.8290 C.2       1 TYR         0.2055
     49 O         -35.7260  -17.8530    4.7250 O.2       1 TYR        -0.3942
     50 CB        -33.1220  -16.6610    4.2910 C.3       1 TYR         0.0163
     51 CG        -31.6390  -16.3280    4.4180 C.ar      1 TYR        -0.0493
     52 CD1       -30.8320  -16.9370    5.3850 C.ar      1 TYR        -0.0685
     53 CD2       -31.0520  -15.3780    3.5880 C.ar      1 TYR        -0.0685
     54 CE1       -29.4840  -16.6230    5.4910 C.ar      1 TYR        -0.0398
     55 CE2       -29.7130  -15.0590    3.6950 C.ar      1 TYR        -0.0398
     56 CZ        -28.9310  -15.6770    4.6430 C.ar      1 TYR         0.0805
     57 OH        -27.5920  -15.3320    4.7350 O.3       1 TYR        -0.3376
     58 N         -35.4730  -18.8120    2.7230 N.am      1 GLY        -0.2663
     59 CA        -36.9000  -19.0150    2.5530 C.3       1 GLY         0.1201
     60 C         -37.5780  -17.8700    1.8260 C.2       1 GLY         0.2003
     61 O         -38.8100  -17.8540    1.7000 O.2       1 GLY        -0.3947
     62 N         -36.7910  -16.9030    1.3490 N.am      1 VAL        -0.2670
     63 CA        -37.3360  -15.7580    0.5800 C.3       1 VAL         0.1248
     64 C         -38.1810  -16.2100   -0.6230 C.2       1 VAL         0.2152
     65 O         -39.3250  -15.7840   -0.7980 O.co2     1 VAL        -0.4120
     66 CB        -36.2040  -14.8510    0.0440 C.3       1 VAL        -0.0094
     67 CG1       -36.4780  -14.4340   -1.4030 C.3       1 VAL        -0.0589
     68 CG2       -35.9960  -13.6510    0.9570 C.3       1 VAL        -0.0589
     69 H         -35.0988  -24.4650   12.5575 H         1 BEZ         0.0669
     70 H         -36.1373  -23.9810   14.7458 H         1 BEZ         0.0629
     71 H         -35.5194  -25.3485   16.7105 H         1 BEZ         0.0653
     72 H         -33.8938  -27.1879   16.5003 H         1 BEZ         0.0629
     73 H         -32.8543  -27.6731   14.3063 H         1 BEZ         0.0669
     74 H         -32.2118  -24.6708   12.2700 H         1 GLY         0.1874
     75 H         -31.9715  -26.4233    9.8143 H         1 GLY         0.0763
     76 H         -30.5561  -25.6507   10.6056 H         1 GLY         0.0763
     77 H         -29.9327  -24.3768    8.9753 H         1 VAL         0.1883
     78 H         -31.3155  -21.8823    8.5295 H         1 VAL         0.0802
     79 H         -29.0169  -23.1121    6.9245 H         1 VAL         0.0343
     80 H         -28.4210  -20.7547    6.4948 H         1 VAL         0.0234
     81 H         -29.8696  -20.2269    7.4164 H         1 VAL         0.0234
     82 H         -30.0646  -21.1560    5.8915 H         1 VAL         0.0234
     83 H         -28.5068  -23.1548    9.3403 H         1 VAL         0.0234
     84 H         -28.8764  -21.4001    9.4450 H         1 VAL         0.0234
     85 H         -27.4862  -21.9679    8.4593 H         1 VAL         0.0234
     86 H         -32.7334  -21.3643    6.8982 H         1 LEU         0.1883
     87 H         -33.4828  -23.4536    4.9951 H         1 LEU         0.0800
     88 H         -34.8944  -21.4293    4.0547 H         1 LEU         0.0315
     89 H         -34.4510  -20.6652    5.6188 H         1 LEU         0.0315
     90 H         -35.8736  -21.9501    6.7971 H         1 LEU         0.0298
     91 H         -37.8675  -22.6984    5.5371 H         1 LEU         0.0232
     92 H         -36.9511  -22.5497    3.9994 H         1 LEU         0.0232
     93 H         -37.3014  -21.0868    4.9812 H         1 LEU         0.0232
     94 H         -34.4790  -23.9596    6.4318 H         1 LEU         0.0232
     95 H         -35.3191  -24.2529    4.8715 H         1 LEU         0.0232
     96 H         -36.2318  -24.3518    6.4154 H         1 LEU         0.0232
     97 H         -32.7411  -23.7271    2.9861 H         1 LYS         0.1883
     98 H         -30.7053  -22.3834    1.6727 H         1 LYS         0.0800
     99 H         -33.2212  -23.2249    0.1645 H         1 LYS         0.0312
    100 H         -32.1750  -24.4592    0.9446 H         1 LYS         0.0312
    101 H         -30.2791  -23.8391   -0.3515 H         1 LYS         0.0269
    102 H         -30.9766  -22.2377   -0.7707 H         1 LYS         0.0269
    103 H         -32.9761  -23.5769   -1.8191 H         1 LYS         0.0317
    104 H         -31.9126  -25.0203   -1.7072 H         1 LYS         0.0317
    105 H         -30.2208  -22.9157   -2.5993 H         1 LYS         0.0813
    106 H         -31.7354  -22.7274   -3.5466 H         1 LYS         0.0813
    107 H         -30.2487  -24.3207   -4.5368 H         1 LYS         0.1994
    108 H         -31.6304  -25.0619   -4.0358 H         1 LYS         0.1994
    109 H         -30.2425  -25.2344   -3.1677 H         1 LYS         0.1994
    110 H         -30.6416  -20.4819    0.4005 H         1 GLU         0.1883
    111 H         -30.8851  -18.1886    0.5388 H         1 GLU         0.0801
    112 H         -33.3318  -17.9147   -0.8771 H         1 GLU         0.0330
    113 H         -32.5887  -19.4614   -1.4085 H         1 GLU         0.0330
    114 H         -30.4038  -17.8277   -1.4552 H         1 GLU         0.0433
    115 H         -31.7005  -16.6412   -1.8262 H         1 GLU         0.0433
    116 H         -32.1143  -19.4005    2.9045 H         1 TYR         0.1885
    117 H         -33.1494  -18.7372    4.8124 H         1 TYR         0.0821
    118 H         -33.6048  -16.4136    5.2479 H         1 TYR         0.0453
    119 H         -33.5411  -16.0286    3.4945 H         1 TYR         0.0453
    120 H         -31.2657  -17.6647    6.0614 H         1 TYR         0.0530
    121 H         -31.6587  -14.8779    2.8418 H         1 TYR         0.0530
    122 H         -28.8669  -17.1156    6.2337 H         1 TYR         0.0525
    123 H         -29.2775  -14.3208    3.0313 H         1 TYR         0.0525
    124 H         -27.1831  -15.8364    5.4285 H         1 TYR         0.2458
    125 H         -34.8453  -19.0951    1.9979 H         1 GLY         0.1881
    126 H         -37.3600  -19.1209    3.5466 H         1 GLY         0.0763
    127 H         -37.0566  -19.9384    1.9761 H         1 GLY         0.0763
    128 H         -35.8061  -16.9521    1.5149 H         1 VAL         0.1876
    129 H         -37.9734  -15.1690    1.2559 H         1 VAL         0.0754
    130 O2        -37.6950  -17.0314   -1.4456 O.co2     1 VAL        -0.4120
    131 H         -35.2730  -15.4368    0.0492 H         1 VAL         0.0336
    132 H         -35.6603  -13.7909   -1.7603 H         1 VAL         0.0234
    133 H         -37.4275  -13.8808   -1.4517 H         1 VAL         0.0234
    134 H         -36.5430  -15.3306   -2.0369 H         1 VAL         0.0234
    135 H         -35.8031  -13.9995    1.9823 H         1 VAL         0.0234
    136 H         -36.8984  -13.0220    0.9472 H         1 VAL         0.0234
    137 H         -35.1362  -13.0643    0.6013 H         1 VAL         0.0234
@<TRIPOS>BOND
     1    1    2 2  
     2    1    3 1  
     3    1    9 am 
     4    3    4 ar 
     5    3    8 ar 
     6    4    5 ar 
     7    5    6 ar 
     8    6    7 ar 
     9    7    8 ar 
    10    9   10 1  
    11   10   11 1  
    12   11   12 2  
    13   11   13 am 
    14   13   14 1  
    15   14   15 1  
    16   14   17 1  
    17   15   16 2  
    18   15   20 am 
    19   17   18 1  
    20   17   19 1  
    21   20   21 1  
    22   21   22 1  
    23   21   24 1  
    24   22   23 2  
    25   22   28 am 
    26   24   25 1  
    27   25   26 1  
    28   25   27 1  
    29   28   29 1  
    30   29   30 1  
    31   29   32 1  
    32   30   31 2  
    33   30   37 am 
    34   32   33 1  
    35   33   34 1  
    36   34   35 1  
    37   35   36 1  
    38   37   38 1  
    39   38   39 1  
    40   38   41 1  
    41   39   40 2  
    42   39   46 am 
    43   41   42 1  
    44   42   43 1  
    45   43   44 ar 
    46   43   45 ar 
    47   46   47 1  
    48   47   48 1  
    49   47   50 1  
    50   48   49 2  
    51   48   58 am 
    52   50   51 1  
    53   51   52 ar 
    54   51   53 ar 
    55   52   54 ar 
    56   53   55 ar 
    57   54   56 ar 
    58   55   56 ar 
    59   56   57 1  
    60   58   59 1  
    61   59   60 1  
    62   60   61 2  
    63   60   62 am 
    64   62   63 1  
    65   63   64 1  
    66   63   66 1  
    67   64   65 ar 
    68   66   67 1  
    69   66   68 1  
    70    4   69 1  
    71    5   70 1  
    72    6   71 1  
    73    7   72 1  
    74    8   73 1  
    75    9   74 1  
    76   10   75 1  
    77   10   76 1  
    78   13   77 1  
    79   14   78 1  
    80   17   79 1  
    81   18   80 1  
    82   18   81 1  
    83   18   82 1  
    84   19   83 1  
    85   19   84 1  
    86   19   85 1  
    87   20   86 1  
    88   21   87 1  
    89   24   88 1  
    90   24   89 1  
    91   25   90 1  
    92   26   91 1  
    93   26   92 1  
    94   26   93 1  
    95   27   94 1  
    96   27   95 1  
    97   27   96 1  
    98   28   97 1  
    99   29   98 1  
   100   32   99 1  
   101   32  100 1  
   102   33  101 1  
   103   33  102 1  
   104   34  103 1  
   105   34  104 1  
   106   35  105 1  
   107   35  106 1  
   108   36  107 1  
   109   36  108 1  
   110   36  109 1  
   111   37  110 1  
   112   38  111 1  
   113   41  112 1  
   114   41  113 1  
   115   42  114 1  
   116   42  115 1  
   117   46  116 1  
   118   47  117 1  
   119   50  118 1  
   120   50  119 1  
   121   52  120 1  
   122   53  121 1  
   123   54  122 1  
   124   55  123 1  
   125   57  124 1  
   126   58  125 1  
   127   59  126 1  
   128   59  127 1  
   129   62  128 1  
   130   63  129 1  
   131   64  130 ar 
   132   66  131 1  
   133   67  132 1  
   134   67  133 1  
   135   67  134 1  
   136   68  135 1  
   137   68  136 1  
   138   68  137 1  
@<TRIPOS>SUBSTRUCTURE
     1 BEZ         1

