4uu7_ligand
  -I-interpret- 

139140  0  0  0  0  0  0  0  0999 V2000
  -33.3440  -26.3460   12.0550 C   0  0  0  0  0
  -33.7580  -27.2960   11.3780 O   0  0  0  0  0
  -33.9120  -26.0910   13.3010 C   0  0  0  0  0
  -34.8350  -25.0590   13.4250 C   0  0  0  0  0
  -35.4180  -24.7860   14.6470 C   0  0  0  0  0
  -35.0690  -25.5580   15.7470 C   0  0  0  0  0
  -34.1530  -26.5930   15.6320 C   0  0  0  0  0
  -33.5700  -26.8650   14.4050 C   0  0  0  0  0
  -32.4010  -25.4450   11.6660 N   0  0  0  0  0
  -31.6280  -25.5460   10.3820 C   0  0  0  0  0
  -31.8540  -24.2910    9.5610 C   0  0  0  0  0
  -32.9420  -23.7060    9.5390 O   0  0  0  0  0
  -30.7930  -23.8760    8.8800 N   0  0  0  0  0
  -30.8370  -22.7200    8.0010 C   0  0  0  0  0
  -31.6220  -23.0440    6.7330 C   0  0  0  0  0
  -31.4000  -24.0760    6.1120 O   0  0  0  0  0
  -29.4170  -22.3220    7.5770 C   0  0  0  0  0
  -29.4450  -21.0260    6.7910 C   0  0  0  0  0
  -28.5090  -22.2030    8.7890 C   0  0  0  0  0
  -32.5410  -22.1700    6.3380 N   0  0  0  0  0
  -33.2730  -22.3780    5.0900 C   0  0  0  0  0
  -32.4600  -21.9370    3.8760 C   0  0  0  0  0
  -31.9160  -20.8360    3.8550 O   0  0  0  0  0
  -34.6040  -21.6220    5.0980 C   0  0  0  0  0
  -35.7520  -22.3560    5.7820 C   0  0  0  0  0
  -37.0590  -22.1590    5.0220 C   0  0  0  0  0
  -35.4230  -23.8310    5.8820 C   0  0  0  0  0
  -32.3860  -22.8000    2.8660 N   0  0  0  0  0
  -31.8020  -22.4230    1.5980 C   0  0  0  0  0
  -32.3690  -21.0200    1.2710 C   0  0  0  0  0
  -33.5430  -20.7570    1.5260 O   0  0  0  0  0
  -32.2070  -23.4400    0.5320 C   0  0  0  0  0
  -31.2080  -23.2960   -0.5800 C   0  0  0  0  0
  -31.9330  -23.9220   -1.7650 C   0  0  0  0  0
  -31.1330  -23.4240   -2.9450 C   0  0  0  0  0
  -30.7870  -24.6010   -3.7320 N   0  3  0  0  0
  -31.5350  -20.1480    0.7010 N   0  0  0  0  0
  -31.8500  -18.7140    0.4850 C   0  0  0  0  0
  -32.7440  -18.0420    1.5690 C   0  0  0  0  0
  -33.4100  -17.0240    1.3090 O   0  0  0  0  0
  -32.3920  -18.4820   -0.9480 C   0  0  0  0  0
  -31.4220  -17.7050   -1.8530 C   0  0  0  0  0
  -31.4280  -18.1660   -3.3060 C   0  0  0  0  0
  -31.1390  -19.3600   -3.5580 O   0  0  0  0  0
  -31.6960  -17.3240   -4.1960 O   0  0  0  0  0
  -32.7010  -18.6000    2.7820 N   0  0  0  0  0
  -33.4610  -18.1170    3.9590 C   0  0  0  0  0
  -34.9880  -18.2550    3.8290 C   0  0  0  0  0
  -35.7260  -17.8530    4.7250 O   0  0  0  0  0
  -33.1220  -16.6610    4.2910 C   0  0  0  0  0
  -31.6390  -16.3280    4.4180 C   0  0  0  0  0
  -30.8320  -16.9370    5.3850 C   0  0  0  0  0
  -31.0520  -15.3780    3.5880 C   0  0  0  0  0
  -29.4840  -16.6230    5.4910 C   0  0  0  0  0
  -29.7130  -15.0590    3.6950 C   0  0  0  0  0
  -28.9310  -15.6770    4.6430 C   0  0  0  0  0
  -27.5920  -15.3320    4.7350 O   0  0  0  0  0
  -35.4730  -18.8120    2.7230 N   0  0  0  0  0
  -36.9000  -19.0150    2.5530 C   0  0  0  0  0
  -37.5780  -17.8700    1.8260 C   0  0  0  0  0
  -38.8100  -17.8540    1.7000 O   0  0  0  0  0
  -36.7910  -16.9030    1.3490 N   0  0  0  0  0
  -37.3360  -15.7580    0.5800 C   0  0  0  0  0
  -38.1810  -16.2100   -0.6230 C   0  0  0  0  0
  -39.3250  -15.7840   -0.7980 O   0  0  0  0  0
  -36.2040  -14.8510    0.0440 C   0  0  0  0  0
  -36.4780  -14.4340   -1.4030 C   0  0  0  0  0
  -35.9960  -13.6510    0.9570 C   0  0  0  0  0
  -37.6950  -17.0314   -1.4456 O   0  0  0  0  0
  -35.1002  -24.4617   12.5527 H   0  0  0  0  0
  -36.1413  -23.9766   14.7463 H   0  0  0  0  0
  -35.5219  -25.3474   16.7158 H   0  0  0  0  0
  -33.8923  -27.1912   16.5051 H   0  0  0  0  0
  -32.8503  -27.6776   14.3057 H   0  0  0  0  0
  -32.2080  -24.6553   12.2821 H   0  0  0  0  0
  -31.9668  -26.4160    9.8195 H   0  0  0  0  0
  -30.5658  -25.6513   10.6028 H   0  0  0  0  0
  -29.9155  -24.3868    8.9772 H   0  0  0  0  0
  -31.3163  -21.9070    8.5464 H   0  0  0  0  0
  -29.0154  -23.1038    6.9323 H   0  0  0  0  0
  -30.0592  -21.1561    5.9000 H   0  0  0  0  0
  -29.8660  -20.2351    7.4118 H   0  0  0  0  0
  -28.4298  -20.7582    6.4981 H   0  0  0  0  0
  -28.9026  -21.4421    9.4630 H   0  0  0  0  0
  -28.4676  -23.1618    9.3059 H   0  0  0  0  0
  -27.5076  -21.9200    8.4647 H   0  0  0  0  0
  -32.7372  -21.3482    6.9094 H   0  0  0  0  0
  -33.4628  -23.4488    5.0164 H   0  0  0  0  0
  -34.8942  -21.4810    4.0568 H   0  0  0  0  0
  -34.4409  -20.6999    5.6559 H   0  0  0  0  0
  -35.8803  -21.9434    6.7827 H   0  0  0  0  0
  -37.2981  -21.0963    4.9822 H   0  0  0  0  0
  -36.9507  -22.5465    4.0090 H   0  0  0  0  0
  -37.8593  -22.6939    5.5334 H   0  0  0  0  0
  -35.2767  -24.2380    4.8815 H   0  0  0  0  0
  -34.5110  -23.9598    6.4650 H   0  0  0  0  0
  -36.2453  -24.3530    6.3713 H   0  0  0  0  0
  -32.7482  -23.7456    2.9885 H   0  0  0  0  0
  -30.7127  -22.4019    1.6317 H   0  0  0  0  0
  -33.2212  -23.2566    0.1772 H   0  0  0  0  0
  -32.2068  -24.4534    0.9335 H   0  0  0  0  0
  -30.2556  -23.7788   -0.3610 H   0  0  0  0  0
  -30.9167  -22.2609   -0.7584 H   0  0  0  0  0
  -32.9851  -23.6416   -1.8160 H   0  0  0  0  0
  -31.9770  -25.0097   -1.7100 H   0  0  0  0  0
  -30.2380  -22.8956   -2.6165 H   0  0  0  0  0
  -31.7093  -22.7127   -3.5367 H   0  0  0  0  0
  -30.2424  -24.3162   -4.5460 H   0  0  0  0  0
  -30.2362  -25.2411   -3.1600 H   0  0  0  0  0
  -31.6412  -25.0665   -4.0388 H   0  0  0  0  0
  -30.6237  -20.4886    0.3945 H   0  0  0  0  0
  -30.8965  -18.1979    0.5966 H   0  0  0  0  0
  -33.3036  -17.8908   -0.8614 H   0  0  0  0  0
  -32.5493  -19.4609   -1.4009 H   0  0  0  0  0
  -30.4164  -17.8683   -1.4656 H   0  0  0  0  0
  -31.7356  -16.6611   -1.8431 H   0  0  0  0  0
  -31.8871  -16.4770   -3.7865 H   0  0  0  0  0
  -32.1026  -19.4165    2.9070 H   0  0  0  0  0
  -33.1446  -18.7728    4.7701 H   0  0  0  0  0
  -33.5641  -16.4601    5.2669 H   0  0  0  0  0
  -33.4985  -16.0635    3.4607 H   0  0  0  0  0
  -31.2681  -17.6687    6.0651 H   0  0  0  0  0
  -31.6620  -14.8751    2.8376 H   0  0  0  0  0
  -28.8635  -17.1183    6.2378 H   0  0  0  0  0
  -29.2751  -14.3167    3.0276 H   0  0  0  0  0
  -27.3879  -14.6668    4.0736 H   0  0  0  0  0
  -34.8327  -19.1008    1.9834 H   0  0  0  0  0
  -37.3456  -19.0892    3.5450 H   0  0  0  0  0
  -37.0387  -19.9163    1.9560 H   0  0  0  0  0
  -35.7864  -16.9530    1.5182 H   0  0  0  0  0
  -37.9663  -15.2086    1.2793 H   0  0  0  0  0
  -35.2745  -15.4203    0.0427 H   0  0  0  0  0
  -36.5423  -15.3232   -2.0301 H   0  0  0  0  0
  -37.4191  -13.8860   -1.4499 H   0  0  0  0  0
  -35.6671  -13.7968   -1.7559 H   0  0  0  0  0
  -36.9175  -13.0711    1.0084 H   0  0  0  0  0
  -35.7271  -13.9976    1.9548 H   0  0  0  0  0
  -35.1949  -13.0280    0.5592 H   0  0  0  0  0
  -36.8047  -17.2660   -1.1737 H   0  0  0  0  0
  1  2  2  0  0  0
  1  3  1  0  0  0
  1  9  1  0  0  0
  3  4  4  0  0  0
  3  8  4  0  0  0
  4  5  4  0  0  0
  5  6  4  0  0  0
  6  7  4  0  0  0
  7  8  4  0  0  0
  9 10  1  0  0  0
 10 11  1  0  0  0
 11 12  2  0  0  0
 11 13  1  0  0  0
 13 14  1  0  0  0
 14 15  1  0  0  0
 14 17  1  0  0  0
 15 16  2  0  0  0
 15 20  1  0  0  0
 17 18  1  0  0  0
 17 19  1  0  0  0
 20 21  1  0  0  0
 21 22  1  0  0  0
 21 24  1  0  0  0
 22 23  2  0  0  0
 22 28  1  0  0  0
 24 25  1  0  0  0
 25 26  1  0  0  0
 25 27  1  0  0  0
 28 29  1  0  0  0
 29 30  1  0  0  0
 29 32  1  0  0  0
 30 31  2  0  0  0
 30 37  1  0  0  0
 32 33  1  0  0  0
 33 34  1  0  0  0
 34 35  1  0  0  0
 35 36  1  0  0  0
 37 38  1  0  0  0
 38 39  1  0  0  0
 38 41  1  0  0  0
 39 40  2  0  0  0
 39 46  1  0  0  0
 41 42  1  0  0  0
 42 43  1  0  0  0
 43 44  2  0  0  0
 43 45  1  0  0  0
 46 47  1  0  0  0
 47 48  1  0  0  0
 47 50  1  0  0  0
 48 49  2  0  0  0
 48 58  1  0  0  0
 50 51  1  0  0  0
 51 52  4  0  0  0
 51 53  4  0  0  0
 52 54  4  0  0  0
 53 55  4  0  0  0
 54 56  4  0  0  0
 55 56  4  0  0  0
 56 57  1  0  0  0
 58 59  1  0  0  0
 59 60  1  0  0  0
 60 61  2  0  0  0
 60 62  1  0  0  0
 62 63  1  0  0  0
 63 64  1  0  0  0
 63 66  1  0  0  0
 64 65  2  0  0  0
 66 67  1  0  0  0
 66 68  1  0  0  0
 64 69  1  0  0  0
  4 70  1  0  0  0
  5 71  1  0  0  0
  6 72  1  0  0  0
  7 73  1  0  0  0
  8 74  1  0  0  0
  9 75  1  0  0  0
 10 76  1  0  0  0
 10 77  1  0  0  0
 13 78  1  0  0  0
 14 79  1  0  0  0
 17 80  1  0  0  0
 18 81  1  0  0  0
 18 82  1  0  0  0
 18 83  1  0  0  0
 19 84  1  0  0  0
 19 85  1  0  0  0
 19 86  1  0  0  0
 20 87  1  0  0  0
 21 88  1  0  0  0
 24 89  1  0  0  0
 24 90  1  0  0  0
 25 91  1  0  0  0
 26 92  1  0  0  0
 26 93  1  0  0  0
 26 94  1  0  0  0
 27 95  1  0  0  0
 27 96  1  0  0  0
 27 97  1  0  0  0
 28 98  1  0  0  0
 29 99  1  0  0  0
 32100  1  0  0  0
 32101  1  0  0  0
 33102  1  0  0  0
 33103  1  0  0  0
 34104  1  0  0  0
 34105  1  0  0  0
 35106  1  0  0  0
 35107  1  0  0  0
 36108  1  0  0  0
 36109  1  0  0  0
 36110  1  0  0  0
 37111  1  0  0  0
 38112  1  0  0  0
 41113  1  0  0  0
 41114  1  0  0  0
 42115  1  0  0  0
 42116  1  0  0  0
 45117  1  0  0  0
 46118  1  0  0  0
 47119  1  0  0  0
 50120  1  0  0  0
 50121  1  0  0  0
 52122  1  0  0  0
 53123  1  0  0  0
 54124  1  0  0  0
 55125  1  0  0  0
 57126  1  0  0  0
 58127  1  0  0  0
 59128  1  0  0  0
 59129  1  0  0  0
 62130  1  0  0  0
 63131  1  0  0  0
 66132  1  0  0  0
 67133  1  0  0  0
 67134  1  0  0  0
 67135  1  0  0  0
 68136  1  0  0  0
 68137  1  0  0  0
 68138  1  0  0  0
 69139  1  0  0  0
M  END
$$$$
