4uvw_ligand
  -I-interpret- 

 34 36  0  0  0  0  0  0  0  0999 V2000
  -41.6650  -12.8050   11.2540 C   0  0  0  0  0
  -40.8920  -12.1160   12.2460 C   0  0  0  0  0
  -41.0610  -12.3460   13.6420 C   0  0  0  0  0
  -41.9790  -13.3090   14.1980 C   0  0  0  0  0
  -42.8180  -14.1700   13.4250 C   0  0  0  0  0
  -42.1080  -13.4560   15.5880 C   0  0  0  0  0
  -41.3320  -12.6780   16.4550 C   0  0  0  0  0
  -40.4420  -11.7500   15.9320 C   0  0  0  0  0
  -40.2850  -11.5770   14.5580 C   0  0  0  0  0
  -39.3470  -10.6380   14.0920 C   0  0  0  0  0
  -38.6290   -9.9670   14.8500 O   0  0  0  0  0
  -39.1890  -10.4350   12.7140 N   0  0  0  0  0
  -39.9600  -11.1440   11.7740 C   0  0  0  0  0
  -39.7090  -10.8670   10.4050 C   0  0  0  0  0
  -39.5840  -11.8790    9.4430 C   0  0  0  0  0
  -39.2700  -11.5650    8.1110 C   0  0  0  0  0
  -39.1080  -10.2310    7.7130 C   0  0  0  0  0
  -39.2040   -9.2320    8.6760 C   0  0  0  0  0
  -39.4980   -9.5570    9.9810 C   0  0  0  0  0
  -42.2524  -12.0829   10.6868 H   0  0  0  0  0
  -40.9955  -13.3398   10.5804 H   0  0  0  0  0
  -42.3326  -13.5141   11.7434 H   0  0  0  0  0
  -43.4828  -13.5675   12.8060 H   0  0  0  0  0
  -42.1993  -14.8017   12.7876 H   0  0  0  0  0
  -43.4095  -14.7951   14.0939 H   0  0  0  0  0
  -42.8155  -14.1791   15.9939 H   0  0  0  0  0
  -41.4260  -12.8001   17.5341 H   0  0  0  0  0
  -39.8499  -11.1401   16.6143 H   0  0  0  0  0
  -38.5000   -9.7585   12.3853 H   0  0  0  0  0
  -39.7320  -12.9196    9.7318 H   0  0  0  0  0
  -39.1513  -12.3653    7.3805 H   0  0  0  0  0
  -38.9109   -9.9816    6.6704 H   0  0  0  0  0
  -39.0462   -8.1902    8.3970 H   0  0  0  0  0
  -39.5688   -8.7540   10.7147 H   0  0  0  0  0
  1  2  1  0  0  0
  2  3  1  0  0  0
  2 13  2  0  0  0
  3  4  4  0  0  0
  3  9  4  0  0  0
  4  5  1  0  0  0
  4  6  4  0  0  0
  6  7  4  0  0  0
  7  8  4  0  0  0
  8  9  4  0  0  0
  9 10  1  0  0  0
 10 11  2  0  0  0
 10 12  1  0  0  0
 12 13  1  0  0  0
 13 14  1  0  0  0
 14 15  4  0  0  0
 14 19  4  0  0  0
 15 16  4  0  0  0
 16 17  4  0  0  0
 17 18  4  0  0  0
 18 19  4  0  0  0
  1 20  1  0  0  0
  1 21  1  0  0  0
  1 22  1  0  0  0
  5 23  1  0  0  0
  5 24  1  0  0  0
  5 25  1  0  0  0
  6 26  1  0  0  0
  7 27  1  0  0  0
  8 28  1  0  0  0
 12 29  1  0  0  0
 15 30  1  0  0  0
 16 31  1  0  0  0
 17 32  1  0  0  0
 18 33  1  0  0  0
 19 34  1  0  0  0
M  END
$$$$
