3hww_ligand
  -I-interpret- 

 16 15  0  0  0  0  0  0  0  0999 V2000
  -42.7770    3.0060   10.4000 C   0  0  0  0  0
  -42.3110    1.9630    9.9750 O   0  0  0  0  0
  -43.2280    3.9740    9.6790 O   0  0  0  0  0
  -42.9000    3.3130   11.7530 C   0  0  0  0  0
  -42.9340    4.4170   12.4520 O   0  0  0  0  0
  -42.7950    2.6900   12.9590 C   0  0  0  0  0
  -44.1440    2.3660   13.5110 C   0  0  0  0  0
  -43.8340    1.5140   14.7050 C   0  0  0  0  0
  -43.9490    2.0130   15.8380 O   0  0  0  0  0
  -43.4570    0.3410   14.5400 O   0  0  0  0  0
  -43.5386    4.6797   10.2509 H   0  0  0  0  0
  -42.2827    3.3556   13.6538 H   0  0  0  0  0
  -42.2384    1.7622   12.8268 H   0  0  0  0  0
  -44.7818    1.8579   12.7878 H   0  0  0  0  0
  -44.7163    3.2570   13.7691 H   0  0  0  0  0
  -44.2498    2.9211   15.7575 H   0  0  0  0  0
  1  2  2  0  0  0
  1  3  1  0  0  0
  1  4  1  0  0  0
  4  5  2  0  0  0
  4  6  1  0  0  0
  6  7  1  0  0  0
  7  8  1  0  0  0
  8  9  1  0  0  0
  8 10  2  0  0  0
  3 11  1  0  0  0
  6 12  1  0  0  0
  6 13  1  0  0  0
  7 14  1  0  0  0
  7 15  1  0  0  0
  9 16  1  0  0  0
M  END
$$$$
