4p90_ligand
  -I-interpret- 

 53 57  0  0  0  0  0  0  0  0999 V2000
    2.0340  -33.3790   21.3360 C   0  0  0  0  0
    3.1520  -33.4070   20.5160 C   0  0  0  0  0
    3.5710  -32.2640   19.8270 C   0  0  0  0  0
    4.7940  -32.2490   18.9550 C   0  0  0  0  0
    4.7080  -32.9820   17.6990 C   0  0  0  0  0
    3.6440  -33.7310   17.2460 C   0  0  0  0  0
    5.1980  -33.8940   15.6610 C   0  0  0  0  0
    5.7370  -33.1050   16.6910 C   0  0  0  0  0
    7.0030  -32.5650   16.4630 C   0  0  0  0  0
    7.6780  -32.8650   15.2790 C   0  0  0  0  0
    7.0420  -33.6830   14.3530 C   0  0  0  0  0
    9.0400  -32.3160   15.0170 C   0  0  0  0  0
    9.9460  -32.4900   13.9200 C   0  0  0  0  0
   11.8220  -28.9160   16.0860 C   0  0  0  0  0
   12.9400  -28.4280   16.9860 C   0  0  0  0  0
   14.5000  -30.1210   16.0920 C   0  0  0  0  0
   13.4090  -30.6890   15.1980 C   0  0  0  0  0
    3.9920  -34.9180   20.3210 Cl  0  0  0  0  0
    2.8470  -31.0790   20.0200 C   0  0  0  0  0
    1.7160  -31.0390   20.8340 C   0  0  0  0  0
    0.9630  -29.7500   21.0240 C   0  0  0  0  0
    0.8730  -29.3430   22.3850 O   0  0  0  0  0
    1.3200  -32.2040   21.4830 C   0  0  0  0  0
    5.8000  -31.6550   19.3410 O   0  0  0  0  0
    5.8070  -34.1700   14.5040 N   0  0  0  0  0
    3.9450  -34.2910   16.0320 N   0  0  0  0  0
    9.7420  -31.4770   15.8420 C   0  0  0  0  0
   10.9400  -31.1980   15.3060 N   0  0  0  0  0
   11.0800  -31.8400   14.1170 N   0  0  0  0  0
   12.0780  -30.4080   15.8960 C   0  0  0  0  0
   14.2600  -28.6740   16.3530 N   0  3  0  0  0
    1.7192  -34.2799   21.8627 H   0  0  0  0  0
    2.7003  -33.8594   17.7760 H   0  0  0  0  0
    7.4623  -31.9124   17.2055 H   0  0  0  0  0
    7.5856  -33.9441   13.4451 H   0  0  0  0  0
    9.7270  -33.0847   13.0332 H   0  0  0  0  0
   11.8145  -28.3863   15.1334 H   0  0  0  0  0
   10.8427  -28.7306   16.5273 H   0  0  0  0  0
   12.8945  -28.9671   17.9322 H   0  0  0  0  0
   12.8202  -27.3574   17.1517 H   0  0  0  0  0
   15.4623  -30.2360   15.5931 H   0  0  0  0  0
   14.4954  -30.6575   17.0408 H   0  0  0  0  0
   13.5495  -31.7592   15.0461 H   0  0  0  0  0
   13.4354  -30.2263   14.2114 H   0  0  0  0  0
    3.1763  -30.1672   19.5217 H   0  0  0  0  0
   -0.0525  -29.9061   20.6600 H   0  0  0  0  0
    1.5020  -28.9720   20.4834 H   0  0  0  0  0
    0.3839  -28.5187   22.4397 H   0  0  0  0  0
    0.4335  -32.1904   22.1170 H   0  0  0  0  0
    9.3798  -31.0921   16.7953 H   0  0  0  0  0
   12.1527  -30.7874   16.9151 H   0  0  0  0  0
   14.9838  -28.3429   16.9909 H   0  0  0  0  0
   14.2789  -28.1835   15.4589 H   0  0  0  0  0
  2  1  4  0  0  0
  1 23  4  0  0  0
  3  2  4  0  0  0
  2 18  1  0  0  0
  4  3  1  0  0  0
  3 19  4  0  0  0
  5  4  1  0  0  0
  4 24  2  0  0  0
  5  6  4  0  0  0
  8  5  4  0  0  0
 26  6  4  0  0  0
  8  7  4  0  0  0
 25  7  4  0  0  0
  7 26  4  0  0  0
  9  8  4  0  0  0
 10  9  4  0  0  0
 10 11  4  0  0  0
 12 10  1  0  0  0
 11 25  4  0  0  0
 13 12  4  0  0  0
 27 12  4  0  0  0
 29 13  4  0  0  0
 14 15  1  0  0  0
 30 14  1  0  0  0
 15 31  1  0  0  0
 17 16  1  0  0  0
 16 31  1  0  0  0
 30 17  1  0  0  0
 19 20  4  0  0  0
 20 21  1  0  0  0
 20 23  4  0  0  0
 21 22  1  0  0  0
 28 27  4  0  0  0
 28 29  4  0  0  0
 28 30  1  0  0  0
  1 32  1  0  0  0
  6 33  1  0  0  0
  9 34  1  0  0  0
 11 35  1  0  0  0
 13 36  1  0  0  0
 14 37  1  0  0  0
 14 38  1  0  0  0
 15 39  1  0  0  0
 15 40  1  0  0  0
 16 41  1  0  0  0
 16 42  1  0  0  0
 17 43  1  0  0  0
 17 44  1  0  0  0
 19 45  1  0  0  0
 21 46  1  0  0  0
 21 47  1  0  0  0
 22 48  1  0  0  0
 23 49  1  0  0  0
 27 50  1  0  0  0
 30 51  1  0  0  0
 31 52  1  0  0  0
 31 53  1  0  0  0
M  END
$$$$
