1kr3_ligand
  -I-interpret- 

 37 39  0  0  0  0  0  0  0  0999 V2000
    3.6180   12.1470   -2.0490 C   0  0  0  0  0
    4.0840   12.7090   -0.8590 C   0  0  0  0  0
    3.1940   12.9160    0.1900 C   0  0  0  0  0
    1.8870   12.3680    0.1490 C   0  0  0  0  0
    1.4110   11.7910   -1.0620 C   0  0  0  0  0
    2.3160   11.6410   -2.1520 C   0  0  0  0  0
    3.6110   13.6760    1.2590 O   0  0  0  0  0
    2.8880   13.7170    2.4330 C   0  0  0  0  0
    1.6030   13.2910    2.5100 C   0  0  0  0  0
    1.0680   12.4600    1.3770 C   0  0  0  0  0
    3.6230   14.2910    3.6200 C   0  0  0  0  0
    2.6360   15.1120    4.4620 C   0  0  0  0  0
    1.4870   14.3110    4.7670 O   0  0  0  0  0
    0.7350   13.6760    3.7100 C   0  0  0  0  0
    1.9980   11.0210   -3.3550 O   0  0  0  0  0
    4.4170   12.0800   -3.1790 O   0  0  0  0  0
   -0.0040   11.3640   -1.2350 C   0  0  0  0  0
   -0.2030   10.0300   -1.3040 O   0  0  0  0  0
   -0.4170   14.4440    3.3350 O   0  0  0  0  0
   -1.5000   14.6200    4.2260 C   0  0  0  0  0
    3.2370   15.6230    5.7750 C   0  0  0  0  0
   -0.9240   12.1510   -1.2970 O   0  0  0  0  0
   -0.0030   11.9180    1.5190 O   0  0  0  0  0
    5.1338   12.9826   -0.7530 H   0  0  0  0  0
    4.4371   14.9297    3.2773 H   0  0  0  0  0
    4.0404   13.4839    4.2221 H   0  0  0  0  0
    2.3681   15.9832    3.8641 H   0  0  0  0  0
    0.3648   12.7355    4.1179 H   0  0  0  0  0
    1.0898   10.7114   -3.3239 H   0  0  0  0  0
    3.9268   11.6640   -3.8919 H   0  0  0  0  0
    0.6412    9.5778   -1.2371 H   0  0  0  0  0
   -1.9181   13.6471    4.4843 H   0  0  0  0  0
   -1.1481   15.1173    5.1299 H   0  0  0  0  0
   -2.2661   15.2309    3.7485 H   0  0  0  0  0
    3.5589   14.7753    6.3799 H   0  0  0  0  0
    4.0931   16.2615    5.5570 H   0  0  0  0  0
    2.4851   16.1946    6.3191 H   0  0  0  0  0
  1  2  4  0  0  0
  1  6  4  0  0  0
  1 16  1  0  0  0
  2  3  4  0  0  0
  3  4  4  0  0  0
  3  7  1  0  0  0
  4  5  4  0  0  0
  4 10  1  0  0  0
  5  6  4  0  0  0
  5 17  1  0  0  0
  6 15  1  0  0  0
  7  8  1  0  0  0
  8  9  2  0  0  0
  8 11  1  0  0  0
  9 10  1  0  0  0
  9 14  1  0  0  0
 10 23  2  0  0  0
 11 12  1  0  0  0
 12 13  1  0  0  0
 12 21  1  0  0  0
 13 14  1  0  0  0
 14 19  1  0  0  0
 17 18  1  0  0  0
 17 22  2  0  0  0
 19 20  1  0  0  0
  2 24  1  0  0  0
 11 25  1  0  0  0
 11 26  1  0  0  0
 12 27  1  0  0  0
 14 28  1  0  0  0
 15 29  1  0  0  0
 16 30  1  0  0  0
 18 31  1  0  0  0
 20 32  1  0  0  0
 20 33  1  0  0  0
 20 34  1  0  0  0
 21 35  1  0  0  0
 21 36  1  0  0  0
 21 37  1  0  0  0
M  END
$$$$
