4rrg_ligand
  -I-interpret- 

 48 50  0  0  0  0  0  0  0  0999 V2000
   -1.9720    7.6120   41.4790 C   0  0  0  0  0
    0.3640    7.7710   40.8430 N   0  3  0  0  0
   -1.7800    6.3410   41.9310 O   0  0  0  0  0
   -4.0000    3.8280   47.5900 N   0  0  0  0  0
   -3.0610    4.6840   47.1890 C   0  0  0  0  0
   -3.3950    5.8090   46.5480 N   0  0  0  0  0
   -4.6870    6.1070   46.2810 C   0  0  0  0  0
   -5.6850    5.2340   46.6890 C   0  0  0  0  0
   -5.3120    4.0710   47.3580 C   0  0  0  0  0
   -6.2530    3.2140   47.7610 N   0  0  0  0  0
   -6.8590    5.7520   46.3080 N   0  0  0  0  0
   -6.6180    6.9100   45.6940 C   0  0  0  0  0
   -2.9420    8.4380   41.8680 N   0  0  0  0  0
   -5.2960    7.1270   45.6670 N   0  0  0  0  0
   -0.9950    8.1530   40.4470 C   0  0  0  0  0
   -1.3130    7.5930   39.0590 C   0  0  0  0  0
   -0.4800    8.2790   38.1350 O   0  0  0  0  0
   -4.6240    8.3340   45.0940 C   0  0  0  0  0
   -3.3970    8.0180   44.2430 C   0  0  0  0  0
   -2.4270    9.0460   44.4510 O   0  0  0  0  0
   -3.9780    8.0580   42.8390 C   0  0  0  0  0
   -5.0520    9.1580   42.9200 C   0  0  0  0  0
   -5.5270    9.1580   44.2880 O   0  0  0  0  0
   -6.2480    8.8780   41.9870 C   0  0  0  0  0
   -6.7950    7.5820   42.2680 O   0  0  0  0  0
   -2.7850    7.7680   38.6520 C   0  0  0  0  0
    0.5660    8.1488   41.7687 H   0  0  0  0  0
    0.4368    6.7539   40.8663 H   0  0  0  0  0
    1.0313    8.1455   40.1686 H   0  0  0  0  0
   -2.0113    4.4653   47.3852 H   0  0  0  0  0
   -5.9885    2.3601   48.2522 H   0  0  0  0  0
   -7.2364    3.4132   47.5777 H   0  0  0  0  0
   -7.3758    7.5749   45.2796 H   0  0  0  0  0
   -2.9670    9.3783   41.4735 H   0  0  0  0  0
   -1.0796    9.2387   40.4010 H   0  0  0  0  0
   -1.1306    6.5184   39.0680 H   0  0  0  0  0
   -0.6515    7.9533   37.2484 H   0  0  0  0  0
   -4.3041    8.8848   45.9786 H   0  0  0  0  0
   -2.8953    7.0753   44.4612 H   0  0  0  0  0
   -1.6479    8.8611   43.9215 H   0  0  0  0  0
   -4.3742    7.0947   42.5178 H   0  0  0  0  0
   -4.6204   10.1111   42.6145 H   0  0  0  0  0
   -5.9101    8.9082   40.9511 H   0  0  0  0  0
   -7.0154    9.6347   42.1500 H   0  0  0  0  0
   -7.5382    7.4160   41.6834 H   0  0  0  0  0
   -3.4227    7.2501   39.3684 H   0  0  0  0  0
   -3.0343    8.8291   38.6424 H   0  0  0  0  0
   -2.9381    7.3484   37.6577 H   0  0  0  0  0
  1  3  2  0  0  0
 13  1  1  0  0  0
  1 15  1  0  0  0
 15  2  1  0  0  0
  5  4  4  0  0  0
  9  4  4  0  0  0
  6  5  4  0  0  0
  7  6  4  0  0  0
  7  8  4  0  0  0
 14  7  4  0  0  0
  8  9  4  0  0  0
 11  8  4  0  0  0
  9 10  1  0  0  0
 12 11  4  0  0  0
 14 12  4  0  0  0
 21 13  1  0  0  0
 18 14  1  0  0  0
 15 16  1  0  0  0
 16 17  1  0  0  0
 16 26  1  0  0  0
 19 18  1  0  0  0
 18 23  1  0  0  0
 19 20  1  0  0  0
 19 21  1  0  0  0
 21 22  1  0  0  0
 22 23  1  0  0  0
 22 24  1  0  0  0
 24 25  1  0  0  0
  2 27  1  0  0  0
  2 28  1  0  0  0
  2 29  1  0  0  0
  5 30  1  0  0  0
 10 31  1  0  0  0
 10 32  1  0  0  0
 12 33  1  0  0  0
 13 34  1  0  0  0
 15 35  1  0  0  0
 16 36  1  0  0  0
 17 37  1  0  0  0
 18 38  1  0  0  0
 19 39  1  0  0  0
 20 40  1  0  0  0
 21 41  1  0  0  0
 22 42  1  0  0  0
 24 43  1  0  0  0
 24 44  1  0  0  0
 25 45  1  0  0  0
 26 46  1  0  0  0
 26 47  1  0  0  0
 26 48  1  0  0  0
M  END
$$$$
