3f07_ligand
  -I-interpret- 

 37 38  0  0  0  0  0  0  0  0999 V2000
  -27.3910   31.0390  -40.1790 N   0  0  0  0  0
  -22.6810   31.9490  -45.4140 C   0  0  0  0  0
  -29.3170   25.1940  -38.5060 N   0  0  0  0  0
  -21.6490   32.1850  -43.1150 C   0  0  0  0  0
  -22.8920   31.7590  -42.4440 C   0  0  0  0  0
  -24.0350   31.4280  -43.3290 C   0  0  0  0  0
  -30.3160   24.3350  -38.3920 O   0  0  0  0  0
  -30.6400   26.8100  -39.2920 O   0  0  0  0  0
  -23.3360   31.4600  -38.5510 O   0  0  0  0  0
  -23.9330   31.5200  -44.7930 C   0  0  0  0  0
  -21.5320   32.2840  -44.5650 C   0  0  0  0  0
  -22.7960   31.7270  -40.8910 C   0  0  0  0  0
  -23.7630   31.3790  -39.6860 C   0  0  0  0  0
  -25.2330   30.9450  -39.7890 C   0  0  0  0  0
  -26.2540   31.7800  -40.2470 C   0  0  0  0  0
  -28.6860   31.6210  -40.5910 C   0  0  0  0  0
  -27.2160   29.7150  -39.6950 C   0  0  0  0  0
  -25.8260   29.6680  -39.4450 C   0  0  0  0  0
  -28.3030   28.6660  -39.5160 C   0  0  0  0  0
  -28.2540   27.3420  -39.0520 C   0  0  0  0  0
  -29.5150   26.4580  -38.9710 C   0  0  0  0  0
  -22.6017   32.0194  -46.4988 H   0  0  0  0  0
  -28.3765   24.9028  -38.2394 H   0  0  0  0  0
  -20.7833   32.4358  -42.5021 H   0  0  0  0  0
  -24.9762   31.1078  -42.8821 H   0  0  0  0  0
  -29.9830   23.5023  -38.0496 H   0  0  0  0  0
  -24.7915   31.2682  -45.4157 H   0  0  0  0  0
  -20.5938   32.6059  -45.0170 H   0  0  0  0  0
  -22.7295   32.8020  -40.7234 H   0  0  0  0  0
  -22.1297   30.8691  -40.8003 H   0  0  0  0  0
  -26.1589   32.8109  -40.5879 H   0  0  0  0  0
  -28.9044   32.4920  -39.9732 H   0  0  0  0  0
  -28.6316   31.9207  -41.6376 H   0  0  0  0  0
  -29.4734   30.8779  -40.4650 H   0  0  0  0  0
  -25.2845   28.8063  -39.0546 H   0  0  0  0  0
  -29.3001   29.0033  -39.7992 H   0  0  0  0  0
  -27.2960   26.9264  -38.7396 H   0  0  0  0  0
  1 15  4  0  0  0
  1 16  1  0  0  0
 17  1  4  0  0  0
 10  2  4  0  0  0
 11  2  4  0  0  0
  3  7  1  0  0  0
 21  3  1  0  0  0
  5  4  4  0  0  0
  4 11  4  0  0  0
  5  6  4  0  0  0
 12  5  1  0  0  0
  6 10  4  0  0  0
 21  8  2  0  0  0
 13  9  2  0  0  0
 13 12  1  0  0  0
 14 13  1  0  0  0
 14 15  4  0  0  0
 18 14  4  0  0  0
 17 18  4  0  0  0
 19 17  1  0  0  0
 20 19  2  0  0  0
 20 21  1  0  0  0
  2 22  1  0  0  0
  3 23  1  0  0  0
  4 24  1  0  0  0
  6 25  1  0  0  0
  7 26  1  0  0  0
 10 27  1  0  0  0
 11 28  1  0  0  0
 12 29  1  0  0  0
 12 30  1  0  0  0
 15 31  1  0  0  0
 16 32  1  0  0  0
 16 33  1  0  0  0
 16 34  1  0  0  0
 18 35  1  0  0  0
 19 36  1  0  0  0
 20 37  1  0  0  0
M  END
$$$$
