1my4_ligand
  -I-interpret- 

 24 24  0  0  0  0  0  0  0  0999 V2000
   77.7800   26.8970   42.4860 N   0  0  0  0  0
   77.8930   25.6330   41.9020 C   0  0  0  0  0
   77.9750   24.6180   42.5330 O   0  0  0  0  0
   77.8640   25.6520   40.4920 N   0  0  0  0  0
   77.7610   26.7580   39.6760 C   0  0  0  0  0
   77.7620   26.6720   38.4710 O   0  0  0  0  0
   77.6260   28.0790   40.4410 C   0  0  0  0  0
   77.3390   29.9640   39.4640 I   0  0  0  0  0
   77.6270   28.0220   41.7730 C   0  0  0  0  0
   77.7150   27.0080   43.9230 C   0  0  0  0  0
   76.4170   26.4680   44.4430 C   0  0  0  0  0
   75.3110   27.4610   44.1640 N   0  3  0  0  0
   76.4300   26.1310   45.9150 C   0  0  0  0  0
   75.5960   26.6480   46.6090 O   0  0  0  0  0
   77.3860   25.3470   46.2810 O   0  0  0  0  0
   77.9261   24.7475   40.0246 H   0  0  0  0  0
   77.4942   28.9551   42.3205 H   0  0  0  0  0
   77.7919   28.0602   44.1971 H   0  0  0  0  0
   78.5329   26.4324   44.3564 H   0  0  0  0  0
   76.2474   25.5280   43.9179 H   0  0  0  0  0
   74.4280   27.0930   44.5181 H   0  0  0  0  0
   75.5234   28.3440   44.6284 H   0  0  0  0  0
   75.2383   27.6134   43.1581 H   0  0  0  0  0
   77.8973   25.0867   45.5113 H   0  0  0  0  0
  1  2  1  0  0  0
  1  9  1  0  0  0
  1 10  1  0  0  0
  2  3  2  0  0  0
  2  4  1  0  0  0
  4  5  1  0  0  0
  5  6  2  0  0  0
  5  7  1  0  0  0
  7  8  1  0  0  0
  7  9  2  0  0  0
 10 11  1  0  0  0
 11 12  1  0  0  0
 11 13  1  0  0  0
 13 14  2  0  0  0
 13 15  1  0  0  0
  4 16  1  0  0  0
  9 17  1  0  0  0
 10 18  1  0  0  0
 10 19  1  0  0  0
 11 20  1  0  0  0
 12 21  1  0  0  0
 12 22  1  0  0  0
 12 23  1  0  0  0
 15 24  1  0  0  0
M  END
$$$$
