3n6k_ligand
  -I-interpret- 

 31 33  0  0  0  0  0  0  0  0999 V2000
    7.4620   74.2460   26.9990 O   0  0  0  0  0
    6.1290   74.0720   26.9450 C   0  0  0  0  0
    5.5450   74.1650   25.8800 O   0  0  0  0  0
    5.3830   73.7670   28.2290 C   0  0  0  0  0
    3.9150   73.9320   28.0460 N   0  0  0  0  0
    3.0470   72.8560   27.8750 C   0  0  0  0  0
    1.7740   73.3090   27.7790 C   0  0  0  0  0
    1.8080   74.7090   27.8550 C   0  0  0  0  0
    0.7320   75.6480   27.7860 C   0  0  0  0  0
    0.9780   76.9870   27.8670 C   0  0  0  0  0
    2.3140   77.4810   28.0130 C   0  0  0  0  0
    2.5360   78.8790   28.0950 C   0  0  0  0  0
    3.8210   79.3670   28.2330 C   0  0  0  0  0
    4.9410   78.5080   28.3010 C   0  0  0  0  0
    4.7570   77.1310   28.2270 C   0  0  0  0  0
    3.4480   76.5530   28.0880 C   0  0  0  0  0
    3.1720   75.1190   28.0090 C   0  0  0  0  0
    3.3540   71.4200   27.7880 C   0  0  0  0  0
    3.0110   70.7650   26.6520 O   0  0  0  0  0
    3.9000   70.8370   28.7110 O   0  0  0  0  0
    7.7610   74.1398   27.9050 H   0  0  0  0  0
    5.7189   74.4592   29.0011 H   0  0  0  0  0
    5.5857   72.7347   28.5141 H   0  0  0  0  0
    0.8813   72.6943   27.6632 H   0  0  0  0  0
   -0.2913   75.2915   27.6679 H   0  0  0  0  0
    0.1466   77.6904   27.8200 H   0  0  0  0  0
    1.6930   79.5685   28.0492 H   0  0  0  0  0
    3.9753   80.4445   28.2910 H   0  0  0  0  0
    5.9434   78.9219   28.4108 H   0  0  0  0  0
    5.6260   76.4747   28.2756 H   0  0  0  0  0
    2.5955   71.3795   26.0427 H   0  0  0  0  0
  1  2  1  0  0  0
  2  3  2  0  0  0
  2  4  1  0  0  0
  4  5  1  0  0  0
  5  6  4  0  0  0
  5 17  4  0  0  0
  6  7  4  0  0  0
  6 18  1  0  0  0
  7  8  4  0  0  0
  8  9  4  0  0  0
  8 17  4  0  0  0
  9 10  4  0  0  0
 10 11  4  0  0  0
 11 12  4  0  0  0
 11 16  4  0  0  0
 12 13  4  0  0  0
 13 14  4  0  0  0
 14 15  4  0  0  0
 15 16  4  0  0  0
 16 17  4  0  0  0
 18 19  1  0  0  0
 18 20  2  0  0  0
  1 21  1  0  0  0
  4 22  1  0  0  0
  4 23  1  0  0  0
  7 24  1  0  0  0
  9 25  1  0  0  0
 10 26  1  0  0  0
 12 27  1  0  0  0
 13 28  1  0  0  0
 14 29  1  0  0  0
 15 30  1  0  0  0
 19 31  1  0  0  0
M  END
$$$$
