### 
### Created by X-TOOL on Mon Sep 10 21:13:04 2018
### 

@<TRIPOS>MOLECULE
3k0k_ligand
   65    66     1     0     0
SMALL
GAST_HUCK


@<TRIPOS>ATOM
      1 N         -27.7900   54.9330    6.0630 N.4       1 SEP         0.2398
      2 CA        -26.3780   54.6480    5.6870 C.3       1 SEP         0.0934
      3 CB        -26.3120   53.4960    4.6930 C.3       1 SEP         0.1380
      4 OG        -26.5210   52.2770    5.3560 O.3       1 SEP        -0.2680
      5 C         -25.7920   55.8950    5.0620 C.2       1 SEP         0.2318
      6 O         -26.5300   56.7390    4.5650 O.2       1 SEP        -0.3904
      7 P         -27.4470   51.3100    4.4940 P.3       1 SEP         0.2012
      8 O1P       -26.8170   50.9630    3.0650 O.co2     1 SEP        -0.5537
      9 O2P       -28.8040   52.1510    4.3360 O.co2     1 SEP        -0.5537
     10 O3P       -27.7010   49.8900    5.1870 O.co2     1 SEP        -0.5537
     11 N         -24.4640   56.0320    5.1000 N.am      1 PRO        -0.2471
     12 CA        -23.8760   57.1850    4.4320 C.3       1 PRO         0.1339
     13 C         -23.8620   56.9600    2.9370 C.2       1 PRO         0.2042
     14 O         -23.7860   55.8180    2.4980 O.2       1 PRO        -0.3944
     15 CB        -22.4470   57.2160    4.9860 C.3       1 PRO        -0.0104
     16 CG        -22.5060   56.3850    6.2640 C.3       1 PRO        -0.0281
     17 CD        -23.4820   55.3050    5.9190 C.3       1 PRO         0.0371
     18 N         -23.9630   58.0330    2.1590 N.am      1 THR        -0.2613
     19 CA        -23.8190   57.9290    0.7100 C.3       1 THR         0.1564
     20 C         -22.5280   58.5980    0.2610 C.2       1 THR         0.2060
     21 O         -21.9410   59.3930    0.9910 O.2       1 THR        -0.3943
     22 CB        -24.9890   58.5790   -0.0280 C.3       1 THR         0.0924
     23 OG1       -25.1270   59.9450    0.3940 O.3       1 THR        -0.3874
     24 CG2       -26.2830   57.8270    0.2500 C.3       1 THR        -0.0346
     25 N         -22.0780   58.2720   -0.9420 N.am      1 PHE        -0.2676
     26 CA        -20.8370   58.8400   -1.4460 C.3       1 PHE         0.1039
     27 C         -21.0110   59.2750   -2.8900 C.2       1 PHE         0.0621
     28 O         -21.2770   58.4580   -3.7880 O.co2     1 PHE        -0.5664
     29 CB        -19.6950   57.8170   -1.3450 C.3       1 PHE         0.0159
     30 CG        -19.6360   57.1050   -0.0290 C.ar      1 PHE        -0.0392
     31 CD1       -20.3170   55.9170    0.1560 C.ar      1 PHE        -0.0602
     32 CD2       -18.9100   57.6310    1.0220 C.ar      1 PHE        -0.0602
     33 CE1       -20.2780   55.2660    1.3530 C.ar      1 PHE        -0.0686
     34 CE2       -18.8610   56.9810    2.2400 C.ar      1 PHE        -0.0686
     35 CZ        -19.5520   55.7990    2.4050 C.ar      1 PHE        -0.0687
     36 OXT       -20.8760   60.4620   -3.1800 O.co2     1 PHE        -0.5664
     37 H         -28.2021   54.1018    6.4868 H         1 SEP         0.2016
     38 H         -27.8139   55.7039    6.7305 H         1 SEP         0.2016
     39 H         -28.3180   55.1879    5.2284 H         1 SEP         0.2016
     40 H         -25.8126   54.3649    6.5749 H         1 SEP         0.1125
     41 H         -25.3288   53.4843    4.2226 H         1 SEP         0.0696
     42 H         -27.0856   53.6301    3.9370 H         1 SEP         0.0696
     43 H         -24.4192   58.1145    4.6025 H         1 PRO         0.0802
     44 H         -22.1089   58.2340    5.1793 H         1 PRO         0.0313
     45 H         -21.7269   56.8138    4.2735 H         1 PRO         0.0313
     46 H         -22.8111   56.9680    7.1330 H         1 PRO         0.0287
     47 H         -21.5319   55.9952    6.5595 H         1 PRO         0.0287
     48 H         -23.0271   54.4610    5.4005 H         1 PRO         0.0524
     49 H         -23.9203   54.8234    6.7931 H         1 PRO         0.0524
     50 H         -24.1440   58.9437    2.5812 H         1 THR         0.1884
     51 H         -23.8011   56.8667    0.4664 H         1 THR         0.0826
     52 H         -24.7874   58.5436   -1.0986 H         1 THR         0.0639
     53 H         -25.8626   60.3498   -0.0715 H         1 THR         0.2101
     54 H         -26.1818   56.7954   -0.0870 H         1 THR         0.0257
     55 H         -26.4879   57.8424    1.3205 H         1 THR         0.0257
     56 H         -27.1026   58.3066   -0.2851 H         1 THR         0.0257
     57 H         -22.6060   57.6175   -1.5193 H         1 PHE         0.1877
     58 H         -20.5839   59.7084   -0.8378 H         1 PHE         0.0749
     59 H         -18.7586   58.3626   -1.4616 H         1 PHE         0.0467
     60 H         -19.8642   57.0640   -2.1147 H         1 PHE         0.0467
     61 H         -20.8936   55.4944   -0.6669 H         1 PHE         0.0557
     62 H         -18.3702   58.5686    0.8889 H         1 PHE         0.0557
     63 H         -20.8173   54.3276    1.4819 H         1 PHE         0.0599
     64 H         -18.2814   57.3986    3.0632 H         1 PHE         0.0599
     65 H         -19.5267   55.2834    3.3650 H         1 PHE         0.0559
@<TRIPOS>BOND
     1    1    2 1  
     2    2    3 1  
     3    2    5 1  
     4    3    4 1  
     5    4    7 1  
     6    5    6 2  
     7    5   11 am 
     8    7    8 ar 
     9    7    9 ar 
    10    7   10 ar 
    11   11   12 1  
    12   11   17 1  
    13   12   13 1  
    14   12   15 1  
    15   13   14 2  
    16   13   18 am 
    17   15   16 1  
    18   16   17 1  
    19   18   19 1  
    20   19   20 1  
    21   19   22 1  
    22   20   21 2  
    23   20   25 am 
    24   22   23 1  
    25   22   24 1  
    26   25   26 1  
    27   26   27 1  
    28   26   29 1  
    29   27   28 ar 
    30   27   36 ar 
    31   29   30 1  
    32   30   31 ar 
    33   30   32 ar 
    34   31   33 ar 
    35   32   34 ar 
    36   33   35 ar 
    37   34   35 ar 
    38    1   37 1  
    39    1   38 1  
    40    1   39 1  
    41    2   40 1  
    42    3   41 1  
    43    3   42 1  
    44   12   43 1  
    45   15   44 1  
    46   15   45 1  
    47   16   46 1  
    48   16   47 1  
    49   17   48 1  
    50   17   49 1  
    51   18   50 1  
    52   19   51 1  
    53   22   52 1  
    54   23   53 1  
    55   24   54 1  
    56   24   55 1  
    57   24   56 1  
    58   25   57 1  
    59   26   58 1  
    60   29   59 1  
    61   29   60 1  
    62   31   61 1  
    63   32   62 1  
    64   33   63 1  
    65   34   64 1  
    66   35   65 1  
@<TRIPOS>SUBSTRUCTURE
     1 SEP         1

