3k0k_ligand
  -I-interpret- 

 68 69  0  0  0  0  0  0  0  0999 V2000
  -27.7900   54.9330    6.0630 N   0  3  0  0  0
  -26.3780   54.6480    5.6870 C   0  0  0  0  0
  -26.3120   53.4960    4.6930 C   0  0  0  0  0
  -26.5210   52.2770    5.3560 O   0  0  0  0  0
  -25.7920   55.8950    5.0620 C   0  0  0  0  0
  -26.5300   56.7390    4.5650 O   0  0  0  0  0
  -27.4470   51.3100    4.4940 P   0  0  0  0  0
  -26.8170   50.9630    3.0650 O   0  0  0  0  0
  -28.8040   52.1510    4.3360 O   0  0  0  0  0
  -27.7010   49.8900    5.1870 O   0  0  0  0  0
  -24.4640   56.0320    5.1000 N   0  0  0  0  0
  -23.8760   57.1850    4.4320 C   0  0  0  0  0
  -23.8620   56.9600    2.9370 C   0  0  0  0  0
  -23.7860   55.8180    2.4980 O   0  0  0  0  0
  -22.4470   57.2160    4.9860 C   0  0  0  0  0
  -22.5060   56.3850    6.2640 C   0  0  0  0  0
  -23.4820   55.3050    5.9190 C   0  0  0  0  0
  -23.9630   58.0330    2.1590 N   0  0  0  0  0
  -23.8190   57.9290    0.7100 C   0  0  0  0  0
  -22.5280   58.5980    0.2610 C   0  0  0  0  0
  -21.9410   59.3930    0.9910 O   0  0  0  0  0
  -24.9890   58.5790   -0.0280 C   0  0  0  0  0
  -25.1270   59.9450    0.3940 O   0  0  0  0  0
  -26.2830   57.8270    0.2500 C   0  0  0  0  0
  -22.0780   58.2720   -0.9420 N   0  0  0  0  0
  -20.8370   58.8400   -1.4460 C   0  0  0  0  0
  -21.0110   59.2750   -2.8900 C   0  0  0  0  0
  -21.2770   58.4580   -3.7880 O   0  0  0  0  0
  -19.6950   57.8170   -1.3450 C   0  0  0  0  0
  -19.6360   57.1050   -0.0290 C   0  0  0  0  0
  -20.3170   55.9170    0.1560 C   0  0  0  0  0
  -18.9100   57.6310    1.0220 C   0  0  0  0  0
  -20.2780   55.2660    1.3530 C   0  0  0  0  0
  -18.8610   56.9810    2.2400 C   0  0  0  0  0
  -19.5520   55.7990    2.4050 C   0  0  0  0  0
  -20.8760   60.4620   -3.1800 O   0  0  0  0  0
  -28.2021   54.1018    6.4868 H   0  0  0  0  0
  -27.8139   55.7039    6.7305 H   0  0  0  0  0
  -28.3180   55.1879    5.2284 H   0  0  0  0  0
  -25.8126   54.3649    6.5749 H   0  0  0  0  0
  -25.3288   53.4843    4.2226 H   0  0  0  0  0
  -27.0856   53.6301    3.9370 H   0  0  0  0  0
  -29.1613   52.3461    5.2054 H   0  0  0  0  0
  -28.0824   50.0238    6.0578 H   0  0  0  0  0
  -24.4192   58.1145    4.6025 H   0  0  0  0  0
  -22.1089   58.2340    5.1793 H   0  0  0  0  0
  -21.7269   56.8138    4.2735 H   0  0  0  0  0
  -22.8111   56.9680    7.1330 H   0  0  0  0  0
  -21.5319   55.9952    6.5595 H   0  0  0  0  0
  -23.0271   54.4610    5.4005 H   0  0  0  0  0
  -23.9203   54.8234    6.7931 H   0  0  0  0  0
  -24.1440   58.9437    2.5812 H   0  0  0  0  0
  -23.8011   56.8667    0.4664 H   0  0  0  0  0
  -24.7874   58.5436   -1.0986 H   0  0  0  0  0
  -25.8626   60.3498   -0.0715 H   0  0  0  0  0
  -26.1818   56.7954   -0.0870 H   0  0  0  0  0
  -26.4879   57.8424    1.3205 H   0  0  0  0  0
  -27.1026   58.3066   -0.2851 H   0  0  0  0  0
  -22.6060   57.6175   -1.5193 H   0  0  0  0  0
  -20.5839   59.7084   -0.8378 H   0  0  0  0  0
  -21.3509   57.5794   -3.4081 H   0  0  0  0  0
  -18.7586   58.3626   -1.4616 H   0  0  0  0  0
  -19.8642   57.0640   -2.1147 H   0  0  0  0  0
  -20.8936   55.4944   -0.6669 H   0  0  0  0  0
  -18.3702   58.5686    0.8889 H   0  0  0  0  0
  -20.8173   54.3276    1.4819 H   0  0  0  0  0
  -18.2814   57.3986    3.0632 H   0  0  0  0  0
  -19.5267   55.2834    3.3650 H   0  0  0  0  0
  1  2  1  0  0  0
  2  3  1  0  0  0
  2  5  1  0  0  0
  3  4  1  0  0  0
  4  7  1  0  0  0
  5  6  2  0  0  0
  5 11  1  0  0  0
  7  8  2  0  0  0
  7  9  1  0  0  0
  7 10  1  0  0  0
 11 12  1  0  0  0
 11 17  1  0  0  0
 12 13  1  0  0  0
 12 15  1  0  0  0
 13 14  2  0  0  0
 13 18  1  0  0  0
 15 16  1  0  0  0
 16 17  1  0  0  0
 18 19  1  0  0  0
 19 20  1  0  0  0
 19 22  1  0  0  0
 20 21  2  0  0  0
 20 25  1  0  0  0
 22 23  1  0  0  0
 22 24  1  0  0  0
 25 26  1  0  0  0
 26 27  1  0  0  0
 26 29  1  0  0  0
 27 28  1  0  0  0
 27 36  2  0  0  0
 29 30  1  0  0  0
 30 31  4  0  0  0
 30 32  4  0  0  0
 31 33  4  0  0  0
 32 34  4  0  0  0
 33 35  4  0  0  0
 34 35  4  0  0  0
  1 37  1  0  0  0
  1 38  1  0  0  0
  1 39  1  0  0  0
  2 40  1  0  0  0
  3 41  1  0  0  0
  3 42  1  0  0  0
  9 43  1  0  0  0
 10 44  1  0  0  0
 12 45  1  0  0  0
 15 46  1  0  0  0
 15 47  1  0  0  0
 16 48  1  0  0  0
 16 49  1  0  0  0
 17 50  1  0  0  0
 17 51  1  0  0  0
 18 52  1  0  0  0
 19 53  1  0  0  0
 22 54  1  0  0  0
 23 55  1  0  0  0
 24 56  1  0  0  0
 24 57  1  0  0  0
 24 58  1  0  0  0
 25 59  1  0  0  0
 26 60  1  0  0  0
 28 61  1  0  0  0
 29 62  1  0  0  0
 29 63  1  0  0  0
 31 64  1  0  0  0
 32 65  1  0  0  0
 33 66  1  0  0  0
 34 67  1  0  0  0
 35 68  1  0  0  0
M  END
$$$$
