2ai7_ligand
  -I-interpret- 

 29 29  0  0  0  0  0  0  0  0999 V2000
   24.9800   -6.1100    9.2400 C   0  0  0  0  0
   25.4060   -5.5820    7.9920 C   0  0  0  0  0
   26.1080   -4.3380    7.8960 C   0  0  0  0  0
   26.3980   -3.5910    9.0700 C   0  0  0  0  0
   26.0080   -4.0490   10.3380 C   0  0  0  0  0
   25.2430   -5.4080   10.4300 C   0  0  0  0  0
   26.5490   -3.7940    6.5610 C   0  0  0  0  0
   27.4790   -4.7550    5.8070 C   0  0  0  0  0
   27.9380   -4.1720    4.4620 C   0  0  0  0  0
   29.3020   -3.6480    4.5990 N   0  3  0  0  0
   30.4010   -4.4770    4.3780 O   0  0  0  0  0
   29.4600   -2.3460    4.9520 C   0  0  0  0  0
   30.7080   -1.7010    5.1310 O   0  0  0  0  0
   24.4483   -7.0609    9.2755 H   0  0  0  0  0
   25.1921   -6.1404    7.0807 H   0  0  0  0  0
   26.9330   -2.6452    8.9839 H   0  0  0  0  0
   26.2329   -3.4718   11.2349 H   0  0  0  0  0
   24.9207   -5.8028   11.3935 H   0  0  0  0  0
   27.0980   -2.8698    6.7412 H   0  0  0  0  0
   25.6586   -3.6426    5.9508 H   0  0  0  0  0
   26.9311   -5.6766    5.6105 H   0  0  0  0  0
   28.3615   -4.9294    6.4225 H   0  0  0  0  0
   27.2662   -3.3663    4.1659 H   0  0  0  0  0
   27.9224   -4.9532    3.7020 H   0  0  0  0  0
   30.2396   -3.9110    4.2955 H   0  0  0  0  0
   31.2096   -3.9765    4.5095 H   0  0  0  0  0
   29.0398   -2.3243    5.9575 H   0  0  0  0  0
   29.0464   -1.8193    4.0920 H   0  0  0  0  0
   30.5610   -0.7851    5.3784 H   0  0  0  0  0
  1  2  4  0  0  0
  1  6  4  0  0  0
  2  3  4  0  0  0
  3  4  4  0  0  0
  3  7  1  0  0  0
  4  5  4  0  0  0
  5  6  4  0  0  0
  7  8  1  0  0  0
  8  9  1  0  0  0
  9 10  1  0  0  0
 10 11  1  0  0  0
 10 12  1  0  0  0
 12 13  1  0  0  0
  1 14  1  0  0  0
  2 15  1  0  0  0
  4 16  1  0  0  0
  5 17  1  0  0  0
  6 18  1  0  0  0
  7 19  1  0  0  0
  7 20  1  0  0  0
  8 21  1  0  0  0
  8 22  1  0  0  0
  9 23  1  0  0  0
  9 24  1  0  0  0
 10 25  1  0  0  0
 11 26  1  0  0  0
 12 27  1  0  0  0
 12 28  1  0  0  0
 13 29  1  0  0  0
M  END
$$$$
