5o7i_ligand
  -I-interpret- 

 34 36  0  0  0  0  0  0  0  0999 V2000
   40.3960   -1.2660    7.2750 C   0  0  0  0  0
   40.8140    0.0180    6.9770 C   0  0  0  0  0
   40.9720    0.9570    7.9810 C   0  0  0  0  0
   40.7150    0.5840    9.2740 C   0  0  0  0  0
   40.2650   -0.6830    9.6400 C   0  0  0  0  0
   39.9740   -1.0470   11.0610 C   0  0  0  0  0
   41.0680   -1.0560   12.0400 C   0  0  0  0  0
   40.9640   -1.2780   13.4060 C   0  0  0  0  0
   46.8500   -1.2630   12.2010 C   0  0  0  0  0
   47.5300   -1.9340   11.1950 C   0  0  0  0  0
   47.5750   -0.8450   13.3170 C   0  0  0  0  0
   42.4600   -0.9840   11.7500 C   0  0  0  0  0
   38.8410   -1.3910   11.3760 O   0  0  0  0  0
   40.9760    1.4800   10.2570 F   0  0  0  0  0
   40.1140   -1.6060    8.5840 C   0  0  0  0  0
   39.4860   -3.3650    8.8880 Br  0  0  0  0  0
   43.1400   -1.1900   12.9300 C   0  0  0  0  0
   42.2060   -1.3580   13.9240 N   0  0  0  0  0
   44.5850   -1.2690   13.2650 C   0  0  0  0  0
   44.9510   -1.3630   14.4330 O   0  0  0  0  0
   45.4370   -1.1310   12.2170 N   0  0  0  0  0
   48.8740   -1.1170   13.4920 N   0  0  0  0  0
   49.4990   -1.7920   12.5180 C   0  0  0  0  0
   48.8760   -2.2080   11.3570 C   0  0  0  0  0
   40.2896   -2.0057    6.4815 H   0  0  0  0  0
   41.0207    0.2927    5.9426 H   0  0  0  0  0
   41.2941    1.9719    7.7481 H   0  0  0  0  0
   40.0337   -1.3720   13.9663 H   0  0  0  0  0
   47.0098   -2.2416   10.2879 H   0  0  0  0  0
   47.0584   -0.2685   14.0844 H   0  0  0  0  0
   42.9061   -0.7996   10.7727 H   0  0  0  0  0
   45.0041   -0.9020   11.3223 H   0  0  0  0  0
   50.5557   -2.0255   12.6485 H   0  0  0  0  0
   49.4329   -2.7403   10.5859 H   0  0  0  0  0
  1  2  4  0  0  0
 15  1  4  0  0  0
  3  2  4  0  0  0
  4  3  4  0  0  0
  5  4  4  0  0  0
  4 14  1  0  0  0
  6  5  1  0  0  0
  5 15  4  0  0  0
  7  6  1  0  0  0
  6 13  2  0  0  0
  8  7  4  0  0  0
 12  7  4  0  0  0
 18  8  4  0  0  0
  9 10  4  0  0  0
  9 11  4  0  0  0
 21  9  1  0  0  0
 10 24  4  0  0  0
 11 22  4  0  0  0
 17 12  4  0  0  0
 15 16  1  0  0  0
 17 18  4  0  0  0
 19 17  1  0  0  0
 19 20  2  0  0  0
 19 21  1  0  0  0
 22 23  4  0  0  0
 23 24  4  0  0  0
  1 25  1  0  0  0
  2 26  1  0  0  0
  3 27  1  0  0  0
  8 28  1  0  0  0
 10 29  1  0  0  0
 11 30  1  0  0  0
 12 31  1  0  0  0
 21 32  1  0  0  0
 23 33  1  0  0  0
 24 34  1  0  0  0
M  END
$$$$
