1upf_ligand
  -I-interpret- 

 12 12  0  0  0  0  0  0  0  0999 V2000
    9.8990   97.7430   45.3080 F   0  0  0  0  0
    8.7720   94.3980   45.9140 N   0  0  0  0  0
    9.4500   94.0250   47.0640 C   0  0  0  0  0
   10.2450   94.9990   47.6100 N   0  0  0  0  0
   10.4780   96.2710   47.1010 C   0  0  0  0  0
    9.7250   96.5840   45.9070 C   0  0  0  0  0
    8.9340   95.6550   45.3610 C   0  0  0  0  0
    9.3310   92.9390   47.6030 O   0  0  0  0  0
   11.2350   97.0530   47.6930 O   0  0  0  0  0
    8.1414   93.7324   45.4670 H   0  0  0  0  0
   10.7163   94.7651   48.4838 H   0  0  0  0  0
    8.3960   95.8977   44.4446 H   0  0  0  0  0
  6  1  1  0  0  0
  2  7  1  0  0  0
  3  2  1  0  0  0
  3  8  2  0  0  0
  4  3  1  0  0  0
  5  4  1  0  0  0
  5  9  2  0  0  0
  5  6  1  0  0  0
  6  7  2  0  0  0
  2 10  1  0  0  0
  4 11  1  0  0  0
  7 12  1  0  0  0
M  END
$$$$
