5ai1_ligand
  -I-interpret- 

 36 39  0  0  0  0  0  0  0  0999 V2000
    4.4080   11.5600   -4.1220 C   0  0  0  0  0
    4.4180   10.7020   -5.2380 C   0  0  0  0  0
    3.9490   11.1780   -6.4650 C   0  0  0  0  0
    3.4770   12.5150   -6.5790 C   0  0  0  0  0
    3.4740   13.3610   -5.4640 C   0  0  0  0  0
    3.9380   12.8810   -4.2360 C   0  0  0  0  0
    3.9510   10.2940   -7.6760 C   0  0  0  0  0
    3.4730   10.7930   -8.9430 C   0  0  0  0  0
    3.0010   12.1010   -9.0830 C   0  0  0  0  0
    2.9970   13.0070   -7.8040 C   0  0  0  0  0
    2.6770   12.5090   -9.9070 C   0  0  0  0  0
    2.9640   13.6660  -10.1970 C   0  0  0  0  0
    2.4240   14.7010   -9.1970 C   0  0  0  0  0
    2.4990   14.3810   -8.0290 C   0  0  0  0  0
    2.7820   11.8040  -11.1130 C   0  0  0  0  0
    2.4310   12.7180  -12.1660 C   0  0  0  0  0
    2.4480   13.8620  -11.6450 C   0  0  0  0  0
    4.4920   13.8770  -10.3840 C   0  0  0  0  0
    4.8690   11.1400   -2.8580 O   0  0  0  0  0
    2.1490   14.9240  -12.1790 O   0  0  0  0  0
    4.7866    9.6803   -5.1461 H   0  0  0  0  0
    3.1128   14.3856   -5.5526 H   0  0  0  0  0
    3.9357   13.5332   -3.3627 H   0  0  0  0  0
    4.3152    9.2695   -7.5991 H   0  0  0  0  0
    3.4803   10.1341   -9.8113 H   0  0  0  0  0
    1.6630   12.4753   -9.5085 H   0  0  0  0  0
    2.0034   15.6551   -9.5147 H   0  0  0  0  0
    2.2225   15.0501   -7.2141 H   0  0  0  0  0
    2.1169   10.9405  -11.1142 H   0  0  0  0  0
    3.7949   11.4261  -11.2520 H   0  0  0  0  0
    1.4508   12.4861  -12.5826 H   0  0  0  0  0
    3.1304   12.6509  -12.9994 H   0  0  0  0  0
    5.0081   13.6270   -9.4571 H   0  0  0  0  0
    4.8510   13.2325  -11.1864 H   0  0  0  0  0
    4.6850   14.9190  -10.6392 H   0  0  0  0  0
    4.7821   11.8617   -2.2309 H   0  0  0  0  0
  1  2  4  0  0  0
  1  6  4  0  0  0
  1 19  1  0  0  0
  2  3  4  0  0  0
  3  4  4  0  0  0
  3  7  4  0  0  0
  4  5  4  0  0  0
  4 10  4  0  0  0
  5  6  4  0  0  0
  7  8  4  0  0  0
  8  9  4  0  0  0
  9 10  4  0  0  0
  9 11  1  0  0  0
 10 14  1  0  0  0
 11 12  1  0  0  0
 11 15  1  0  0  0
 12 13  1  0  0  0
 12 17  1  0  0  0
 12 18  1  0  0  0
 13 14  2  0  0  0
 15 16  1  0  0  0
 16 17  1  0  0  0
 17 20  2  0  0  0
  2 21  1  0  0  0
  5 22  1  0  0  0
  6 23  1  0  0  0
  7 24  1  0  0  0
  8 25  1  0  0  0
 11 26  1  0  0  0
 13 27  1  0  0  0
 14 28  1  0  0  0
 15 29  1  0  0  0
 15 30  1  0  0  0
 16 31  1  0  0  0
 16 32  1  0  0  0
 18 33  1  0  0  0
 18 34  1  0  0  0
 18 35  1  0  0  0
 19 36  1  0  0  0
M  END
$$$$
