3wzj_ligand
  -I-interpret- 

 72 77  0  0  0  0  0  0  0  0999 V2000
  -40.5550  -21.0020  -16.5600 O   0  0  0  0  0
  -39.5070  -21.6050  -16.4790 C   0  0  0  0  0
  -38.9860  -22.2970  -17.6520 N   0  0  0  0  0
  -39.8010  -22.2150  -18.8580 C   0  0  0  0  0
  -40.8140  -23.3290  -18.9460 C   0  0  0  0  0
  -39.6000  -23.3360  -19.8570 C   0  0  0  0  0
  -38.7090  -21.6440  -15.1620 C   0  0  0  0  0
  -37.9850  -22.7930  -14.8450 C   0  0  0  0  0
  -37.2410  -22.8460  -13.6520 C   0  0  0  0  0
  -37.2550  -21.7190  -12.8220 C   0  0  0  0  0
  -37.9800  -20.5670  -13.1340 C   0  0  0  0  0
  -38.7110  -20.5330  -14.3280 C   0  0  0  0  0
  -36.4580  -21.7310  -11.5130 C   0  0  0  0  0
  -36.1270  -22.8220  -10.7590 C   0  0  0  0  0
  -35.4220  -22.3700   -9.6980 N   0  0  0  0  0
  -35.3220  -20.9880   -9.8190 C   0  0  0  0  0
  -35.9570  -20.6040  -10.9360 N   0  0  0  0  0
  -36.0390  -19.2690  -11.3740 N   0  0  0  0  0
  -35.4490  -18.2950  -10.6010 C   0  0  0  0  0
  -35.4520  -16.9040  -10.9460 N   0  0  0  0  0
  -36.4290  -16.1290  -11.7020 C   0  0  0  0  0
  -37.6440  -16.9070  -12.1730 C   0  0  0  0  0
  -38.6190  -15.8820  -12.7200 C   0  0  0  0  0
  -38.0200  -14.9770  -13.8060 C   0  0  0  0  0
  -36.6080  -14.4380  -13.5430 C   0  0  0  0  0
  -35.7120  -15.4800  -12.8940 C   0  0  0  0  0
  -34.7620  -18.6650   -9.3920 C   0  0  0  0  0
  -34.6960  -19.9980   -9.0040 C   0  0  0  0  0
  -34.0020  -20.3990   -7.7630 N   0  0  0  0  0
  -33.5250  -19.3120   -6.8630 C   0  0  0  0  0
  -34.4840  -19.0320   -5.6800 C   0  0  0  0  0
  -34.0930  -19.9510   -4.5740 C   0  0  0  0  0
  -34.4260  -19.4920   -3.1600 C   0  0  0  0  0
  -34.1560  -18.0540   -2.9770 O   0  0  0  0  0
  -34.7790  -17.1830   -3.9980 C   0  0  0  0  0
  -34.3660  -17.5800   -5.4110 C   0  0  0  0  0
  -38.1036  -22.8082  -17.6300 H   0  0  0  0  0
  -39.8152  -21.1279  -18.9355 H   0  0  0  0  0
  -41.8949  -23.4459  -19.0246 H   0  0  0  0  0
  -41.3370  -24.0122  -18.2768 H   0  0  0  0  0
  -38.8147  -24.0231  -20.1721 H   0  0  0  0  0
  -39.3689  -23.4605  -20.9149 H   0  0  0  0  0
  -37.9955  -23.6485  -15.5203 H   0  0  0  0  0
  -36.6721  -23.7359  -13.3828 H   0  0  0  0  0
  -37.9770  -19.7100  -12.4605 H   0  0  0  0  0
  -39.2769  -19.6422  -14.6007 H   0  0  0  0  0
  -36.3830  -23.8597  -10.9728 H   0  0  0  0  0
  -34.6469  -16.3746  -10.6113 H   0  0  0  0  0
  -36.8335  -15.3823  -11.0187 H   0  0  0  0  0
  -38.0884  -17.4736  -11.3548 H   0  0  0  0  0
  -37.3715  -17.6357  -12.9364 H   0  0  0  0  0
  -38.9173  -15.2412  -11.8902 H   0  0  0  0  0
  -39.4467  -16.4287  -13.1719 H   0  0  0  0  0
  -38.6706  -14.1045  -13.8655 H   0  0  0  0  0
  -37.9474  -15.5900  -14.7044 H   0  0  0  0  0
  -36.6885  -13.5882  -12.8652 H   0  0  0  0  0
  -36.1668  -14.1575  -14.4994 H   0  0  0  0  0
  -35.4715  -16.2497  -13.6273 H   0  0  0  0  0
  -34.8007  -14.9967  -12.5417 H   0  0  0  0  0
  -34.2916  -17.8969   -8.7781 H   0  0  0  0  0
  -33.8552  -21.3815   -7.5315 H   0  0  0  0  0
  -33.4572  -18.3996   -7.4554 H   0  0  0  0  0
  -32.5687  -19.6262   -6.4448 H   0  0  0  0  0
  -35.5409  -19.2328   -5.8556 H   0  0  0  0  0
  -33.0068  -20.0312   -4.6176 H   0  0  0  0  0
  -34.6549  -20.8714   -4.7331 H   0  0  0  0  0
  -33.8030  -20.0505   -2.4614 H   0  0  0  0  0
  -35.4869  -19.6681   -2.9822 H   0  0  0  0  0
  -34.4507  -16.1589   -3.8205 H   0  0  0  0  0
  -35.8615  -17.2816   -3.9175 H   0  0  0  0  0
  -35.0331  -17.0651   -6.1024 H   0  0  0  0  0
  -33.3168  -17.3103   -5.5318 H   0  0  0  0  0
  1  2  2  0  0  0
  2  3  1  0  0  0
  2  7  1  0  0  0
  3  4  1  0  0  0
  4  5  1  0  0  0
  4  6  1  0  0  0
  5  6  1  0  0  0
  7  8  4  0  0  0
  7 12  4  0  0  0
  8  9  4  0  0  0
  9 10  4  0  0  0
 10 11  4  0  0  0
 10 13  1  0  0  0
 11 12  4  0  0  0
 13 14  4  0  0  0
 13 17  4  0  0  0
 14 15  4  0  0  0
 15 16  4  0  0  0
 16 17  4  0  0  0
 16 28  4  0  0  0
 17 18  4  0  0  0
 18 19  4  0  0  0
 19 20  1  0  0  0
 19 27  4  0  0  0
 20 21  1  0  0  0
 21 22  1  0  0  0
 21 26  1  0  0  0
 22 23  1  0  0  0
 23 24  1  0  0  0
 24 25  1  0  0  0
 25 26  1  0  0  0
 27 28  4  0  0  0
 28 29  1  0  0  0
 29 30  1  0  0  0
 30 31  1  0  0  0
 31 32  1  0  0  0
 31 36  1  0  0  0
 32 33  1  0  0  0
 33 34  1  0  0  0
 34 35  1  0  0  0
 35 36  1  0  0  0
  3 37  1  0  0  0
  4 38  1  0  0  0
  5 39  1  0  0  0
  5 40  1  0  0  0
  6 41  1  0  0  0
  6 42  1  0  0  0
  8 43  1  0  0  0
  9 44  1  0  0  0
 11 45  1  0  0  0
 12 46  1  0  0  0
 14 47  1  0  0  0
 20 48  1  0  0  0
 21 49  1  0  0  0
 22 50  1  0  0  0
 22 51  1  0  0  0
 23 52  1  0  0  0
 23 53  1  0  0  0
 24 54  1  0  0  0
 24 55  1  0  0  0
 25 56  1  0  0  0
 25 57  1  0  0  0
 26 58  1  0  0  0
 26 59  1  0  0  0
 27 60  1  0  0  0
 29 61  1  0  0  0
 30 62  1  0  0  0
 30 63  1  0  0  0
 31 64  1  0  0  0
 32 65  1  0  0  0
 32 66  1  0  0  0
 33 67  1  0  0  0
 33 68  1  0  0  0
 35 69  1  0  0  0
 35 70  1  0  0  0
 36 71  1  0  0  0
 36 72  1  0  0  0
M  END
$$$$
