5qan_ligand
  -I-interpret- 

 36 37  0  0  0  0  0  0  0  0999 V2000
    6.3340   41.3390  138.2400 N   0  0  0  0  0
    3.6830   41.7960  138.6380 C   0  0  0  0  0
    8.4570   39.2840  146.6350 O   0  0  0  0  0
    6.6610   39.9180  138.4230 C   0  0  0  0  0
    7.5550   36.2060  144.9490 C   0  0  0  0  0
    7.9550   37.5220  145.1380 C   0  0  0  0  0
    8.0890   38.0920  146.5280 C   0  0  0  0  0
    8.2350   38.3130  144.0290 C   0  0  0  0  0
    7.4540   38.9420  140.6050 C   0  0  0  0  0
    7.7280   39.6900  139.4650 C   0  0  0  0  0
    9.0100   40.1870  139.2940 C   0  0  0  0  0
    9.9940   39.9380  140.2350 C   0  0  0  0  0
    9.7090   39.1840  141.3590 C   0  0  0  0  0
    8.4320   38.6680  141.5600 C   0  0  0  0  0
    8.1210   37.8100  142.7330 C   0  0  0  0  0
    7.7170   36.4860  142.5710 C   0  0  0  0  0
    7.4370   35.6920  143.6700 C   0  0  0  0  0
    7.8260   37.3380  147.4980 O   0  0  0  0  0
    5.4730   41.7350  140.5000 O   0  0  0  0  0
    5.5440   43.5730  138.8650 O   0  0  0  0  0
    5.3080   42.1930  139.1550 S   0  0  0  0  0
    6.7924   41.8284  137.4714 H   0  0  0  0  0
    3.5411   40.7164  138.6870 H   0  0  0  0  0
    2.9642   42.2883  139.2930 H   0  0  0  0  0
    3.5356   42.1370  137.6133 H   0  0  0  0  0
    7.0370   39.5381  137.4731 H   0  0  0  0  0
    5.7566   39.4087  138.7559 H   0  0  0  0  0
    7.3334   35.5762  145.8106 H   0  0  0  0  0
    8.5497   39.3463  144.1754 H   0  0  0  0  0
    6.4449   38.5587  140.7563 H   0  0  0  0  0
    9.2458   40.7796  138.4101 H   0  0  0  0  0
   10.9976   40.3377  140.0897 H   0  0  0  0  0
   10.4911   38.9923  142.0936 H   0  0  0  0  0
    7.6204   36.0710  141.5677 H   0  0  0  0  0
    7.1225   34.6582  143.5271 H   0  0  0  0  0
    7.5666   36.4742  147.1692 H   0  0  0  0  0
  4  1  1  0  0  0
  1 21  1  0  0  0
 21  2  1  0  0  0
  7  3  2  0  0  0
 10  4  1  0  0  0
  6  5  4  0  0  0
  5 17  4  0  0  0
  6  7  1  0  0  0
  8  6  4  0  0  0
  7 18  1  0  0  0
 15  8  4  0  0  0
  9 10  4  0  0  0
 14  9  4  0  0  0
 10 11  4  0  0  0
 12 11  4  0  0  0
 13 12  4  0  0  0
 14 13  4  0  0  0
 14 15  1  0  0  0
 15 16  4  0  0  0
 16 17  4  0  0  0
 21 19  2  0  0  0
 21 20  2  0  0  0
  1 22  1  0  0  0
  2 23  1  0  0  0
  2 24  1  0  0  0
  2 25  1  0  0  0
  4 26  1  0  0  0
  4 27  1  0  0  0
  5 28  1  0  0  0
  8 29  1  0  0  0
  9 30  1  0  0  0
 11 31  1  0  0  0
 12 32  1  0  0  0
 13 33  1  0  0  0
 16 34  1  0  0  0
 17 35  1  0  0  0
 18 36  1  0  0  0
M  END
$$$$
