6r9s_ligand
  -I-interpret- 

 27 29  0  0  0  0  0  0  0  0999 V2000
    1.4290   16.3510   20.1930 C   0  0  0  0  0
    2.3420   16.5610   21.2230 C   0  0  0  0  0
    2.1180   15.9990   22.4760 C   0  0  0  0  0
   -1.1660   14.1180   21.8590 C   0  0  0  0  0
   -0.9120   13.1080   23.0060 C   0  0  0  0  0
   -2.1130   15.7370   23.5560 C   0  0  0  0  0
   -1.6190   14.8550   24.7260 C   0  0  0  0  0
   -0.4840   13.8970   24.2820 C   0  0  0  0  0
   -2.7200   14.0920   25.2290 O   0  0  0  0  0
    1.0000   15.1910   22.6860 C   0  0  0  0  0
    0.1010   14.9520   21.6290 C   0  0  0  0  0
    0.3180   15.5400   20.3870 C   0  0  0  0  0
    1.6450   16.9080   18.9840 F   0  0  0  0  0
    0.7670   14.6410   23.9760 N   0  0  0  0  0
   -2.2460   14.9880   22.3090 O   0  0  0  0  0
    3.2320   17.1655   21.0478 H   0  0  0  0  0
    2.8148   16.1896   23.2922 H   0  0  0  0  0
   -1.4238   13.6125   20.9284 H   0  0  0  0  0
   -0.1233   12.4125   22.7189 H   0  0  0  0  0
   -1.8210   12.5416   23.2085 H   0  0  0  0  0
   -1.3793   16.5273   23.3972 H   0  0  0  0  0
   -3.0957   16.1274   23.8205 H   0  0  0  0  0
   -1.2185   15.5070   25.5023 H   0  0  0  0  0
   -0.2986   13.2106   25.1082 H   0  0  0  0  0
   -3.4215   14.6872   25.5033 H   0  0  0  0  0
   -0.3811   15.3650   19.5692 H   0  0  0  0  0
    1.4706   14.7587   24.7050 H   0  0  0  0  0
  2  1  4  0  0  0
  1 12  4  0  0  0
  1 13  1  0  0  0
  3  2  4  0  0  0
 10  3  4  0  0  0
  4  5  1  0  0  0
 11  4  1  0  0  0
  4 15  1  0  0  0
  5  8  1  0  0  0
  6  7  1  0  0  0
 15  6  1  0  0  0
  8  7  1  0  0  0
  7  9  1  0  0  0
  8 14  1  0  0  0
 10 11  4  0  0  0
 10 14  1  0  0  0
 11 12  4  0  0  0
  2 16  1  0  0  0
  3 17  1  0  0  0
  4 18  1  0  0  0
  5 19  1  0  0  0
  5 20  1  0  0  0
  6 21  1  0  0  0
  6 22  1  0  0  0
  7 23  1  0  0  0
  8 24  1  0  0  0
  9 25  1  0  0  0
 12 26  1  0  0  0
 14 27  1  0  0  0
M  END
$$$$
