5el2_ligand
  -I-interpret- 

 39 39  0  0  0  0  0  0  0  0999 V2000
    2.2700   -2.0230  -38.2150 C   0  0  0  0  0
    1.7520   -2.5430  -36.8780 C   0  0  0  0  0
    2.7730   -2.1540  -34.6500 C   0  0  0  0  0
    1.1440   -3.9030  -37.1200 C   0  0  0  0  0
    3.8620   -1.7130  -32.5100 C   0  0  0  0  0
    2.8430   -2.3300  -31.5610 C   0  0  0  0  0
    3.2070   -2.0570  -30.1010 C   0  0  0  0  0
    5.2880   -1.9350  -31.9960 C   0  0  0  0  0
   -0.3040   -3.5990  -37.2440 C   0  0  0  0  0
    2.8350   -2.6970  -35.8780 N   0  0  0  0  0
    3.5940   -2.7310  -38.5720 C   0  0  0  0  0
    3.8070   -2.3500  -33.7940 O   0  0  0  0  0
    1.7780   -1.5260  -34.2980 O   0  0  0  0  0
    4.0520   -3.3820  -36.3450 C   0  0  0  0  0
    4.5550   -2.5060  -37.4290 C   0  0  0  0  0
   -0.9450   -4.8790  -37.3400 O   0  0  0  0  0
    2.4431   -0.9493  -38.1421 H   0  0  0  0  0
    1.5320   -2.2250  -38.9913 H   0  0  0  0  0
    1.0308   -1.8255  -36.4866 H   0  0  0  0  0
    1.3615   -4.6129  -36.3220 H   0  0  0  0  0
    1.5504   -4.3985  -38.0017 H   0  0  0  0  0
    3.6235   -0.6516  -32.5777 H   0  0  0  0  0
    2.8297   -3.4083  -31.7195 H   0  0  0  0  0
    1.8676   -1.8878  -31.7640 H   0  0  0  0  0
    4.1860   -2.4852  -29.8858 H   0  0  0  0  0
    3.2341   -0.9809  -29.9298 H   0  0  0  0  0
    2.4594   -2.5110  -29.4505 H   0  0  0  0  0
    5.4817   -3.0047  -31.9164 H   0  0  0  0  0
    5.9975   -1.4867  -32.6916 H   0  0  0  0  0
    5.3958   -1.4710  -31.0156 H   0  0  0  0  0
   -0.5131   -2.9762  -38.1138 H   0  0  0  0  0
   -0.6710   -3.0262  -36.3923 H   0  0  0  0  0
    4.0034   -2.3271  -39.4980 H   0  0  0  0  0
    3.4261   -3.7973  -38.7232 H   0  0  0  0  0
    3.8515   -4.3964  -36.6898 H   0  0  0  0  0
    4.7833   -3.5191  -35.5484 H   0  0  0  0  0
    4.5917   -1.4598  -37.1255 H   0  0  0  0  0
    5.5819   -2.7454  -37.7050 H   0  0  0  0  0
   -1.8933   -4.7553  -37.4234 H   0  0  0  0  0
  2  1  1  0  0  0
  1 11  1  0  0  0
  2  4  1  0  0  0
 10  2  1  0  0  0
  3 10  1  0  0  0
 12  3  1  0  0  0
  3 13  2  0  0  0
  4  9  1  0  0  0
  5  6  1  0  0  0
  5  8  1  0  0  0
  5 12  1  0  0  0
  6  7  1  0  0  0
  9 16  1  0  0  0
 10 14  1  0  0  0
 11 15  1  0  0  0
 14 15  1  0  0  0
  1 17  1  0  0  0
  1 18  1  0  0  0
  2 19  1  0  0  0
  4 20  1  0  0  0
  4 21  1  0  0  0
  5 22  1  0  0  0
  6 23  1  0  0  0
  6 24  1  0  0  0
  7 25  1  0  0  0
  7 26  1  0  0  0
  7 27  1  0  0  0
  8 28  1  0  0  0
  8 29  1  0  0  0
  8 30  1  0  0  0
  9 31  1  0  0  0
  9 32  1  0  0  0
 11 33  1  0  0  0
 11 34  1  0  0  0
 14 35  1  0  0  0
 14 36  1  0  0  0
 15 37  1  0  0  0
 15 38  1  0  0  0
 16 39  1  0  0  0
M  END
$$$$
