2ojj_ligand
  -I-interpret- 

 46 49  0  0  0  0  0  0  0  0999 V2000
  -15.3650   10.7910   38.9080 C   0  0  0  0  0
  -17.0040   11.9200   40.5070 C   0  0  0  0  0
  -19.1210   11.5370   41.0460 N   0  0  0  0  0
  -18.8210   12.7250   41.5930 C   0  0  0  0  0
  -17.5190   13.0330   41.3010 C   0  0  0  0  0
  -16.8320   14.3010   41.7590 C   0  0  0  0  0
  -16.8760   14.6680   43.1410 C   0  0  0  0  0
  -16.2430   15.8460   43.5840 C   0  0  0  0  0
  -15.5620   16.6710   42.6650 C   0  0  0  0  0
  -15.5100   16.3220   41.2980 C   0  0  0  0  0
  -16.1420   15.1490   40.8420 C   0  0  0  0  0
  -10.1420   14.9500   39.0730 C   0  0  0  0  0
  -11.0190   17.1410   38.3980 C   0  0  0  0  0
  -10.0620   17.2120   37.3650 C   0  0  0  0  0
  -10.7570   14.0480   42.3490 O   0  0  0  0  0
   -9.6880   14.0930   41.3990 C   0  0  0  0  0
  -10.2010   13.7330   39.9910 C   0  0  0  0  0
  -11.6050   13.2710   40.0360 N   0  0  0  0  0
  -12.0370   12.1940   39.3230 C   0  0  0  0  0
  -11.2670   11.5630   38.6150 O   0  0  0  0  0
  -13.4560   11.8120   39.3730 C   0  0  0  0  0
  -14.4120   12.3460   40.1910 C   0  0  0  0  0
  -15.6370   11.6980   39.8960 C   0  0  0  0  0
  -14.0580   10.8570   38.5930 N   0  0  0  0  0
  -17.9950   11.0550   40.3820 N   0  0  0  0  0
  -14.6630   17.3360   40.1770 Cl  0  0  0  0  0
  -11.0620   16.0180   39.2470 C   0  0  0  0  0
  -10.0380   18.2980   36.5590 F   0  0  0  0  0
   -9.1350   16.1460   37.1820 C   0  0  0  0  0
   -7.9440   16.2140   35.9090 Cl  0  0  0  0  0
   -9.1810   15.0170   38.0390 C   0  0  0  0  0
  -16.0919   10.1210   38.4487 H   0  0  0  0  0
  -19.5031   13.3445   42.1754 H   0  0  0  0  0
  -17.4017   14.0333   43.8544 H   0  0  0  0  0
  -16.2796   16.1202   44.6383 H   0  0  0  0  0
  -15.0738   17.5819   43.0116 H   0  0  0  0  0
  -16.1039   14.8879   39.7844 H   0  0  0  0  0
  -11.7273   17.9572   38.5399 H   0  0  0  0  0
  -10.4202   14.2745   43.2190 H   0  0  0  0  0
   -8.9236   13.3733   41.6919 H   0  0  0  0  0
   -9.2752   15.1016   41.3782 H   0  0  0  0  0
   -9.5607   12.9365   39.6118 H   0  0  0  0  0
  -12.2718   13.7755   40.6202 H   0  0  0  0  0
  -14.2597   13.1280   40.9349 H   0  0  0  0  0
  -11.8057   15.9682   40.0423 H   0  0  0  0  0
   -8.4738   14.1993   37.8999 H   0  0  0  0  0
  1 23  4  0  0  0
 24  1  4  0  0  0
  2  5  4  0  0  0
 23  2  1  0  0  0
  2 25  4  0  0  0
  3  4  4  0  0  0
 25  3  4  0  0  0
  5  4  4  0  0  0
  5  6  1  0  0  0
  6  7  4  0  0  0
  6 11  4  0  0  0
  7  8  4  0  0  0
  8  9  4  0  0  0
 10  9  4  0  0  0
 11 10  4  0  0  0
 10 26  1  0  0  0
 17 12  1  0  0  0
 12 27  4  0  0  0
 12 31  4  0  0  0
 13 14  4  0  0  0
 27 13  4  0  0  0
 14 28  1  0  0  0
 14 29  4  0  0  0
 16 15  1  0  0  0
 17 16  1  0  0  0
 18 17  1  0  0  0
 19 18  1  0  0  0
 19 20  2  0  0  0
 21 19  1  0  0  0
 21 22  4  0  0  0
 21 24  4  0  0  0
 22 23  4  0  0  0
 29 30  1  0  0  0
 29 31  4  0  0  0
  1 32  1  0  0  0
  4 33  1  0  0  0
  7 34  1  0  0  0
  8 35  1  0  0  0
  9 36  1  0  0  0
 11 37  1  0  0  0
 13 38  1  0  0  0
 15 39  1  0  0  0
 16 40  1  0  0  0
 16 41  1  0  0  0
 17 42  1  0  0  0
 18 43  1  0  0  0
 22 44  1  0  0  0
 27 45  1  0  0  0
 31 46  1  0  0  0
M  END
$$$$
