5ucj_ligand
  -I-interpret- 

 40 43  0  0  0  0  0  0  0  0999 V2000
  -20.8920  102.7410    2.4220 C   0  0  0  0  0
  -21.0100  101.9670    1.1230 C   0  0  0  0  0
  -20.7060  102.8790   -0.0800 C   0  0  0  0  0
  -22.3960  101.3840    0.8790 C   0  0  0  0  0
  -23.5460  102.1250    1.1280 C   0  0  0  0  0
  -24.7990  101.5650    0.8420 C   0  0  0  0  0
  -24.9230  100.2860    0.3190 C   0  0  0  0  0
  -26.1890   99.7630    0.0590 O   0  0  0  0  0
  -23.7680   99.5420    0.0540 C   0  0  0  0  0
  -22.5200  100.0900    0.3310 C   0  0  0  0  0
  -21.5960   99.1990   -0.0110 O   0  0  0  0  0
  -22.1840   98.0960   -0.4860 N   0  0  0  0  0
  -23.5180   98.1980   -0.4940 C   0  0  0  0  0
  -26.0300  102.3880    1.1380 C   0  0  0  0  0
  -26.6940  102.9410    0.3280 O   0  0  0  0  0
  -26.3350  102.5420    2.5150 N   0  0  0  0  0
  -25.6530  101.9030    3.6210 C   0  0  0  0  0
  -26.5840  102.1390    4.8100 C   0  0  0  0  0
  -27.6160  102.9600    4.4290 C   0  0  0  0  0
  -27.4810  103.3260    2.9460 C   0  0  0  0  0
  -28.6130  103.3370    5.3460 C   0  0  0  0  0
  -28.5170  102.8700    6.6440 C   0  0  0  0  0
  -29.4740  103.2310    7.5420 F   0  0  0  0  0
  -27.4770  102.0390    7.0380 C   0  0  0  0  0
  -26.4910  101.6670    6.1340 C   0  0  0  0  0
  -21.5967  103.5725    2.4133 H   0  0  0  0  0
  -21.1179  102.0803    3.2590 H   0  0  0  0  0
  -19.8768  103.1245    2.5240 H   0  0  0  0  0
  -20.2919  101.1526    1.2191 H   0  0  0  0  0
  -20.7268  102.2888   -0.9961 H   0  0  0  0  0
  -21.4576  103.6664   -0.1364 H   0  0  0  0  0
  -19.7192  103.3251    0.0441 H   0  0  0  0  0
  -23.4740  103.1310    1.5413 H   0  0  0  0  0
  -26.1006   98.8759   -0.2971 H   0  0  0  0  0
  -24.2478   97.4603   -0.8275 H   0  0  0  0  0
  -24.6986  101.3766    3.6085 H   0  0  0  0  0
  -28.0950  104.0081    2.3579 H   0  0  0  0  0
  -29.4391  103.9799    5.0420 H   0  0  0  0  0
  -27.4342  101.6758    8.0648 H   0  0  0  0  0
  -25.6651  101.0254    6.4413 H   0  0  0  0  0
  1  2  1  0  0  0
  2  3  1  0  0  0
  2  4  1  0  0  0
  4  5  4  0  0  0
  4 10  4  0  0  0
  5  6  4  0  0  0
  6  7  4  0  0  0
  6 14  1  0  0  0
  7  8  1  0  0  0
  7  9  4  0  0  0
  9 10  4  0  0  0
  9 13  4  0  0  0
 10 11  4  0  0  0
 11 12  4  0  0  0
 12 13  4  0  0  0
 14 15  2  0  0  0
 14 16  1  0  0  0
 16 17  4  0  0  0
 16 20  4  0  0  0
 17 18  4  0  0  0
 18 19  4  0  0  0
 18 25  4  0  0  0
 19 20  4  0  0  0
 19 21  4  0  0  0
 21 22  4  0  0  0
 22 23  1  0  0  0
 22 24  4  0  0  0
 24 25  4  0  0  0
  1 26  1  0  0  0
  1 27  1  0  0  0
  1 28  1  0  0  0
  2 29  1  0  0  0
  3 30  1  0  0  0
  3 31  1  0  0  0
  3 32  1  0  0  0
  5 33  1  0  0  0
  8 34  1  0  0  0
 13 35  1  0  0  0
 17 36  1  0  0  0
 20 37  1  0  0  0
 21 38  1  0  0  0
 24 39  1  0  0  0
 25 40  1  0  0  0
M  END
$$$$
