4kni_ligand
  -I-interpret- 

 37 38  0  0  0  0  0  0  0  0999 V2000
   -4.6610    4.5110   15.3810 C   0  0  0  0  0
   -4.9710    2.1360   15.8480 C   0  0  0  0  0
   -3.9930    1.7890   14.8900 C   0  0  0  0  0
   -6.5620    3.8820   17.2580 Cl  0  0  0  0  0
   -5.3380    3.4830   16.0700 C   0  0  0  0  0
   -5.7490    0.7870   16.7790 S   0  0  0  0  0
   -7.3190    0.8280   16.5880 O   0  0  0  0  0
   -5.0300   -0.6720   16.1440 N   0  0  0  0  0
   -5.2350    0.9220   18.3090 O   0  0  0  0  0
   -3.6260    4.1880   14.4460 C   0  0  0  0  0
   -3.2980    2.8250   14.1970 C   0  0  0  0  0
   -2.8360    5.2590   13.7730 C   0  0  0  0  0
   -2.6360    6.3170   14.4250 O   0  0  0  0  0
   -2.1370    5.0870   12.4620 C   0  0  0  0  0
   -2.0540    6.7070   11.6580 S   0  0  0  0  0
   -3.8120    7.0040   11.5410 C   0  0  0  0  0
   -4.6780    6.1550   12.2110 N   0  0  0  0  0
   -6.0110    6.3510   12.1140 C   0  0  0  0  0
   -6.8820    5.3830   12.8300 C   0  0  0  0  0
   -6.5020    7.4360   11.3480 C   0  0  0  0  0
   -5.5920    8.3030   10.6980 C   0  0  0  0  0
   -4.2560    8.0770   10.8050 N   0  0  0  0  0
   -6.0470    9.4680    9.8820 C   0  0  0  0  0
   -4.9263    5.5528   15.5607 H   0  0  0  0  0
   -3.7716    0.7421   14.6824 H   0  0  0  0  0
   -5.6180   -1.3825   15.7083 H   0  0  0  0  0
   -4.0220   -0.8138   16.2087 H   0  0  0  0  0
   -2.5178    2.5734   13.4786 H   0  0  0  0  0
   -2.6812    4.3816   11.8340 H   0  0  0  0  0
   -1.1334    4.6917   12.6186 H   0  0  0  0  0
   -6.7010    4.3795   12.4449 H   0  0  0  0  0
   -6.6549    5.4111   13.8957 H   0  0  0  0  0
   -7.9268    5.6509   12.6727 H   0  0  0  0  0
   -7.5756    7.6025   11.2595 H   0  0  0  0  0
   -6.6715    9.1138    9.0619 H   0  0  0  0  0
   -6.6219   10.1479   10.5107 H   0  0  0  0  0
   -5.1785    9.9897    9.4799 H   0  0  0  0  0
  5  1  4  0  0  0
  1 10  4  0  0  0
  2  3  4  0  0  0
  2  5  4  0  0  0
  2  6  1  0  0  0
  3 11  4  0  0  0
  5  4  1  0  0  0
  6  7  2  0  0  0
  6  8  1  0  0  0
  6  9  2  0  0  0
 10 11  4  0  0  0
 10 12  1  0  0  0
 12 13  2  0  0  0
 12 14  1  0  0  0
 14 15  1  0  0  0
 15 16  1  0  0  0
 16 17  4  0  0  0
 16 22  4  0  0  0
 17 18  4  0  0  0
 18 19  1  0  0  0
 18 20  4  0  0  0
 20 21  4  0  0  0
 21 22  4  0  0  0
 21 23  1  0  0  0
  1 24  1  0  0  0
  3 25  1  0  0  0
  8 26  1  0  0  0
  8 27  1  0  0  0
 11 28  1  0  0  0
 14 29  1  0  0  0
 14 30  1  0  0  0
 19 31  1  0  0  0
 19 32  1  0  0  0
 19 33  1  0  0  0
 20 34  1  0  0  0
 23 35  1  0  0  0
 23 36  1  0  0  0
 23 37  1  0  0  0
M  END
$$$$
