3v78_ligand
  -I-interpret- 

 45 48  0  0  0  0  0  0  0  0999 V2000
  -31.3840  -13.5770   -0.9690 C   0  0  0  0  0
  -32.1580  -14.7000   -0.6820 C   0  0  0  0  0
  -33.2870  -14.5940    0.1410 C   0  0  0  0  0
  -33.6440  -13.3610    0.6860 C   0  0  0  0  0
  -33.1930  -10.9760    0.9450 N   0  0  0  0  0
  -32.4600   -9.8680    0.7000 C   0  0  0  0  0
  -30.5500   -8.7530   -0.4050 C   0  0  0  0  0
  -29.4140   -8.7960   -1.2200 C   0  0  0  0  0
  -29.0150  -10.0200   -1.7920 C   0  0  0  0  0
  -29.7570  -11.1790   -1.5440 C   0  0  0  0  0
  -31.3010   -9.9340   -0.1530 C   0  0  0  0  0
  -30.9110  -11.1320   -0.7170 C   0  0  0  0  0
  -31.7350  -12.3190   -0.4140 C   0  0  0  0  0
  -32.8430  -12.2090    0.3990 C   0  0  0  0  0
  -32.8790   -8.5470    1.2410 C   0  0  0  0  0
  -34.0070   -7.9970    0.6220 C   0  0  0  0  0
  -34.4970   -6.7530    1.0210 C   0  0  0  0  0
  -33.8430   -6.0570    2.0360 C   0  0  0  0  0
  -32.6990   -6.6140    2.6180 C   0  0  0  0  0
  -32.2040   -7.8530    2.2410 C   0  0  0  0  0
  -34.3570  -10.8850    1.7880 C   0  0  0  0  0
  -35.7110  -10.8620    1.1630 C   0  0  0  0  0
  -34.0650  -15.7670    0.4140 N   0  0  0  0  0
  -28.6640   -7.5920   -1.4580 N   0  0  0  0  0
  -30.5122  -13.6647   -1.6174 H   0  0  0  0  0
  -31.8830  -15.6680   -1.1009 H   0  0  0  0  0
  -34.5237  -13.2749    1.3239 H   0  0  0  0  0
  -32.0738  -10.2983    1.6240 H   0  0  0  0  0
  -30.8617   -7.8080    0.0399 H   0  0  0  0  0
  -28.1298  -10.0635   -2.4265 H   0  0  0  0  0
  -29.4477  -12.1251   -1.9883 H   0  0  0  0  0
  -34.5064   -8.5442   -0.1775 H   0  0  0  0  0
  -35.3814   -6.3303    0.5442 H   0  0  0  0  0
  -34.2182   -5.0905    2.3724 H   0  0  0  0  0
  -32.1786   -6.0542    3.3951 H   0  0  0  0  0
  -31.3144   -8.2704    2.7128 H   0  0  0  0  0
  -34.2644   -9.9203    2.2870 H   0  0  0  0  0
  -34.3411  -11.7976    2.3839 H   0  0  0  0  0
  -35.7889  -10.0008    0.4994 H   0  0  0  0  0
  -35.8614  -11.7777    0.5911 H   0  0  0  0  0
  -36.4688  -10.7908    1.9433 H   0  0  0  0  0
  -33.7941  -16.6639    0.0108 H   0  0  0  0  0
  -34.8894  -15.7046    1.0114 H   0  0  0  0  0
  -28.9614   -6.7135   -1.0335 H   0  0  0  0  0
  -27.8347   -7.6166   -2.0513 H   0  0  0  0  0
  2  1  4  0  0  0
  1 13  4  0  0  0
  3  2  4  0  0  0
  4  3  4  0  0  0
  3 23  1  0  0  0
 14  4  4  0  0  0
  6  5  1  0  0  0
  5 14  1  0  0  0
  5 21  1  0  0  0
 11  6  1  0  0  0
  6 15  1  0  0  0
  7  8  4  0  0  0
  7 11  4  0  0  0
  8  9  4  0  0  0
  8 24  1  0  0  0
  9 10  4  0  0  0
 10 12  4  0  0  0
 11 12  4  0  0  0
 12 13  1  0  0  0
 13 14  4  0  0  0
 15 16  4  0  0  0
 15 20  4  0  0  0
 16 17  4  0  0  0
 17 18  4  0  0  0
 18 19  4  0  0  0
 19 20  4  0  0  0
 21 22  1  0  0  0
  1 25  1  0  0  0
  2 26  1  0  0  0
  4 27  1  0  0  0
  6 28  1  0  0  0
  7 29  1  0  0  0
  9 30  1  0  0  0
 10 31  1  0  0  0
 16 32  1  0  0  0
 17 33  1  0  0  0
 18 34  1  0  0  0
 19 35  1  0  0  0
 20 36  1  0  0  0
 21 37  1  0  0  0
 21 38  1  0  0  0
 22 39  1  0  0  0
 22 40  1  0  0  0
 22 41  1  0  0  0
 23 42  1  0  0  0
 23 43  1  0  0  0
 24 44  1  0  0  0
 24 45  1  0  0  0
M  END
$$$$
