4ujb_ligand
  -I-interpret- 

 44 47  0  0  0  0  0  0  0  0999 V2000
  -23.3420   10.8370   -1.7070 F   0  0  0  0  0
  -23.4940   11.5220   -0.6120 C   0  0  0  0  0
  -22.9880   12.7420   -0.5110 C   0  0  0  0  0
  -23.1690   13.4880    0.6890 C   0  0  0  0  0
  -23.8720   12.9050    1.7500 C   0  0  0  0  0
  -24.3880   11.6220    1.6270 C   0  0  0  0  0
  -24.2180   10.9190    0.4740 C   0  0  0  0  0
  -25.1700   10.9690    2.7570 C   0  0  0  0  0
  -25.4760   11.6320    3.7780 O   0  0  0  0  0
  -25.6390    9.5170    2.5790 C   0  0  0  0  0
  -24.4980    8.4170    2.6920 C   0  0  0  0  0
  -25.0990    7.3530    3.1610 N   0  3  0  0  0
  -26.5110    7.8130    3.7330 C   0  0  0  0  0
  -26.5090    9.1800    3.7480 C   0  0  0  0  0
  -28.0530    9.4390    3.7460 C   0  0  0  0  0
  -28.7090    9.3850    2.5460 C   0  0  0  0  0
  -30.1160    9.5770    2.4900 C   0  0  0  0  0
  -30.8150    9.8340    3.6540 C   0  0  0  0  0
  -30.1190    9.8980    4.9090 C   0  0  0  0  0
  -28.7630    9.7110    4.9610 C   0  0  0  0  0
  -32.3140   10.0410    3.5800 C   0  0  0  0  0
  -32.9770   10.2600    4.5960 O   0  0  0  0  0
  -32.9430    9.9730    2.3370 N   0  0  0  0  0
  -32.2000    9.7100    1.1320 C   0  0  0  0  0
  -30.7740    9.5070    1.1970 N   0  0  0  0  0
  -22.4342   13.1742   -1.3444 H   0  0  0  0  0
  -22.7665   14.4969    0.7797 H   0  0  0  0  0
  -24.0149   13.4608    2.6767 H   0  0  0  0  0
  -24.6251    9.9127    0.3753 H   0  0  0  0  0
  -26.0911    9.4888    1.5876 H   0  0  0  0  0
  -23.6861    8.7423    3.3425 H   0  0  0  0  0
  -24.0267    8.2232    1.7285 H   0  0  0  0  0
  -24.5392    6.9229    3.8972 H   0  0  0  0  0
  -25.2221    6.6591    2.4236 H   0  0  0  0  0
  -26.6691    7.4162    4.7358 H   0  0  0  0  0
  -27.3216    7.4350    3.1100 H   0  0  0  0  0
  -26.0992    9.7949    4.5493 H   0  0  0  0  0
  -28.1502    9.1940    1.6298 H   0  0  0  0  0
  -30.6736   10.0967    5.8261 H   0  0  0  0  0
  -28.2323    9.7682    5.9114 H   0  0  0  0  0
  -33.9518   10.1127    2.2803 H   0  0  0  0  0
  -32.3206   10.6132    0.5338 H   0  0  0  0  0
  -32.5950    8.7612    0.7689 H   0  0  0  0  0
  -30.2372    9.3177    0.3506 H   0  0  0  0  0
  1  2  1  0  0  0
  2  3  4  0  0  0
  2  7  4  0  0  0
  3  4  4  0  0  0
  4  5  4  0  0  0
  5  6  4  0  0  0
  6  7  4  0  0  0
  6  8  1  0  0  0
  8  9  2  0  0  0
  8 10  1  0  0  0
 10 11  1  0  0  0
 10 14  1  0  0  0
 11 12  1  0  0  0
 12 13  1  0  0  0
 13 14  1  0  0  0
 14 15  1  0  0  0
 15 16  4  0  0  0
 15 20  4  0  0  0
 16 17  4  0  0  0
 17 18  4  0  0  0
 17 25  1  0  0  0
 18 19  4  0  0  0
 18 21  1  0  0  0
 19 20  4  0  0  0
 21 22  2  0  0  0
 21 23  1  0  0  0
 23 24  1  0  0  0
 24 25  1  0  0  0
  3 26  1  0  0  0
  4 27  1  0  0  0
  5 28  1  0  0  0
  7 29  1  0  0  0
 10 30  1  0  0  0
 11 31  1  0  0  0
 11 32  1  0  0  0
 12 33  1  0  0  0
 12 34  1  0  0  0
 13 35  1  0  0  0
 13 36  1  0  0  0
 14 37  1  0  0  0
 16 38  1  0  0  0
 19 39  1  0  0  0
 20 40  1  0  0  0
 23 41  1  0  0  0
 24 42  1  0  0  0
 24 43  1  0  0  0
 25 44  1  0  0  0
M  END
$$$$
