### 
### Created by X-TOOL on Mon Sep 10 21:13:24 2018
### 

@<TRIPOS>MOLECULE
4ux9_ligand
  167   169     1     0     0
SMALL
GAST_HUCK


@<TRIPOS>ATOM
      1 N          46.5680   15.6650   94.8470 N.4       1 PRO         0.2461
      2 CA         45.4400   15.1740   95.6590 C.3       1 PRO         0.0670
      3 C          45.4820   15.7000   97.0940 C.2       1 PRO         0.2268
      4 O          46.5720   16.0020   97.5990 O.2       1 PRO        -0.3907
      5 CB         45.5980   13.6490   95.6210 C.3       1 PRO         0.0127
      6 CG         47.0240   13.4090   95.2610 C.3       1 PRO        -0.0053
      7 CD         47.4550   14.5690   94.4110 C.3       1 PRO        -0.0313
      8 N          44.2890   15.8040   97.7440 N.am      1 ARG        -0.2610
      9 CA         44.0910   16.2680   99.1300 C.3       1 ARG         0.1314
     10 C          45.0660   15.5220  100.0820 C.2       1 ARG         0.2064
     11 O          45.0920   14.2860  100.0610 O.2       1 ARG        -0.3942
     12 CB         42.6230   16.0620   99.5520 C.3       1 ARG        -0.0092
     13 CG         42.1900   16.9020  100.7490 C.3       1 ARG        -0.0156
     14 CD         40.7500   16.6270  101.1540 C.3       1 ARG         0.0627
     15 NE         40.6230   15.4380  102.0010 N.pl3     1 ARG        -0.2723
     16 CZ         40.0290   14.3070  101.6300 C.cat     1 ARG         0.2882
     17 NH1        39.4920   14.1950  100.4200 N.pl3     1 ARG        -0.2849
     18 NH2        39.9590   13.2820  102.4690 N.pl3     1 ARG        -0.2849
     19 N          45.9370   16.2360  100.8420 N.am      1 PRO        -0.2498
     20 CA         46.9320   15.5260  101.6670 C.3       1 PRO         0.1338
     21 C          46.3710   14.9580  102.9700 C.2       1 PRO         0.2042
     22 O          45.3170   15.3880  103.4390 O.2       1 PRO        -0.3944
     23 CB         47.9870   16.5990  101.9460 C.3       1 PRO        -0.0104
     24 CG         47.2330   17.8710  101.9260 C.3       1 PRO        -0.0281
     25 CD         46.0880   17.7040  100.9590 C.3       1 PRO         0.0369
     26 N          47.1040   13.9900  103.5510 N.am      1 THR        -0.2613
     27 CA         46.7780   13.3250  104.8160 C.3       1 THR         0.1565
     28 C          47.8870   13.7330  105.8330 C.2       1 THR         0.2065
     29 O          48.8590   12.9990  106.0600 O.2       1 THR        -0.3943
     30 CB         46.5390   11.7940  104.6100 C.3       1 THR         0.0924
     31 OG1        46.4660   11.1260  105.8730 O.3       1 THR        -0.3874
     32 CG2        47.5810   11.1190  103.7080 C.3       1 THR        -0.0346
     33 N          47.7330   14.9570  106.4000 N.am      1 LEU        -0.2636
     34 CA         48.6600   15.6190  107.3350 C.3       1 LEU         0.1312
     35 C          48.0610   15.7470  108.7470 C.2       1 LEU         0.2039
     36 O          46.8370   15.7590  108.9010 O.2       1 LEU        -0.3944
     37 CB         48.9990   17.0240  106.7770 C.3       1 LEU        -0.0101
     38 CG         50.2840   17.2440  105.9470 C.3       1 LEU        -0.0425
     39 CD1        50.5910   16.0970  105.0040 C.3       1 LEU        -0.0625
     40 CD2        50.1720   18.5080  105.1290 C.3       1 LEU        -0.0625
     41 N          48.9250   15.8580  109.7750 N.am      1 GLN        -0.2636
     42 CA         48.4820   15.9600  111.1710 C.3       1 GLN         0.1330
     43 C          49.2100   17.0570  111.9740 C.2       1 GLN         0.2040
     44 O          50.4180   17.2290  111.8250 O.2       1 GLN        -0.3944
     45 CB         48.6540   14.6090  111.8980 C.3       1 GLN         0.0045
     46 CG         47.5450   13.5720  111.6120 C.3       1 GLN         0.0412
     47 CD         46.2340   13.7810  112.3650 C.2       1 GLN         0.1737
     48 OE1        45.1460   13.7980  111.7720 O.2       1 GLN        -0.3973
     49 NE2        46.2900   13.8750  113.6930 N.am      1 GLN        -0.3009
     50 N          48.4580   17.7840  112.8380 N.am      1 LEU        -0.2637
     51 CA         48.9760   18.7940  113.7660 C.3       1 LEU         0.1314
     52 C          48.7540   18.3140  115.2050 C.2       1 LEU         0.2064
     53 O          47.5910   18.1630  115.6090 O.2       1 LEU        -0.3942
     54 CB         48.3370   20.1970  113.6000 C.3       1 LEU        -0.0101
     55 CG         48.5690   21.0130  112.3450 C.3       1 LEU        -0.0425
     56 CD1        47.7240   22.2690  112.3750 C.3       1 LEU        -0.0625
     57 CD2        50.0360   21.3720  112.1460 C.3       1 LEU        -0.0625
     58 N          49.8280   18.0910  116.0030 N.am      1 PRO        -0.2498
     59 CA         49.6260   17.6710  117.3990 C.3       1 PRO         0.1338
     60 C          49.1620   18.8480  118.2620 C.2       1 PRO         0.2041
     61 O          49.9670   19.5990  118.8190 O.2       1 PRO        -0.3944
     62 CB         51.0070   17.1510  117.8110 C.3       1 PRO        -0.0104
     63 CG         51.9620   17.9380  116.9770 C.3       1 PRO        -0.0281
     64 CD         51.2630   18.2230  115.6770 C.3       1 PRO         0.0369
     65 N          47.8490   19.0190  118.3470 N.am      1 LEU        -0.2637
     66 CA         47.2400   20.1010  119.1160 C.3       1 LEU         0.1312
     67 C          46.7830   19.6020  120.4860 C.2       1 LEU         0.2033
     68 O          46.1020   18.5670  120.5870 O.2       1 LEU        -0.3944
     69 CB         46.0650   20.7360  118.3440 C.3       1 LEU        -0.0101
     70 CG         46.3270   21.0860  116.8730 C.3       1 LEU        -0.0425
     71 CD1        45.0340   21.3260  116.1280 C.3       1 LEU        -0.0625
     72 CD2        47.2790   22.2590  116.7340 C.3       1 LEU        -0.0625
     73 N          47.1660   20.3440  121.5420 N.am      1 ALA        -0.2698
     74 CA         46.8000   20.0360  122.9230 C.3       1 ALA         0.0916
     75 C          45.4020   20.5720  123.2460 C.2       1 ALA         0.0598
     76 O          44.9770   21.5850  122.6890 O.co2     1 ALA        -0.5666
     77 CB         47.8250   20.6230  123.8780 C.3       1 ALA        -0.0300
     78 OXT        44.6860   19.9960  124.0670 O.co2     1 ALA        -0.5666
     79 H1         47.1042   16.3183   95.3964 H         1 PRO         0.2035
     80 H2         46.2029   16.1318   94.0316 H         1 PRO         0.2035
     81 H3         44.4852   15.4723   95.2015 H         1 PRO         0.1099
     82 H4         44.9308   13.2115   94.8637 H         1 PRO         0.0347
     83 H5         45.3709   13.2137   96.6053 H         1 PRO         0.0347
     84 H6         47.1198   12.4695   94.6970 H         1 PRO         0.0320
     85 H7         47.6408   13.3554   96.1702 H         1 PRO         0.0320
     86 H8         48.5100   14.8204   94.5949 H         1 PRO         0.0814
     87 H9         47.3114   14.3484   93.3430 H         1 PRO         0.0814
     88 H10        43.4705   15.5409   97.2332 H         1 ARG         0.1884
     89 H11        44.3166   17.3436   99.1763 H         1 ARG         0.0800
     90 H12        42.4836   15.0012   99.8072 H         1 ARG         0.0313
     91 H13        41.9796   16.3214   98.6984 H         1 ARG         0.0313
     92 H14        42.2875   17.9663  100.4886 H         1 ARG         0.0301
     93 H15        42.8474   16.6710  101.6001 H         1 ARG         0.0301
     94 H16        40.1499   16.4778  100.2443 H         1 ARG         0.0689
     95 H17        40.3668   17.4970  101.7075 H         1 ARG         0.0689
     96 H18        41.0215   15.4810  102.9498 H         1 ARG         0.2642
     97 H19        39.0336   13.3164  100.1393 H         1 ARG         0.2615
     98 H20        39.5341   14.9868   99.7626 H         1 ARG         0.2615
     99 H21        40.3718   13.3573  103.4097 H         1 ARG         0.2615
    100 H22        39.4919   12.4107  102.1798 H         1 ARG         0.2615
    101 H23        47.3703   14.6980  101.0905 H         1 PRO         0.0802
    102 H24        48.7627   16.5942  101.1661 H         1 PRO         0.0313
    103 H25        48.4542   16.4391  102.9289 H         1 PRO         0.0313
    104 H26        47.8877   18.6905  101.5948 H         1 PRO         0.0287
    105 H27        46.8461   18.0941  102.9312 H         1 PRO         0.0287
    106 H28        45.1700   18.1622  101.3556 H         1 PRO         0.0524
    107 H29        46.3298   18.1522   99.9840 H         1 PRO         0.0524
    108 H30        47.9385   13.7012  103.0817 H         1 THR         0.1884
    109 H31        45.8286   13.7376  105.1880 H         1 THR         0.0826
    110 H32        45.5630   11.6833  104.1149 H         1 THR         0.0639
    111 H33        47.2813   11.2517  106.3440 H         1 THR         0.2101
    112 H34        47.3452   10.0488  103.6126 H         1 THR         0.0257
    113 H35        48.5808   11.2360  104.1515 H         1 THR         0.0257
    114 H36        47.5639   11.5882  102.7133 H         1 THR         0.0257
    115 H37        46.9044   15.4618  106.1580 H         1 LEU         0.1883
    116 H38        49.5825   15.0234  107.4000 H         1 LEU         0.0800
    117 H39        49.0615   17.7010  107.6417 H         1 LEU         0.0315
    118 H40        48.1549   17.3225  106.1379 H         1 LEU         0.0315
    119 H41        51.1247   17.3481  106.6487 H         1 LEU         0.0298
    120 H42        51.5135   16.3173  104.4468 H         1 LEU         0.0232
    121 H43        49.7575   15.9700  104.2975 H         1 LEU         0.0232
    122 H44        50.7248   15.1716  105.5835 H         1 LEU         0.0232
    123 H45        49.9490   19.3560  105.7932 H         1 LEU         0.0232
    124 H46        49.3632   18.3972  104.3918 H         1 LEU         0.0232
    125 H47        51.1221   18.6918  104.6061 H         1 LEU         0.0232
    126 H48        49.9056   15.8714  109.5796 H         1 GLN         0.1883
    127 H49        47.4111   16.2108  111.1577 H         1 GLN         0.0801
    128 H50        48.6698   14.8029  112.9807 H         1 GLN         0.0337
    129 H51        49.6162   14.1745  111.5891 H         1 GLN         0.0337
    130 H52        47.9339   12.5785  111.8798 H         1 GLN         0.0504
    131 H53        47.3244   13.6013  110.5348 H         1 GLN         0.0504
    132 H54        45.4515   14.0121  114.2203 H         1 GLN         0.1814
    133 H55        47.1705   13.8084  114.1623 H         1 GLN         0.1814
    134 H56        47.4719   17.6178  112.8422 H         1 LEU         0.1883
    135 H57        50.0568   18.8927  113.5867 H         1 LEU         0.0800
    136 H58        48.6973   20.8070  114.4415 H         1 LEU         0.0315
    137 H59        47.2493   20.0583  113.6869 H         1 LEU         0.0315
    138 H60        48.2520   20.4047  111.4850 H         1 LEU         0.0298
    139 H61        47.9013   22.8521  111.4593 H         1 LEU         0.0232
    140 H62        47.9962   22.8732  113.2529 H         1 LEU         0.0232
    141 H63        46.6606   21.9942  112.4345 H         1 LEU         0.0232
    142 H64        50.6391   20.4523  112.1259 H         1 LEU         0.0232
    143 H65        50.3723   22.0129  112.9743 H         1 LEU         0.0232
    144 H66        50.1560   21.9099  111.1941 H         1 LEU         0.0232
    145 H67        48.8784   16.8665  117.4604 H         1 PRO         0.0802
    146 H68        51.0980   16.0758  117.5975 H         1 PRO         0.0313
    147 H69        51.1868   17.3288  118.8815 H         1 PRO         0.0313
    148 H70        52.8772   17.3553  116.7960 H         1 PRO         0.0287
    149 H71        52.2210   18.8797  117.4830 H         1 PRO         0.0287
    150 H72        51.4917   19.2399  115.3255 H         1 PRO         0.0524
    151 H73        51.5573   17.4942  114.9075 H         1 PRO         0.0524
    152 H74        47.2508   18.3797  117.8638 H         1 LEU         0.1883
    153 H75        48.0028   20.8778  119.2731 H         1 LEU         0.0800
    154 H76        45.7847   21.6638  118.8643 H         1 LEU         0.0315
    155 H77        45.2227   20.0292  118.3752 H         1 LEU         0.0315
    156 H78        46.8143   20.2146  116.4112 H         1 LEU         0.0298
    157 H79        45.2556   21.5739  115.0795 H         1 LEU         0.0232
    158 H80        44.4911   22.1608  116.5953 H         1 LEU         0.0232
    159 H81        44.4144   20.4180  116.1669 H         1 LEU         0.0232
    160 H82        48.2053   22.0471  117.2881 H         1 LEU         0.0232
    161 H83        46.8068   23.1648  117.1420 H         1 LEU         0.0232
    162 H84        47.5152   22.4156  115.6712 H         1 LEU         0.0232
    163 H85        47.7323   21.1505  121.3721 H         1 ALA         0.1875
    164 H86        46.7912   18.9430  123.0466 H         1 ALA         0.0723
    165 H87        47.5397   20.3853  124.9134 H         1 ALA         0.0270
    166 H88        47.8628   21.7148  123.7496 H         1 ALA         0.0270
    167 H89        48.8147   20.1940  123.6627 H         1 ALA         0.0270
@<TRIPOS>BOND
     1    1    2 1  
     2    1    7 1  
     3    2    3 1  
     4    2    5 1  
     5    3    4 2  
     6    3    8 am 
     7    5    6 1  
     8    6    7 1  
     9    8    9 1  
    10    9   10 1  
    11    9   12 1  
    12   10   11 2  
    13   10   19 am 
    14   12   13 1  
    15   13   14 1  
    16   14   15 1  
    17   15   16 ar 
    18   16   17 ar 
    19   16   18 ar 
    20   19   20 1  
    21   19   25 1  
    22   20   21 1  
    23   20   23 1  
    24   21   22 2  
    25   21   26 am 
    26   23   24 1  
    27   24   25 1  
    28   26   27 1  
    29   27   28 1  
    30   27   30 1  
    31   28   29 2  
    32   28   33 am 
    33   30   31 1  
    34   30   32 1  
    35   33   34 1  
    36   34   35 1  
    37   34   37 1  
    38   35   36 2  
    39   35   41 am 
    40   37   38 1  
    41   38   39 1  
    42   38   40 1  
    43   41   42 1  
    44   42   43 1  
    45   42   45 1  
    46   43   44 2  
    47   43   50 am 
    48   45   46 1  
    49   46   47 1  
    50   47   48 2  
    51   47   49 am 
    52   50   51 1  
    53   51   52 1  
    54   51   54 1  
    55   52   53 2  
    56   52   58 am 
    57   54   55 1  
    58   55   56 1  
    59   55   57 1  
    60   58   59 1  
    61   58   64 1  
    62   59   60 1  
    63   59   62 1  
    64   60   61 2  
    65   60   65 am 
    66   62   63 1  
    67   63   64 1  
    68   65   66 1  
    69   66   67 1  
    70   66   69 1  
    71   67   68 2  
    72   67   73 am 
    73   69   70 1  
    74   70   71 1  
    75   70   72 1  
    76   73   74 1  
    77   74   75 1  
    78   74   77 1  
    79   75   76 ar 
    80   75   78 ar 
    81    1   79 1  
    82    1   80 1  
    83    2   81 1  
    84    5   82 1  
    85    5   83 1  
    86    6   84 1  
    87    6   85 1  
    88    7   86 1  
    89    7   87 1  
    90    8   88 1  
    91    9   89 1  
    92   12   90 1  
    93   12   91 1  
    94   13   92 1  
    95   13   93 1  
    96   14   94 1  
    97   14   95 1  
    98   15   96 1  
    99   17   97 1  
   100   17   98 1  
   101   18   99 1  
   102   18  100 1  
   103   20  101 1  
   104   23  102 1  
   105   23  103 1  
   106   24  104 1  
   107   24  105 1  
   108   25  106 1  
   109   25  107 1  
   110   26  108 1  
   111   27  109 1  
   112   30  110 1  
   113   31  111 1  
   114   32  112 1  
   115   32  113 1  
   116   32  114 1  
   117   33  115 1  
   118   34  116 1  
   119   37  117 1  
   120   37  118 1  
   121   38  119 1  
   122   39  120 1  
   123   39  121 1  
   124   39  122 1  
   125   40  123 1  
   126   40  124 1  
   127   40  125 1  
   128   41  126 1  
   129   42  127 1  
   130   45  128 1  
   131   45  129 1  
   132   46  130 1  
   133   46  131 1  
   134   49  132 1  
   135   49  133 1  
   136   50  134 1  
   137   51  135 1  
   138   54  136 1  
   139   54  137 1  
   140   55  138 1  
   141   56  139 1  
   142   56  140 1  
   143   56  141 1  
   144   57  142 1  
   145   57  143 1  
   146   57  144 1  
   147   59  145 1  
   148   62  146 1  
   149   62  147 1  
   150   63  148 1  
   151   63  149 1  
   152   64  150 1  
   153   64  151 1  
   154   65  152 1  
   155   66  153 1  
   156   69  154 1  
   157   69  155 1  
   158   70  156 1  
   159   71  157 1  
   160   71  158 1  
   161   71  159 1  
   162   72  160 1  
   163   72  161 1  
   164   72  162 1  
   165   73  163 1  
   166   74  164 1  
   167   77  165 1  
   168   77  166 1  
   169   77  167 1  
@<TRIPOS>SUBSTRUCTURE
     1 PRO         1

