4ux9_ligand
  -I-interpret- 

167169  0  0  0  0  0  0  0  0999 V2000
   46.5680   15.6650   94.8470 N   0  3  0  0  0
   45.4400   15.1740   95.6590 C   0  0  0  0  0
   45.4820   15.7000   97.0940 C   0  0  0  0  0
   46.5720   16.0020   97.5990 O   0  0  0  0  0
   45.5980   13.6490   95.6210 C   0  0  0  0  0
   47.0240   13.4090   95.2610 C   0  0  0  0  0
   47.4550   14.5690   94.4110 C   0  0  0  0  0
   44.2890   15.8040   97.7440 N   0  0  0  0  0
   44.0910   16.2680   99.1300 C   0  0  0  0  0
   45.0660   15.5220  100.0820 C   0  0  0  0  0
   45.0920   14.2860  100.0610 O   0  0  0  0  0
   42.6230   16.0620   99.5520 C   0  0  0  0  0
   42.1900   16.9020  100.7490 C   0  0  0  0  0
   40.7500   16.6270  101.1540 C   0  0  0  0  0
   40.6230   15.4380  102.0010 N   0  0  0  0  0
   40.0290   14.3070  101.6300 C   0  0  0  0  0
   39.4920   14.1950  100.4200 N   0  0  0  0  0
   39.9590   13.2820  102.4690 N   0  0  0  0  0
   45.9370   16.2360  100.8420 N   0  0  0  0  0
   46.9320   15.5260  101.6670 C   0  0  0  0  0
   46.3710   14.9580  102.9700 C   0  0  0  0  0
   45.3170   15.3880  103.4390 O   0  0  0  0  0
   47.9870   16.5990  101.9460 C   0  0  0  0  0
   47.2330   17.8710  101.9260 C   0  0  0  0  0
   46.0880   17.7040  100.9590 C   0  0  0  0  0
   47.1040   13.9900  103.5510 N   0  0  0  0  0
   46.7780   13.3250  104.8160 C   0  0  0  0  0
   47.8870   13.7330  105.8330 C   0  0  0  0  0
   48.8590   12.9990  106.0600 O   0  0  0  0  0
   46.5390   11.7940  104.6100 C   0  0  0  0  0
   46.4660   11.1260  105.8730 O   0  0  0  0  0
   47.5810   11.1190  103.7080 C   0  0  0  0  0
   47.7330   14.9570  106.4000 N   0  0  0  0  0
   48.6600   15.6190  107.3350 C   0  0  0  0  0
   48.0610   15.7470  108.7470 C   0  0  0  0  0
   46.8370   15.7590  108.9010 O   0  0  0  0  0
   48.9990   17.0240  106.7770 C   0  0  0  0  0
   50.2840   17.2440  105.9470 C   0  0  0  0  0
   50.5910   16.0970  105.0040 C   0  0  0  0  0
   50.1720   18.5080  105.1290 C   0  0  0  0  0
   48.9250   15.8580  109.7750 N   0  0  0  0  0
   48.4820   15.9600  111.1710 C   0  0  0  0  0
   49.2100   17.0570  111.9740 C   0  0  0  0  0
   50.4180   17.2290  111.8250 O   0  0  0  0  0
   48.6540   14.6090  111.8980 C   0  0  0  0  0
   47.5450   13.5720  111.6120 C   0  0  0  0  0
   46.2340   13.7810  112.3650 C   0  0  0  0  0
   45.1460   13.7980  111.7720 O   0  0  0  0  0
   46.2900   13.8750  113.6930 N   0  0  0  0  0
   48.4580   17.7840  112.8380 N   0  0  0  0  0
   48.9760   18.7940  113.7660 C   0  0  0  0  0
   48.7540   18.3140  115.2050 C   0  0  0  0  0
   47.5910   18.1630  115.6090 O   0  0  0  0  0
   48.3370   20.1970  113.6000 C   0  0  0  0  0
   48.5690   21.0130  112.3450 C   0  0  0  0  0
   47.7240   22.2690  112.3750 C   0  0  0  0  0
   50.0360   21.3720  112.1460 C   0  0  0  0  0
   49.8280   18.0910  116.0030 N   0  0  0  0  0
   49.6260   17.6710  117.3990 C   0  0  0  0  0
   49.1620   18.8480  118.2620 C   0  0  0  0  0
   49.9670   19.5990  118.8190 O   0  0  0  0  0
   51.0070   17.1510  117.8110 C   0  0  0  0  0
   51.9620   17.9380  116.9770 C   0  0  0  0  0
   51.2630   18.2230  115.6770 C   0  0  0  0  0
   47.8490   19.0190  118.3470 N   0  0  0  0  0
   47.2400   20.1010  119.1160 C   0  0  0  0  0
   46.7830   19.6020  120.4860 C   0  0  0  0  0
   46.1020   18.5670  120.5870 O   0  0  0  0  0
   46.0650   20.7360  118.3440 C   0  0  0  0  0
   46.3270   21.0860  116.8730 C   0  0  0  0  0
   45.0340   21.3260  116.1280 C   0  0  0  0  0
   47.2790   22.2590  116.7340 C   0  0  0  0  0
   47.1660   20.3440  121.5420 N   0  0  0  0  0
   46.8000   20.0360  122.9230 C   0  0  0  0  0
   45.4020   20.5720  123.2460 C   0  0  0  0  0
   44.9770   21.5850  122.6890 O   0  0  0  0  0
   47.8250   20.6230  123.8780 C   0  0  0  0  0
   44.6860   19.9960  124.0670 O   0  0  0  0  0
   47.1149   16.3094   95.4180 H   0  0  0  0  0
   46.1886   16.1178   94.0155 H   0  0  0  0  0
   44.4802   15.5140   95.2701 H   0  0  0  0  0
   44.9203   13.1938   94.8988 H   0  0  0  0  0
   45.3450   13.1959   96.5795 H   0  0  0  0  0
   47.1354   12.4689   94.7208 H   0  0  0  0  0
   47.6427   13.3314   96.1550 H   0  0  0  0  0
   48.5103   14.8103   94.5381 H   0  0  0  0  0
   47.3677   14.3604   93.3447 H   0  0  0  0  0
   43.4542   15.5357   97.2230 H   0  0  0  0  0
   44.3099   17.3341   99.1910 H   0  0  0  0  0
   42.5156   15.0159   99.8388 H   0  0  0  0  0
   42.0017   16.3621   98.7082 H   0  0  0  0  0
   42.2692   17.9532  100.4717 H   0  0  0  0  0
   42.8333   16.6483  101.5915 H   0  0  0  0  0
   40.1718   16.4565  100.2459 H   0  0  0  0  0
   40.3907   17.4849  101.7223 H   0  0  0  0  0
   41.0176   15.4805  102.9406 H   0  0  0  0  0
   39.0319   13.3273  100.1445 H   0  0  0  0  0
   39.5398   14.9767   99.7665 H   0  0  0  0  0
   40.3616   13.3590  103.4030 H   0  0  0  0  0
   47.3147   14.6456  101.1507 H   0  0  0  0  0
   48.7885   16.5867  101.2074 H   0  0  0  0  0
   48.4927   16.4379  102.8981 H   0  0  0  0  0
   47.8786   18.6920  101.6142 H   0  0  0  0  0
   46.8592   18.1083  102.9220 H   0  0  0  0  0
   45.1761   18.1889  101.3074 H   0  0  0  0  0
   46.2835   18.1793   99.9978 H   0  0  0  0  0
   47.9551   13.6954  103.0723 H   0  0  0  0  0
   45.8245   13.6475  105.2342 H   0  0  0  0  0
   45.5857   11.7053  104.0889 H   0  0  0  0  0
   46.3192   10.1882  105.7297 H   0  0  0  0  0
   47.5631   11.5849  102.7227 H   0  0  0  0  0
   48.5712   11.2357  104.1486 H   0  0  0  0  0
   47.3462   10.0587  103.6143 H   0  0  0  0  0
   46.8878   15.4719  106.1532 H   0  0  0  0  0
   49.5599   15.0102  107.4219 H   0  0  0  0  0
   49.1422   17.6399  107.6649 H   0  0  0  0  0
   48.1880   17.2414  106.0819 H   0  0  0  0  0
   51.0960   17.3151  106.6707 H   0  0  0  0  0
   50.7233   15.1807  105.5794 H   0  0  0  0  0
   49.7644   15.9722  104.3046 H   0  0  0  0  0
   51.5052   16.3165  104.4525 H   0  0  0  0  0
   49.3211   18.4273  104.4525 H   0  0  0  0  0
   50.0288   19.3588  105.7951 H   0  0  0  0  0
   51.0855   18.6472  104.5509 H   0  0  0  0  0
   49.9252   15.8717  109.5757 H   0  0  0  0  0
   47.4290   16.2374  111.1225 H   0  0  0  0  0
   48.6220   14.8191  112.9671 H   0  0  0  0  0
   49.5898   14.1766  111.5440 H   0  0  0  0  0
   47.9350   12.6062  111.9332 H   0  0  0  0  0
   47.3088   13.6570  110.5513 H   0  0  0  0  0
   45.4302   13.9623  114.2348 H   0  0  0  0  0
   47.1926   13.8596  114.1678 H   0  0  0  0  0
   47.4522   17.6144  112.8423 H   0  0  0  0  0
   50.0352   18.9070  113.5349 H   0  0  0  0  0
   48.7932   20.7917  114.3914 H   0  0  0  0  0
   47.2647   20.0014  113.5950 H   0  0  0  0  0
   48.2723   20.3926  111.4993 H   0  0  0  0  0
   46.6706   21.9953  112.4340 H   0  0  0  0  0
   47.9947   22.8668  113.2453 H   0  0  0  0  0
   47.9006   22.8459  111.4672 H   0  0  0  0  0
   50.3841   21.9574  112.9970 H   0  0  0  0  0
   50.6248   20.4582  112.0667 H   0  0  0  0  0
   50.1450   21.9564  111.2324 H   0  0  0  0  0
   48.8491   16.9164  117.5216 H   0  0  0  0  0
   51.1069   16.0781  117.6468 H   0  0  0  0  0
   51.1920   17.2791  118.8775 H   0  0  0  0  0
   52.8835   17.3804  116.8094 H   0  0  0  0  0
   52.2449   18.8638  117.4780 H   0  0  0  0  0
   51.5075   19.2104  115.2855 H   0  0  0  0  0
   51.5703   17.5396  114.8854 H   0  0  0  0  0
   47.2388   18.3669  117.8542 H   0  0  0  0  0
   47.9960   20.8711  119.2691 H   0  0  0  0  0
   45.8466   21.6787  118.8458 H   0  0  0  0  0
   45.2671   19.9934  118.3416 H   0  0  0  0  0
   46.8146   20.2251  116.4156 H   0  0  0  0  0
   44.4210   20.4256  116.1674 H   0  0  0  0  0
   44.4970   22.1533  116.5920 H   0  0  0  0  0
   45.2549   21.5716  115.0892 H   0  0  0  0  0
   46.8500   23.1334  117.2233 H   0  0  0  0  0
   48.2313   22.0098  117.2020 H   0  0  0  0  0
   47.4372   22.4736  115.6771 H   0  0  0  0  0
   47.7436   21.1667  121.3687 H   0  0  0  0  0
   46.7857   18.9528  123.0435 H   0  0  0  0  0
   48.8052   20.1971  123.6636 H   0  0  0  0  0
   47.8615   21.7048  123.7497 H   0  0  0  0  0
   47.5413   20.3868  124.9036 H   0  0  0  0  0
   45.1500   19.2301  124.4130 H   0  0  0  0  0
  1  2  1  0  0  0
  1  7  1  0  0  0
  2  3  1  0  0  0
  2  5  1  0  0  0
  3  4  2  0  0  0
  3  8  1  0  0  0
  5  6  1  0  0  0
  6  7  1  0  0  0
  8  9  1  0  0  0
  9 10  1  0  0  0
  9 12  1  0  0  0
 10 11  2  0  0  0
 10 19  1  0  0  0
 12 13  1  0  0  0
 13 14  1  0  0  0
 14 15  1  0  0  0
 15 16  1  0  0  0
 16 17  1  0  0  0
 16 18  2  0  0  0
 19 20  1  0  0  0
 19 25  1  0  0  0
 20 21  1  0  0  0
 20 23  1  0  0  0
 21 22  2  0  0  0
 21 26  1  0  0  0
 23 24  1  0  0  0
 24 25  1  0  0  0
 26 27  1  0  0  0
 27 28  1  0  0  0
 27 30  1  0  0  0
 28 29  2  0  0  0
 28 33  1  0  0  0
 30 31  1  0  0  0
 30 32  1  0  0  0
 33 34  1  0  0  0
 34 35  1  0  0  0
 34 37  1  0  0  0
 35 36  2  0  0  0
 35 41  1  0  0  0
 37 38  1  0  0  0
 38 39  1  0  0  0
 38 40  1  0  0  0
 41 42  1  0  0  0
 42 43  1  0  0  0
 42 45  1  0  0  0
 43 44  2  0  0  0
 43 50  1  0  0  0
 45 46  1  0  0  0
 46 47  1  0  0  0
 47 48  2  0  0  0
 47 49  1  0  0  0
 50 51  1  0  0  0
 51 52  1  0  0  0
 51 54  1  0  0  0
 52 53  2  0  0  0
 52 58  1  0  0  0
 54 55  1  0  0  0
 55 56  1  0  0  0
 55 57  1  0  0  0
 58 59  1  0  0  0
 58 64  1  0  0  0
 59 60  1  0  0  0
 59 62  1  0  0  0
 60 61  2  0  0  0
 60 65  1  0  0  0
 62 63  1  0  0  0
 63 64  1  0  0  0
 65 66  1  0  0  0
 66 67  1  0  0  0
 66 69  1  0  0  0
 67 68  2  0  0  0
 67 73  1  0  0  0
 69 70  1  0  0  0
 70 71  1  0  0  0
 70 72  1  0  0  0
 73 74  1  0  0  0
 74 75  1  0  0  0
 74 77  1  0  0  0
 75 76  2  0  0  0
 75 78  1  0  0  0
  1 79  1  0  0  0
  1 80  1  0  0  0
  2 81  1  0  0  0
  5 82  1  0  0  0
  5 83  1  0  0  0
  6 84  1  0  0  0
  6 85  1  0  0  0
  7 86  1  0  0  0
  7 87  1  0  0  0
  8 88  1  0  0  0
  9 89  1  0  0  0
 12 90  1  0  0  0
 12 91  1  0  0  0
 13 92  1  0  0  0
 13 93  1  0  0  0
 14 94  1  0  0  0
 14 95  1  0  0  0
 15 96  1  0  0  0
 17 97  1  0  0  0
 17 98  1  0  0  0
 18 99  1  0  0  0
 20100  1  0  0  0
 23101  1  0  0  0
 23102  1  0  0  0
 24103  1  0  0  0
 24104  1  0  0  0
 25105  1  0  0  0
 25106  1  0  0  0
 26107  1  0  0  0
 27108  1  0  0  0
 30109  1  0  0  0
 31110  1  0  0  0
 32111  1  0  0  0
 32112  1  0  0  0
 32113  1  0  0  0
 33114  1  0  0  0
 34115  1  0  0  0
 37116  1  0  0  0
 37117  1  0  0  0
 38118  1  0  0  0
 39119  1  0  0  0
 39120  1  0  0  0
 39121  1  0  0  0
 40122  1  0  0  0
 40123  1  0  0  0
 40124  1  0  0  0
 41125  1  0  0  0
 42126  1  0  0  0
 45127  1  0  0  0
 45128  1  0  0  0
 46129  1  0  0  0
 46130  1  0  0  0
 49131  1  0  0  0
 49132  1  0  0  0
 50133  1  0  0  0
 51134  1  0  0  0
 54135  1  0  0  0
 54136  1  0  0  0
 55137  1  0  0  0
 56138  1  0  0  0
 56139  1  0  0  0
 56140  1  0  0  0
 57141  1  0  0  0
 57142  1  0  0  0
 57143  1  0  0  0
 59144  1  0  0  0
 62145  1  0  0  0
 62146  1  0  0  0
 63147  1  0  0  0
 63148  1  0  0  0
 64149  1  0  0  0
 64150  1  0  0  0
 65151  1  0  0  0
 66152  1  0  0  0
 69153  1  0  0  0
 69154  1  0  0  0
 70155  1  0  0  0
 71156  1  0  0  0
 71157  1  0  0  0
 71158  1  0  0  0
 72159  1  0  0  0
 72160  1  0  0  0
 72161  1  0  0  0
 73162  1  0  0  0
 74163  1  0  0  0
 77164  1  0  0  0
 77165  1  0  0  0
 77166  1  0  0  0
 78167  1  0  0  0
M  END
$$$$
