6fgq_ligand
  -I-interpret- 

 64 67  0  0  0  0  0  0  0  0999 V2000
  -27.1400  -18.7550    1.2640 C   0  0  0  0  0
  -26.0630  -18.9200    0.4180 C   0  0  0  0  0
  -29.9300  -22.5100   -2.6880 C   0  0  0  0  0
  -19.0890  -20.9470   -0.3530 C   0  0  0  0  0
  -17.7690  -21.5040   -2.2710 C   0  0  0  0  0
  -18.7090  -22.1200    0.2540 C   0  0  0  0  0
  -17.3670  -22.6770   -1.6530 C   0  0  0  0  0
  -23.7580  -18.8800   -1.3030 C   0  0  0  0  0
  -28.3880  -18.6180    0.6950 C   0  0  0  0  0
  -25.0610  -19.6420   -3.0440 C   0  0  0  0  0
  -26.2580  -18.9470   -0.9520 C   0  0  0  0  0
  -25.0780  -19.1300   -1.7600 C   0  0  0  0  0
  -31.1250  -22.5720   -3.3750 C   0  0  0  0  0
  -17.8500  -22.9750   -0.3950 C   0  0  0  0  0
  -27.5540  -18.8080   -1.4320 C   0  0  0  0  0
  -22.7830  -19.1960   -2.2200 C   0  0  0  0  0
  -31.8170  -23.8570   -3.4790 C   0  0  0  0  0
  -19.8510  -25.5010   -0.4280 C   0  0  0  0  0
  -29.1580  -18.8170   -3.1300 C   0  0  0  0  0
  -28.6170  -18.6390   -0.6250 N   0  0  0  0  0
  -31.6770  -21.4600   -3.9780 C   0  0  0  0  0
  -29.2810  -21.2940   -2.6100 C   0  0  0  0  0
  -31.0170  -20.2500   -3.8810 C   0  0  0  0  0
  -18.6210  -20.6340   -1.6140 C   0  0  0  0  0
  -29.8140  -20.1620   -3.2070 C   0  0  0  0  0
  -20.4820  -19.6260   -2.7790 C   0  0  0  0  0
  -32.6020  -24.9630   -1.6490 C   0  0  0  0  0
  -19.0800  -19.3810   -2.2770 C   0  0  0  0  0
  -18.3780  -25.8080   -0.2140 C   0  0  0  0  0
  -21.4290  -19.0350   -1.9920 N   0  0  0  0  0
  -31.5150  -24.7190   -4.2950 O   0  0  0  0  0
  -20.6970  -20.3410   -3.7450 O   0  0  0  0  0
  -17.6350  -24.3680    1.8320 O   0  0  0  0  0
  -16.0140  -24.7300   -0.1020 O   0  0  0  0  0
  -27.7640  -18.8650   -2.8170 O   0  0  0  0  0
  -32.8110  -23.8780   -2.5530 O   0  0  0  0  0
  -23.4700  -19.7990   -3.6940 S   0  0  0  0  0
  -17.3470  -24.4870    0.4170 S   0  0  0  0  0
  -27.0086  -18.7337    2.3458 H   0  0  0  0  0
  -25.0590  -19.0290    0.8282 H   0  0  0  0  0
  -29.5089  -23.3990   -2.2185 H   0  0  0  0  0
  -19.7618  -20.2616    0.1624 H   0  0  0  0  0
  -17.4144  -21.2667   -3.2740 H   0  0  0  0  0
  -19.0868  -22.3712    1.2451 H   0  0  0  0  0
  -16.6776  -23.3563   -2.1543 H   0  0  0  0  0
  -23.5371  -18.4746   -0.3156 H   0  0  0  0  0
  -29.2413  -18.4843    1.3599 H   0  0  0  0  0
  -25.9622  -19.9188   -3.5911 H   0  0  0  0  0
  -20.3014  -25.2085    0.5205 H   0  0  0  0  0
  -19.9506  -24.6865   -1.1455 H   0  0  0  0  0
  -20.3538  -26.3886   -0.8120 H   0  0  0  0  0
  -29.6495  -18.2637   -2.3298 H   0  0  0  0  0
  -29.2523  -18.3553   -4.1129 H   0  0  0  0  0
  -32.6185  -21.5351   -4.5220 H   0  0  0  0  0
  -28.3361  -21.2229   -2.0714 H   0  0  0  0  0
  -31.4479  -19.3596   -4.3389 H   0  0  0  0  0
  -32.6032  -25.9015   -2.2034 H   0  0  0  0  0
  -31.6423  -24.8369   -1.1477 H   0  0  0  0  0
  -33.4014  -24.9761   -0.9081 H   0  0  0  0  0
  -18.4179  -19.1201   -3.1026 H   0  0  0  0  0
  -19.0653  -18.5483   -1.5738 H   0  0  0  0  0
  -17.9802  -26.0473   -1.2002 H   0  0  0  0  0
  -18.3470  -26.5930    0.5416 H   0  0  0  0  0
  -21.1269  -18.4550   -1.2092 H   0  0  0  0  0
  2  1  4  0  0  0
  1  9  4  0  0  0
 11  2  4  0  0  0
  3 13  4  0  0  0
 22  3  4  0  0  0
  6  4  4  0  0  0
  4 24  4  0  0  0
  7  5  4  0  0  0
  5 24  4  0  0  0
 14  6  4  0  0  0
 14  7  4  0  0  0
  8 12  4  0  0  0
 16  8  4  0  0  0
 20  9  4  0  0  0
 10 12  4  0  0  0
 37 10  4  0  0  0
 12 11  1  0  0  0
 11 15  4  0  0  0
 13 17  1  0  0  0
 21 13  4  0  0  0
 38 14  1  0  0  0
 15 20  4  0  0  0
 15 35  1  0  0  0
 30 16  1  0  0  0
 16 37  4  0  0  0
 17 31  2  0  0  0
 17 36  1  0  0  0
 29 18  1  0  0  0
 19 25  1  0  0  0
 35 19  1  0  0  0
 23 21  4  0  0  0
 25 22  4  0  0  0
 25 23  4  0  0  0
 24 28  1  0  0  0
 28 26  1  0  0  0
 26 30  1  0  0  0
 26 32  2  0  0  0
 36 27  1  0  0  0
 29 38  1  0  0  0
 38 33  2  0  0  0
 38 34  2  0  0  0
  1 39  1  0  0  0
  2 40  1  0  0  0
  3 41  1  0  0  0
  4 42  1  0  0  0
  5 43  1  0  0  0
  6 44  1  0  0  0
  7 45  1  0  0  0
  8 46  1  0  0  0
  9 47  1  0  0  0
 10 48  1  0  0  0
 18 49  1  0  0  0
 18 50  1  0  0  0
 18 51  1  0  0  0
 19 52  1  0  0  0
 19 53  1  0  0  0
 21 54  1  0  0  0
 22 55  1  0  0  0
 23 56  1  0  0  0
 27 57  1  0  0  0
 27 58  1  0  0  0
 27 59  1  0  0  0
 28 60  1  0  0  0
 28 61  1  0  0  0
 29 62  1  0  0  0
 29 63  1  0  0  0
 30 64  1  0  0  0
M  END
$$$$
