3cy2_ligand
  -I-interpret- 

 41 44  0  0  0  0  0  0  0  0999 V2000
  -15.2530   33.8740   -0.9240 C   0  0  0  0  0
  -14.2000   33.6230   -2.0040 C   0  0  0  0  0
  -13.4230   34.8480   -2.3740 N   0  3  0  0  0
  -14.2590   36.0250   -2.6530 C   0  0  0  0  0
  -15.2080   36.3140   -1.4960 C   0  0  0  0  0
  -16.0930   35.0950   -1.1610 C   0  0  0  0  0
  -16.8920   34.8570   -2.3860 N   0  0  0  0  0
  -17.9550   35.6860   -2.6860 C   0  0  0  0  0
  -18.5440   35.4660   -3.7410 O   0  0  0  0  0
  -18.5060   36.5040   -1.7050 C   0  0  0  0  0
  -19.4870   37.4110   -1.7260 N   0  0  0  0  0
  -20.1970   37.8450   -2.9460 C   0  0  0  0  0
  -19.7150   37.9170   -0.5110 C   0  0  0  0  0
  -20.5910   38.9050   -0.0520 C   0  0  0  0  0
  -20.5930   39.2020    1.3070 C   0  0  0  0  0
  -21.7020   40.4050    1.8770 Cl  0  0  0  0  0
  -19.7360   38.5580    2.2070 C   0  0  0  0  0
  -18.8340   37.6140    1.7360 C   0  0  0  0  0
  -18.8260   37.2980    0.3820 C   0  0  0  0  0
  -18.0600   36.4020   -0.3700 C   0  0  0  0  0
  -16.9520   35.4290    0.0470 C   0  0  0  0  0
  -17.5610   34.2210    0.6310 C   0  0  0  0  0
  -18.0560   33.2890    1.0380 N   0  0  0  0  0
  -14.7220   34.0247    0.0159 H   0  0  0  0  0
  -15.9245   33.0154   -0.9219 H   0  0  0  0  0
  -14.7218   33.2826   -2.8984 H   0  0  0  0  0
  -13.4933   32.8926   -1.6100 H   0  0  0  0  0
  -12.9082   34.6333   -3.2280 H   0  0  0  0  0
  -12.8285   35.0809   -1.5786 H   0  0  0  0  0
  -14.8505   35.8275   -3.5470 H   0  0  0  0  0
  -13.6085   36.8883   -2.7933 H   0  0  0  0  0
  -15.8581   37.1398   -1.7848 H   0  0  0  0  0
  -14.6115   36.5559   -0.6164 H   0  0  0  0  0
  -16.6573   34.0823   -3.0066 H   0  0  0  0  0
  -19.4826   38.2785   -3.6458 H   0  0  0  0  0
  -20.6833   36.9853   -3.4071 H   0  0  0  0  0
  -20.9474   38.5904   -2.6824 H   0  0  0  0  0
  -21.2545   39.4285   -0.7403 H   0  0  0  0  0
  -19.7767   38.7961    3.2699 H   0  0  0  0  0
  -18.1397   37.1259    2.4199 H   0  0  0  0  0
  -16.3100   35.8840    0.8012 H   0  0  0  0  0
  1  2  1  0  0  0
  1  6  1  0  0  0
  2  3  1  0  0  0
  3  4  1  0  0  0
  4  5  1  0  0  0
  5  6  1  0  0  0
  6  7  1  0  0  0
  6 21  1  0  0  0
  7  8  1  0  0  0
  8  9  2  0  0  0
  8 10  1  0  0  0
 10 11  4  0  0  0
 10 20  4  0  0  0
 11 12  1  0  0  0
 11 13  4  0  0  0
 13 14  4  0  0  0
 13 19  4  0  0  0
 14 15  4  0  0  0
 15 16  1  0  0  0
 15 17  4  0  0  0
 17 18  4  0  0  0
 18 19  4  0  0  0
 19 20  4  0  0  0
 20 21  1  0  0  0
 21 22  1  0  0  0
 22 23  3  0  0  0
  1 24  1  0  0  0
  1 25  1  0  0  0
  2 26  1  0  0  0
  2 27  1  0  0  0
  3 28  1  0  0  0
  3 29  1  0  0  0
  4 30  1  0  0  0
  4 31  1  0  0  0
  5 32  1  0  0  0
  5 33  1  0  0  0
  7 34  1  0  0  0
 12 35  1  0  0  0
 12 36  1  0  0  0
 12 37  1  0  0  0
 14 38  1  0  0  0
 17 39  1  0  0  0
 18 40  1  0  0  0
 21 41  1  0  0  0
M  END
$$$$
