4djx_ligand
  -I-interpret- 

 41 44  0  0  0  0  0  0  0  0999 V2000
   22.5500   11.8310   22.8170 C   0  0  0  0  0
   22.3730   10.6620   21.8140 C   0  0  0  0  0
   22.5910    9.4540   22.6840 N   0  0  0  0  0
   22.7060    9.8770   23.9680 C   0  0  0  0  0
   22.7440   11.2800   24.0610 N   0  0  0  0  0
   22.8490    9.1120   25.0430 N   0  0  0  0  0
   22.9510   12.0640   25.2770 C   0  0  0  0  0
   22.5400   13.0220   22.5650 O   0  0  0  0  0
   23.4570   10.7360   20.7400 C   0  0  0  0  0
   20.9140   10.7470   21.3480 C   0  0  0  0  0
   23.1270   10.9510   19.4040 C   0  0  0  0  0
   24.1210   11.1010   18.4510 C   0  0  0  0  0
   25.4530   11.0630   18.8270 C   0  0  0  0  0
   25.8130   10.8510   20.1640 C   0  0  0  0  0
   24.8020   10.6620   21.1060 C   0  0  0  0  0
   27.2440   10.8520   20.5880 C   0  0  0  0  0
   28.1840   11.7050   20.0240 C   0  0  0  0  0
   29.8270   11.0800   21.5030 C   0  0  0  0  0
   27.6670   10.0400   21.6440 C   0  0  0  0  0
   29.4450   11.8280   20.4560 N   0  0  0  0  0
   20.2010    9.4730   20.9960 C   0  0  0  0  0
   19.7710   10.2720   22.1860 C   0  0  0  0  0
   28.9610   10.1830   22.0930 C   0  0  0  0  0
   29.5100    9.2030   23.4200 Cl  0  0  0  0  0
   22.6432    8.4867   22.3646 H   0  0  0  0  0
   22.9896    9.5397   25.9583 H   0  0  0  0  0
   22.1596   11.8390   25.9920 H   0  0  0  0  0
   23.9179   11.8099   25.7114 H   0  0  0  0  0
   22.9293   13.1257   25.0313 H   0  0  0  0  0
   21.1378   11.6951   20.8590 H   0  0  0  0  0
   22.0796   11.0016   19.1064 H   0  0  0  0  0
   23.8544   11.2490   17.4045 H   0  0  0  0  0
   26.2298   11.1995   18.0746 H   0  0  0  0  0
   25.0659   10.4535   22.1428 H   0  0  0  0  0
   27.8747   12.3138   19.1744 H   0  0  0  0  0
   30.8393   11.1832   21.8939 H   0  0  0  0  0
   26.9924    9.3147   22.0989 H   0  0  0  0  0
   20.4443    8.4400   20.7475 H   0  0  0  0  0
   19.7534    8.9994   20.1222 H   0  0  0  0  0
   18.8498   10.6715   22.6101 H   0  0  0  0  0
   19.5455   10.1081   23.2398 H   0  0  0  0  0
  1  2  1  0  0  0
  1  5  1  0  0  0
  1  8  2  0  0  0
  2  3  1  0  0  0
  2  9  1  0  0  0
  2 10  1  0  0  0
  3  4  1  0  0  0
  4  5  4  0  0  0
  4  6  2  0  0  0
  5  7  1  0  0  0
  9 11  4  0  0  0
  9 15  4  0  0  0
 10 21  1  0  0  0
 10 22  1  0  0  0
 11 12  4  0  0  0
 12 13  4  0  0  0
 13 14  4  0  0  0
 14 15  4  0  0  0
 14 16  1  0  0  0
 16 17  4  0  0  0
 16 19  4  0  0  0
 17 20  4  0  0  0
 20 18  4  0  0  0
 18 23  4  0  0  0
 19 23  4  0  0  0
 21 22  1  0  0  0
 23 24  1  0  0  0
  3 25  1  0  0  0
  6 26  1  0  0  0
  7 27  1  0  0  0
  7 28  1  0  0  0
  7 29  1  0  0  0
 10 30  1  0  0  0
 11 31  1  0  0  0
 12 32  1  0  0  0
 13 33  1  0  0  0
 15 34  1  0  0  0
 17 35  1  0  0  0
 18 36  1  0  0  0
 19 37  1  0  0  0
 21 38  1  0  0  0
 21 39  1  0  0  0
 22 40  1  0  0  0
 22 41  1  0  0  0
M  END
$$$$
