4eg6_ligand
  -I-interpret- 

 55 59  0  0  0  0  0  0  0  0999 V2000
  -41.1970  -16.4830   -6.9680 Cl  0  0  0  0  0
  -40.1100  -15.1480   -7.0030 C   0  0  0  0  0
  -38.7440  -15.3350   -7.1320 C   0  0  0  0  0
  -37.9010  -14.2240   -7.1680 C   0  0  0  0  0
  -36.5590  -14.3670   -7.2930 O   0  0  0  0  0
  -36.1660  -15.6620   -6.8640 C   0  0  0  0  0
  -38.4370  -12.9450   -7.0890 C   0  0  0  0  0
  -39.8090  -12.7690   -6.9550 C   0  0  0  0  0
  -40.6420  -13.8810   -6.9220 C   0  0  0  0  0
  -41.9870  -13.7720   -6.7770 O   0  0  0  0  0
  -42.7500  -13.5470   -7.8700 C   0  0  0  0  0
  -42.2420  -13.1530   -9.1130 C   0  0  0  0  0
  -44.0670  -13.6970   -7.7210 N   0  0  0  0  0
  -44.8970  -13.4770   -8.7490 C   0  0  0  0  0
  -46.2600  -13.6590   -8.5810 N   0  0  0  0  0
  -46.8070  -13.8120   -7.2070 C   0  0  0  0  0
  -47.1130  -13.7490   -9.8000 C   0  0  0  0  0
  -48.5220  -13.3020   -9.4580 C   0  0  0  0  0
  -48.9970  -14.2030   -8.3850 N   0  0  0  0  0
  -48.1730  -14.4650   -7.2850 C   0  0  0  0  0
  -48.5580  -15.2060   -6.3870 O   0  0  0  0  0
  -44.4400  -13.1070   -9.9490 N   0  0  0  0  0
  -43.1360  -12.9400  -10.1570 C   0  0  0  0  0
  -42.7170  -12.5710  -11.3560 N   0  0  0  0  0
  -43.6600  -12.4520  -12.4800 C   0  0  0  0  0
  -43.6800  -13.7170  -13.3230 C   0  0  0  0  0
  -44.7540  -14.1810  -13.9490 N   0  0  0  0  0
  -44.4220  -15.3010  -14.5820 C   0  0  0  0  0
  -45.1520  -16.1840  -15.3730 C   0  0  0  0  0
  -44.5170  -17.2940  -15.9180 C   0  0  0  0  0
  -43.1630  -17.5150  -15.6640 C   0  0  0  0  0
  -42.4340  -16.6300  -14.8780 C   0  0  0  0  0
  -43.0750  -15.5270  -14.3330 C   0  0  0  0  0
  -42.6540  -14.5360  -13.5590 N   0  0  0  0  0
  -38.3311  -16.3412   -7.2048 H   0  0  0  0  0
  -36.4457  -15.7977   -5.8193 H   0  0  0  0  0
  -36.6656  -16.4132   -7.4757 H   0  0  0  0  0
  -35.0860  -15.7659   -6.9688 H   0  0  0  0  0
  -37.7795  -12.0767   -7.1322 H   0  0  0  0  0
  -40.2287  -11.7661   -6.8764 H   0  0  0  0  0
  -41.1706  -13.0162   -9.2596 H   0  0  0  0  0
  -46.8958  -12.8325   -6.7371 H   0  0  0  0  0
  -46.1371  -14.4342   -6.6135 H   0  0  0  0  0
  -47.1327  -14.7786  -10.1571 H   0  0  0  0  0
  -46.7048  -13.1063  -10.5800 H   0  0  0  0  0
  -49.1724  -13.3564  -10.3310 H   0  0  0  0  0
  -48.5339  -12.2626   -9.1299 H   0  0  0  0  0
  -49.9207  -14.6311   -8.4468 H   0  0  0  0  0
  -41.7287  -12.3665  -11.5036 H   0  0  0  0  0
  -43.3443  -11.6207  -13.1104 H   0  0  0  0  0
  -44.6596  -12.2882  -12.0775 H   0  0  0  0  0
  -46.2106  -16.0068  -15.5630 H   0  0  0  0  0
  -45.0760  -17.9906  -16.5428 H   0  0  0  0  0
  -42.6714  -18.3913  -16.0865 H   0  0  0  0  0
  -41.3735  -16.8003  -14.6925 H   0  0  0  0  0
  1  2  1  0  0  0
  2  3  4  0  0  0
  2  9  4  0  0  0
  3  4  4  0  0  0
  4  5  1  0  0  0
  4  7  4  0  0  0
  5  6  1  0  0  0
  7  8  4  0  0  0
  8  9  4  0  0  0
  9 10  1  0  0  0
 10 11  1  0  0  0
 11 12  4  0  0  0
 11 13  4  0  0  0
 12 23  4  0  0  0
 13 14  4  0  0  0
 14 15  1  0  0  0
 14 22  4  0  0  0
 15 16  1  0  0  0
 15 17  1  0  0  0
 16 20  1  0  0  0
 17 18  1  0  0  0
 18 19  1  0  0  0
 19 20  1  0  0  0
 20 21  2  0  0  0
 22 23  4  0  0  0
 23 24  1  0  0  0
 24 25  1  0  0  0
 25 26  1  0  0  0
 26 27  4  0  0  0
 26 34  4  0  0  0
 27 28  4  0  0  0
 28 29  4  0  0  0
 28 33  4  0  0  0
 29 30  4  0  0  0
 30 31  4  0  0  0
 31 32  4  0  0  0
 32 33  4  0  0  0
 33 34  4  0  0  0
  3 35  1  0  0  0
  6 36  1  0  0  0
  6 37  1  0  0  0
  6 38  1  0  0  0
  7 39  1  0  0  0
  8 40  1  0  0  0
 12 41  1  0  0  0
 16 42  1  0  0  0
 16 43  1  0  0  0
 17 44  1  0  0  0
 17 45  1  0  0  0
 18 46  1  0  0  0
 18 47  1  0  0  0
 19 48  1  0  0  0
 24 49  1  0  0  0
 25 50  1  0  0  0
 25 51  1  0  0  0
 29 52  1  0  0  0
 30 53  1  0  0  0
 31 54  1  0  0  0
 32 55  1  0  0  0
M  END
$$$$
