5gv2_ligand
  -I-interpret- 

 27 26  0  0  0  0  0  0  0  0999 V2000
   23.6900   -7.2270   53.8560 N   0  3  0  0  0
   24.8810   -6.4750   54.3450 C   0  0  0  0  0
   24.6250   -5.9570   55.7850 C   0  0  0  0  0
   23.5450   -6.0810   56.3300 O   0  0  0  0  0
   25.2680   -5.3030   53.4100 C   0  0  0  0  0
   25.3220   -5.6610   51.9290 C   0  0  0  0  0
   26.4720   -6.5940   51.6160 C   0  0  0  0  0
   26.1770   -7.4280   50.4820 N   0  0  0  0  0
   26.1320   -7.0330   49.2160 C   0  0  0  0  0
   26.4330   -5.7880   48.8400 N   0  0  0  0  0
   25.7920   -7.9320   48.2940 N   0  0  0  0  0
   25.5040   -5.4000   56.4040 O   0  0  0  0  0
   23.4780   -7.9849   54.5049 H   0  0  0  0  0
   22.8914   -6.5953   53.7966 H   0  0  0  0  0
   23.8887   -7.6134   52.9332 H   0  0  0  0  0
   25.7233   -7.1669   54.3494 H   0  0  0  0  0
   22.9399   -6.5352   55.7391 H   0  0  0  0  0
   26.2708   -4.9861   53.6967 H   0  0  0  0  0
   24.4991   -4.5389   53.5240 H   0  0  0  0  0
   25.4626   -4.7420   51.3599 H   0  0  0  0  0
   24.3919   -6.1640   51.6646 H   0  0  0  0  0
   26.6439   -7.2342   52.4813 H   0  0  0  0  0
   27.3519   -5.9936   51.3847 H   0  0  0  0  0
   25.9850   -8.4124   50.6678 H   0  0  0  0  0
   26.4016   -5.5316   47.8533 H   0  0  0  0  0
   26.6944   -5.0931   49.5394 H   0  0  0  0  0
   25.5762   -8.8897   48.5707 H   0  0  0  0  0
  1  2  1  0  0  0
  2  3  1  0  0  0
  2  5  1  0  0  0
  3  4  1  0  0  0
  3 12  2  0  0  0
  5  6  1  0  0  0
  6  7  1  0  0  0
  7  8  1  0  0  0
  8  9  1  0  0  0
  9 10  1  0  0  0
  9 11  2  0  0  0
  1 13  1  0  0  0
  1 14  1  0  0  0
  1 15  1  0  0  0
  2 16  1  0  0  0
  4 17  1  0  0  0
  5 18  1  0  0  0
  5 19  1  0  0  0
  6 20  1  0  0  0
  6 21  1  0  0  0
  7 22  1  0  0  0
  7 23  1  0  0  0
  8 24  1  0  0  0
 10 25  1  0  0  0
 10 26  1  0  0  0
 11 27  1  0  0  0
M  END
$$$$
