### 
### Created by X-TOOL on Wed Jan  1 15:39:36 2020
### 

@<TRIPOS>MOLECULE
6a6w_ligand
  251   253     1     0     0
SMALL
GAST_HUCK


@<TRIPOS>ATOM
      1 N         -55.7430   37.6850   -2.2240 N.4       1 GLY         0.2357
      2 CA        -57.0480   37.2600   -1.7570 C.3       1 GLY         0.0547
      3 C         -57.3610   35.8570   -2.2260 C.2       1 GLY         0.2261
      4 O         -57.1310   34.8940   -1.4910 O.2       1 GLY        -0.3908
      5 N         -57.9070   35.7320   -3.4390 N.am      1 PRO        -0.2474
      6 CA        -57.9920   34.4130   -4.0790 C.3       1 PRO         0.1339
      7 C         -56.6460   33.7010   -4.2150 C.2       1 PRO         0.2041
      8 O         -56.6410   32.4910   -4.4810 O.2       1 PRO        -0.3944
      9 CB        -58.5900   34.7230   -5.4600 C.3       1 PRO        -0.0104
     10 CG        -59.2790   36.0440   -5.3160 C.3       1 PRO        -0.0281
     11 CD        -58.8680   36.6770   -4.0110 C.3       1 PRO         0.0370
     12 N         -55.5110   34.3910   -4.0450 N.am      1 LEU        -0.2637
     13 CA        -54.2220   33.7040   -4.1100 C.3       1 LEU         0.1312
     14 C         -53.9740   32.8230   -2.8920 C.2       1 LEU         0.2040
     15 O         -53.1310   31.9190   -2.9570 O.2       1 LEU        -0.3944
     16 CB        -53.0850   34.7160   -4.2400 C.3       1 LEU        -0.0101
     17 CG        -52.9820   35.4560   -5.5750 C.3       1 LEU        -0.0425
     18 CD1       -51.5440   35.8520   -5.8650 C.3       1 LEU        -0.0625
     19 CD2       -53.5530   34.6310   -6.7190 C.3       1 LEU        -0.0625
     20 N         -54.6900   33.0680   -1.7900 N.am      1 SER        -0.2616
     21 CA        -54.5230   32.2610   -0.5860 C.3       1 SER         0.1539
     22 C         -54.7880   30.7810   -0.8550 C.2       1 SER         0.2063
     23 O         -54.1520   29.9140   -0.2450 O.2       1 SER        -0.3943
     24 CB        -55.4530   32.7820    0.5140 C.3       1 SER         0.0843
     25 OG        -56.7060   33.1790   -0.0290 O.3       1 SER        -0.3903
     26 N         -55.7050   30.4760   -1.7730 N.am      1 ASP        -0.2621
     27 CA        -56.1040   29.1070   -2.0750 C.3       1 ASP         0.1423
     28 C         -55.3950   28.5120   -3.2870 C.2       1 ASP         0.2057
     29 O         -55.6970   27.3720   -3.6580 O.2       1 ASP        -0.3943
     30 CB        -57.6200   29.0260   -2.3040 C.3       1 ASP         0.0406
     31 CG        -58.4260   29.6340   -1.1700 C.2       1 ASP         0.0393
     32 OD1       -58.3440   29.1200   -0.0250 O.co2     1 ASP        -0.5688
     33 OD2       -59.1810   30.5930   -1.4370 O.co2     1 ASP        -0.5688
     34 N         -54.4850   29.2540   -3.9230 N.am      1 ASN        -0.2615
     35 CA        -53.7610   28.7140   -5.0720 C.3       1 ASN         0.1476
     36 C         -52.9850   27.4540   -4.7040 C.2       1 ASN         0.2063
     37 O         -53.0230   26.4560   -5.4340 O.2       1 ASN        -0.3942
     38 CB        -52.8100   29.7690   -5.6380 C.3       1 ASN         0.0773
     39 CG        -53.4810   30.6960   -6.6300 C.2       1 ASN         0.1780
     40 OD1       -54.6540   31.0470   -6.4870 O.2       1 ASN        -0.3970
     41 ND2       -52.7390   31.0820   -7.6600 N.am      1 ASN        -0.3007
     42 N         -52.2780   27.4790   -3.5710 N.am      1 GLU        -0.2635
     43 CA        -51.3830   26.3730   -3.2440 C.3       1 GLU         0.1325
     44 C         -52.1530   25.0980   -2.9180 C.2       1 GLU         0.2040
     45 O         -51.8130   24.0210   -3.4240 O.2       1 GLU        -0.3944
     46 CB        -50.4550   26.7680   -2.0930 C.3       1 GLU        -0.0008
     47 CG        -49.1760   27.4610   -2.5470 C.3       1 GLU         0.0044
     48 CD        -48.1160   26.4750   -3.0030 C.2       1 GLU         0.0350
     49 OE1       -47.9330   25.4460   -2.3180 O.co2     1 GLU        -0.5690
     50 OE2       -47.4760   26.7200   -4.0480 O.co2     1 GLU        -0.5690
     51 N         -53.2030   25.1930   -2.0980 N.am      1 GLU        -0.2636
     52 CA        -53.9130   23.9780   -1.7120 C.3       1 GLU         0.1325
     53 C         -54.7090   23.4090   -2.8780 C.2       1 GLU         0.2041
     54 O         -54.8630   22.1880   -2.9890 O.2       1 GLU        -0.3944
     55 CB        -54.8140   24.2260   -0.4990 C.3       1 GLU        -0.0008
     56 CG        -56.1600   24.8810   -0.7390 C.3       1 GLU         0.0044
     57 CD        -56.6650   25.5740    0.5180 C.2       1 GLU         0.0350
     58 OE1       -57.4240   24.9370    1.2830 O.co2     1 GLU        -0.5690
     59 OE2       -56.2970   26.7480    0.7480 O.co2     1 GLU        -0.5690
     60 N         -55.2080   24.2680   -3.7670 N.am      1 PHE        -0.2619
     61 CA        -55.8590   23.7570   -4.9640 C.3       1 PHE         0.1404
     62 C         -54.8780   22.9620   -5.8120 C.2       1 PHE         0.2060
     63 O         -55.1800   21.8480   -6.2540 O.2       1 PHE        -0.3942
     64 CB        -56.4620   24.8940   -5.7850 C.3       1 PHE         0.0214
     65 CG        -57.0700   24.4260   -7.0750 C.ar      1 PHE        -0.0386
     66 CD1       -58.2550   23.7050   -7.0690 C.ar      1 PHE        -0.0601
     67 CD2       -56.4450   24.6700   -8.2890 C.ar      1 PHE        -0.0601
     68 CE1       -58.8190   23.2570   -8.2500 C.ar      1 PHE        -0.0686
     69 CE2       -57.0050   24.2180   -9.4830 C.ar      1 PHE        -0.0686
     70 CZ        -58.1930   23.5090   -9.4610 C.ar      1 PHE        -0.0687
     71 N         -53.6920   23.5220   -6.0470 N.am      1 GLU        -0.2635
     72 CA        -52.7170   22.8410   -6.8890 C.3       1 GLU         0.1325
     73 C         -52.2520   21.5300   -6.2640 C.2       1 GLU         0.2041
     74 O         -52.0190   20.5540   -6.9840 O.2       1 GLU        -0.3944
     75 CB        -51.5330   23.7690   -7.1640 C.3       1 GLU        -0.0008
     76 CG        -50.3060   23.0830   -7.7360 C.3       1 GLU         0.0044
     77 CD        -49.3720   24.0540   -8.4360 C.2       1 GLU         0.0350
     78 OE1       -49.8700   25.0330   -9.0320 O.co2     1 GLU        -0.5690
     79 OE2       -48.1410   23.8530   -8.3770 O.co2     1 GLU        -0.5690
     80 N         -52.1290   21.4770   -4.9350 N.am      1 ASN        -0.2616
     81 CA        -51.7110   20.2370   -4.2880 C.3       1 ASN         0.1476
     82 C         -52.8120   19.1880   -4.3070 C.2       1 ASN         0.2063
     83 O         -52.5180   17.9880   -4.3610 O.2       1 ASN        -0.3942
     84 CB        -51.2680   20.4970   -2.8480 C.3       1 ASN         0.0773
     85 CG        -49.9310   21.2110   -2.7660 C.2       1 ASN         0.1780
     86 OD1       -49.6650   21.9390   -1.8120 O.2       1 ASN        -0.3970
     87 ND2       -49.0880   21.0150   -3.7780 N.am      1 ASN        -0.3007
     88 N         -54.0760   19.6110   -4.2420 N.am      1 VAL        -0.2633
     89 CA        -55.1770   18.6650   -4.3830 C.3       1 VAL         0.1333
     90 C         -55.2190   18.1160   -5.8020 C.2       1 VAL         0.2042
     91 O         -55.4720   16.9250   -6.0150 O.2       1 VAL        -0.3944
     92 CB        -56.5100   19.3290   -3.9900 C.3       1 VAL        -0.0063
     93 CG1       -57.6780   18.4750   -4.4420 C.3       1 VAL        -0.0584
     94 CG2       -56.5740   19.5400   -2.4930 C.3       1 VAL        -0.0584
     95 N         -54.9710   18.9710   -6.7940 N.am      1 VAL        -0.2635
     96 CA        -54.9740   18.5180   -8.1820 C.3       1 VAL         0.1332
     97 C         -53.8880   17.4730   -8.3980 C.2       1 VAL         0.2041
     98 O         -54.1290   16.4110   -8.9840 O.2       1 VAL        -0.3944
     99 CB        -54.8090   19.7140   -9.1370 C.3       1 VAL        -0.0063
    100 CG1       -54.5970   19.2330  -10.5540 C.3       1 VAL        -0.0584
    101 CG2       -56.0360   20.6130   -9.0720 C.3       1 VAL        -0.0584
    102 N         -52.6810   17.7430   -7.9010 N.am      1 LYS        -0.2637
    103 CA        -51.5430   16.9060   -8.2640 C.3       1 LYS         0.1310
    104 C         -51.3770   15.7030   -7.3420 C.2       1 LYS         0.2040
    105 O         -50.9490   14.6350   -7.7950 O.2       1 LYS        -0.3944
    106 CB        -50.2610   17.7370   -8.2950 C.3       1 LYS        -0.0122
    107 CG        -50.4200   19.0250   -9.0670 C.3       1 LYS        -0.0440
    108 CD        -49.2410   19.2980   -9.9840 C.3       1 LYS        -0.0124
    109 CE        -48.1170   19.9920   -9.2540 C.3       1 LYS        -0.0354
    110 NZ        -47.4730   21.0190  -10.1270 N.4       1 LYS         0.2185
    111 N         -51.7130   15.8460   -6.0580 N.am      1 ASN        -0.2616
    112 CA        -51.5070   14.7760   -5.0930 C.3       1 ASN         0.1476
    113 C         -52.7640   14.3500   -4.3480 C.2       1 ASN         0.2061
    114 O         -52.6930   13.4080   -3.5480 O.2       1 ASN        -0.3942
    115 CB        -50.4300   15.1840   -4.0770 C.3       1 ASN         0.0773
    116 CG        -49.1560   15.6730   -4.7500 C.2       1 ASN         0.1780
    117 OD1       -48.6920   16.7840   -4.4990 O.2       1 ASN        -0.3970
    118 ND2       -48.6030   14.8480   -5.6400 N.am      1 ASN        -0.3007
    119 N         -53.9050   14.9970   -4.5850 N.am      1 GLY        -0.2663
    120 CA        -55.1460   14.5970   -3.9510 C.3       1 GLY         0.1201
    121 C         -55.3180   15.0560   -2.5240 C.2       1 GLY         0.2003
    122 O         -56.2600   14.6080   -1.8580 O.2       1 GLY        -0.3947
    123 N         -54.4390   15.9260   -2.0340 N.am      1 HIS        -0.2685
    124 CA        -54.5250   16.4700   -0.6830 C.3       1 HIS         0.1003
    125 C         -53.4830   17.5690   -0.4860 C.2       1 HIS         0.0615
    126 O         -53.7960   18.6610   -0.0130 O.co2     1 HIS        -0.5665
    127 CB        -54.3360   15.3690    0.3660 C.3       1 HIS         0.0090
    128 CG        -53.0560   14.6080    0.2180 C.2       1 HIS        -0.0033
    129 ND1       -51.8460   15.0900    0.6700 N.2       1 HIS        -0.3253
    130 CD2       -52.7960   13.4020   -0.3390 C.2       1 HIS         0.0291
    131 CE1       -50.8970   14.2110    0.4000 C.2       1 HIS         0.0907
    132 NE2       -51.4470   13.1780   -0.2120 N.pl3     1 HIS        -0.2752
    133 OXT       -52.3060   17.3880   -0.7960 O.co2     1 HIS        -0.5665
    134 H1        -55.5583   38.6211   -1.8989 H         1 GLY         0.2012
    135 H2        -55.7253   37.6697   -3.2317 H         1 GLY         0.2012
    136 H3        -55.0380   37.0598   -1.8660 H         1 GLY         0.2012
    137 H4        -57.8117   37.9486   -2.1477 H         1 GLY         0.1061
    138 H5        -57.0616   37.2830   -0.6573 H         1 GLY         0.1061
    139 H6        -58.6698   33.7642   -3.5048 H         1 PRO         0.0802
    140 H7        -59.3108   33.9441   -5.7494 H         1 PRO         0.0313
    141 H8        -57.7945   34.7860   -6.2170 H         1 PRO         0.0313
    142 H9        -60.3686   35.8937   -5.3250 H         1 PRO         0.0287
    143 H10       -58.9926   36.7014   -6.1502 H         1 PRO         0.0287
    144 H11       -58.3967   37.6558   -4.1838 H         1 PRO         0.0524
    145 H12       -59.7362   36.8002   -3.3469 H         1 PRO         0.0524
    146 H13       -55.5450   35.3756   -3.8737 H         1 LEU         0.1883
    147 H14       -54.2239   33.0624   -5.0035 H         1 LEU         0.0800
    148 H15       -52.1386   34.1782   -4.0817 H         1 LEU         0.0315
    149 H16       -53.2154   35.4693   -3.4491 H         1 LEU         0.0315
    150 H17       -53.5777   36.3772   -5.4948 H         1 LEU         0.0298
    151 H18       -51.4966   36.3814   -6.8281 H         1 LEU         0.0232
    152 H19       -50.9173   34.9492   -5.9117 H         1 LEU         0.0232
    153 H20       -51.1771   36.5122   -5.0653 H         1 LEU         0.0232
    154 H21       -54.5928   34.3554   -6.4890 H         1 LEU         0.0232
    155 H22       -52.9521   33.7188   -6.8488 H         1 LEU         0.0232
    156 H23       -53.5270   35.2223   -7.6462 H         1 LEU         0.0232
    157 H24       -55.3518   33.8177   -1.7909 H         1 SER         0.1884
    158 H25       -53.4832   32.3649   -0.2426 H         1 SER         0.0823
    159 H26       -54.9823   33.6469    1.0042 H         1 SER         0.0606
    160 H27       -55.6172   31.9853    1.2545 H         1 SER         0.0606
    161 H28       -56.5689   33.8695   -0.6670 H         1 SER         0.2097
    162 H29       -56.1397   31.2215   -2.2783 H         1 ASP         0.1884
    163 H30       -55.8506   28.4895   -1.2007 H         1 ASP         0.0819
    164 H31       -57.9027   27.9679   -2.4066 H         1 ASP         0.0478
    165 H32       -57.8631   29.5622   -3.2332 H         1 ASP         0.0478
    166 H33       -54.2976   30.1854   -3.6110 H         1 ASN         0.1885
    167 H34       -54.4945   28.4521   -5.8487 H         1 ASN         0.0826
    168 H35       -51.9783   29.2566   -6.1437 H         1 ASN         0.0551
    169 H36       -52.4178   30.3710   -4.8051 H         1 ASN         0.0551
    170 H37       -53.1229   31.6943   -8.3511 H         1 ASN         0.1814
    171 H38       -51.7959   30.7606   -7.7451 H         1 ASN         0.1814
    172 H39       -52.3618   28.2556   -2.9466 H         1 GLU         0.1883
    173 H40       -50.7605   26.1701   -4.1279 H         1 GLU         0.0801
    174 H41       -50.1793   25.8573   -1.5411 H         1 GLU         0.0330
    175 H42       -51.0012   27.4503   -1.4251 H         1 GLU         0.0330
    176 H43       -48.7750   28.0481   -1.7077 H         1 GLU         0.0433
    177 H44       -49.4162   28.1338   -3.3835 H         1 GLU         0.0433
    178 H45       -53.4984   26.0841   -1.7535 H         1 GLU         0.1883
    179 H46       -53.1611   23.2289   -1.4231 H         1 GLU         0.0801
    180 H47       -54.2562   24.8689    0.1978 H         1 GLU         0.0330
    181 H48       -55.0035   23.2509   -0.0265 H         1 GLU         0.0330
    182 H49       -56.8854   24.1110   -1.0405 H         1 GLU         0.0433
    183 H50       -56.0591   25.6248   -1.5431 H         1 GLU         0.0433
    184 H51       -55.1357   25.2534   -3.6129 H         1 PHE         0.1885
    185 H52       -56.6727   23.0853   -4.6531 H         1 PHE         0.0823
    186 H53       -55.6683   25.6202   -6.0145 H         1 PHE         0.0474
    187 H54       -57.2442   25.3829   -5.1857 H         1 PHE         0.0474
    188 H55       -58.7455   23.4898   -6.1266 H         1 PHE         0.0557
    189 H56       -55.5102   25.2185   -8.3096 H         1 PHE         0.0557
    190 H57       -59.7531   22.7073   -8.2285 H         1 PHE         0.0599
    191 H58       -56.5110   24.4215  -10.4262 H         1 PHE         0.0599
    192 H59       -58.6319   23.1525  -10.3858 H         1 PHE         0.0559
    193 H60       -53.4708   24.4106   -5.6451 H         1 GLU         0.1883
    194 H61       -53.1995   22.6049   -7.8489 H         1 GLU         0.0801
    195 H62       -51.2464   24.2482   -6.2162 H         1 GLU         0.0330
    196 H63       -51.8598   24.5379   -7.8795 H         1 GLU         0.0330
    197 H64       -50.6323   22.3225   -8.4607 H         1 GLU         0.0433
    198 H65       -49.7587   22.5964   -6.9152 H         1 GLU         0.0433
    199 H66       -52.3235   22.2876   -4.3827 H         1 ASN         0.1885
    200 H67       -50.8511   19.8387   -4.8465 H         1 ASN         0.0826
    201 H68       -51.1843   19.5324   -2.3260 H         1 ASN         0.0551
    202 H69       -52.0291   21.1174   -2.3523 H         1 ASN         0.0551
    203 H70       -48.1928   21.4606   -3.7765 H         1 ASN         0.1814
    204 H71       -49.3502   20.4222   -4.5395 H         1 ASN         0.1814
    205 H72       -54.2692   20.5812   -4.0959 H         1 VAL         0.1883
    206 H73       -55.0004   17.8238   -3.6966 H         1 VAL         0.0802
    207 H74       -56.5750   20.3080   -4.4874 H         1 VAL         0.0343
    208 H75       -58.6214   18.9622   -4.1543 H         1 VAL         0.0234
    209 H76       -57.6156   17.4860   -3.9645 H         1 VAL         0.0234
    210 H77       -57.6447   18.3572   -5.5352 H         1 VAL         0.0234
    211 H78       -55.7236   20.1602   -2.1735 H         1 VAL         0.0234
    212 H79       -56.5297   18.5663   -1.9832 H         1 VAL         0.0234
    213 H80       -57.5152   20.0470   -2.2340 H         1 VAL         0.0234
    214 H81       -54.7813   19.9305   -6.5859 H         1 VAL         0.1883
    215 H82       -55.9463   18.0476   -8.3900 H         1 VAL         0.0802
    216 H83       -53.9281   20.2944   -8.8255 H         1 VAL         0.0343
    217 H84       -54.4812   20.0994  -11.2218 H         1 VAL         0.0234
    218 H85       -55.4653   18.6377  -10.8730 H         1 VAL         0.0234
    219 H86       -53.6902   18.6119  -10.5986 H         1 VAL         0.0234
    220 H87       -56.1830   20.9585   -8.0381 H         1 VAL         0.0234
    221 H88       -56.9217   20.0489   -9.3995 H         1 VAL         0.0234
    222 H89       -55.8898   21.4812   -9.7314 H         1 VAL         0.0234
    223 H90       -52.5560   18.5175   -7.2808 H         1 LYS         0.1883
    224 H91       -51.7239   16.5226   -9.2790 H         1 LYS         0.0800
    225 H92       -49.4661   17.1402   -8.7661 H         1 LYS         0.0312
    226 H93       -49.9737   17.9795   -7.2613 H         1 LYS         0.0312
    227 H94       -50.5120   19.8563   -8.3526 H         1 LYS         0.0269
    228 H95       -51.3340   18.9618   -9.6757 H         1 LYS         0.0269
    229 H96       -49.5754   19.9372  -10.8144 H         1 LYS         0.0317
    230 H97       -48.8706   18.3422  -10.3831 H         1 LYS         0.0317
    231 H98       -47.3642   19.2465   -8.9584 H         1 LYS         0.0813
    232 H99       -48.5192   20.4831   -8.3556 H         1 LYS         0.0813
    233 H100      -46.7266   21.4696   -9.6212 H         1 LYS         0.1994
    234 H101      -48.1581   21.7068  -10.3982 H         1 LYS         0.1994
    235 H102      -47.0997   20.5736  -10.9506 H         1 LYS         0.1994
    236 H103      -52.1157   16.7086   -5.7519 H         1 ASN         0.1885
    237 H104      -51.1419   13.9004   -5.6498 H         1 ASN         0.0826
    238 H105      -50.1870   14.3132   -3.4503 H         1 ASN         0.0551
    239 H106      -50.8281   15.9912   -3.4446 H         1 ASN         0.0551
    240 H107      -47.7643   15.1144   -6.1150 H         1 ASN         0.1814
    241 H108      -49.0270   13.9630   -5.8323 H         1 ASN         0.1814
    242 H109      -53.9051   15.7748   -5.2135 H         1 GLY         0.1881
    243 H110      -55.1949   13.4982   -3.9628 H         1 GLY         0.0763
    244 H111      -55.9776   15.0074   -4.5426 H         1 GLY         0.0763
    245 H112      -53.6837   16.2210   -2.6192 H         1 HIS         0.1876
    246 H113      -55.5249   16.9085   -0.5493 H         1 HIS         0.0743
    247 H114      -55.1728   14.6603    0.2798 H         1 HIS         0.0413
    248 H115      -54.3501   15.8336    1.3630 H         1 HIS         0.0413
    249 H116      -53.5212   12.7340   -0.8015 H         1 HIS         0.0729
    250 H117      -49.8406   14.3199    0.6412 H         1 HIS         0.1199
    251 H118      -50.9457   12.3404   -0.5407 H         1 HIS         0.2361
@<TRIPOS>BOND
     1    1    2 1  
     2    2    3 1  
     3    3    4 2  
     4    3    5 am 
     5    5    6 1  
     6    5   11 1  
     7    6    7 1  
     8    6    9 1  
     9    7    8 2  
    10    7   12 am 
    11    9   10 1  
    12   10   11 1  
    13   12   13 1  
    14   13   14 1  
    15   13   16 1  
    16   14   15 2  
    17   14   20 am 
    18   16   17 1  
    19   17   18 1  
    20   17   19 1  
    21   20   21 1  
    22   21   22 1  
    23   21   24 1  
    24   22   23 2  
    25   22   26 am 
    26   24   25 1  
    27   26   27 1  
    28   27   28 1  
    29   27   30 1  
    30   28   29 2  
    31   28   34 am 
    32   30   31 1  
    33   31   32 ar 
    34   31   33 ar 
    35   34   35 1  
    36   35   36 1  
    37   35   38 1  
    38   36   37 2  
    39   36   42 am 
    40   38   39 1  
    41   39   40 2  
    42   39   41 am 
    43   42   43 1  
    44   43   44 1  
    45   43   46 1  
    46   44   45 2  
    47   44   51 am 
    48   46   47 1  
    49   47   48 1  
    50   48   49 ar 
    51   48   50 ar 
    52   51   52 1  
    53   52   53 1  
    54   52   55 1  
    55   53   54 2  
    56   53   60 am 
    57   55   56 1  
    58   56   57 1  
    59   57   58 ar 
    60   57   59 ar 
    61   60   61 1  
    62   61   62 1  
    63   61   64 1  
    64   62   63 2  
    65   62   71 am 
    66   64   65 1  
    67   65   66 ar 
    68   65   67 ar 
    69   66   68 ar 
    70   67   69 ar 
    71   68   70 ar 
    72   69   70 ar 
    73   71   72 1  
    74   72   73 1  
    75   72   75 1  
    76   73   74 2  
    77   73   80 am 
    78   75   76 1  
    79   76   77 1  
    80   77   78 ar 
    81   77   79 ar 
    82   80   81 1  
    83   81   82 1  
    84   81   84 1  
    85   82   83 2  
    86   82   88 am 
    87   84   85 1  
    88   85   86 2  
    89   85   87 am 
    90   88   89 1  
    91   89   90 1  
    92   89   92 1  
    93   90   91 2  
    94   90   95 am 
    95   92   93 1  
    96   92   94 1  
    97   95   96 1  
    98   96   97 1  
    99   96   99 1  
   100   97   98 2  
   101   97  102 am 
   102   99  100 1  
   103   99  101 1  
   104  102  103 1  
   105  103  104 1  
   106  103  106 1  
   107  104  105 2  
   108  104  111 am 
   109  106  107 1  
   110  107  108 1  
   111  108  109 1  
   112  109  110 1  
   113  111  112 1  
   114  112  113 1  
   115  112  115 1  
   116  113  114 2  
   117  113  119 am 
   118  115  116 1  
   119  116  117 2  
   120  116  118 am 
   121  119  120 1  
   122  120  121 1  
   123  121  122 2  
   124  121  123 am 
   125  123  124 1  
   126  124  125 1  
   127  124  127 1  
   128  125  126 ar 
   129  125  133 ar 
   130  127  128 1  
   131  128  129 1  
   132  128  130 2  
   133  129  131 2  
   134  130  132 1  
   135  131  132 1  
   136    1  134 1  
   137    1  135 1  
   138    1  136 1  
   139    2  137 1  
   140    2  138 1  
   141    6  139 1  
   142    9  140 1  
   143    9  141 1  
   144   10  142 1  
   145   10  143 1  
   146   11  144 1  
   147   11  145 1  
   148   12  146 1  
   149   13  147 1  
   150   16  148 1  
   151   16  149 1  
   152   17  150 1  
   153   18  151 1  
   154   18  152 1  
   155   18  153 1  
   156   19  154 1  
   157   19  155 1  
   158   19  156 1  
   159   20  157 1  
   160   21  158 1  
   161   24  159 1  
   162   24  160 1  
   163   25  161 1  
   164   26  162 1  
   165   27  163 1  
   166   30  164 1  
   167   30  165 1  
   168   34  166 1  
   169   35  167 1  
   170   38  168 1  
   171   38  169 1  
   172   41  170 1  
   173   41  171 1  
   174   42  172 1  
   175   43  173 1  
   176   46  174 1  
   177   46  175 1  
   178   47  176 1  
   179   47  177 1  
   180   51  178 1  
   181   52  179 1  
   182   55  180 1  
   183   55  181 1  
   184   56  182 1  
   185   56  183 1  
   186   60  184 1  
   187   61  185 1  
   188   64  186 1  
   189   64  187 1  
   190   66  188 1  
   191   67  189 1  
   192   68  190 1  
   193   69  191 1  
   194   70  192 1  
   195   71  193 1  
   196   72  194 1  
   197   75  195 1  
   198   75  196 1  
   199   76  197 1  
   200   76  198 1  
   201   80  199 1  
   202   81  200 1  
   203   84  201 1  
   204   84  202 1  
   205   87  203 1  
   206   87  204 1  
   207   88  205 1  
   208   89  206 1  
   209   92  207 1  
   210   93  208 1  
   211   93  209 1  
   212   93  210 1  
   213   94  211 1  
   214   94  212 1  
   215   94  213 1  
   216   95  214 1  
   217   96  215 1  
   218   99  216 1  
   219  100  217 1  
   220  100  218 1  
   221  100  219 1  
   222  101  220 1  
   223  101  221 1  
   224  101  222 1  
   225  102  223 1  
   226  103  224 1  
   227  106  225 1  
   228  106  226 1  
   229  107  227 1  
   230  107  228 1  
   231  108  229 1  
   232  108  230 1  
   233  109  231 1  
   234  109  232 1  
   235  110  233 1  
   236  110  234 1  
   237  110  235 1  
   238  111  236 1  
   239  112  237 1  
   240  115  238 1  
   241  115  239 1  
   242  118  240 1  
   243  118  241 1  
   244  119  242 1  
   245  120  243 1  
   246  120  244 1  
   247  123  245 1  
   248  124  246 1  
   249  127  247 1  
   250  127  248 1  
   251  130  249 1  
   252  131  250 1  
   253  132  251 1  
@<TRIPOS>SUBSTRUCTURE
     1 GLY         1

