6a6w_ligand
  -I-interpret- 

255257  0  0  0  0  0  0  0  0999 V2000
  -55.7430   37.6850   -2.2240 N   0  3  0  0  0
  -57.0480   37.2600   -1.7570 C   0  0  0  0  0
  -57.3610   35.8570   -2.2260 C   0  0  0  0  0
  -57.1310   34.8940   -1.4910 O   0  0  0  0  0
  -57.9070   35.7320   -3.4390 N   0  0  0  0  0
  -57.9920   34.4130   -4.0790 C   0  0  0  0  0
  -56.6460   33.7010   -4.2150 C   0  0  0  0  0
  -56.6410   32.4910   -4.4810 O   0  0  0  0  0
  -58.5900   34.7230   -5.4600 C   0  0  0  0  0
  -59.2790   36.0440   -5.3160 C   0  0  0  0  0
  -58.8680   36.6770   -4.0110 C   0  0  0  0  0
  -55.5110   34.3910   -4.0450 N   0  0  0  0  0
  -54.2220   33.7040   -4.1100 C   0  0  0  0  0
  -53.9740   32.8230   -2.8920 C   0  0  0  0  0
  -53.1310   31.9190   -2.9570 O   0  0  0  0  0
  -53.0850   34.7160   -4.2400 C   0  0  0  0  0
  -52.9820   35.4560   -5.5750 C   0  0  0  0  0
  -51.5440   35.8520   -5.8650 C   0  0  0  0  0
  -53.5530   34.6310   -6.7190 C   0  0  0  0  0
  -54.6900   33.0680   -1.7900 N   0  0  0  0  0
  -54.5230   32.2610   -0.5860 C   0  0  0  0  0
  -54.7880   30.7810   -0.8550 C   0  0  0  0  0
  -54.1520   29.9140   -0.2450 O   0  0  0  0  0
  -55.4530   32.7820    0.5140 C   0  0  0  0  0
  -56.7060   33.1790   -0.0290 O   0  0  0  0  0
  -55.7050   30.4760   -1.7730 N   0  0  0  0  0
  -56.1040   29.1070   -2.0750 C   0  0  0  0  0
  -55.3950   28.5120   -3.2870 C   0  0  0  0  0
  -55.6970   27.3720   -3.6580 O   0  0  0  0  0
  -57.6200   29.0260   -2.3040 C   0  0  0  0  0
  -58.4260   29.6340   -1.1700 C   0  0  0  0  0
  -58.3440   29.1200   -0.0250 O   0  0  0  0  0
  -59.1810   30.5930   -1.4370 O   0  0  0  0  0
  -54.4850   29.2540   -3.9230 N   0  0  0  0  0
  -53.7610   28.7140   -5.0720 C   0  0  0  0  0
  -52.9850   27.4540   -4.7040 C   0  0  0  0  0
  -53.0230   26.4560   -5.4340 O   0  0  0  0  0
  -52.8100   29.7690   -5.6380 C   0  0  0  0  0
  -53.4810   30.6960   -6.6300 C   0  0  0  0  0
  -54.6540   31.0470   -6.4870 O   0  0  0  0  0
  -52.7390   31.0820   -7.6600 N   0  0  0  0  0
  -52.2780   27.4790   -3.5710 N   0  0  0  0  0
  -51.3830   26.3730   -3.2440 C   0  0  0  0  0
  -52.1530   25.0980   -2.9180 C   0  0  0  0  0
  -51.8130   24.0210   -3.4240 O   0  0  0  0  0
  -50.4550   26.7680   -2.0930 C   0  0  0  0  0
  -49.1760   27.4610   -2.5470 C   0  0  0  0  0
  -48.1160   26.4750   -3.0030 C   0  0  0  0  0
  -47.9330   25.4460   -2.3180 O   0  0  0  0  0
  -47.4760   26.7200   -4.0480 O   0  0  0  0  0
  -53.2030   25.1930   -2.0980 N   0  0  0  0  0
  -53.9130   23.9780   -1.7120 C   0  0  0  0  0
  -54.7090   23.4090   -2.8780 C   0  0  0  0  0
  -54.8630   22.1880   -2.9890 O   0  0  0  0  0
  -54.8140   24.2260   -0.4990 C   0  0  0  0  0
  -56.1600   24.8810   -0.7390 C   0  0  0  0  0
  -56.6650   25.5740    0.5180 C   0  0  0  0  0
  -57.4240   24.9370    1.2830 O   0  0  0  0  0
  -56.2970   26.7480    0.7480 O   0  0  0  0  0
  -55.2080   24.2680   -3.7670 N   0  0  0  0  0
  -55.8590   23.7570   -4.9640 C   0  0  0  0  0
  -54.8780   22.9620   -5.8120 C   0  0  0  0  0
  -55.1800   21.8480   -6.2540 O   0  0  0  0  0
  -56.4620   24.8940   -5.7850 C   0  0  0  0  0
  -57.0700   24.4260   -7.0750 C   0  0  0  0  0
  -58.2550   23.7050   -7.0690 C   0  0  0  0  0
  -56.4450   24.6700   -8.2890 C   0  0  0  0  0
  -58.8190   23.2570   -8.2500 C   0  0  0  0  0
  -57.0050   24.2180   -9.4830 C   0  0  0  0  0
  -58.1930   23.5090   -9.4610 C   0  0  0  0  0
  -53.6920   23.5220   -6.0470 N   0  0  0  0  0
  -52.7170   22.8410   -6.8890 C   0  0  0  0  0
  -52.2520   21.5300   -6.2640 C   0  0  0  0  0
  -52.0190   20.5540   -6.9840 O   0  0  0  0  0
  -51.5330   23.7690   -7.1640 C   0  0  0  0  0
  -50.3060   23.0830   -7.7360 C   0  0  0  0  0
  -49.3720   24.0540   -8.4360 C   0  0  0  0  0
  -49.8700   25.0330   -9.0320 O   0  0  0  0  0
  -48.1410   23.8530   -8.3770 O   0  0  0  0  0
  -52.1290   21.4770   -4.9350 N   0  0  0  0  0
  -51.7110   20.2370   -4.2880 C   0  0  0  0  0
  -52.8120   19.1880   -4.3070 C   0  0  0  0  0
  -52.5180   17.9880   -4.3610 O   0  0  0  0  0
  -51.2680   20.4970   -2.8480 C   0  0  0  0  0
  -49.9310   21.2110   -2.7660 C   0  0  0  0  0
  -49.6650   21.9390   -1.8120 O   0  0  0  0  0
  -49.0880   21.0150   -3.7780 N   0  0  0  0  0
  -54.0760   19.6110   -4.2420 N   0  0  0  0  0
  -55.1770   18.6650   -4.3830 C   0  0  0  0  0
  -55.2190   18.1160   -5.8020 C   0  0  0  0  0
  -55.4720   16.9250   -6.0150 O   0  0  0  0  0
  -56.5100   19.3290   -3.9900 C   0  0  0  0  0
  -57.6780   18.4750   -4.4420 C   0  0  0  0  0
  -56.5740   19.5400   -2.4930 C   0  0  0  0  0
  -54.9710   18.9710   -6.7940 N   0  0  0  0  0
  -54.9740   18.5180   -8.1820 C   0  0  0  0  0
  -53.8880   17.4730   -8.3980 C   0  0  0  0  0
  -54.1290   16.4110   -8.9840 O   0  0  0  0  0
  -54.8090   19.7140   -9.1370 C   0  0  0  0  0
  -54.5970   19.2330  -10.5540 C   0  0  0  0  0
  -56.0360   20.6130   -9.0720 C   0  0  0  0  0
  -52.6810   17.7430   -7.9010 N   0  0  0  0  0
  -51.5430   16.9060   -8.2640 C   0  0  0  0  0
  -51.3770   15.7030   -7.3420 C   0  0  0  0  0
  -50.9490   14.6350   -7.7950 O   0  0  0  0  0
  -50.2610   17.7370   -8.2950 C   0  0  0  0  0
  -50.4200   19.0250   -9.0670 C   0  0  0  0  0
  -49.2410   19.2980   -9.9840 C   0  0  0  0  0
  -48.1170   19.9920   -9.2540 C   0  0  0  0  0
  -47.4730   21.0190  -10.1270 N   0  3  0  0  0
  -51.7130   15.8460   -6.0580 N   0  0  0  0  0
  -51.5070   14.7760   -5.0930 C   0  0  0  0  0
  -52.7640   14.3500   -4.3480 C   0  0  0  0  0
  -52.6930   13.4080   -3.5480 O   0  0  0  0  0
  -50.4300   15.1840   -4.0770 C   0  0  0  0  0
  -49.1560   15.6730   -4.7500 C   0  0  0  0  0
  -48.6920   16.7840   -4.4990 O   0  0  0  0  0
  -48.6030   14.8480   -5.6400 N   0  0  0  0  0
  -53.9050   14.9970   -4.5850 N   0  0  0  0  0
  -55.1460   14.5970   -3.9510 C   0  0  0  0  0
  -55.3180   15.0560   -2.5240 C   0  0  0  0  0
  -56.2600   14.6080   -1.8580 O   0  0  0  0  0
  -54.4390   15.9260   -2.0340 N   0  0  0  0  0
  -54.5250   16.4700   -0.6830 C   0  0  0  0  0
  -53.4830   17.5690   -0.4860 C   0  0  0  0  0
  -53.7960   18.6610   -0.0130 O   0  0  0  0  0
  -54.3360   15.3690    0.3660 C   0  0  0  0  0
  -53.0560   14.6080    0.2180 C   0  0  0  0  0
  -51.8460   15.0900    0.6700 N   0  0  0  0  0
  -52.7960   13.4020   -0.3390 C   0  0  0  0  0
  -50.8970   14.2110    0.4000 C   0  0  0  0  0
  -51.4470   13.1780   -0.2120 N   0  0  0  0  0
  -52.3060   17.3880   -0.7960 O   0  0  0  0  0
  -55.5572   38.6323   -1.8945 H   0  0  0  0  0
  -55.0305   37.0517   -1.8612 H   0  0  0  0  0
  -55.7263   37.6691   -3.2437 H   0  0  0  0  0
  -57.8009   37.9387   -2.1577 H   0  0  0  0  0
  -57.0507   37.2731   -0.6671 H   0  0  0  0  0
  -58.5881   33.7246   -3.4799 H   0  0  0  0  0
  -59.2847   33.9448   -5.7761 H   0  0  0  0  0
  -57.8178   34.7592   -6.2285 H   0  0  0  0  0
  -60.3589   35.8967   -5.3273 H   0  0  0  0  0
  -58.9980   36.6955   -6.1434 H   0  0  0  0  0
  -58.4355   37.6674   -4.1530 H   0  0  0  0  0
  -59.7187   36.8478   -3.3513 H   0  0  0  0  0
  -55.5457   35.3953   -3.8703 H   0  0  0  0  0
  -54.2515   33.0615   -4.9900 H   0  0  0  0  0
  -52.1607   34.1475   -4.1370 H   0  0  0  0  0
  -53.2714   35.4793   -3.4845 H   0  0  0  0  0
  -53.5796   36.3638   -5.4919 H   0  0  0  0  0
  -51.1816   36.5061   -5.0719 H   0  0  0  0  0
  -50.9241   34.9566   -5.9109 H   0  0  0  0  0
  -51.4983   36.3764   -6.8195 H   0  0  0  0  0
  -53.0011   33.6946   -6.8008 H   0  0  0  0  0
  -54.6040   34.4188   -6.5230 H   0  0  0  0  0
  -53.4615   35.1907   -7.6499 H   0  0  0  0  0
  -55.3650   33.8327   -1.7909 H   0  0  0  0  0
  -53.4871   32.3486   -0.2583 H   0  0  0  0  0
  -54.9865   33.6454    0.9885 H   0  0  0  0  0
  -55.6209   31.9851    1.2385 H   0  0  0  0  0
  -57.2716   33.5013    0.6766 H   0  0  0  0  0
  -56.1484   31.2364   -2.2884 H   0  0  0  0  0
  -55.8101   28.5206   -1.2045 H   0  0  0  0  0
  -57.8889   27.9720   -2.3739 H   0  0  0  0  0
  -57.8487   29.5860   -3.2107 H   0  0  0  0  0
  -57.7079   28.4012   -0.0429 H   0  0  0  0  0
  -54.2939   30.2041   -3.6048 H   0  0  0  0  0
  -54.4951   28.4446   -5.8313 H   0  0  0  0  0
  -52.0073   29.2479   -6.1597 H   0  0  0  0  0
  -52.4518   30.3750   -4.8058 H   0  0  0  0  0
  -53.1356   31.6937   -8.3734 H   0  0  0  0  0
  -51.7720   30.7671   -7.7384 H   0  0  0  0  0
  -52.3635   28.2711   -2.9341 H   0  0  0  0  0
  -50.7761   26.1601   -4.1240 H   0  0  0  0  0
  -50.1643   25.8514   -1.5797 H   0  0  0  0  0
  -50.9996   27.4702   -1.4618 H   0  0  0  0  0
  -48.7760   28.0197   -1.7009 H   0  0  0  0  0
  -49.4224   28.1061   -3.3904 H   0  0  0  0  0
  -47.7721   27.5564   -4.4146 H   0  0  0  0  0
  -53.5043   26.1019   -1.7466 H   0  0  0  0  0
  -53.1666   23.2364   -1.4272 H   0  0  0  0  0
  -54.2624   24.9196    0.1356 H   0  0  0  0  0
  -55.0392   23.2380   -0.0976 H   0  0  0  0  0
  -56.8765   24.1106   -1.0239 H   0  0  0  0  0
  -56.0495   25.6259   -1.5271 H   0  0  0  0  0
  -57.5792   24.0613    0.9216 H   0  0  0  0  0
  -55.1343   25.2731   -3.6098 H   0  0  0  0  0
  -56.6650   23.0944   -4.6487 H   0  0  0  0  0
  -55.6593   25.5899   -6.0290 H   0  0  0  0  0
  -57.2537   25.3498   -5.1904 H   0  0  0  0  0
  -58.7482   23.4886   -6.1213 H   0  0  0  0  0
  -55.5051   25.2216   -8.3097 H   0  0  0  0  0
  -59.7582   22.7043   -8.2284 H   0  0  0  0  0
  -56.5083   24.4226  -10.4314 H   0  0  0  0  0
  -58.6344   23.1505  -10.3909 H   0  0  0  0  0
  -53.4664   24.4283   -5.6371 H   0  0  0  0  0
  -53.1971   22.5899   -7.8348 H   0  0  0  0  0
  -51.2381   24.1980   -6.2063 H   0  0  0  0  0
  -51.8652   24.4942   -7.9069 H   0  0  0  0  0
  -50.6413   22.3500   -8.4697 H   0  0  0  0  0
  -49.7600   22.6262   -6.9106 H   0  0  0  0  0
  -50.8265   24.9993   -8.9568 H   0  0  0  0  0
  -52.3274   22.3038   -4.3716 H   0  0  0  0  0
  -50.8662   19.8504   -4.8580 H   0  0  0  0  0
  -51.1633   19.5326   -2.3508 H   0  0  0  0  0
  -52.0169   21.1340   -2.3774 H   0  0  0  0  0
  -48.1792   21.4781   -3.7817 H   0  0  0  0  0
  -49.3511   20.4017   -4.5494 H   0  0  0  0  0
  -54.2730   20.6006   -4.0930 H   0  0  0  0  0
  -55.0159   17.8262   -3.7059 H   0  0  0  0  0
  -56.5697   20.2986   -4.4844 H   0  0  0  0  0
  -57.6438   18.3590   -5.5253 H   0  0  0  0  0
  -57.6150   17.4954   -3.9682 H   0  0  0  0  0
  -58.6121   18.9587   -4.1564 H   0  0  0  0  0
  -56.4941   18.5774   -1.9879 H   0  0  0  0  0
  -55.7512   20.1840   -2.1826 H   0  0  0  0  0
  -57.5227   20.0101   -2.2339 H   0  0  0  0  0
  -54.7775   19.9497   -6.5817 H   0  0  0  0  0
  -55.9337   18.0503   -8.4018 H   0  0  0  0  0
  -53.9342   20.2853   -8.8263 H   0  0  0  0  0
  -53.6983   18.6177  -10.5968 H   0  0  0  0  0
  -55.4580   18.6433  -10.8688 H   0  0  0  0  0
  -54.4824   20.0923  -11.2147 H   0  0  0  0  0
  -56.9183   20.0429   -9.3628 H   0  0  0  0  0
  -56.1601   20.9831   -8.0543 H   0  0  0  0  0
  -55.9049   21.4543   -9.7525 H   0  0  0  0  0
  -52.5535   18.5329   -7.2684 H   0  0  0  0  0
  -51.7435   16.5129   -9.2607 H   0  0  0  0  0
  -49.4900   17.1446   -8.7876 H   0  0  0  0  0
  -50.0028   17.9925   -7.2673 H   0  0  0  0  0
  -50.4862   19.8428   -8.3495 H   0  0  0  0  0
  -51.3150   18.9409   -9.6835 H   0  0  0  0  0
  -49.5775   19.9461  -10.7932 H   0  0  0  0  0
  -48.8699   18.3447  -10.3603 H   0  0  0  0  0
  -47.3693   19.2504   -8.9729 H   0  0  0  0  0
  -48.5229   20.4855   -8.3709 H   0  0  0  0  0
  -46.7179   21.4743   -9.6142 H   0  0  0  0  0
  -47.0957   20.5671  -10.9600 H   0  0  0  0  0
  -48.1672   21.7144  -10.4008 H   0  0  0  0  0
  -52.1238   16.7259   -5.7458 H   0  0  0  0  0
  -51.1883   13.9128   -5.6774 H   0  0  0  0  0
  -50.1810   14.3079   -3.4783 H   0  0  0  0  0
  -50.8273   15.9994   -3.4725 H   0  0  0  0  0
  -47.7619   15.1303   -6.1432 H   0  0  0  0  0
  -49.0212   13.9348   -5.8175 H   0  0  0  0  0
  -53.9051   15.7904   -5.2260 H   0  0  0  0  0
  -55.1492   13.5072   -3.9309 H   0  0  0  0  0
  -55.9516   15.0545   -4.5253 H   0  0  0  0  0
  -53.6686   16.2269   -2.6309 H   0  0  0  0  0
  -55.5193   16.8975   -0.5536 H   0  0  0  0  0
  -55.1531   14.6583    0.2424 H   0  0  0  0  0
  -54.3168   15.8509    1.3435 H   0  0  0  0  0
  -53.5218   12.7334   -0.8019 H   0  0  0  0  0
  -49.8397   14.3200    0.6414 H   0  0  0  0  0
  -52.2020   16.5014   -1.1491 H   0  0  0  0  0
  1  2  1  0  0  0
  2  3  1  0  0  0
  3  4  2  0  0  0
  3  5  1  0  0  0
  5  6  1  0  0  0
  5 11  1  0  0  0
  6  7  1  0  0  0
  6  9  1  0  0  0
  7  8  2  0  0  0
  7 12  1  0  0  0
  9 10  1  0  0  0
 10 11  1  0  0  0
 12 13  1  0  0  0
 13 14  1  0  0  0
 13 16  1  0  0  0
 14 15  2  0  0  0
 14 20  1  0  0  0
 16 17  1  0  0  0
 17 18  1  0  0  0
 17 19  1  0  0  0
 20 21  1  0  0  0
 21 22  1  0  0  0
 21 24  1  0  0  0
 22 23  2  0  0  0
 22 26  1  0  0  0
 24 25  1  0  0  0
 26 27  1  0  0  0
 27 28  1  0  0  0
 27 30  1  0  0  0
 28 29  2  0  0  0
 28 34  1  0  0  0
 30 31  1  0  0  0
 31 32  1  0  0  0
 31 33  2  0  0  0
 34 35  1  0  0  0
 35 36  1  0  0  0
 35 38  1  0  0  0
 36 37  2  0  0  0
 36 42  1  0  0  0
 38 39  1  0  0  0
 39 40  2  0  0  0
 39 41  1  0  0  0
 42 43  1  0  0  0
 43 44  1  0  0  0
 43 46  1  0  0  0
 44 45  2  0  0  0
 44 51  1  0  0  0
 46 47  1  0  0  0
 47 48  1  0  0  0
 48 49  2  0  0  0
 48 50  1  0  0  0
 51 52  1  0  0  0
 52 53  1  0  0  0
 52 55  1  0  0  0
 53 54  2  0  0  0
 53 60  1  0  0  0
 55 56  1  0  0  0
 56 57  1  0  0  0
 57 58  1  0  0  0
 57 59  2  0  0  0
 60 61  1  0  0  0
 61 62  1  0  0  0
 61 64  1  0  0  0
 62 63  2  0  0  0
 62 71  1  0  0  0
 64 65  1  0  0  0
 65 66  4  0  0  0
 65 67  4  0  0  0
 66 68  4  0  0  0
 67 69  4  0  0  0
 68 70  4  0  0  0
 69 70  4  0  0  0
 71 72  1  0  0  0
 72 73  1  0  0  0
 72 75  1  0  0  0
 73 74  2  0  0  0
 73 80  1  0  0  0
 75 76  1  0  0  0
 76 77  1  0  0  0
 77 78  1  0  0  0
 77 79  2  0  0  0
 80 81  1  0  0  0
 81 82  1  0  0  0
 81 84  1  0  0  0
 82 83  2  0  0  0
 82 88  1  0  0  0
 84 85  1  0  0  0
 85 86  2  0  0  0
 85 87  1  0  0  0
 88 89  1  0  0  0
 89 90  1  0  0  0
 89 92  1  0  0  0
 90 91  2  0  0  0
 90 95  1  0  0  0
 92 93  1  0  0  0
 92 94  1  0  0  0
 95 96  1  0  0  0
 96 97  1  0  0  0
 96 99  1  0  0  0
 97 98  2  0  0  0
 97102  1  0  0  0
 99100  1  0  0  0
 99101  1  0  0  0
102103  1  0  0  0
103104  1  0  0  0
103106  1  0  0  0
104105  2  0  0  0
104111  1  0  0  0
106107  1  0  0  0
107108  1  0  0  0
108109  1  0  0  0
109110  1  0  0  0
111112  1  0  0  0
112113  1  0  0  0
112115  1  0  0  0
113114  2  0  0  0
113119  1  0  0  0
115116  1  0  0  0
116117  2  0  0  0
116118  1  0  0  0
119120  1  0  0  0
120121  1  0  0  0
121122  2  0  0  0
121123  1  0  0  0
123124  1  0  0  0
124125  1  0  0  0
124127  1  0  0  0
125126  2  0  0  0
125133  1  0  0  0
127128  1  0  0  0
128129  4  0  0  0
128130  4  0  0  0
129131  4  0  0  0
130132  4  0  0  0
131132  4  0  0  0
  1134  1  0  0  0
  1135  1  0  0  0
  1136  1  0  0  0
  2137  1  0  0  0
  2138  1  0  0  0
  6139  1  0  0  0
  9140  1  0  0  0
  9141  1  0  0  0
 10142  1  0  0  0
 10143  1  0  0  0
 11144  1  0  0  0
 11145  1  0  0  0
 12146  1  0  0  0
 13147  1  0  0  0
 16148  1  0  0  0
 16149  1  0  0  0
 17150  1  0  0  0
 18151  1  0  0  0
 18152  1  0  0  0
 18153  1  0  0  0
 19154  1  0  0  0
 19155  1  0  0  0
 19156  1  0  0  0
 20157  1  0  0  0
 21158  1  0  0  0
 24159  1  0  0  0
 24160  1  0  0  0
 25161  1  0  0  0
 26162  1  0  0  0
 27163  1  0  0  0
 30164  1  0  0  0
 30165  1  0  0  0
 32166  1  0  0  0
 34167  1  0  0  0
 35168  1  0  0  0
 38169  1  0  0  0
 38170  1  0  0  0
 41171  1  0  0  0
 41172  1  0  0  0
 42173  1  0  0  0
 43174  1  0  0  0
 46175  1  0  0  0
 46176  1  0  0  0
 47177  1  0  0  0
 47178  1  0  0  0
 50179  1  0  0  0
 51180  1  0  0  0
 52181  1  0  0  0
 55182  1  0  0  0
 55183  1  0  0  0
 56184  1  0  0  0
 56185  1  0  0  0
 58186  1  0  0  0
 60187  1  0  0  0
 61188  1  0  0  0
 64189  1  0  0  0
 64190  1  0  0  0
 66191  1  0  0  0
 67192  1  0  0  0
 68193  1  0  0  0
 69194  1  0  0  0
 70195  1  0  0  0
 71196  1  0  0  0
 72197  1  0  0  0
 75198  1  0  0  0
 75199  1  0  0  0
 76200  1  0  0  0
 76201  1  0  0  0
 78202  1  0  0  0
 80203  1  0  0  0
 81204  1  0  0  0
 84205  1  0  0  0
 84206  1  0  0  0
 87207  1  0  0  0
 87208  1  0  0  0
 88209  1  0  0  0
 89210  1  0  0  0
 92211  1  0  0  0
 93212  1  0  0  0
 93213  1  0  0  0
 93214  1  0  0  0
 94215  1  0  0  0
 94216  1  0  0  0
 94217  1  0  0  0
 95218  1  0  0  0
 96219  1  0  0  0
 99220  1  0  0  0
100221  1  0  0  0
100222  1  0  0  0
100223  1  0  0  0
101224  1  0  0  0
101225  1  0  0  0
101226  1  0  0  0
102227  1  0  0  0
103228  1  0  0  0
106229  1  0  0  0
106230  1  0  0  0
107231  1  0  0  0
107232  1  0  0  0
108233  1  0  0  0
108234  1  0  0  0
109235  1  0  0  0
109236  1  0  0  0
110237  1  0  0  0
110238  1  0  0  0
110239  1  0  0  0
111240  1  0  0  0
112241  1  0  0  0
115242  1  0  0  0
115243  1  0  0  0
118244  1  0  0  0
118245  1  0  0  0
119246  1  0  0  0
120247  1  0  0  0
120248  1  0  0  0
123249  1  0  0  0
124250  1  0  0  0
127251  1  0  0  0
127252  1  0  0  0
130253  1  0  0  0
131254  1  0  0  0
133255  1  0  0  0
M  END
$$$$
