4lwu_ligand
  -I-interpret- 

 70 74  0  0  0  0  0  0  0  0999 V2000
  -11.0550   16.1890   -7.0660 N   0  0  0  0  0
  -12.1140   15.9180   -6.1530 C   0  0  0  0  0
  -12.5700   14.6740   -5.8260 C   0  0  0  0  0
  -13.5920   14.6220   -4.8820 C   0  0  0  0  0
  -14.1980   13.0930   -4.3660 Cl  0  0  0  0  0
  -10.8610   17.5860   -7.1290 C   0  0  0  0  0
   -9.9720   18.1210   -7.7990 O   0  0  0  0  0
  -11.9150   18.2710   -6.2580 C   0  0  0  0  0
  -12.8130   19.1320   -7.1200 C   0  0  0  0  0
  -13.1900   18.4480   -8.4430 C   0  0  0  0  0
  -14.5360   18.9810   -8.9790 C   0  0  0  0  0
  -14.5260   20.5120   -8.9950 C   0  0  0  0  0
  -15.6690   18.4900   -8.0730 C   0  0  0  0  0
  -14.7640   18.4580  -10.4020 C   0  0  0  0  0
  -12.0070   20.3630   -7.3510 N   0  3  0  0  0
  -11.3300   19.2880   -5.2770 C   0  0  0  0  0
  -10.0830   18.8260   -4.5560 C   0  0  0  0  0
   -8.8040   19.0600   -5.0700 C   0  0  0  0  0
   -7.6740   18.6450   -4.3290 C   0  0  0  0  0
   -7.8370   17.9980   -3.0890 C   0  0  0  0  0
  -10.1990   18.1890   -3.3500 C   0  0  0  0  0
  -11.4330   17.9810   -2.8510 F   0  0  0  0  0
   -9.1220   17.7630   -2.6160 C   0  0  0  0  0
   -9.3710   16.9260   -1.1060 Cl  0  0  0  0  0
  -11.0980   20.5270   -6.1510 C   0  0  0  0  0
  -11.4600   21.7870   -5.4380 C   0  0  0  0  0
  -12.4050   22.5830   -6.1210 N   0  0  0  0  0
  -12.8330   23.9080   -5.7570 C   0  0  0  0  0
  -12.4110   24.5030   -4.5760 C   0  0  0  0  0
  -13.6690   24.5610   -6.6520 C   0  0  0  0  0
  -14.0610   25.8580   -6.3930 C   0  0  0  0  0
  -13.6210   26.5060   -5.2370 C   0  0  0  0  0
  -13.9990   27.9010   -4.9970 C   0  0  0  0  0
  -13.7080   28.5230   -3.9640 O   0  0  0  0  0
  -14.7180   28.5500   -5.9840 N   0  0  0  0  0
  -12.8070   25.8130   -4.3130 C   0  0  0  0  0
  -10.9930   22.1210   -4.3480 O   0  0  0  0  0
  -12.6070   17.0740   -5.6520 C   0  0  0  0  0
  -13.6240   17.0680   -4.7240 C   0  0  0  0  0
  -14.1370   15.8140   -4.3250 C   0  0  0  0  0
  -10.5252   15.4904   -7.5873 H   0  0  0  0  0
  -12.1574   13.7722   -6.2783 H   0  0  0  0  0
  -13.7701   19.3339   -6.6391 H   0  0  0  0  0
  -13.2837   17.3763   -8.2677 H   0  0  0  0  0
  -12.4134   18.6581   -9.1784 H   0  0  0  0  0
  -14.3709   20.8837   -7.9821 H   0  0  0  0  0
  -13.7195   20.8621   -9.6393 H   0  0  0  0  0
  -15.4805   20.8763   -9.3749 H   0  0  0  0  0
  -15.6823   17.4001   -8.0683 H   0  0  0  0  0
  -15.5071   18.8571   -7.0595 H   0  0  0  0  0
  -16.6212   18.8646   -8.4487 H   0  0  0  0  0
  -13.9548   18.7997  -11.0473 H   0  0  0  0  0
  -14.7840   17.3683  -10.3884 H   0  0  0  0  0
  -15.7147   18.8355  -10.7785 H   0  0  0  0  0
  -12.6127   21.1765   -7.4594 H   0  0  0  0  0
  -11.4616   20.2821   -8.2091 H   0  0  0  0  0
  -12.0048   19.4731   -4.4412 H   0  0  0  0  0
   -8.6795   19.5572   -6.0320 H   0  0  0  0  0
   -6.6725   18.8266   -4.7190 H   0  0  0  0  0
   -6.9683   17.6863   -2.5091 H   0  0  0  0  0
  -10.0448   20.6030   -6.4213 H   0  0  0  0  0
  -12.8270   22.1782   -6.9567 H   0  0  0  0  0
  -11.7841   23.9579   -3.8703 H   0  0  0  0  0
  -14.0132   24.0528   -7.5528 H   0  0  0  0  0
  -14.7157   26.3782   -7.0923 H   0  0  0  0  0
  -14.9988   29.5220   -5.8548 H   0  0  0  0  0
  -14.9675   28.0567   -6.8412 H   0  0  0  0  0
  -12.4884   26.3037   -3.3933 H   0  0  0  0  0
  -14.0188   17.9969   -4.3123 H   0  0  0  0  0
  -14.9449   15.7589   -3.5954 H   0  0  0  0  0
  1  2  1  0  0  0
  1  6  1  0  0  0
  2  3  4  0  0  0
  2 38  4  0  0  0
  3  4  4  0  0  0
  4  5  1  0  0  0
  4 40  4  0  0  0
  6  7  2  0  0  0
  6  8  1  0  0  0
  8  9  1  0  0  0
  8 16  1  0  0  0
  8 38  1  0  0  0
  9 10  1  0  0  0
  9 15  1  0  0  0
 10 11  1  0  0  0
 11 12  1  0  0  0
 11 13  1  0  0  0
 11 14  1  0  0  0
 15 25  1  0  0  0
 16 17  1  0  0  0
 16 25  1  0  0  0
 17 18  4  0  0  0
 17 21  4  0  0  0
 18 19  4  0  0  0
 19 20  4  0  0  0
 20 23  4  0  0  0
 21 22  1  0  0  0
 21 23  4  0  0  0
 23 24  1  0  0  0
 25 26  1  0  0  0
 26 27  1  0  0  0
 26 37  2  0  0  0
 27 28  1  0  0  0
 28 29  4  0  0  0
 28 30  4  0  0  0
 29 36  4  0  0  0
 30 31  4  0  0  0
 31 32  4  0  0  0
 32 33  1  0  0  0
 32 36  4  0  0  0
 33 34  2  0  0  0
 33 35  1  0  0  0
 38 39  4  0  0  0
 39 40  4  0  0  0
  1 41  1  0  0  0
  3 42  1  0  0  0
  9 43  1  0  0  0
 10 44  1  0  0  0
 10 45  1  0  0  0
 12 46  1  0  0  0
 12 47  1  0  0  0
 12 48  1  0  0  0
 13 49  1  0  0  0
 13 50  1  0  0  0
 13 51  1  0  0  0
 14 52  1  0  0  0
 14 53  1  0  0  0
 14 54  1  0  0  0
 15 55  1  0  0  0
 15 56  1  0  0  0
 16 57  1  0  0  0
 18 58  1  0  0  0
 19 59  1  0  0  0
 20 60  1  0  0  0
 25 61  1  0  0  0
 27 62  1  0  0  0
 29 63  1  0  0  0
 30 64  1  0  0  0
 31 65  1  0  0  0
 35 66  1  0  0  0
 35 67  1  0  0  0
 36 68  1  0  0  0
 39 69  1  0  0  0
 40 70  1  0  0  0
M  END
$$$$
