### 
### Created by X-TOOL on Wed Jan  1 15:39:35 2020
### 

@<TRIPOS>MOLECULE
5xhz_ligand
  205   208     1     0     0
SMALL
GAST_HUCK


@<TRIPOS>ATOM
      1 N         -17.2890   16.2900   -8.3730 N.4       1 ARG         0.2379
      2 CA        -17.4180   15.3600   -7.2530 C.3       1 ARG         0.0653
      3 C         -16.3630   14.2560   -7.3530 C.2       1 ARG         0.2292
      4 O         -16.0350   13.8090   -8.4510 O.2       1 ARG        -0.3905
      5 CB        -18.8280   14.7430   -7.2240 C.3       1 ARG         0.0110
      6 CG        -19.9990   15.7270   -6.9740 C.3       1 ARG        -0.0125
      7 CD        -21.2710   14.9970   -6.4860 C.3       1 ARG         0.0629
      8 NE        -20.8990   14.0470   -5.4440 N.pl3     1 ARG        -0.2723
      9 CZ        -20.8240   14.3460   -4.1520 C.cat     1 ARG         0.2882
     10 NH1       -20.3890   13.4390   -3.2970 N.pl3     1 ARG        -0.2849
     11 NH2       -21.1870   15.5500   -3.7150 N.pl3     1 ARG        -0.2849
     12 N         -15.8440   13.7980   -6.2170 N.am      1 PRO        -0.2471
     13 CA        -14.9140   12.6630   -6.2400 C.3       1 PRO         0.1339
     14 C         -15.6490   11.3600   -6.5240 C.2       1 PRO         0.2041
     15 O         -16.8670   11.2560   -6.3910 O.2       1 PRO        -0.3944
     16 CB        -14.3250   12.6610   -4.8270 C.3       1 PRO        -0.0104
     17 CG        -15.4060   13.2630   -3.9840 C.3       1 PRO        -0.0281
     18 CD        -16.0790   14.2970   -4.8490 C.3       1 PRO         0.0371
     19 N         -14.8870   10.3540   -6.9300 N.am      1 VAL        -0.2635
     20 CA        -15.4220    9.0440   -7.2940 C.3       1 VAL         0.1334
     21 C         -14.9490    8.0300   -6.2570 C.2       1 VAL         0.2066
     22 O         -13.7340    7.8750   -6.0620 O.2       1 VAL        -0.3942
     23 CB        -14.9740    8.6220   -8.7050 C.3       1 VAL        -0.0062
     24 CG1       -15.4660    7.2140   -9.0180 C.3       1 VAL        -0.0584
     25 CG2       -15.4760    9.6110   -9.7480 C.3       1 VAL        -0.0584
     26 N         -15.8490    7.3170   -5.5860 N.am      1 PRO        -0.2498
     27 CA        -15.4150    6.2770   -4.6490 C.3       1 PRO         0.1338
     28 C         -14.7290    5.1310   -5.3720 C.2       1 PRO         0.2041
     29 O         -15.0980    4.7590   -6.4880 O.2       1 PRO        -0.3944
     30 CB        -16.7260    5.7890   -4.0170 C.3       1 PRO        -0.0104
     31 CG        -17.7410    6.8670   -4.3200 C.3       1 PRO        -0.0281
     32 CD        -17.3120    7.4580   -5.6310 C.3       1 PRO         0.0369
     33 N         -13.7260    4.5660   -4.7100 N.am      1 MET        -0.2637
     34 CA        -13.0720    3.3880   -5.2500 C.3       1 MET         0.1317
     35 C         -13.9390    2.1490   -5.0310 C.2       1 MET         0.2039
     36 O         -14.8120    2.1040   -4.1620 O.2       1 MET        -0.3944
     37 CB        -11.7000    3.2180   -4.6110 C.3       1 MET        -0.0034
     38 CG        -10.8200    4.4320   -4.8260 C.3       1 MET        -0.0024
     39 SD         -9.1110    4.1420   -4.3710 S.3       1 MET        -0.1639
     40 CE         -8.7340    2.7310   -5.4080 C.3       1 MET        -0.0181
     41 N         -13.7060    1.1340   -5.8600 N.am      1 LYS        -0.2637
     42 CA        -14.4250   -0.1240   -5.6960 C.3       1 LYS         0.1307
     43 C         -14.1060   -0.7480   -4.3400 C.2       1 LYS         0.2039
     44 O         -13.0190   -0.5610   -3.7840 O.2       1 LYS        -0.3944
     45 CB        -14.0390   -1.0990   -6.8140 C.3       1 LYS        -0.0152
     46 CG        -14.8450   -0.9260   -8.0910 C.3       1 LYS        -0.0610
     47 N         -15.0770   -1.4880   -3.8040 N.am      1 ARG        -0.2637
     48 CA        -14.9730   -2.1440   -2.5060 C.3       1 ARG         0.1311
     49 C         -15.1170   -3.6520   -2.6490 C.2       1 ARG         0.2040
     50 O         -15.9490   -4.1330   -3.4260 O.2       1 ARG        -0.3944
     51 CB        -16.1180   -1.7260   -1.5720 C.3       1 ARG        -0.0092
     52 CG        -16.0330   -0.3330   -1.0380 C.3       1 ARG        -0.0156
     53 CD        -16.9700   -0.1560    0.1300 C.3       1 ARG         0.0627
     54 NE        -16.6280   -1.0280    1.2450 N.pl3     1 ARG        -0.2723
     55 CZ        -17.4740   -1.3880    2.1990 C.cat     1 ARG         0.2882
     56 NH1       -18.7130   -0.9100    2.1780 N.pl3     1 ARG        -0.2849
     57 NH2       -17.0980   -2.1930    3.1780 N.pl3     1 ARG        -0.2849
     58 N         -14.3540   -4.3810   -1.8320 N.am      1 HIS        -0.2625
     59 CA        -14.5090   -5.8260   -1.6400 C.3       1 HIS         0.1369
     60 C         -14.4510   -6.2560   -0.1840 C.2       1 HIS         0.2054
     61 O         -14.9330   -7.3500    0.1440 O.2       1 HIS        -0.3942
     62 CB        -13.4230   -6.6160   -2.3910 C.3       1 HIS         0.0145
     63 CG        -13.2120   -6.1730   -3.7980 C.2       1 HIS        -0.0027
     64 ND1       -12.4270   -5.0890   -4.1230 N.2       1 HIS        -0.3252
     65 CD2       -13.6910   -6.6600   -4.9660 C.2       1 HIS         0.0291
     66 CE1       -12.4320   -4.9260   -5.4340 C.2       1 HIS         0.0907
     67 NE2       -13.1890   -5.8680   -5.9690 N.pl3     1 HIS        -0.2752
     68 N         -13.8530   -5.4630    0.6950 N.am      1 ILE        -0.2634
     69 CA        -13.4630   -5.8910    2.0250 C.3       1 ILE         0.1335
     70 C         -14.3890   -5.2500    3.0480 C.2       1 ILE         0.2043
     71 O         -14.7330   -4.0630    2.9460 O.2       1 ILE        -0.3944
     72 CB        -11.9870   -5.5350    2.2930 C.3       1 ILE        -0.0037
     73 CG1       -11.0850   -6.2120    1.2500 C.3       1 ILE        -0.0491
     74 CG2       -11.5820   -5.9430    3.6900 C.3       1 ILE        -0.0582
     75 CD1        -9.6090   -5.8880    1.4030 C.3       1 ILE        -0.0648
     76 N         -14.7970   -6.0440    4.0290 N.am      1 PHE        -0.2619
     77 CA        -15.7050   -5.5980    5.0730 C.3       1 PHE         0.1404
     78 C         -15.2820   -6.2170    6.3990 C.2       1 PHE         0.2054
     79 O         -14.5570   -7.2130    6.4390 O.2       1 PHE        -0.3942
     80 CB        -17.1550   -5.9820    4.7310 C.3       1 PHE         0.0214
     81 CG        -17.3310   -7.4340    4.3390 C.ar      1 PHE        -0.0386
     82 CD1       -17.6030   -8.3900    5.2990 C.ar      1 PHE        -0.0601
     83 CD2       -17.2080   -7.8390    3.0130 C.ar      1 PHE        -0.0601
     84 CE1       -17.7630   -9.7280    4.9460 C.ar      1 PHE        -0.0686
     85 CE2       -17.3850   -9.1790    2.6510 C.ar      1 PHE        -0.0686
     86 CZ        -17.6490  -10.1100    3.6210 C.ar      1 PHE        -0.0687
     87 N         -15.7290   -5.6120    7.4960 N.am      1 ARG        -0.2693
     88 CA        -15.4490   -6.1470    8.8210 C.3       1 ARG         0.0945
     89 C         -16.2060   -7.4390    9.0410 C.2       1 ARG         0.0601
     90 O         -15.6700   -8.3890    9.6300 O.co2     1 ARG        -0.5666
     91 CB        -15.8570   -5.1520    9.9070 C.3       1 ARG        -0.0148
     92 CG        -15.0190   -3.9190    9.9310 C.3       1 ARG        -0.0162
     93 CD        -13.5790   -4.2480   10.2220 C.3       1 ARG         0.0627
     94 NE        -12.8720   -3.0220   10.5560 N.pl3     1 ARG        -0.2723
     95 CZ        -11.5760   -2.8200   10.3810 C.cat     1 ARG         0.2882
     96 NH1       -10.8090   -3.7690    9.8660 N.pl3     1 ARG        -0.2849
     97 NH2       -11.0570   -1.6480   10.7160 N.pl3     1 ARG        -0.2849
     98 OXT       -17.3680   -7.5300    8.6400 O.co2     1 ARG        -0.5666
     99 H1        -17.9894   17.0106   -8.2937 H         1 ARG         0.2015
    100 H2        -17.4162   15.7917   -9.2399 H         1 ARG         0.2015
    101 H3        -16.3725   16.7092   -8.3578 H         1 ARG         0.2015
    102 H4        -17.2584   15.9151   -6.3168 H         1 ARG         0.1098
    103 H5        -18.8477   13.9876   -6.4247 H         1 ARG         0.0347
    104 H6        -19.0010   14.2547   -8.1944 H         1 ARG         0.0347
    105 H7        -20.2286   16.2524   -7.9127 H         1 ARG         0.0302
    106 H8        -19.6931   16.4572   -6.2104 H         1 ARG         0.0302
    107 H9        -21.7344   14.4602   -7.3269 H         1 ARG         0.0689
    108 H10       -21.9846   15.7293   -6.0805 H         1 ARG         0.0689
    109 H11       -20.6802   13.0815   -5.7284 H         1 ARG         0.2642
    110 H12       -20.3283   13.6642   -2.2938 H         1 ARG         0.2615
    111 H13       -20.1103   12.5062   -3.6332 H         1 ARG         0.2615
    112 H14       -21.5266   16.2587   -4.3808 H         1 ARG         0.2615
    113 H15       -21.1283   15.7728   -2.7111 H         1 ARG         0.2615
    114 H16       -14.1279   12.8130   -6.9947 H         1 PRO         0.0802
    115 H17       -13.4102   13.2703   -4.7837 H         1 PRO         0.0313
    116 H18       -14.0986   11.6357   -4.4991 H         1 PRO         0.0313
    117 H19       -14.9747   13.7353   -3.0891 H         1 PRO         0.0287
    118 H20       -16.1279   12.4910   -3.6793 H         1 PRO         0.0287
    119 H21       -17.1554   14.3544   -4.6297 H         1 PRO         0.0524
    120 H22       -15.6225   15.2876   -4.7068 H         1 PRO         0.0524
    121 H23       -13.8993   10.4986   -6.9900 H         1 VAL         0.1883
    122 H24       -16.5209    9.0906   -7.2771 H         1 VAL         0.0803
    123 H25       -13.8744    8.6192   -8.7330 H         1 VAL         0.0343
    124 H26       -15.1384    6.9272  -10.0282 H         1 VAL         0.0234
    125 H27       -16.5646    7.1899   -8.9683 H         1 VAL         0.0234
    126 H28       -15.0501    6.5085   -8.2836 H         1 VAL         0.0234
    127 H29       -15.1100   10.6191   -9.5034 H         1 VAL         0.0234
    128 H30       -16.5760    9.6116   -9.7533 H         1 VAL         0.0234
    129 H31       -15.1047    9.3170  -10.7408 H         1 VAL         0.0234
    130 H32       -14.7377    6.6924   -3.8883 H         1 PRO         0.0802
    131 H33       -16.6074    5.6661   -2.9303 H         1 PRO         0.0313
    132 H34       -17.0357    4.8322   -4.4626 H         1 PRO         0.0313
    133 H35       -17.7355    7.6340   -3.5315 H         1 PRO         0.0287
    134 H36       -18.7489    6.4345   -4.4039 H         1 PRO         0.0287
    135 H37       -17.7386    6.8987   -6.4767 H         1 PRO         0.0524
    136 H38       -17.6065    8.5153   -5.7047 H         1 PRO         0.0524
    137 H39       -13.4212    4.9521   -3.8394 H         1 MET         0.1883
    138 H40       -12.9363    3.5281   -6.3326 H         1 MET         0.0800
    139 H41       -11.2080    2.3397   -5.0543 H         1 MET         0.0320
    140 H42       -11.8287    3.0596   -3.5301 H         1 MET         0.0320
    141 H43       -11.2098    5.2608   -4.2168 H         1 MET         0.0378
    142 H44       -10.8580    4.7094   -5.8898 H         1 MET         0.0378
    143 H45        -7.6914    2.4221   -5.2419 H         1 MET         0.0340
    144 H46        -8.8713    3.0052   -6.4644 H         1 MET         0.0340
    145 H47        -9.4077    1.8992   -5.1545 H         1 MET         0.0340
    146 H48       -13.0369    1.2343   -6.5964 H         1 LYS         0.1883
    147 H49       -15.5054    0.0748   -5.7516 H         1 LYS         0.0800
    148 H50       -14.1900   -2.1245   -6.4460 H         1 LYS         0.0310
    149 H51       -12.9759   -0.9480   -7.0529 H         1 LYS         0.0310
    150 H52       -14.5086   -1.6590   -8.8390 H         1 LYS         0.0232
    151 H53       -14.6978    0.0913   -8.4826 H         1 LYS         0.0232
    152 H54       -15.9119   -1.0852   -7.8757 H         1 LYS         0.0232
    153 H55       -15.9252   -1.5995   -4.3219 H         1 ARG         0.1883
    154 H56       -14.0022   -1.8933   -2.0535 H         1 ARG         0.0800
    155 H57       -16.1278   -2.4174   -0.7165 H         1 ARG         0.0313
    156 H58       -17.0618   -1.8188   -2.1294 H         1 ARG         0.0313
    157 H59       -16.3073    0.3765   -1.8326 H         1 ARG         0.0301
    158 H60       -15.0026   -0.1341   -0.7085 H         1 ARG         0.0301
    159 H61       -17.9941   -0.3864   -0.1990 H         1 ARG         0.0689
    160 H62       -16.9202    0.8892    0.4692 H         1 ARG         0.0689
    161 H63       -15.6646   -1.3888    1.2953 H         1 ARG         0.2642
    162 H64       -19.3820   -1.1808    2.9128 H         1 ARG         0.2615
    163 H65       -19.0048   -0.2685    1.4269 H         1 ARG         0.2615
    164 H66       -16.1381   -2.5659    3.1981 H         1 ARG         0.2615
    165 H67       -17.7650   -2.4472    3.9206 H         1 ARG         0.2615
    166 H68       -13.6333   -3.9135   -1.3201 H         1 HIS         0.1885
    167 H69       -15.4925   -6.1081   -2.0438 H         1 HIS         0.0817
    168 H70       -13.7134   -7.6769   -2.4027 H         1 HIS         0.0420
    169 H71       -12.4739   -6.5016   -1.8468 H         1 HIS         0.0420
    170 H72       -14.3503   -7.5182   -5.0876 H         1 HIS         0.0729
    171 H73       -11.9022   -4.1475   -5.9810 H         1 HIS         0.1199
    172 H74       -13.3726   -5.9885   -6.9753 H         1 HIS         0.2361
    173 H75       -13.6606   -4.5192    0.4264 H         1 ILE         0.1883
    174 H76       -13.5719   -6.9836    2.0913 H         1 ILE         0.0803
    175 H77       -11.8691   -4.4451    2.2023 H         1 ILE         0.0345
    176 H78       -11.4083   -5.8864    0.2503 H         1 ILE         0.0267
    177 H79       -11.2106   -7.3011    1.3394 H         1 ILE         0.0267
    178 H80       -12.2385   -5.4487    4.4212 H         1 ILE         0.0235
    179 H81       -10.5394   -5.6431    3.8719 H         1 ILE         0.0235
    180 H82       -11.6732   -7.0342    3.7943 H         1 ILE         0.0235
    181 H83        -9.0363   -6.4094    0.6219 H         1 ILE         0.0230
    182 H84        -9.2620   -6.2174    2.3935 H         1 ILE         0.0230
    183 H85        -9.4597   -4.8027    1.3043 H         1 ILE         0.0230
    184 H86       -14.4666   -6.9876    4.0514 H         1 PHE         0.1885
    185 H87       -15.6428   -4.5029    5.1554 H         1 PHE         0.0823
    186 H88       -17.4906   -5.3542    3.8924 H         1 PHE         0.0474
    187 H89       -17.7826   -5.7831    5.6122 H         1 PHE         0.0474
    188 H90       -17.6929   -8.0955    6.3383 H         1 PHE         0.0557
    189 H91       -16.9718   -7.1061    2.2501 H         1 PHE         0.0557
    190 H92       -17.9765  -10.4687    5.7081 H         1 PHE         0.0599
    191 H93       -17.3138   -9.4781    1.6115 H         1 PHE         0.0599
    192 H94       -17.7693  -11.1523    3.3487 H         1 PHE         0.0559
    193 H95       -16.2675   -4.7739    7.4091 H         1 ARG         0.1875
    194 H96       -14.3696   -6.3434    8.9010 H         1 ARG         0.0726
    195 H97       -15.7720   -5.6495   10.8844 H         1 ARG         0.0307
    196 H98       -16.9030   -4.8584    9.7347 H         1 ARG         0.0307
    197 H99       -15.3976   -3.2424   10.7113 H         1 ARG         0.0301
    198 H100      -15.0831   -3.4219    8.9518 H         1 ARG         0.0301
    199 H101      -13.1194   -4.7089    9.3353 H         1 ARG         0.0689
    200 H102      -13.5243   -4.9477   11.0690 H         1 ARG         0.0689
    201 H103      -13.4227   -2.2511   10.9601 H         1 ARG         0.2642
    202 H104       -9.8013   -3.6016    9.7339 H         1 ARG         0.2615
    203 H105      -11.2202   -4.6744    9.5976 H         1 ARG         0.2615
    204 H106      -11.6585   -0.9138   11.1161 H         1 ARG         0.2615
    205 H107      -10.0520   -1.4710   10.5764 H         1 ARG         0.2615
@<TRIPOS>BOND
     1    1    2 1  
     2    2    3 1  
     3    2    5 1  
     4    3    4 2  
     5    3   12 am 
     6    5    6 1  
     7    6    7 1  
     8    7    8 1  
     9    8    9 ar 
    10    9   10 ar 
    11    9   11 ar 
    12   12   13 1  
    13   12   18 1  
    14   13   14 1  
    15   13   16 1  
    16   14   15 2  
    17   14   19 am 
    18   16   17 1  
    19   17   18 1  
    20   19   20 1  
    21   20   21 1  
    22   20   23 1  
    23   21   22 2  
    24   21   26 am 
    25   23   24 1  
    26   23   25 1  
    27   26   27 1  
    28   26   32 1  
    29   27   28 1  
    30   27   30 1  
    31   28   29 2  
    32   28   33 am 
    33   30   31 1  
    34   31   32 1  
    35   33   34 1  
    36   34   35 1  
    37   34   37 1  
    38   35   36 2  
    39   35   41 am 
    40   37   38 1  
    41   38   39 1  
    42   39   40 1  
    43   41   42 1  
    44   42   43 1  
    45   42   45 1  
    46   43   44 2  
    47   43   47 am 
    48   45   46 1  
    49   47   48 1  
    50   48   49 1  
    51   48   51 1  
    52   49   50 2  
    53   49   58 am 
    54   51   52 1  
    55   52   53 1  
    56   53   54 1  
    57   54   55 ar 
    58   55   56 ar 
    59   55   57 ar 
    60   58   59 1  
    61   59   60 1  
    62   59   62 1  
    63   60   61 2  
    64   60   68 am 
    65   62   63 1  
    66   63   64 1  
    67   63   65 2  
    68   64   66 2  
    69   65   67 1  
    70   66   67 1  
    71   68   69 1  
    72   69   70 1  
    73   69   72 1  
    74   70   71 2  
    75   70   76 am 
    76   72   73 1  
    77   72   74 1  
    78   73   75 1  
    79   76   77 1  
    80   77   78 1  
    81   77   80 1  
    82   78   79 2  
    83   78   87 am 
    84   80   81 1  
    85   81   82 ar 
    86   81   83 ar 
    87   82   84 ar 
    88   83   85 ar 
    89   84   86 ar 
    90   85   86 ar 
    91   87   88 1  
    92   88   89 1  
    93   88   91 1  
    94   89   90 ar 
    95   89   98 ar 
    96   91   92 1  
    97   92   93 1  
    98   93   94 1  
    99   94   95 ar 
   100   95   96 ar 
   101   95   97 ar 
   102    1   99 1  
   103    1  100 1  
   104    1  101 1  
   105    2  102 1  
   106    5  103 1  
   107    5  104 1  
   108    6  105 1  
   109    6  106 1  
   110    7  107 1  
   111    7  108 1  
   112    8  109 1  
   113   10  110 1  
   114   10  111 1  
   115   11  112 1  
   116   11  113 1  
   117   13  114 1  
   118   16  115 1  
   119   16  116 1  
   120   17  117 1  
   121   17  118 1  
   122   18  119 1  
   123   18  120 1  
   124   19  121 1  
   125   20  122 1  
   126   23  123 1  
   127   24  124 1  
   128   24  125 1  
   129   24  126 1  
   130   25  127 1  
   131   25  128 1  
   132   25  129 1  
   133   27  130 1  
   134   30  131 1  
   135   30  132 1  
   136   31  133 1  
   137   31  134 1  
   138   32  135 1  
   139   32  136 1  
   140   33  137 1  
   141   34  138 1  
   142   37  139 1  
   143   37  140 1  
   144   38  141 1  
   145   38  142 1  
   146   40  143 1  
   147   40  144 1  
   148   40  145 1  
   149   41  146 1  
   150   42  147 1  
   151   45  148 1  
   152   45  149 1  
   153   46  150 1  
   154   46  151 1  
   155   46  152 1  
   156   47  153 1  
   157   48  154 1  
   158   51  155 1  
   159   51  156 1  
   160   52  157 1  
   161   52  158 1  
   162   53  159 1  
   163   53  160 1  
   164   54  161 1  
   165   56  162 1  
   166   56  163 1  
   167   57  164 1  
   168   57  165 1  
   169   58  166 1  
   170   59  167 1  
   171   62  168 1  
   172   62  169 1  
   173   65  170 1  
   174   66  171 1  
   175   67  172 1  
   176   68  173 1  
   177   69  174 1  
   178   72  175 1  
   179   73  176 1  
   180   73  177 1  
   181   74  178 1  
   182   74  179 1  
   183   74  180 1  
   184   75  181 1  
   185   75  182 1  
   186   75  183 1  
   187   76  184 1  
   188   77  185 1  
   189   80  186 1  
   190   80  187 1  
   191   82  188 1  
   192   83  189 1  
   193   84  190 1  
   194   85  191 1  
   195   86  192 1  
   196   87  193 1  
   197   88  194 1  
   198   91  195 1  
   199   91  196 1  
   200   92  197 1  
   201   92  198 1  
   202   93  199 1  
   203   93  200 1  
   204   94  201 1  
   205   96  202 1  
   206   96  203 1  
   207   97  204 1  
   208   97  205 1  
@<TRIPOS>SUBSTRUCTURE
     1 ARG         1

