5xhz_ligand
  -I-interpret- 

202205  0  0  0  0  0  0  0  0999 V2000
  -17.2890   16.2900   -8.3730 N   0  3  0  0  0
  -17.4180   15.3600   -7.2530 C   0  0  0  0  0
  -16.3630   14.2560   -7.3530 C   0  0  0  0  0
  -16.0350   13.8090   -8.4510 O   0  0  0  0  0
  -18.8280   14.7430   -7.2240 C   0  0  0  0  0
  -19.9990   15.7270   -6.9740 C   0  0  0  0  0
  -21.2710   14.9970   -6.4860 C   0  0  0  0  0
  -20.8990   14.0470   -5.4440 N   0  0  0  0  0
  -20.8240   14.3460   -4.1520 C   0  0  0  0  0
  -20.3890   13.4390   -3.2970 N   0  0  0  0  0
  -21.1870   15.5500   -3.7150 N   0  0  0  0  0
  -15.8440   13.7980   -6.2170 N   0  0  0  0  0
  -14.9140   12.6630   -6.2400 C   0  0  0  0  0
  -15.6490   11.3600   -6.5240 C   0  0  0  0  0
  -16.8670   11.2560   -6.3910 O   0  0  0  0  0
  -14.3250   12.6610   -4.8270 C   0  0  0  0  0
  -15.4060   13.2630   -3.9840 C   0  0  0  0  0
  -16.0790   14.2970   -4.8490 C   0  0  0  0  0
  -14.8870   10.3540   -6.9300 N   0  0  0  0  0
  -15.4220    9.0440   -7.2940 C   0  0  0  0  0
  -14.9490    8.0300   -6.2570 C   0  0  0  0  0
  -13.7340    7.8750   -6.0620 O   0  0  0  0  0
  -14.9740    8.6220   -8.7050 C   0  0  0  0  0
  -15.4660    7.2140   -9.0180 C   0  0  0  0  0
  -15.4760    9.6110   -9.7480 C   0  0  0  0  0
  -15.8490    7.3170   -5.5860 N   0  0  0  0  0
  -15.4150    6.2770   -4.6490 C   0  0  0  0  0
  -14.7290    5.1310   -5.3720 C   0  0  0  0  0
  -15.0980    4.7590   -6.4880 O   0  0  0  0  0
  -16.7260    5.7890   -4.0170 C   0  0  0  0  0
  -17.7410    6.8670   -4.3200 C   0  0  0  0  0
  -17.3120    7.4580   -5.6310 C   0  0  0  0  0
  -13.7260    4.5660   -4.7100 N   0  0  0  0  0
  -13.0720    3.3880   -5.2500 C   0  0  0  0  0
  -13.9390    2.1490   -5.0310 C   0  0  0  0  0
  -14.8120    2.1040   -4.1620 O   0  0  0  0  0
  -11.7000    3.2180   -4.6110 C   0  0  0  0  0
  -10.8200    4.4320   -4.8260 C   0  0  0  0  0
   -9.1110    4.1420   -4.3710 S   0  0  0  0  0
   -8.7340    2.7310   -5.4080 C   0  0  0  0  0
  -13.7060    1.1340   -5.8600 N   0  0  0  0  0
  -14.4250   -0.1240   -5.6960 C   0  0  0  0  0
  -14.1060   -0.7480   -4.3400 C   0  0  0  0  0
  -13.0190   -0.5610   -3.7840 O   0  0  0  0  0
  -14.0390   -1.0990   -6.8140 C   0  0  0  0  0
  -14.8450   -0.9260   -8.0910 C   0  0  0  0  0
  -15.0770   -1.4880   -3.8040 N   0  0  0  0  0
  -14.9730   -2.1440   -2.5060 C   0  0  0  0  0
  -15.1170   -3.6520   -2.6490 C   0  0  0  0  0
  -15.9490   -4.1330   -3.4260 O   0  0  0  0  0
  -16.1180   -1.7260   -1.5720 C   0  0  0  0  0
  -16.0330   -0.3330   -1.0380 C   0  0  0  0  0
  -16.9700   -0.1560    0.1300 C   0  0  0  0  0
  -16.6280   -1.0280    1.2450 N   0  0  0  0  0
  -17.4740   -1.3880    2.1990 C   0  0  0  0  0
  -18.7130   -0.9100    2.1780 N   0  0  0  0  0
  -17.0980   -2.1930    3.1780 N   0  0  0  0  0
  -14.3540   -4.3810   -1.8320 N   0  0  0  0  0
  -14.5090   -5.8260   -1.6400 C   0  0  0  0  0
  -14.4510   -6.2560   -0.1840 C   0  0  0  0  0
  -14.9330   -7.3500    0.1440 O   0  0  0  0  0
  -13.4230   -6.6160   -2.3910 C   0  0  0  0  0
  -13.2120   -6.1730   -3.7980 C   0  0  0  0  0
  -12.4270   -5.0890   -4.1230 N   0  0  0  0  0
  -13.6910   -6.6600   -4.9660 C   0  0  0  0  0
  -12.4320   -4.9260   -5.4340 C   0  0  0  0  0
  -13.1890   -5.8680   -5.9690 N   0  0  0  0  0
  -13.8530   -5.4630    0.6950 N   0  0  0  0  0
  -13.4630   -5.8910    2.0250 C   0  0  0  0  0
  -14.3890   -5.2500    3.0480 C   0  0  0  0  0
  -14.7330   -4.0630    2.9460 O   0  0  0  0  0
  -11.9870   -5.5350    2.2930 C   0  0  0  0  0
  -11.0850   -6.2120    1.2500 C   0  0  0  0  0
  -11.5820   -5.9430    3.6900 C   0  0  0  0  0
   -9.6090   -5.8880    1.4030 C   0  0  0  0  0
  -14.7970   -6.0440    4.0290 N   0  0  0  0  0
  -15.7050   -5.5980    5.0730 C   0  0  0  0  0
  -15.2820   -6.2170    6.3990 C   0  0  0  0  0
  -14.5570   -7.2130    6.4390 O   0  0  0  0  0
  -17.1550   -5.9820    4.7310 C   0  0  0  0  0
  -17.3310   -7.4340    4.3390 C   0  0  0  0  0
  -17.6030   -8.3900    5.2990 C   0  0  0  0  0
  -17.2080   -7.8390    3.0130 C   0  0  0  0  0
  -17.7630   -9.7280    4.9460 C   0  0  0  0  0
  -17.3850   -9.1790    2.6510 C   0  0  0  0  0
  -17.6490  -10.1100    3.6210 C   0  0  0  0  0
  -15.7290   -5.6120    7.4960 N   0  0  0  0  0
  -15.4490   -6.1470    8.8210 C   0  0  0  0  0
  -16.2060   -7.4390    9.0410 C   0  0  0  0  0
  -15.6700   -8.3890    9.6300 O   0  0  0  0  0
  -15.8570   -5.1520    9.9070 C   0  0  0  0  0
  -15.0190   -3.9190    9.9310 C   0  0  0  0  0
  -13.5790   -4.2480   10.2220 C   0  0  0  0  0
  -12.8720   -3.0220   10.5560 N   0  0  0  0  0
  -11.5760   -2.8200   10.3810 C   0  0  0  0  0
  -10.8090   -3.7690    9.8660 N   0  0  0  0  0
  -11.0570   -1.6480   10.7160 N   0  0  0  0  0
  -17.3680   -7.5300    8.6400 O   0  0  0  0  0
  -16.3500   16.6883   -8.3762 H   0  0  0  0  0
  -17.4511   15.7913   -9.2479 H   0  0  0  0  0
  -17.9762   17.0372   -8.2738 H   0  0  0  0  0
  -17.2605   15.9134   -6.3272 H   0  0  0  0  0
  -18.8365   14.0409   -6.3903 H   0  0  0  0  0
  -18.9944   14.3161   -8.2130 H   0  0  0  0  0
  -20.2315   16.2275   -7.9140 H   0  0  0  0  0
  -19.6930   16.4334   -6.2023 H   0  0  0  0  0
  -21.7351   14.4682   -7.3185 H   0  0  0  0  0
  -21.9820   15.7211   -6.0881 H   0  0  0  0  0
  -20.6823   13.0909   -5.7256 H   0  0  0  0  0
  -20.1130   12.5152   -3.6299 H   0  0  0  0  0
  -21.1288   15.7706   -2.7208 H   0  0  0  0  0
  -21.5233   16.2518   -4.3743 H   0  0  0  0  0
  -14.1564   12.7496   -7.0189 H   0  0  0  0  0
  -13.3927   13.2226   -4.7669 H   0  0  0  0  0
  -14.0509   11.6597   -4.4948 H   0  0  0  0  0
  -14.9973   13.7111   -3.0783 H   0  0  0  0  0
  -16.1148   12.5052   -3.6502 H   0  0  0  0  0
  -17.1385   14.4114   -4.6197 H   0  0  0  0  0
  -15.6801   15.2993   -4.6931 H   0  0  0  0  0
  -13.8796   10.5015   -6.9912 H   0  0  0  0  0
  -16.5109    9.0915   -7.3078 H   0  0  0  0  0
  -13.8844    8.6222   -8.7352 H   0  0  0  0  0
  -15.0533    6.5160   -8.2896 H   0  0  0  0  0
  -16.5546    7.1915   -8.9683 H   0  0  0  0  0
  -15.1407    6.9310  -10.0191 H   0  0  0  0  0
  -16.5651    9.6457   -9.7194 H   0  0  0  0  0
  -15.0739   10.6007   -9.5316 H   0  0  0  0  0
  -15.1472    9.2921  -10.7371 H   0  0  0  0  0
  -14.6939    6.6516   -3.9225 H   0  0  0  0  0
  -16.6188    5.6293   -2.9441 H   0  0  0  0  0
  -17.0321    4.8247   -4.4226 H   0  0  0  0  0
  -17.7739    7.6197   -3.5323 H   0  0  0  0  0
  -18.7517    6.4625   -4.3740 H   0  0  0  0  0
  -17.7610    6.9588   -6.4896 H   0  0  0  0  0
  -17.6358    8.4910   -5.7579 H   0  0  0  0  0
  -13.4151    4.9599   -3.8219 H   0  0  0  0  0
  -12.9374    3.5155   -6.3241 H   0  0  0  0  0
  -11.2134    2.3583   -5.0717 H   0  0  0  0  0
  -11.8379    3.0825   -3.5383 H   0  0  0  0  0
  -11.2010    5.2357   -4.1959 H   0  0  0  0  0
  -10.8452    4.6783   -5.8875 H   0  0  0  0  0
   -9.4022    1.9076   -5.1559 H   0  0  0  0  0
   -8.8704    3.0040   -6.4544 H   0  0  0  0  0
   -7.7008    2.4258   -5.2425 H   0  0  0  0  0
  -13.0235    1.2363   -6.6111 H   0  0  0  0  0
  -15.4944    0.0803   -5.7482 H   0  0  0  0  0
  -14.2306   -2.1065   -6.4448 H   0  0  0  0  0
  -12.9949   -0.9089   -7.0625 H   0  0  0  0  0
  -15.9019   -1.0840   -7.8763 H   0  0  0  0  0
  -14.6983    0.0824   -8.4779 H   0  0  0  0  0
  -14.5108   -1.6528   -8.8314 H   0  0  0  0  0
  -15.9421   -1.6017   -4.3322 H   0  0  0  0  0
  -14.0008   -1.8572   -2.1051 H   0  0  0  0  0
  -16.0764   -2.3927   -0.7107 H   0  0  0  0  0
  -17.0344   -1.7787   -2.1599 H   0  0  0  0  0
  -16.3140    0.3657   -1.8260 H   0  0  0  0  0
  -15.0126   -0.1435   -0.7048 H   0  0  0  0  0
  -17.9773   -0.4079   -0.2015 H   0  0  0  0  0
  -16.8960    0.8765    0.4713 H   0  0  0  0  0
  -15.6739   -1.3853    1.2949 H   0  0  0  0  0
  -19.3703   -1.1643    2.9154 H   0  0  0  0  0
  -19.0072   -0.2886    1.4245 H   0  0  0  0  0
  -16.1422   -2.5480    3.2077 H   0  0  0  0  0
  -13.6189   -3.9041   -1.3099 H   0  0  0  0  0
  -15.5003   -6.0468   -2.0358 H   0  0  0  0  0
  -13.7466   -7.6563   -2.4255 H   0  0  0  0  0
  -12.4844   -6.4594   -1.8593 H   0  0  0  0  0
  -14.3509   -7.5190   -5.0877 H   0  0  0  0  0
  -11.9018   -4.1468   -5.9815 H   0  0  0  0  0
  -13.6568   -4.5003    0.4210 H   0  0  0  0  0
  -13.5543   -6.9742    2.1058 H   0  0  0  0  0
  -11.8699   -4.4545    2.2104 H   0  0  0  0  0
  -11.3952   -5.8481    0.2705 H   0  0  0  0  0
  -11.1940   -7.2888    1.3796 H   0  0  0  0  0
  -12.2071   -5.4217    4.4150 H   0  0  0  0  0
  -11.7109   -7.0193    3.8046 H   0  0  0  0  0
  -10.5368   -5.6814    3.8549 H   0  0  0  0  0
   -9.4624   -4.8124    1.3051 H   0  0  0  0  0
   -9.2665   -6.2148    2.3848 H   0  0  0  0  0
   -9.0426   -6.4052    0.6285 H   0  0  0  0  0
  -14.4600   -7.0065    4.0518 H   0  0  0  0  0
  -15.6597   -4.5118    5.1519 H   0  0  0  0  0
  -17.4567   -5.3772    3.8758 H   0  0  0  0  0
  -17.7539   -5.8137    5.6260 H   0  0  0  0  0
  -17.6934   -8.0938    6.3441 H   0  0  0  0  0
  -16.9705   -7.1020    2.2459 H   0  0  0  0  0
  -17.9777  -10.4728    5.7123 H   0  0  0  0  0
  -17.3134   -9.4798    1.6058 H   0  0  0  0  0
  -17.7700  -11.1581    3.3472 H   0  0  0  0  0
  -16.2783   -4.7571    7.4074 H   0  0  0  0  0
  -14.3764   -6.3312    8.8814 H   0  0  0  0  0
  -14.7722   -8.1492    9.8708 H   0  0  0  0  0
  -15.7346   -5.6495   10.8691 H   0  0  0  0  0
  -16.8829   -4.8463    9.7019 H   0  0  0  0  0
  -15.3914   -3.2594   10.7148 H   0  0  0  0  0
  -15.0766   -3.4390    8.9541 H   0  0  0  0  0
  -13.1227   -4.7086    9.3458 H   0  0  0  0  0
  -13.5227   -4.9446   11.0585 H   0  0  0  0  0
  -13.4173   -2.2585   10.9562 H   0  0  0  0  0
  -11.2162   -4.6656    9.6002 H   0  0  0  0  0
  -10.0617   -1.4727   10.5777 H   0  0  0  0  0
  -11.6527   -0.9210   11.1122 H   0  0  0  0  0
  1  2  1  0  0  0
  2  3  1  0  0  0
  2  5  1  0  0  0
  3  4  2  0  0  0
  3 12  1  0  0  0
  5  6  1  0  0  0
  6  7  1  0  0  0
  7  8  1  0  0  0
  8  9  1  0  0  0
  9 10  2  0  0  0
  9 11  1  0  0  0
 12 13  1  0  0  0
 12 18  1  0  0  0
 13 14  1  0  0  0
 13 16  1  0  0  0
 14 15  2  0  0  0
 14 19  1  0  0  0
 16 17  1  0  0  0
 17 18  1  0  0  0
 19 20  1  0  0  0
 20 21  1  0  0  0
 20 23  1  0  0  0
 21 22  2  0  0  0
 21 26  1  0  0  0
 23 24  1  0  0  0
 23 25  1  0  0  0
 26 27  1  0  0  0
 26 32  1  0  0  0
 27 28  1  0  0  0
 27 30  1  0  0  0
 28 29  2  0  0  0
 28 33  1  0  0  0
 30 31  1  0  0  0
 31 32  1  0  0  0
 33 34  1  0  0  0
 34 35  1  0  0  0
 34 37  1  0  0  0
 35 36  2  0  0  0
 35 41  1  0  0  0
 37 38  1  0  0  0
 38 39  1  0  0  0
 39 40  1  0  0  0
 41 42  1  0  0  0
 42 43  1  0  0  0
 42 45  1  0  0  0
 43 44  2  0  0  0
 43 47  1  0  0  0
 45 46  1  0  0  0
 47 48  1  0  0  0
 48 49  1  0  0  0
 48 51  1  0  0  0
 49 50  2  0  0  0
 49 58  1  0  0  0
 51 52  1  0  0  0
 52 53  1  0  0  0
 53 54  1  0  0  0
 54 55  1  0  0  0
 55 56  1  0  0  0
 55 57  2  0  0  0
 58 59  1  0  0  0
 59 60  1  0  0  0
 59 62  1  0  0  0
 60 61  2  0  0  0
 60 68  1  0  0  0
 62 63  1  0  0  0
 63 64  4  0  0  0
 63 65  4  0  0  0
 64 66  4  0  0  0
 65 67  4  0  0  0
 66 67  4  0  0  0
 68 69  1  0  0  0
 69 70  1  0  0  0
 69 72  1  0  0  0
 70 71  2  0  0  0
 70 76  1  0  0  0
 72 73  1  0  0  0
 72 74  1  0  0  0
 73 75  1  0  0  0
 76 77  1  0  0  0
 77 78  1  0  0  0
 77 80  1  0  0  0
 78 79  2  0  0  0
 78 87  1  0  0  0
 80 81  1  0  0  0
 81 82  4  0  0  0
 81 83  4  0  0  0
 82 84  4  0  0  0
 83 85  4  0  0  0
 84 86  4  0  0  0
 85 86  4  0  0  0
 87 88  1  0  0  0
 88 89  1  0  0  0
 88 91  1  0  0  0
 89 90  1  0  0  0
 89 98  2  0  0  0
 91 92  1  0  0  0
 92 93  1  0  0  0
 93 94  1  0  0  0
 94 95  1  0  0  0
 95 96  2  0  0  0
 95 97  1  0  0  0
  1 99  1  0  0  0
  1100  1  0  0  0
  1101  1  0  0  0
  2102  1  0  0  0
  5103  1  0  0  0
  5104  1  0  0  0
  6105  1  0  0  0
  6106  1  0  0  0
  7107  1  0  0  0
  7108  1  0  0  0
  8109  1  0  0  0
 10110  1  0  0  0
 11111  1  0  0  0
 11112  1  0  0  0
 13113  1  0  0  0
 16114  1  0  0  0
 16115  1  0  0  0
 17116  1  0  0  0
 17117  1  0  0  0
 18118  1  0  0  0
 18119  1  0  0  0
 19120  1  0  0  0
 20121  1  0  0  0
 23122  1  0  0  0
 24123  1  0  0  0
 24124  1  0  0  0
 24125  1  0  0  0
 25126  1  0  0  0
 25127  1  0  0  0
 25128  1  0  0  0
 27129  1  0  0  0
 30130  1  0  0  0
 30131  1  0  0  0
 31132  1  0  0  0
 31133  1  0  0  0
 32134  1  0  0  0
 32135  1  0  0  0
 33136  1  0  0  0
 34137  1  0  0  0
 37138  1  0  0  0
 37139  1  0  0  0
 38140  1  0  0  0
 38141  1  0  0  0
 40142  1  0  0  0
 40143  1  0  0  0
 40144  1  0  0  0
 41145  1  0  0  0
 42146  1  0  0  0
 45147  1  0  0  0
 45148  1  0  0  0
 46149  1  0  0  0
 46150  1  0  0  0
 46151  1  0  0  0
 47152  1  0  0  0
 48153  1  0  0  0
 51154  1  0  0  0
 51155  1  0  0  0
 52156  1  0  0  0
 52157  1  0  0  0
 53158  1  0  0  0
 53159  1  0  0  0
 54160  1  0  0  0
 56161  1  0  0  0
 56162  1  0  0  0
 57163  1  0  0  0
 58164  1  0  0  0
 59165  1  0  0  0
 62166  1  0  0  0
 62167  1  0  0  0
 65168  1  0  0  0
 66169  1  0  0  0
 68170  1  0  0  0
 69171  1  0  0  0
 72172  1  0  0  0
 73173  1  0  0  0
 73174  1  0  0  0
 74175  1  0  0  0
 74176  1  0  0  0
 74177  1  0  0  0
 75178  1  0  0  0
 75179  1  0  0  0
 75180  1  0  0  0
 76181  1  0  0  0
 77182  1  0  0  0
 80183  1  0  0  0
 80184  1  0  0  0
 82185  1  0  0  0
 83186  1  0  0  0
 84187  1  0  0  0
 85188  1  0  0  0
 86189  1  0  0  0
 87190  1  0  0  0
 88191  1  0  0  0
 90192  1  0  0  0
 91193  1  0  0  0
 91194  1  0  0  0
 92195  1  0  0  0
 92196  1  0  0  0
 93197  1  0  0  0
 93198  1  0  0  0
 94199  1  0  0  0
 96200  1  0  0  0
 97201  1  0  0  0
 97202  1  0  0  0
M  END
$$$$
