### 
### Created by X-TOOL on Mon Sep 10 21:13:12 2018
### 

@<TRIPOS>MOLECULE
2lgf_ligand
  286   288     1     0     0
SMALL
GAST_HUCK


@<TRIPOS>ATOM
      1 N          -4.5620    1.8560    1.2650 N.4       1 ALA         0.2377
      2 CA         -3.7780    2.4850    0.1590 C.3       1 ALA         0.0621
      3 C          -2.3010    2.4920    0.5320 C.2       1 ALA         0.2265
      4 O          -1.4370    2.6210   -0.3280 O.2       1 ALA        -0.3907
      5 CB         -4.2810    3.9070   -0.0710 C.3       1 ALA        -0.0040
      6 N          -2.0140    2.3410    1.8200 N.am      1 PHE        -0.2592
      7 CA         -0.6280    2.3160    2.2910 C.3       1 PHE         0.1406
      8 C           0.2600    1.5320    1.3210 C.2       1 PHE         0.2060
      9 O           1.4720    1.7160    1.2820 O.2       1 PHE        -0.3942
     10 CB         -0.5680    1.6730    3.6870 C.3       1 PHE         0.0214
     11 CG         -0.6340    0.1600    3.5730 C.ar      1 PHE        -0.0386
     12 CD1        -1.5480   -0.4580    2.6950 C.ar      1 PHE        -0.0601
     13 CD2         0.2360   -0.6280    4.3340 C.ar      1 PHE        -0.0601
     14 CE1        -1.5870   -1.8390    2.5860 C.ar      1 PHE        -0.0686
     15 CE2         0.1950   -2.0210    4.2160 C.ar      1 PHE        -0.0686
     16 CZ         -0.7180   -2.6240    3.3400 C.ar      1 PHE        -0.0687
     17 N          -0.3580    0.6630    0.5420 N.am      1 ILE        -0.2633
     18 CA          0.3790   -0.1450   -0.4190 C.3       1 ILE         0.1335
     19 C           1.1760    0.7460   -1.3660 C.2       1 ILE         0.2042
     20 O           2.3370    0.4610   -1.6890 O.2       1 ILE        -0.3944
     21 CB         -0.6040   -1.0440   -1.2190 C.3       1 ILE        -0.0037
     22 CG1        -2.0490   -0.6110   -0.9490 C.3       1 ILE        -0.0491
     23 CG2        -0.4520   -2.5140   -0.8120 C.3       1 ILE        -0.0582
     24 CD1        -3.0150   -1.3080   -1.9030 C.3       1 ILE        -0.0648
     25 N           0.5550    1.8170   -1.8120 N.am      1 ILE        -0.2635
     26 CA          1.2200    2.7190   -2.7310 C.3       1 ILE         0.1335
     27 C           2.4810    3.2780   -2.0890 C.2       1 ILE         0.2042
     28 O           3.5420    3.3150   -2.7150 O.2       1 ILE        -0.3944
     29 CB          0.2640    3.8690   -3.1070 C.3       1 ILE        -0.0037
     30 CG1        -0.8640    3.3500   -4.0300 C.3       1 ILE        -0.0491
     31 CG2         1.0430    4.9830   -3.8110 C.3       1 ILE        -0.0582
     32 CD1        -1.9510    2.6470   -3.2200 C.3       1 ILE        -0.0648
     33 N           2.3700    3.6870   -0.8400 N.am      1 TRP        -0.2627
     34 CA          3.5170    4.2260   -0.1360 C.3       1 TRP         0.1352
     35 C           4.5900    3.1540    0.0240 C.2       1 TRP         0.2052
     36 O           5.7840    3.4310   -0.0990 O.2       1 TRP        -0.3942
     37 CB          3.0800    4.7380    1.2540 C.3       1 TRP         0.0042
     38 CG          4.2020    4.5930    2.2350 C.2       1 TRP        -0.0418
     39 CD1         5.3150    5.3510    2.2720 C.2       1 TRP         0.0167
     40 CD2         4.3440    3.6080    3.2860 C.ar      1 TRP        -0.0214
     41 NE1         6.1290    4.8920    3.2920 N.pl3     1 TRP        -0.2890
     42 CE2         5.5680    3.8130    3.9440 C.ar      1 TRP         0.0603
     43 CE3         3.5260    2.5700    3.7210 C.ar      1 TRP        -0.0747
     44 CZ2         5.9680    3.0000    5.0010 C.ar      1 TRP        -0.0443
     45 CZ3         3.9150    1.7460    4.7860 C.ar      1 TRP        -0.0792
     46 CH2         5.1400    1.9610    5.4250 C.ar      1 TRP        -0.0768
     47 N           4.1590    1.9470    0.3420 N.am      1 LEU        -0.2636
     48 CA          5.0990    0.8710    0.5660 C.3       1 LEU         0.1312
     49 C           6.0660    0.7660   -0.5940 C.2       1 LEU         0.2039
     50 O           7.2710    0.6010   -0.3940 O.2       1 LEU        -0.3944
     51 CB          4.3400   -0.4520    0.7270 C.3       1 LEU        -0.0101
     52 CG          3.6170   -0.5030    2.0760 C.3       1 LEU        -0.0425
     53 CD1         2.5550   -1.6300    2.0870 C.3       1 LEU        -0.0625
     54 CD2         4.6310   -0.7560    3.1990 C.3       1 LEU        -0.0625
     55 N           5.5420    0.8540   -1.8050 N.am      1 ALA        -0.2640
     56 CA          6.3930    0.7620   -2.9870 C.3       1 ALA         0.1282
     57 C           7.2690    2.0010   -3.1210 C.2       1 ALA         0.2036
     58 O           8.4320    1.9130   -3.5160 O.2       1 ALA        -0.3944
     59 CB          5.5250    0.6120   -4.2370 C.3       1 ALA        -0.0244
     60 N           6.7000    3.1560   -2.8010 N.am      1 ARG        -0.2637
     61 CA          7.4430    4.4040   -2.9010 C.3       1 ARG         0.1311
     62 C           8.6340    4.4000   -1.9520 C.2       1 ARG         0.2039
     63 O           9.6950    4.9240   -2.2810 O.2       1 ARG        -0.3944
     64 CB          6.5360    5.5860   -2.5650 C.3       1 ARG        -0.0092
     65 CG          5.5160    5.7900   -3.6880 C.3       1 ARG        -0.0156
     66 CD          4.7580    7.1020   -3.4630 C.3       1 ARG         0.0627
     67 NE          4.6280    7.3770   -2.0320 N.pl3     1 ARG        -0.2723
     68 CZ          4.5770    8.6250   -1.5700 C.cat     1 ARG         0.2882
     69 NH1         4.6300    9.6320   -2.3980 N.pl3     1 ARG        -0.2849
     70 NH2         4.4720    8.8420   -0.2870 N.pl3     1 ARG        -0.2849
     71 N           8.4530    3.8220   -0.7720 N.am      1 ARG        -0.2637
     72 CA          9.5280    3.7840    0.2090 C.3       1 ARG         0.1311
     73 C          10.7420    3.0530   -0.3500 C.2       1 ARG         0.2039
     74 O          11.8590    3.5680   -0.3130 O.2       1 ARG        -0.3944
     75 CB          9.0400    3.0640    1.4720 C.3       1 ARG        -0.0092
     76 CG         10.1280    3.1060    2.5490 C.3       1 ARG        -0.0156
     77 CD          9.6460    2.3660    3.7940 C.3       1 ARG         0.0627
     78 NE         10.5960    2.5460    4.8860 N.pl3     1 ARG        -0.2723
     79 CZ         10.5730    1.7590    5.9560 C.cat     1 ARG         0.2882
     80 NH1         9.6890    0.8040    6.0440 N.pl3     1 ARG        -0.2849
     81 NH2        11.4340    1.9420    6.9200 N.pl3     1 ARG        -0.2849
     82 N          10.5200    1.8520   -0.8630 N.am      1 LEU        -0.2637
     83 CA         11.6090    1.0660   -1.4220 C.3       1 LEU         0.1312
     84 C          12.0860    1.6590   -2.7390 C.2       1 LEU         0.2039
     85 O          13.2850    1.7020   -3.0190 O.2       1 LEU        -0.3944
     86 CB         11.1540   -0.3740   -1.6400 C.3       1 LEU        -0.0101
     87 CG         10.3890   -0.8740   -0.4060 C.3       1 LEU        -0.0425
     88 CD1        10.1720   -2.3900   -0.5060 C.3       1 LEU        -0.0625
     89 CD2        11.1790   -0.5500    0.8670 C.3       1 LEU        -0.0625
     90 N          11.1330    2.1030   -3.5510 N.am      1 LYS        -0.2637
     91 CA         11.4540    2.6780   -4.8470 C.3       1 LYS         0.1310
     92 C          12.2870    3.9470   -4.6760 C.2       1 LYS         0.2039
     93 O          13.2010    4.2130   -5.4560 O.2       1 LYS        -0.3944
     94 CB         10.1730    2.9990   -5.6160 C.3       1 LYS        -0.0122
     95 CG         10.5270    3.4400   -7.0370 C.3       1 LYS        -0.0440
     96 CD          9.2410    3.6270   -7.8460 C.3       1 LYS        -0.0124
     97 CE          9.5910    4.0520   -9.2730 C.3       1 LYS        -0.0354
     98 NZ          8.3380    4.2090  -10.0660 N.4       1 LYS         0.2185
     99 N          11.9610    4.7240   -3.6440 N.am      1 LYS        -0.2637
    100 CA         12.6830    5.9640   -3.3720 C.3       1 LYS         0.1310
    101 C          14.1510    5.6740   -3.0780 C.2       1 LYS         0.2037
    102 O          15.0360    6.4310   -3.4750 O.2       1 LYS        -0.3944
    103 CB         12.0560    6.6840   -2.1830 C.3       1 LYS        -0.0122
    104 CG         12.7440    8.0350   -1.9940 C.3       1 LYS        -0.0440
    105 CD         12.0520    8.7970   -0.8700 C.3       1 LYS        -0.0124
    106 CE         12.7220   10.1640   -0.6780 C.3       1 LYS        -0.0354
    107 NZ         12.2400   11.1030   -1.7290 N.4       1 LYS         0.2185
    108 N          14.4040    4.5680   -2.3840 N.am      1 GLY        -0.2664
    109 CA         15.7700    4.1860   -2.0440 C.3       1 GLY         0.1201
    110 C          16.5380    3.7340   -3.2830 C.2       1 GLY         0.2007
    111 O          17.7340    3.9970   -3.4130 O.2       1 GLY        -0.3947
    112 N          15.8400    3.0560   -4.1910 N.am      1 LYS        -0.2640
    113 CA         16.4620    2.5730   -5.4200 C.3       1 LYS         0.1309
    114 C          16.9710    3.7420   -6.2550 C.2       1 LYS         0.2033
    115 O          18.0880    3.7110   -6.7720 O.2       1 LYS        -0.3944
    116 CB         15.4590    1.7580   -6.2280 C.3       1 LYS        -0.0122
    117 CG         16.1650    1.1570   -7.4460 C.3       1 LYS        -0.0440
    118 CD         15.2060    0.2230   -8.1690 C.3       1 LYS        -0.0124
    119 CE         15.9060   -0.3970   -9.3840 C.3       1 LYS        -0.0354
    120 NZ         14.9760   -1.3350  -10.0770 N.4       1 LYS         0.2185
    121 N          16.1450    4.7710   -6.3790 N.am      1 LYS        -0.2695
    122 CA         16.5210    5.9450   -7.1540 C.3       1 LYS         0.0944
    123 C          17.7740    6.5950   -6.5790 C.2       1 LYS         0.0601
    124 O          17.7770    6.8860   -5.3940 O.co2     1 LYS        -0.5666
    125 CB         15.3750    6.9610   -7.1550 C.3       1 LYS        -0.0177
    126 CG         15.6210    8.0270   -8.2450 C.3       1 LYS        -0.0446
    127 CD         15.0470    7.5470   -9.5820 C.3       1 LYS        -0.0125
    128 CE         15.2430    8.6290  -10.6380 C.3       1 LYS        -0.0354
    129 NZ         14.6850    8.1560  -11.9350 N.4       1 LYS         0.2185
    130 OXT        18.7100    6.8000   -7.3360 O.co2     1 LYS        -0.5666
    131 H1         -5.5402    1.8495    1.0219 H         1 ALA         0.2015
    132 H2         -4.4301    2.3845    2.1131 H         1 ALA         0.2015
    133 H3         -4.2445    0.9097    1.4059 H         1 ALA         0.2015
    134 H4         -3.9142    1.9012   -0.7633 H         1 ALA         0.1095
    135 H5         -3.7055    4.3723   -0.8848 H         1 ALA         0.0310
    136 H6         -4.1540    4.4944    0.8503 H         1 ALA         0.0310
    137 H7         -5.3461    3.8795   -0.3444 H         1 ALA         0.0310
    138 H8         -2.7585    2.2426    2.4803 H         1 PHE         0.1886
    139 H9         -0.2563    3.3492    2.3559 H         1 PHE         0.0823
    140 H10        -1.4180    2.0291    4.2875 H         1 PHE         0.0474
    141 H11         0.3736    1.9592    4.1783 H         1 PHE         0.0474
    142 H12        -2.2228    0.1495    2.1029 H         1 PHE         0.0557
    143 H13         0.9398   -0.1604    5.0131 H         1 PHE         0.0557
    144 H14        -2.2949   -2.3090    1.9129 H         1 PHE         0.0599
    145 H15         0.8695   -2.6345    4.8022 H         1 PHE         0.0599
    146 H16        -0.7478   -3.7038    3.2491 H         1 PHE         0.0559
    147 H17        -1.3499    0.5581    0.6135 H         1 ILE         0.1883
    148 H18         1.0811   -0.7908    0.1287 H         1 ILE         0.0803
    149 H19        -0.3872   -0.9417   -2.2926 H         1 ILE         0.0345
    150 H20        -2.1302    0.4774   -1.0862 H         1 ILE         0.0267
    151 H21        -2.3152   -0.8710    0.0861 H         1 ILE         0.0267
    152 H22         0.5812   -2.8414   -0.9996 H         1 ILE         0.0235
    153 H23        -1.1451   -3.1314   -1.4022 H         1 ILE         0.0235
    154 H24        -0.6829   -2.6240    0.2578 H         1 ILE         0.0235
    155 H25        -4.0428   -0.9802   -1.6882 H         1 ILE         0.0230
    156 H26        -2.9418   -2.3972   -1.7680 H         1 ILE         0.0230
    157 H27        -2.7568   -1.0489   -2.9404 H         1 ILE         0.0230
    158 H28        -0.3804    2.0095   -1.5154 H         1 ILE         0.1883
    159 H29         1.4955    2.1672   -3.6418 H         1 ILE         0.0803
    160 H30        -0.1858    4.2730   -2.1881 H         1 ILE         0.0345
    161 H31        -0.4385    2.6398   -4.7543 H         1 ILE         0.0267
    162 H32        -1.3089    4.2001   -4.5680 H         1 ILE         0.0267
    163 H33         1.8425    5.3463   -3.1486 H         1 ILE         0.0235
    164 H34         0.3610    5.8119   -4.0513 H         1 ILE         0.0235
    165 H35         1.4853    4.5913   -4.7389 H         1 ILE         0.0235
    166 H36        -2.7393    2.2882   -3.8981 H         1 ILE         0.0230
    167 H37        -2.3835    3.3533   -2.4961 H         1 ILE         0.0230
    168 H38        -1.5132    1.7930   -2.6824 H         1 ILE         0.0230
    169 H39         1.4871    3.6248   -0.3746 H         1 TRP         0.1884
    170 H40         3.9316    5.0644   -0.7149 H         1 TRP         0.0815
    171 H41         2.2158    4.1529    1.6015 H         1 TRP         0.0397
    172 H42         2.7983    5.7986    1.1785 H         1 TRP         0.0397
    173 H43         5.5370    6.1861    1.6093 H         1 TRP         0.0795
    174 H44         7.0410    5.3046    3.5347 H         1 TRP         0.2216
    175 H45         2.5754    2.3963    3.2298 H         1 TRP         0.0540
    176 H46         6.9186    3.1738    5.4921 H         1 TRP         0.0541
    177 H47         3.2662    0.9421    5.1143 H         1 TRP         0.0510
    178 H48         5.4448    1.3228    6.2465 H         1 TRP         0.0530
    179 H49         3.1775    1.7761    0.4284 H         1 LEU         0.1883
    180 H50         5.6652    1.0761    1.4865 H         1 LEU         0.0800
    181 H51         5.0539   -1.2868    0.6686 H         1 LEU         0.0315
    182 H52         3.6006   -0.5445   -0.0822 H         1 LEU         0.0315
    183 H53         3.1179    0.4617    2.2495 H         1 LEU         0.0298
    184 H54         2.0494   -1.6478    3.0638 H         1 LEU         0.0232
    185 H55         3.0461   -2.5984    1.9106 H         1 LEU         0.0232
    186 H56         1.8151   -1.4444    1.2945 H         1 LEU         0.0232
    187 H57         5.3882    0.0419    3.1959 H         1 LEU         0.0232
    188 H58         5.1214   -1.7274    3.0383 H         1 LEU         0.0232
    189 H59         4.1106   -0.7638    4.1681 H         1 LEU         0.0232
    190 H60         4.5563    0.9844   -1.9115 H         1 ALA         0.1883
    191 H61         7.0401   -0.1222   -2.8905 H         1 ALA         0.0797
    192 H62         6.1702    0.5430   -5.1253 H         1 ALA         0.0277
    193 H63         4.8636    1.4859   -4.3312 H         1 ALA         0.0277
    194 H64         4.9169   -0.3008   -4.1538 H         1 ALA         0.0277
    195 H65         5.7504    3.1695   -2.4877 H         1 ARG         0.1883
    196 H66         7.8093    4.5151   -3.9322 H         1 ARG         0.0800
    197 H67         7.1456    6.4950   -2.4554 H         1 ARG         0.0313
    198 H68         6.0063    5.3839   -1.6224 H         1 ARG         0.0313
    199 H69         4.8036    4.9519   -3.6919 H         1 ARG         0.0301
    200 H70         6.0393    5.8310   -4.6547 H         1 ARG         0.0301
    201 H71         3.7557    7.0227   -3.9093 H         1 ARG         0.0689
    202 H72         5.3085    7.9253   -3.9417 H         1 ARG         0.0689
    203 H73         4.5749    6.5904   -1.3692 H         1 ARG         0.2642
    204 H74         4.5904   10.5966   -2.0390 H         1 ARG         0.2615
    205 H75         4.7114    9.4623   -3.4107 H         1 ARG         0.2615
    206 H76         4.4301    8.0481    0.3679 H         1 ARG         0.2615
    207 H77         4.4311    9.8071    0.0704 H         1 ARG         0.2615
    208 H78         7.5692    3.4081   -0.5540 H         1 ARG         0.1883
    209 H79         9.8159    4.8141    0.4658 H         1 ARG         0.0800
    210 H80         8.8083    2.0167    1.2283 H         1 ARG         0.0313
    211 H81         8.1344    3.5619    1.8488 H         1 ARG         0.0313
    212 H82        10.3471    4.1526    2.8073 H         1 ARG         0.0301
    213 H83        11.0399    2.6240    2.1669 H         1 ARG         0.0301
    214 H84         9.5530    1.2939    3.5663 H         1 ARG         0.0689
    215 H85         8.6657    2.7631    4.0961 H         1 ARG         0.0689
    216 H86        11.2979    3.2974    4.8264 H         1 ARG         0.2642
    217 H87         9.6710    0.1937    6.8735 H         1 ARG         0.2615
    218 H88         9.0089    0.6601    5.2840 H         1 ARG         0.2615
    219 H89        12.1322    2.6961    6.8507 H         1 ARG         0.2615
    220 H90        11.4152    1.3323    7.7499 H         1 ARG         0.2615
    221 H91         9.5915    1.4808   -0.8660 H         1 LEU         0.1883
    222 H92        12.4472    1.0701   -0.7097 H         1 LEU         0.0800
    223 H93        12.0337   -1.0129   -1.8071 H         1 LEU         0.0315
    224 H94        10.4956   -0.4190   -2.5200 H         1 LEU         0.0315
    225 H95         9.4114   -0.3717   -0.3611 H         1 LEU         0.0298
    226 H96         9.6238   -2.7412    0.3806 H         1 LEU         0.0232
    227 H97        11.1466   -2.8972   -0.5591 H         1 LEU         0.0232
    228 H98         9.5900   -2.6182   -1.4111 H         1 LEU         0.0232
    229 H99        11.3331    0.5370    0.9362 H         1 LEU         0.0232
    230 H100       12.1545   -1.0571    0.8322 H         1 LEU         0.0232
    231 H101       10.6163   -0.8972    1.7461 H         1 LEU         0.0232
    232 H102       10.1767    2.0405   -3.2653 H         1 LYS         0.1883
    233 H103       12.0389    1.9454   -5.4225 H         1 LYS         0.0800
    234 H104        9.6320    3.8091   -5.1050 H         1 LYS         0.0312
    235 H105        9.5366    2.1028   -5.6583 H         1 LYS         0.0312
    236 H106       11.1527    2.6717   -7.5147 H         1 LYS         0.0269
    237 H107       11.0786    4.3909   -6.9996 H         1 LYS         0.0269
    238 H108        8.6211    4.4036   -7.3742 H         1 LYS         0.0317
    239 H109        8.6838    2.6790   -7.8725 H         1 LYS         0.0317
    240 H110       10.2261    3.2842   -9.7390 H         1 LYS         0.0813
    241 H111       10.1317    5.0096   -9.2483 H         1 LYS         0.0813
    242 H112        8.5685    4.4891  -11.0065 H         1 LYS         0.1994
    243 H113        7.7560    4.9126   -9.6390 H         1 LYS         0.1994
    244 H114        7.8425    3.3315  -10.0887 H         1 LYS         0.1994
    245 H115       11.2079    4.4531   -3.0445 H         1 LYS         0.1883
    246 H116       12.6187    6.6131   -4.2577 H         1 LYS         0.0800
    247 H117       12.1840    6.0759   -1.2754 H         1 LYS         0.0312
    248 H118       10.9836    6.8405   -2.3714 H         1 LYS         0.0312
    249 H119       12.6783    8.6149   -2.9264 H         1 LYS         0.0269
    250 H120       13.8011    7.8764   -1.7345 H         1 LYS         0.0269
    251 H121       12.1275    8.2193    0.0630 H         1 LYS         0.0317
    252 H122       10.9923    8.9428   -1.1263 H         1 LYS         0.0317
    253 H123       13.8134   10.0524   -0.7582 H         1 LYS         0.0813
    254 H124       12.4661   10.5620    0.3150 H         1 LYS         0.0813
    255 H125       12.6795   12.0015   -1.6039 H         1 LYS         0.1994
    256 H126       11.2399   11.2050   -1.6554 H         1 LYS         0.1994
    257 H127       12.4745   10.7380   -2.6389 H         1 LYS         0.1994
    258 H128       13.6442    3.9880   -2.0901 H         1 GLY         0.1881
    259 H129       15.7421    3.3605   -1.3175 H         1 GLY         0.0763
    260 H130       16.2843    5.0499   -1.5978 H         1 GLY         0.0763
    261 H131       14.8703    2.8739   -4.0280 H         1 LYS         0.1883
    262 H132       17.3136    1.9288   -5.1559 H         1 LYS         0.0800
    263 H133       14.6391    2.4105   -6.5627 H         1 LYS         0.0312
    264 H134       15.0524    0.9498   -5.6024 H         1 LYS         0.0312
    265 H135       17.0502    0.5929   -7.1171 H         1 LYS         0.0269
    266 H136       16.4761    1.9636   -8.1262 H         1 LYS         0.0269
    267 H137       14.3258    0.7909   -8.5046 H         1 LYS         0.0317
    268 H138       14.8873   -0.5761   -7.4835 H         1 LYS         0.0317
    269 H139       16.7983   -0.9471   -9.0504 H         1 LYS         0.0813
    270 H140       16.2057    0.4007  -10.0795 H         1 LYS         0.0813
    271 H141       15.4402   -1.7401  -10.8748 H         1 LYS         0.1994
    272 H142       14.1582   -0.8319  -10.3838 H         1 LYS         0.1994
    273 H143       14.7012   -2.0669   -9.4408 H         1 LYS         0.1994
    274 H144       15.2501    4.7407   -5.9337 H         1 LYS         0.1875
    275 H145       16.7251    5.6343   -8.1893 H         1 LYS         0.0726
    276 H146       15.3202    7.4505   -6.1715 H         1 LYS         0.0305
    277 H147       14.4270    6.4419   -7.3595 H         1 LYS         0.0305
    278 H148       16.7026    8.1964   -8.3521 H         1 LYS         0.0269
    279 H149       15.1297    8.9670   -7.9535 H         1 LYS         0.0269
    280 H150       13.9732    7.3383   -9.4661 H         1 LYS         0.0317
    281 H151       15.5670    6.6300   -9.8960 H         1 LYS         0.0317
    282 H152       16.3165    8.8390  -10.7544 H         1 LYS         0.0813
    283 H153       14.7216    9.5460  -10.3261 H         1 LYS         0.0813
    284 H154       14.8129    8.8691  -12.6358 H         1 LYS         0.1994
    285 H155       13.7015    7.9633  -11.8274 H         1 LYS         0.1994
    286 H156       15.1629    7.3155  -12.2199 H         1 LYS         0.1994
@<TRIPOS>BOND
     1    1    2 1  
     2    2    3 1  
     3    2    5 1  
     4    3    4 2  
     5    3    6 am 
     6    6    7 1  
     7    7    8 1  
     8    7   10 1  
     9    8    9 2  
    10    8   17 am 
    11   10   11 1  
    12   11   12 ar 
    13   11   13 ar 
    14   12   14 ar 
    15   13   15 ar 
    16   14   16 ar 
    17   15   16 ar 
    18   17   18 1  
    19   18   19 1  
    20   18   21 1  
    21   19   20 2  
    22   19   25 am 
    23   21   22 1  
    24   21   23 1  
    25   22   24 1  
    26   25   26 1  
    27   26   27 1  
    28   26   29 1  
    29   27   28 2  
    30   27   33 am 
    31   29   30 1  
    32   29   31 1  
    33   30   32 1  
    34   33   34 1  
    35   34   35 1  
    36   34   37 1  
    37   35   36 2  
    38   35   47 am 
    39   37   38 1  
    40   38   39 2  
    41   38   40 1  
    42   39   41 1  
    43   40   42 ar 
    44   40   43 ar 
    45   41   42 1  
    46   42   44 ar 
    47   43   45 ar 
    48   44   46 ar 
    49   45   46 ar 
    50   47   48 1  
    51   48   49 1  
    52   48   51 1  
    53   49   50 2  
    54   49   55 am 
    55   51   52 1  
    56   52   53 1  
    57   52   54 1  
    58   55   56 1  
    59   56   57 1  
    60   56   59 1  
    61   57   58 2  
    62   57   60 am 
    63   60   61 1  
    64   61   62 1  
    65   61   64 1  
    66   62   63 2  
    67   62   71 am 
    68   64   65 1  
    69   65   66 1  
    70   66   67 1  
    71   67   68 ar 
    72   68   69 ar 
    73   68   70 ar 
    74   71   72 1  
    75   72   73 1  
    76   72   75 1  
    77   73   74 2  
    78   73   82 am 
    79   75   76 1  
    80   76   77 1  
    81   77   78 1  
    82   78   79 ar 
    83   79   80 ar 
    84   79   81 ar 
    85   82   83 1  
    86   83   84 1  
    87   83   86 1  
    88   84   85 2  
    89   84   90 am 
    90   86   87 1  
    91   87   88 1  
    92   87   89 1  
    93   90   91 1  
    94   91   92 1  
    95   91   94 1  
    96   92   93 2  
    97   92   99 am 
    98   94   95 1  
    99   95   96 1  
   100   96   97 1  
   101   97   98 1  
   102   99  100 1  
   103  100  101 1  
   104  100  103 1  
   105  101  102 2  
   106  101  108 am 
   107  103  104 1  
   108  104  105 1  
   109  105  106 1  
   110  106  107 1  
   111  108  109 1  
   112  109  110 1  
   113  110  111 2  
   114  110  112 am 
   115  112  113 1  
   116  113  114 1  
   117  113  116 1  
   118  114  115 2  
   119  114  121 am 
   120  116  117 1  
   121  117  118 1  
   122  118  119 1  
   123  119  120 1  
   124  121  122 1  
   125  122  123 1  
   126  122  125 1  
   127  123  124 ar 
   128  123  130 ar 
   129  125  126 1  
   130  126  127 1  
   131  127  128 1  
   132  128  129 1  
   133    1  131 1  
   134    1  132 1  
   135    1  133 1  
   136    2  134 1  
   137    5  135 1  
   138    5  136 1  
   139    5  137 1  
   140    6  138 1  
   141    7  139 1  
   142   10  140 1  
   143   10  141 1  
   144   12  142 1  
   145   13  143 1  
   146   14  144 1  
   147   15  145 1  
   148   16  146 1  
   149   17  147 1  
   150   18  148 1  
   151   21  149 1  
   152   22  150 1  
   153   22  151 1  
   154   23  152 1  
   155   23  153 1  
   156   23  154 1  
   157   24  155 1  
   158   24  156 1  
   159   24  157 1  
   160   25  158 1  
   161   26  159 1  
   162   29  160 1  
   163   30  161 1  
   164   30  162 1  
   165   31  163 1  
   166   31  164 1  
   167   31  165 1  
   168   32  166 1  
   169   32  167 1  
   170   32  168 1  
   171   33  169 1  
   172   34  170 1  
   173   37  171 1  
   174   37  172 1  
   175   39  173 1  
   176   41  174 1  
   177   43  175 1  
   178   44  176 1  
   179   45  177 1  
   180   46  178 1  
   181   47  179 1  
   182   48  180 1  
   183   51  181 1  
   184   51  182 1  
   185   52  183 1  
   186   53  184 1  
   187   53  185 1  
   188   53  186 1  
   189   54  187 1  
   190   54  188 1  
   191   54  189 1  
   192   55  190 1  
   193   56  191 1  
   194   59  192 1  
   195   59  193 1  
   196   59  194 1  
   197   60  195 1  
   198   61  196 1  
   199   64  197 1  
   200   64  198 1  
   201   65  199 1  
   202   65  200 1  
   203   66  201 1  
   204   66  202 1  
   205   67  203 1  
   206   69  204 1  
   207   69  205 1  
   208   70  206 1  
   209   70  207 1  
   210   71  208 1  
   211   72  209 1  
   212   75  210 1  
   213   75  211 1  
   214   76  212 1  
   215   76  213 1  
   216   77  214 1  
   217   77  215 1  
   218   78  216 1  
   219   80  217 1  
   220   80  218 1  
   221   81  219 1  
   222   81  220 1  
   223   82  221 1  
   224   83  222 1  
   225   86  223 1  
   226   86  224 1  
   227   87  225 1  
   228   88  226 1  
   229   88  227 1  
   230   88  228 1  
   231   89  229 1  
   232   89  230 1  
   233   89  231 1  
   234   90  232 1  
   235   91  233 1  
   236   94  234 1  
   237   94  235 1  
   238   95  236 1  
   239   95  237 1  
   240   96  238 1  
   241   96  239 1  
   242   97  240 1  
   243   97  241 1  
   244   98  242 1  
   245   98  243 1  
   246   98  244 1  
   247   99  245 1  
   248  100  246 1  
   249  103  247 1  
   250  103  248 1  
   251  104  249 1  
   252  104  250 1  
   253  105  251 1  
   254  105  252 1  
   255  106  253 1  
   256  106  254 1  
   257  107  255 1  
   258  107  256 1  
   259  107  257 1  
   260  108  258 1  
   261  109  259 1  
   262  109  260 1  
   263  112  261 1  
   264  113  262 1  
   265  116  263 1  
   266  116  264 1  
   267  117  265 1  
   268  117  266 1  
   269  118  267 1  
   270  118  268 1  
   271  119  269 1  
   272  119  270 1  
   273  120  271 1  
   274  120  272 1  
   275  120  273 1  
   276  121  274 1  
   277  122  275 1  
   278  125  276 1  
   279  125  277 1  
   280  126  278 1  
   281  126  279 1  
   282  127  280 1  
   283  127  281 1  
   284  128  282 1  
   285  128  283 1  
   286  129  284 1  
   287  129  285 1  
   288  129  286 1  
@<TRIPOS>SUBSTRUCTURE
     1 ALA         1

