2lgf_ligand
  -I-interpret- 

284286  0  0  0  0  0  0  0  0999 V2000
   -4.5620    1.8560    1.2650 N   0  3  0  0  0
   -3.7780    2.4850    0.1590 C   0  0  0  0  0
   -2.3010    2.4920    0.5320 C   0  0  0  0  0
   -1.4370    2.6210   -0.3280 O   0  0  0  0  0
   -4.2810    3.9070   -0.0710 C   0  0  0  0  0
   -2.0140    2.3410    1.8200 N   0  0  0  0  0
   -0.6280    2.3160    2.2910 C   0  0  0  0  0
    0.2600    1.5320    1.3210 C   0  0  0  0  0
    1.4720    1.7160    1.2820 O   0  0  0  0  0
   -0.5680    1.6730    3.6870 C   0  0  0  0  0
   -0.6340    0.1600    3.5730 C   0  0  0  0  0
   -1.5480   -0.4580    2.6950 C   0  0  0  0  0
    0.2360   -0.6280    4.3340 C   0  0  0  0  0
   -1.5870   -1.8390    2.5860 C   0  0  0  0  0
    0.1950   -2.0210    4.2160 C   0  0  0  0  0
   -0.7180   -2.6240    3.3400 C   0  0  0  0  0
   -0.3580    0.6630    0.5420 N   0  0  0  0  0
    0.3790   -0.1450   -0.4190 C   0  0  0  0  0
    1.1760    0.7460   -1.3660 C   0  0  0  0  0
    2.3370    0.4610   -1.6890 O   0  0  0  0  0
   -0.6040   -1.0440   -1.2190 C   0  0  0  0  0
   -2.0490   -0.6110   -0.9490 C   0  0  0  0  0
   -0.4520   -2.5140   -0.8120 C   0  0  0  0  0
   -3.0150   -1.3080   -1.9030 C   0  0  0  0  0
    0.5550    1.8170   -1.8120 N   0  0  0  0  0
    1.2200    2.7190   -2.7310 C   0  0  0  0  0
    2.4810    3.2780   -2.0890 C   0  0  0  0  0
    3.5420    3.3150   -2.7150 O   0  0  0  0  0
    0.2640    3.8690   -3.1070 C   0  0  0  0  0
   -0.8640    3.3500   -4.0300 C   0  0  0  0  0
    1.0430    4.9830   -3.8110 C   0  0  0  0  0
   -1.9510    2.6470   -3.2200 C   0  0  0  0  0
    2.3700    3.6870   -0.8400 N   0  0  0  0  0
    3.5170    4.2260   -0.1360 C   0  0  0  0  0
    4.5900    3.1540    0.0240 C   0  0  0  0  0
    5.7840    3.4310   -0.0990 O   0  0  0  0  0
    3.0800    4.7380    1.2540 C   0  0  0  0  0
    4.2020    4.5930    2.2350 C   0  0  0  0  0
    5.3150    5.3510    2.2720 C   0  0  0  0  0
    4.3440    3.6080    3.2860 C   0  0  0  0  0
    6.1290    4.8920    3.2920 N   0  0  0  0  0
    5.5680    3.8130    3.9440 C   0  0  0  0  0
    3.5260    2.5700    3.7210 C   0  0  0  0  0
    5.9680    3.0000    5.0010 C   0  0  0  0  0
    3.9150    1.7460    4.7860 C   0  0  0  0  0
    5.1400    1.9610    5.4250 C   0  0  0  0  0
    4.1590    1.9470    0.3420 N   0  0  0  0  0
    5.0990    0.8710    0.5660 C   0  0  0  0  0
    6.0660    0.7660   -0.5940 C   0  0  0  0  0
    7.2710    0.6010   -0.3940 O   0  0  0  0  0
    4.3400   -0.4520    0.7270 C   0  0  0  0  0
    3.6170   -0.5030    2.0760 C   0  0  0  0  0
    2.5550   -1.6300    2.0870 C   0  0  0  0  0
    4.6310   -0.7560    3.1990 C   0  0  0  0  0
    5.5420    0.8540   -1.8050 N   0  0  0  0  0
    6.3930    0.7620   -2.9870 C   0  0  0  0  0
    7.2690    2.0010   -3.1210 C   0  0  0  0  0
    8.4320    1.9130   -3.5160 O   0  0  0  0  0
    5.5250    0.6120   -4.2370 C   0  0  0  0  0
    6.7000    3.1560   -2.8010 N   0  0  0  0  0
    7.4430    4.4040   -2.9010 C   0  0  0  0  0
    8.6340    4.4000   -1.9520 C   0  0  0  0  0
    9.6950    4.9240   -2.2810 O   0  0  0  0  0
    6.5360    5.5860   -2.5650 C   0  0  0  0  0
    5.5160    5.7900   -3.6880 C   0  0  0  0  0
    4.7580    7.1020   -3.4630 C   0  0  0  0  0
    4.6280    7.3770   -2.0320 N   0  0  0  0  0
    4.5770    8.6250   -1.5700 C   0  0  0  0  0
    4.6300    9.6320   -2.3980 N   0  0  0  0  0
    4.4720    8.8420   -0.2870 N   0  0  0  0  0
    8.4530    3.8220   -0.7720 N   0  0  0  0  0
    9.5280    3.7840    0.2090 C   0  0  0  0  0
   10.7420    3.0530   -0.3500 C   0  0  0  0  0
   11.8590    3.5680   -0.3130 O   0  0  0  0  0
    9.0400    3.0640    1.4720 C   0  0  0  0  0
   10.1280    3.1060    2.5490 C   0  0  0  0  0
    9.6460    2.3660    3.7940 C   0  0  0  0  0
   10.5960    2.5460    4.8860 N   0  0  0  0  0
   10.5730    1.7590    5.9560 C   0  0  0  0  0
    9.6890    0.8040    6.0440 N   0  0  0  0  0
   11.4340    1.9420    6.9200 N   0  0  0  0  0
   10.5200    1.8520   -0.8630 N   0  0  0  0  0
   11.6090    1.0660   -1.4220 C   0  0  0  0  0
   12.0860    1.6590   -2.7390 C   0  0  0  0  0
   13.2850    1.7020   -3.0190 O   0  0  0  0  0
   11.1540   -0.3740   -1.6400 C   0  0  0  0  0
   10.3890   -0.8740   -0.4060 C   0  0  0  0  0
   10.1720   -2.3900   -0.5060 C   0  0  0  0  0
   11.1790   -0.5500    0.8670 C   0  0  0  0  0
   11.1330    2.1030   -3.5510 N   0  0  0  0  0
   11.4540    2.6780   -4.8470 C   0  0  0  0  0
   12.2870    3.9470   -4.6760 C   0  0  0  0  0
   13.2010    4.2130   -5.4560 O   0  0  0  0  0
   10.1730    2.9990   -5.6160 C   0  0  0  0  0
   10.5270    3.4400   -7.0370 C   0  0  0  0  0
    9.2410    3.6270   -7.8460 C   0  0  0  0  0
    9.5910    4.0520   -9.2730 C   0  0  0  0  0
    8.3380    4.2090  -10.0660 N   0  3  0  0  0
   11.9610    4.7240   -3.6440 N   0  0  0  0  0
   12.6830    5.9640   -3.3720 C   0  0  0  0  0
   14.1510    5.6740   -3.0780 C   0  0  0  0  0
   15.0360    6.4310   -3.4750 O   0  0  0  0  0
   12.0560    6.6840   -2.1830 C   0  0  0  0  0
   12.7440    8.0350   -1.9940 C   0  0  0  0  0
   12.0520    8.7970   -0.8700 C   0  0  0  0  0
   12.7220   10.1640   -0.6780 C   0  0  0  0  0
   12.2400   11.1030   -1.7290 N   0  3  0  0  0
   14.4040    4.5680   -2.3840 N   0  0  0  0  0
   15.7700    4.1860   -2.0440 C   0  0  0  0  0
   16.5380    3.7340   -3.2830 C   0  0  0  0  0
   17.7340    3.9970   -3.4130 O   0  0  0  0  0
   15.8400    3.0560   -4.1910 N   0  0  0  0  0
   16.4620    2.5730   -5.4200 C   0  0  0  0  0
   16.9710    3.7420   -6.2550 C   0  0  0  0  0
   18.0880    3.7110   -6.7720 O   0  0  0  0  0
   15.4590    1.7580   -6.2280 C   0  0  0  0  0
   16.1650    1.1570   -7.4460 C   0  0  0  0  0
   15.2060    0.2230   -8.1690 C   0  0  0  0  0
   15.9060   -0.3970   -9.3840 C   0  0  0  0  0
   14.9760   -1.3350  -10.0770 N   0  3  0  0  0
   16.1450    4.7710   -6.3790 N   0  0  0  0  0
   16.5210    5.9450   -7.1540 C   0  0  0  0  0
   17.7740    6.5950   -6.5790 C   0  0  0  0  0
   17.7770    6.8860   -5.3940 O   0  0  0  0  0
   15.3750    6.9610   -7.1550 C   0  0  0  0  0
   15.6210    8.0270   -8.2450 C   0  0  0  0  0
   15.0470    7.5470   -9.5820 C   0  0  0  0  0
   15.2430    8.6290  -10.6380 C   0  0  0  0  0
   14.6850    8.1560  -11.9350 N   0  3  0  0  0
   18.7100    6.8000   -7.3360 O   0  0  0  0  0
   -4.2267    0.9052    1.4198 H   0  0  0  0  0
   -4.4433    2.4027    2.1179 H   0  0  0  0  0
   -5.5492    1.8323    1.0095 H   0  0  0  0  0
   -3.9053    1.9157   -0.7618 H   0  0  0  0  0
   -4.1494    4.4895    0.8408 H   0  0  0  0  0
   -3.7139    4.3650   -0.8813 H   0  0  0  0  0
   -5.3379    3.8787   -0.3362 H   0  0  0  0  0
   -2.7734    2.2406    2.4935 H   0  0  0  0  0
   -0.2602    3.3407    2.3445 H   0  0  0  0  0
   -1.4151    2.0229    4.2769 H   0  0  0  0  0
    0.3690    1.9533    4.1682 H   0  0  0  0  0
   -2.2266    0.1529    2.0996 H   0  0  0  0  0
    0.9437   -0.1578    5.0168 H   0  0  0  0  0
   -2.2988   -2.3116    1.9092 H   0  0  0  0  0
    0.8733   -2.6379    4.8055 H   0  0  0  0  0
   -0.7480   -3.7097    3.2486 H   0  0  0  0  0
   -1.3697    0.5560    0.6149 H   0  0  0  0  0
    1.0792   -0.7820    0.1215 H   0  0  0  0  0
   -0.3702   -0.9356   -2.2781 H   0  0  0  0  0
   -2.1255    0.4660   -1.0984 H   0  0  0  0  0
   -2.3104   -0.8822    0.0738 H   0  0  0  0  0
    0.5678   -2.8418   -1.0134 H   0  0  0  0  0
   -0.6654   -2.6191    0.2517 H   0  0  0  0  0
   -1.1507   -3.1227   -1.3860 H   0  0  0  0  0
   -2.7581   -1.0505   -2.9305 H   0  0  0  0  0
   -2.9414   -2.3871   -1.7683 H   0  0  0  0  0
   -4.0330   -0.9824   -1.6892 H   0  0  0  0  0
   -0.3991    2.0133   -1.5094 H   0  0  0  0  0
    1.4977    2.1739   -3.6331 H   0  0  0  0  0
   -0.1842    4.2654   -2.1959 H   0  0  0  0  0
   -0.4384    2.6382   -4.7373 H   0  0  0  0  0
   -1.3084    4.1980   -4.5511 H   0  0  0  0  0
    1.8171    5.3612   -3.1433 H   0  0  0  0  0
    1.5037    4.5866   -4.7158 H   0  0  0  0  0
    0.3609    5.7917   -4.0734 H   0  0  0  0  0
   -1.5159    1.8011   -2.6878 H   0  0  0  0  0
   -2.3787    3.3479   -2.5031 H   0  0  0  0  0
   -2.7315    2.2920   -3.8930 H   0  0  0  0  0
    1.4694    3.6235   -0.3653 H   0  0  0  0  0
    3.9294    5.0530   -0.7139 H   0  0  0  0  0
    2.2275    4.1524    1.5980 H   0  0  0  0  0
    2.8074    5.7905    1.1769 H   0  0  0  0  0
    5.5372    6.1869    1.6086 H   0  0  0  0  0
    2.5701    2.3953    3.2271 H   0  0  0  0  0
    6.9239    3.1747    5.4949 H   0  0  0  0  0
    3.2626    0.9376    5.1161 H   0  0  0  0  0
    5.4465    1.3192    6.2510 H   0  0  0  0  0
    3.1579    1.7727    0.4301 H   0  0  0  0  0
    5.6627    1.0804    1.4751 H   0  0  0  0  0
    5.0534   -1.2747    0.6791 H   0  0  0  0  0
    3.6018   -0.5332   -0.0709 H   0  0  0  0  0
    3.1190    0.4537    2.2338 H   0  0  0  0  0
    1.8225   -1.4449    1.3013 H   0  0  0  0  0
    3.0429   -2.5889    1.9121 H   0  0  0  0  0
    2.0548   -1.6466    3.0553 H   0  0  0  0  0
    5.1360   -1.7059    3.0236 H   0  0  0  0  0
    5.3648    0.0499    3.2126 H   0  0  0  0  0
    4.1102   -0.7911    4.1559 H   0  0  0  0  0
    4.5366    0.9870   -1.9136 H   0  0  0  0  0
    7.0381   -0.1101   -2.8800 H   0  0  0  0  0
    4.9229   -0.2928   -4.1533 H   0  0  0  0  0
    4.8701    1.4785   -4.3292 H   0  0  0  0  0
    6.1654    0.5438   -5.1164 H   0  0  0  0  0
    5.7314    3.1698   -2.4814 H   0  0  0  0  0
    7.8046    4.5005   -3.9247 H   0  0  0  0  0
    7.1409    6.4865   -2.4586 H   0  0  0  0  0
    6.0101    5.3838   -1.6319 H   0  0  0  0  0
    4.8096    4.9599   -3.6904 H   0  0  0  0  0
    6.0354    5.8318   -4.6454 H   0  0  0  0  0
    3.7630    7.0166   -3.8999 H   0  0  0  0  0
    5.3104    7.9161   -3.9322 H   0  0  0  0  0
    4.5754    6.5980   -1.3756 H   0  0  0  0  0
    4.7106    9.4640   -3.4008 H   0  0  0  0  0
    4.4315    9.7978    0.0670 H   0  0  0  0  0
    4.4305    8.0558    0.3615 H   0  0  0  0  0
    7.5515    3.3998   -0.5496 H   0  0  0  0  0
    9.8159    4.8074    0.4498 H   0  0  0  0  0
    8.8141    2.0256    1.2294 H   0  0  0  0  0
    8.1447    3.5607    1.8458 H   0  0  0  0  0
   10.3437    4.1433    2.8053 H   0  0  0  0  0
   11.0309    2.6271    2.1702 H   0  0  0  0  0
    9.5605    1.3034    3.5669 H   0  0  0  0  0
    8.6774    2.7657    4.0941 H   0  0  0  0  0
   11.2911    3.2901    4.8270 H   0  0  0  0  0
    9.0155    0.6615    5.2913 H   0  0  0  0  0
   11.4154    1.3382    7.7419 H   0  0  0  0  0
   12.1254    2.6888    6.8514 H   0  0  0  0  0
    9.5729    1.4733   -0.8661 H   0  0  0  0  0
   12.4388    1.0814   -0.7153 H   0  0  0  0  0
   12.0272   -1.0060   -1.8016 H   0  0  0  0  0
   10.4987   -0.4158   -2.5100 H   0  0  0  0  0
    9.4214   -0.3739   -0.3635 H   0  0  0  0  0
    9.5953   -2.6148   -1.4032 H   0  0  0  0  0
   11.1384   -2.8914   -0.5586 H   0  0  0  0  0
    9.6287   -2.7367    0.3731 H   0  0  0  0  0
   12.1516   -1.0402    0.8242 H   0  0  0  0  0
   11.3173    0.5285    0.9426 H   0  0  0  0  0
   10.6279   -0.9087    1.7363 H   0  0  0  0  0
   10.1576    2.0393   -3.2596 H   0  0  0  0  0
   12.0345    1.9489   -5.4123 H   0  0  0  0  0
    9.6373    3.8020   -5.1097 H   0  0  0  0  0
    9.5427    2.1107   -5.6581 H   0  0  0  0  0
   11.1477    2.6792   -7.5104 H   0  0  0  0  0
   11.0743    4.3819   -7.0003 H   0  0  0  0  0
    8.6274    4.3971   -7.3786 H   0  0  0  0  0
    8.6895    2.6872   -7.8726 H   0  0  0  0  0
   10.2204    3.2913   -9.7347 H   0  0  0  0  0
   10.1269    5.0008   -9.2485 H   0  0  0  0  0
    8.5724    4.4924  -11.0174 H   0  0  0  0  0
    7.8375    3.3205  -10.0882 H   0  0  0  0  0
    7.7500    4.9211   -9.6330 H   0  0  0  0  0
   11.1928    4.4477   -3.0325 H   0  0  0  0  0
   12.6189    6.6005   -4.2545 H   0  0  0  0  0
   12.1802    6.0812   -1.2834 H   0  0  0  0  0
   10.9928    6.8376   -2.3676 H   0  0  0  0  0
   12.6815    8.6097   -2.9181 H   0  0  0  0  0
   13.7922    7.8792   -1.7390 H   0  0  0  0  0
   12.1303    8.2247    0.0544 H   0  0  0  0  0
   11.0028    8.9432   -1.1269 H   0  0  0  0  0
   13.8035   10.0536   -0.7567 H   0  0  0  0  0
   12.4691   10.5583    0.3062 H   0  0  0  0  0
   12.6853   12.0118   -1.6015 H   0  0  0  0  0
   12.4778   10.7326   -2.6491 H   0  0  0  0  0
   11.2280   11.2054   -1.6536 H   0  0  0  0  0
   13.6290    3.9764   -2.0842 H   0  0  0  0  0
   15.7349    3.3594   -1.3343 H   0  0  0  0  0
   16.2774    5.0499   -1.6147 H   0  0  0  0  0
   14.8509    2.8702   -4.0248 H   0  0  0  0  0
   17.3074    1.9384   -5.1541 H   0  0  0  0  0
   14.6446    2.4029   -6.5581 H   0  0  0  0  0
   15.0534    0.9582   -5.6084 H   0  0  0  0  0
   17.0438    0.5997   -7.1216 H   0  0  0  0  0
   16.4760    1.9554   -8.1197 H   0  0  0  0  0
   14.3350    0.7871   -8.5027 H   0  0  0  0  0
   14.8923   -0.5694   -7.4895 H   0  0  0  0  0
   16.7887   -0.9436   -9.0520 H   0  0  0  0  0
   16.2006    0.3942  -10.0734 H   0  0  0  0  0
   15.4467   -1.7443  -10.8840 H   0  0  0  0  0
   14.6986   -2.0751   -9.4322 H   0  0  0  0  0
   14.1489   -0.8248  -10.3869 H   0  0  0  0  0
   15.2323    4.7401   -5.9248 H   0  0  0  0  0
   16.7283    5.6262   -8.1755 H   0  0  0  0  0
   15.3239    7.4472   -6.1808 H   0  0  0  0  0
   14.4369    6.4455   -7.3606 H   0  0  0  0  0
   16.6932    8.1912   -8.3521 H   0  0  0  0  0
   15.1308    8.9567   -7.9561 H   0  0  0  0  0
   13.9829    7.3405   -9.4670 H   0  0  0  0  0
   15.5626    6.6384   -9.8932 H   0  0  0  0  0
   16.3064    8.8391  -10.7527 H   0  0  0  0  0
   14.7282    9.5387  -10.3289 H   0  0  0  0  0
   14.8150    8.8784  -12.6433 H   0  0  0  0  0
   15.1693    7.3055  -12.2222 H   0  0  0  0  0
   13.6898    7.9613  -11.8248 H   0  0  0  0  0
   18.4825    6.4901   -8.2156 H   0  0  0  0  0
  1  2  1  0  0  0
  2  3  1  0  0  0
  2  5  1  0  0  0
  3  4  2  0  0  0
  3  6  1  0  0  0
  6  7  1  0  0  0
  7  8  1  0  0  0
  7 10  1  0  0  0
  8  9  2  0  0  0
  8 17  1  0  0  0
 10 11  1  0  0  0
 11 12  4  0  0  0
 11 13  4  0  0  0
 12 14  4  0  0  0
 13 15  4  0  0  0
 14 16  4  0  0  0
 15 16  4  0  0  0
 17 18  1  0  0  0
 18 19  1  0  0  0
 18 21  1  0  0  0
 19 20  2  0  0  0
 19 25  1  0  0  0
 21 22  1  0  0  0
 21 23  1  0  0  0
 22 24  1  0  0  0
 25 26  1  0  0  0
 26 27  1  0  0  0
 26 29  1  0  0  0
 27 28  2  0  0  0
 27 33  1  0  0  0
 29 30  1  0  0  0
 29 31  1  0  0  0
 30 32  1  0  0  0
 33 34  1  0  0  0
 34 35  1  0  0  0
 34 37  1  0  0  0
 35 36  2  0  0  0
 35 47  1  0  0  0
 37 38  1  0  0  0
 38 39  4  0  0  0
 38 40  4  0  0  0
 39 41  4  0  0  0
 40 42  4  0  0  0
 40 43  4  0  0  0
 41 42  4  0  0  0
 42 44  4  0  0  0
 43 45  4  0  0  0
 44 46  4  0  0  0
 45 46  4  0  0  0
 47 48  1  0  0  0
 48 49  1  0  0  0
 48 51  1  0  0  0
 49 50  2  0  0  0
 49 55  1  0  0  0
 51 52  1  0  0  0
 52 53  1  0  0  0
 52 54  1  0  0  0
 55 56  1  0  0  0
 56 57  1  0  0  0
 56 59  1  0  0  0
 57 58  2  0  0  0
 57 60  1  0  0  0
 60 61  1  0  0  0
 61 62  1  0  0  0
 61 64  1  0  0  0
 62 63  2  0  0  0
 62 71  1  0  0  0
 64 65  1  0  0  0
 65 66  1  0  0  0
 66 67  1  0  0  0
 67 68  1  0  0  0
 68 69  2  0  0  0
 68 70  1  0  0  0
 71 72  1  0  0  0
 72 73  1  0  0  0
 72 75  1  0  0  0
 73 74  2  0  0  0
 73 82  1  0  0  0
 75 76  1  0  0  0
 76 77  1  0  0  0
 77 78  1  0  0  0
 78 79  1  0  0  0
 79 80  2  0  0  0
 79 81  1  0  0  0
 82 83  1  0  0  0
 83 84  1  0  0  0
 83 86  1  0  0  0
 84 85  2  0  0  0
 84 90  1  0  0  0
 86 87  1  0  0  0
 87 88  1  0  0  0
 87 89  1  0  0  0
 90 91  1  0  0  0
 91 92  1  0  0  0
 91 94  1  0  0  0
 92 93  2  0  0  0
 92 99  1  0  0  0
 94 95  1  0  0  0
 95 96  1  0  0  0
 96 97  1  0  0  0
 97 98  1  0  0  0
 99100  1  0  0  0
100101  1  0  0  0
100103  1  0  0  0
101102  2  0  0  0
101108  1  0  0  0
103104  1  0  0  0
104105  1  0  0  0
105106  1  0  0  0
106107  1  0  0  0
108109  1  0  0  0
109110  1  0  0  0
110111  2  0  0  0
110112  1  0  0  0
112113  1  0  0  0
113114  1  0  0  0
113116  1  0  0  0
114115  2  0  0  0
114121  1  0  0  0
116117  1  0  0  0
117118  1  0  0  0
118119  1  0  0  0
119120  1  0  0  0
121122  1  0  0  0
122123  1  0  0  0
122125  1  0  0  0
123124  2  0  0  0
123130  1  0  0  0
125126  1  0  0  0
126127  1  0  0  0
127128  1  0  0  0
128129  1  0  0  0
  1131  1  0  0  0
  1132  1  0  0  0
  1133  1  0  0  0
  2134  1  0  0  0
  5135  1  0  0  0
  5136  1  0  0  0
  5137  1  0  0  0
  6138  1  0  0  0
  7139  1  0  0  0
 10140  1  0  0  0
 10141  1  0  0  0
 12142  1  0  0  0
 13143  1  0  0  0
 14144  1  0  0  0
 15145  1  0  0  0
 16146  1  0  0  0
 17147  1  0  0  0
 18148  1  0  0  0
 21149  1  0  0  0
 22150  1  0  0  0
 22151  1  0  0  0
 23152  1  0  0  0
 23153  1  0  0  0
 23154  1  0  0  0
 24155  1  0  0  0
 24156  1  0  0  0
 24157  1  0  0  0
 25158  1  0  0  0
 26159  1  0  0  0
 29160  1  0  0  0
 30161  1  0  0  0
 30162  1  0  0  0
 31163  1  0  0  0
 31164  1  0  0  0
 31165  1  0  0  0
 32166  1  0  0  0
 32167  1  0  0  0
 32168  1  0  0  0
 33169  1  0  0  0
 34170  1  0  0  0
 37171  1  0  0  0
 37172  1  0  0  0
 39173  1  0  0  0
 43174  1  0  0  0
 44175  1  0  0  0
 45176  1  0  0  0
 46177  1  0  0  0
 47178  1  0  0  0
 48179  1  0  0  0
 51180  1  0  0  0
 51181  1  0  0  0
 52182  1  0  0  0
 53183  1  0  0  0
 53184  1  0  0  0
 53185  1  0  0  0
 54186  1  0  0  0
 54187  1  0  0  0
 54188  1  0  0  0
 55189  1  0  0  0
 56190  1  0  0  0
 59191  1  0  0  0
 59192  1  0  0  0
 59193  1  0  0  0
 60194  1  0  0  0
 61195  1  0  0  0
 64196  1  0  0  0
 64197  1  0  0  0
 65198  1  0  0  0
 65199  1  0  0  0
 66200  1  0  0  0
 66201  1  0  0  0
 67202  1  0  0  0
 69203  1  0  0  0
 70204  1  0  0  0
 70205  1  0  0  0
 71206  1  0  0  0
 72207  1  0  0  0
 75208  1  0  0  0
 75209  1  0  0  0
 76210  1  0  0  0
 76211  1  0  0  0
 77212  1  0  0  0
 77213  1  0  0  0
 78214  1  0  0  0
 80215  1  0  0  0
 81216  1  0  0  0
 81217  1  0  0  0
 82218  1  0  0  0
 83219  1  0  0  0
 86220  1  0  0  0
 86221  1  0  0  0
 87222  1  0  0  0
 88223  1  0  0  0
 88224  1  0  0  0
 88225  1  0  0  0
 89226  1  0  0  0
 89227  1  0  0  0
 89228  1  0  0  0
 90229  1  0  0  0
 91230  1  0  0  0
 94231  1  0  0  0
 94232  1  0  0  0
 95233  1  0  0  0
 95234  1  0  0  0
 96235  1  0  0  0
 96236  1  0  0  0
 97237  1  0  0  0
 97238  1  0  0  0
 98239  1  0  0  0
 98240  1  0  0  0
 98241  1  0  0  0
 99242  1  0  0  0
100243  1  0  0  0
103244  1  0  0  0
103245  1  0  0  0
104246  1  0  0  0
104247  1  0  0  0
105248  1  0  0  0
105249  1  0  0  0
106250  1  0  0  0
106251  1  0  0  0
107252  1  0  0  0
107253  1  0  0  0
107254  1  0  0  0
108255  1  0  0  0
109256  1  0  0  0
109257  1  0  0  0
112258  1  0  0  0
113259  1  0  0  0
116260  1  0  0  0
116261  1  0  0  0
117262  1  0  0  0
117263  1  0  0  0
118264  1  0  0  0
118265  1  0  0  0
119266  1  0  0  0
119267  1  0  0  0
120268  1  0  0  0
120269  1  0  0  0
120270  1  0  0  0
121271  1  0  0  0
122272  1  0  0  0
125273  1  0  0  0
125274  1  0  0  0
126275  1  0  0  0
126276  1  0  0  0
127277  1  0  0  0
127278  1  0  0  0
128279  1  0  0  0
128280  1  0  0  0
129281  1  0  0  0
129282  1  0  0  0
129283  1  0  0  0
130284  1  0  0  0
M  END
$$$$
