3pix_ligand
  -I-interpret- 

 55 58  0  0  0  0  0  0  0  0999 V2000
   18.3760    5.8870   -0.3900 N   0  0  0  0  0
   19.7020    6.3580   -0.4590 N   0  0  0  0  0
   17.6450    5.6140   -1.4770 C   0  0  0  0  0
   20.3470    6.5850   -1.7080 C   0  0  0  0  0
   19.6610    6.3310   -2.8880 C   0  0  0  0  0
   18.2640    5.8230   -2.8130 C   0  0  0  0  0
   15.5630    5.1030   -0.3030 C   0  0  0  0  0
   16.3700    5.1480   -1.3990 N   0  0  0  0  0
   15.9010    5.2960    0.9650 C   0  0  0  0  0
   13.7530    4.8590    0.8970 N   0  0  0  0  0
   14.2540    4.8210   -0.4200 N   0  0  0  0  0
   20.1320    6.4760   -6.4660 N   0  0  0  0  0
   20.2070    6.5200   -4.0420 C   0  0  0  0  0
   19.5180    6.2650   -5.1930 C   0  0  0  0  0
   14.7930    5.1510    1.6970 C   0  0  0  0  0
   17.6180    5.5790   -3.9000 C   0  0  0  0  0
   20.7070    8.1740   -8.7130 N   0  3  0  0  0
   21.5290    7.0120   -1.7490 O   0  0  0  0  0
   20.4240    6.6300    0.7900 C   0  0  0  0  0
   18.2350    5.7950   -5.1220 C   0  0  0  0  0
   21.1170    7.5760   -6.3930 C   0  0  0  0  0
   19.1070    6.7750   -7.4910 C   0  0  0  0  0
   19.7370    7.0780   -8.8500 C   0  0  0  0  0
   21.7600    7.7940   -7.7600 C   0  0  0  0  0
   21.3290    8.4620  -10.0170 C   0  0  0  0  0
   14.9140    5.3240    3.1880 C   0  0  0  0  0
   19.8180    7.8470    1.4790 C   0  0  0  0  0
   20.4070    5.4100    1.7050 C   0  0  0  0  0
   15.9698    4.7889   -2.2658 H   0  0  0  0  0
   16.8975    5.5295    1.3400 H   0  0  0  0  0
   21.2315    6.8880   -4.0986 H   0  0  0  0  0
   16.5947    5.2058   -3.8593 H   0  0  0  0  0
   20.2168    9.0021   -8.3749 H   0  0  0  0  0
   21.4666    6.8462    0.5570 H   0  0  0  0  0
   17.6889    5.5869   -6.0421 H   0  0  0  0  0
   21.8908    7.3166   -5.6704 H   0  0  0  0  0
   20.6103    8.4908   -6.0855 H   0  0  0  0  0
   18.5460    7.6525   -7.1695 H   0  0  0  0  0
   18.4638    5.9016   -7.5981 H   0  0  0  0  0
   20.2471    6.1879   -9.2183 H   0  0  0  0  0
   18.9570    7.3715   -9.5525 H   0  0  0  0  0
   22.5094    8.5831   -7.6981 H   0  0  0  0  0
   22.2505    6.8788   -8.0916 H   0  0  0  0  0
   21.8424    7.5708  -10.3780 H   0  0  0  0  0
   20.5573    8.7522  -10.7300 H   0  0  0  0  0
   22.0459    9.2754   -9.9045 H   0  0  0  0  0
   15.6171    4.5900    3.5818 H   0  0  0  0  0
   15.2746    6.3289    3.4078 H   0  0  0  0  0
   13.9376    5.1779    3.6499 H   0  0  0  0  0
   18.7849    7.6316    1.7518 H   0  0  0  0  0
   20.3916    8.0778    2.3767 H   0  0  0  0  0
   19.8456    8.6989    0.7995 H   0  0  0  0  0
   20.9847    5.6238    2.6042 H   0  0  0  0  0
   19.3780    5.1775    1.9794 H   0  0  0  0  0
   20.8461    4.5598    1.1830 H   0  0  0  0  0
  2  1  1  0  0  0
  3  1  2  0  0  0
  4  2  1  0  0  0
  2 19  1  0  0  0
  6  3  1  0  0  0
  3  8  1  0  0  0
  5  4  1  0  0  0
  4 18  2  0  0  0
  5  6  4  0  0  0
 13  5  4  0  0  0
 16  6  4  0  0  0
  8  7  1  0  0  0
  7  9  4  0  0  0
  7 11  4  0  0  0
  9 15  4  0  0  0
 11 10  4  0  0  0
 10 15  4  0  0  0
 12 14  1  0  0  0
 21 12  1  0  0  0
 12 22  1  0  0  0
 14 13  4  0  0  0
 14 20  4  0  0  0
 15 26  1  0  0  0
 20 16  4  0  0  0
 17 23  1  0  0  0
 24 17  1  0  0  0
 17 25  1  0  0  0
 19 27  1  0  0  0
 19 28  1  0  0  0
 21 24  1  0  0  0
 22 23  1  0  0  0
  8 29  1  0  0  0
  9 30  1  0  0  0
 13 31  1  0  0  0
 16 32  1  0  0  0
 17 33  1  0  0  0
 19 34  1  0  0  0
 20 35  1  0  0  0
 21 36  1  0  0  0
 21 37  1  0  0  0
 22 38  1  0  0  0
 22 39  1  0  0  0
 23 40  1  0  0  0
 23 41  1  0  0  0
 24 42  1  0  0  0
 24 43  1  0  0  0
 25 44  1  0  0  0
 25 45  1  0  0  0
 25 46  1  0  0  0
 26 47  1  0  0  0
 26 48  1  0  0  0
 26 49  1  0  0  0
 27 50  1  0  0  0
 27 51  1  0  0  0
 27 52  1  0  0  0
 28 53  1  0  0  0
 28 54  1  0  0  0
 28 55  1  0  0  0
M  END
$$$$
