5uwi_ligand
  -I-interpret- 

228228  0  0  0  0  0  0  0  0999 V2000
  -52.5300   65.0990   30.8810 N   0  3  0  0  0
  -52.4040   66.5560   31.1720 C   0  0  0  0  0
  -51.3750   67.1920   30.2380 C   0  0  0  0  0
  -50.8650   66.5310   29.3330 O   0  0  0  0  0
  -52.0250   66.7760   32.6390 C   0  0  0  0  0
  -53.1430   66.5550   33.4820 O   0  0  0  0  0
  -51.0710   68.4710   30.4570 N   0  0  0  0  0
  -50.2720   69.2420   29.5110 C   0  0  0  0  0
  -48.9990   69.8100   30.1180 C   0  0  0  0  0
  -47.9290   69.6930   29.5080 O   0  0  0  0  0
  -51.1310   70.3800   28.9200 C   0  0  0  0  0
  -52.0990   69.9440   27.8300 C   0  0  0  0  0
  -51.8040   68.8740   26.9920 C   0  0  0  0  0
  -53.3050   70.6080   27.6380 C   0  0  0  0  0
  -52.6790   68.4770   26.0010 C   0  0  0  0  0
  -54.1880   70.2160   26.6460 C   0  0  0  0  0
  -53.8680   69.1500   25.8310 C   0  0  0  0  0
  -54.7370   68.7510   24.8410 O   0  0  0  0  0
  -49.0710   70.4210   31.2980 N   0  0  0  0  0
  -47.9170   71.0860   31.9020 C   0  0  0  0  0
  -47.2420   72.0140   30.8860 C   0  0  0  0  0
  -46.1730   71.7340   30.3410 O   0  0  0  0  0
  -46.9220   70.0590   32.4550 C   0  0  0  0  0
  -47.2120   69.6040   33.8830 C   0  0  0  0  0
  -47.8260   68.2180   33.9550 C   0  0  0  0  0
  -48.4000   67.7590   32.9440 O   0  0  0  0  0
  -47.7300   67.5830   35.0270 O   0  0  0  0  0
  -47.9120   73.1440   30.6510 N   0  0  0  0  0
  -47.4920   74.0720   29.6090 C   0  0  0  0  0
  -46.3510   74.9830   30.0400 C   0  0  0  0  0
  -45.6630   75.5370   29.1750 O   0  0  0  0  0
  -48.6820   74.9220   29.1580 C   0  0  0  0  0
  -46.1330   75.1640   31.3450 N   0  0  0  0  0
  -45.0170   75.9930   31.7880 C   0  0  0  0  0
  -43.6910   75.2550   31.6750 C   0  0  0  0  0
  -42.6650   75.8780   31.3760 O   0  0  0  0  0
  -45.2320   76.4630   33.2270 C   0  0  0  0  0
  -44.2390   77.5330   33.6640 C   0  0  0  0  0
  -44.3890   77.9180   35.1230 C   0  0  0  0  0
  -45.5310   77.9040   35.6300 O   0  0  0  0  0
  -43.3600   78.2300   35.7620 O   0  0  0  0  0
  -43.6840   73.9430   31.9180 N   0  0  0  0  0
  -42.4960   73.1470   31.6290 C   0  0  0  0  0
  -42.1010   73.2960   30.1670 C   0  0  0  0  0
  -40.9440   73.5950   29.8470 O   0  0  0  0  0
  -42.7530   71.6770   31.9660 C   0  0  0  0  0
  -43.2130   71.5630   33.3180 O   0  0  0  0  0
  -41.4810   70.8520   31.7970 C   0  0  0  0  0
  -43.0620   73.0960   29.2620 N   0  0  0  0  0
  -42.8020   73.2440   27.8320 C   0  0  0  0  0
  -42.2310   74.6250   27.5390 C   0  0  0  0  0
  -41.1950   74.7630   26.8770 O   0  0  0  0  0
  -44.0900   72.9860   27.0300 C   0  0  0  0  0
  -43.8740   73.2690   25.5470 C   0  0  0  0  0
  -44.5610   71.5520   27.2400 C   0  0  0  0  0
  -42.9080   75.6710   28.0200 N   0  0  0  0  0
  -42.4540   77.0320   27.7590 C   0  0  0  0  0
  -41.0020   77.2140   28.1790 C   0  0  0  0  0
  -40.1580   77.6260   27.3760 O   0  0  0  0  0
  -43.3560   78.0350   28.4820 C   0  0  0  0  0
  -44.6780   77.9890   27.9740 O   0  0  0  0  0
  -40.6870   76.8950   29.4370 N   0  0  0  0  0
  -39.3140   77.0300   29.9120 C   0  0  0  0  0
  -38.3570   76.1430   29.1250 C   0  0  0  0  0
  -37.1920   76.5090   28.9290 O   0  0  0  0  0
  -39.2420   76.7000   31.4030 C   0  0  0  0  0
  -38.8220   74.9770   28.6690 N   0  0  0  0  0
  -37.9770   74.1100   27.8510 C   0  0  0  0  0
  -37.6550   74.7670   26.5150 C   0  0  0  0  0
  -36.5120   74.7090   26.0470 O   0  0  0  0  0
  -38.6690   72.7630   27.6370 C   0  0  0  0  0
  -37.9050   71.7570   26.7730 C   0  0  0  0  0
  -36.4930   70.9980   27.6020 S   0  0  0  0  0
  -35.1580   72.0390   27.0270 C   0  0  0  0  0
  -38.6510   75.4000   25.8900 N   0  0  0  0  0
  -38.4370   76.0570   24.6060 C   0  0  0  0  0
  -37.4070   77.1740   24.6890 C   0  0  0  0  0
  -36.8390   77.5540   23.6580 O   0  0  0  0  0
  -39.7590   76.6160   24.0810 C   0  0  0  0  0
  -37.1500   77.7060   25.8820 N   0  0  0  0  0
  -36.2320   78.8240   26.0550 C   0  0  0  0  0
  -34.8440   78.3940   26.5070 C   0  0  0  0  0
  -33.9750   79.2530   26.6800 O   0  0  0  0  0
  -36.8070   79.8240   27.0630 C   0  0  0  0  0
  -38.2760   80.2020   26.8610 C   0  0  0  0  0
  -38.7260   81.1940   27.9230 C   0  0  0  0  0
  -38.5230   80.7520   25.4630 C   0  0  0  0  0
  -34.6140   77.0970   26.7110 N   0  0  0  0  0
  -33.2880   76.6320   27.0950 C   0  0  0  0  0
  -32.2490   77.1530   26.1130 C   0  0  0  0  0
  -32.4280   77.0680   24.8950 O   0  0  0  0  0
  -33.2500   75.1020   27.1440 C   0  0  0  0  0
  -31.8780   74.5010   27.4710 C   0  0  0  0  0
  -31.3820   74.9790   28.8230 C   0  0  0  0  0
  -31.9130   72.9830   27.4430 C   0  0  0  0  0
  -31.1610   77.6960   26.6510 N   0  0  0  0  0
  -30.1270   78.3100   25.8350 C   0  0  0  0  0
  -28.7570   77.8890   26.3410 C   0  0  0  0  0
  -28.5270   77.8080   27.5510 O   0  0  0  0  0
  -30.2390   79.8390   25.8520 C   0  0  0  0  0
  -29.2310   80.4320   25.0520 O   0  0  0  0  0
  -27.8520   77.6180   25.3970 N   0  0  0  0  0
  -26.4550   77.3490   25.7240 C   0  0  0  0  0
  -25.6400   78.6310   25.8050 C   0  0  0  0  0
  -24.4920   78.5980   26.2730 O   0  0  0  0  0
  -25.8790   76.3600   24.6870 C   0  0  0  0  0
  -24.3660   76.2010   24.8230 C   0  0  0  0  0
  -26.5630   75.0060   24.8350 C   0  0  0  0  0
  -26.2050   79.7630   25.3950 N   0  0  0  0  0
  -25.5010   81.0310   25.4090 C   0  0  0  0  0
  -25.7590   81.8290   24.1460 C   0  0  0  0  0
  -26.6180   82.7110   24.1180 O   0  0  0  0  0
  -25.1230   81.6030   23.1150 O   0  0  0  0  0
  -52.7825   64.9698   29.9012 H   0  0  0  0  0
  -51.6394   64.6380   31.0675 H   0  0  0  0  0
  -53.2540   64.6961   31.4759 H   0  0  0  0  0
  -53.3667   67.0363   30.9972 H   0  0  0  0  0
  -51.6851   67.8039   32.7655 H   0  0  0  0  0
  -51.2354   66.0747   32.9087 H   0  0  0  0  0
  -52.8863   66.6974   34.3960 H   0  0  0  0  0
  -51.4057   68.9225   31.3082 H   0  0  0  0  0
  -49.9568   68.5545   28.7261 H   0  0  0  0  0
  -50.4436   71.0946   28.4672 H   0  0  0  0  0
  -51.7316   70.7814   29.7362 H   0  0  0  0  0
  -50.8634   68.3384   27.1203 H   0  0  0  0  0
  -53.5600   71.4517   28.2793 H   0  0  0  0  0
  -52.4297   67.6345   25.3559 H   0  0  0  0  0
  -55.1304   70.7466   26.5099 H   0  0  0  0  0
  -55.5134   69.3156   24.8516 H   0  0  0  0  0
  -49.9603   70.4257   31.7976 H   0  0  0  0  0
  -48.2677   71.6922   32.7372 H   0  0  0  0  0
  -45.9422   70.5365   32.4646 H   0  0  0  0  0
  -46.9873   69.1763   31.8189 H   0  0  0  0  0
  -47.9265   70.3049   34.3146 H   0  0  0  0  0
  -46.2636   69.5737   34.4193 H   0  0  0  0  0
  -48.3607   68.4044   32.2344 H   0  0  0  0  0
  -48.7351   73.3626   31.2124 H   0  0  0  0  0
  -47.1207   73.4651   28.7832 H   0  0  0  0  0
  -49.4642   74.2713   28.7669 H   0  0  0  0  0
  -49.0674   75.4852   30.0079 H   0  0  0  0  0
  -48.3590   75.6127   28.3791 H   0  0  0  0  0
  -46.7458   74.7234   32.0311 H   0  0  0  0  0
  -44.9773   76.8622   31.1315 H   0  0  0  0  0
  -45.0967   75.6006   33.8797 H   0  0  0  0  0
  -46.2309   76.8951   33.2875 H   0  0  0  0  0
  -44.4247   78.4239   33.0641 H   0  0  0  0  0
  -43.2352   77.1307   33.5277 H   0  0  0  0  0
  -42.5961   78.1739   35.1833 H   0  0  0  0  0
  -44.5131   73.4945   32.3076 H   0  0  0  0  0
  -41.6735   73.5082   32.2463 H   0  0  0  0  0
  -43.5124   71.2972   31.2825 H   0  0  0  0  0
  -43.3725   70.6390   33.5237 H   0  0  0  0  0
  -41.1387   70.9217   30.7645 H   0  0  0  0  0
  -40.7090   71.2362   32.4638 H   0  0  0  0  0
  -41.6896   69.8107   32.0424 H   0  0  0  0  0
  -43.9968   72.8345   29.5754 H   0  0  0  0  0
  -42.0613   72.5056   27.5249 H   0  0  0  0  0
  -44.8626   73.6644   27.3918 H   0  0  0  0  0
  -43.5819   74.3109   25.4160 H   0  0  0  0  0
  -43.0868   72.6189   25.1653 H   0  0  0  0  0
  -44.7995   73.0787   25.0036 H   0  0  0  0  0
  -43.7860   70.8634   26.9035 H   0  0  0  0  0
  -44.7599   71.3877   28.2990 H   0  0  0  0  0
  -45.4728   71.3828   26.6672 H   0  0  0  0  0
  -43.7499   75.5165   28.5747 H   0  0  0  0  0
  -42.5154   77.2152   26.6863 H   0  0  0  0  0
  -42.9573   79.0377   28.3277 H   0  0  0  0  0
  -43.3802   77.7821   29.5420 H   0  0  0  0  0
  -45.2222   78.6258   28.4430 H   0  0  0  0  0
  -41.4109   76.5548   30.0699 H   0  0  0  0  0
  -39.0053   78.0639   29.7573 H   0  0  0  0  0
  -39.8829   77.3859   31.9570 H   0  0  0  0  0
  -39.5788   75.6759   31.5638 H   0  0  0  0  0
  -38.2131   76.8038   31.7475 H   0  0  0  0  0
  -39.7745   74.6895   28.8936 H   0  0  0  0  0
  -37.0361   73.9447   28.3759 H   0  0  0  0  0
  -39.6021   72.9739   27.1146 H   0  0  0  0  0
  -38.7732   72.3086   28.6223 H   0  0  0  0  0
  -37.5192   72.3000   25.9102 H   0  0  0  0  0
  -38.5995   70.9560   26.5198 H   0  0  0  0  0
  -35.1026   71.9891   25.9396 H   0  0  0  0  0
  -35.3424   73.0679   27.3358 H   0  0  0  0  0
  -34.2180   71.6924   27.4563 H   0  0  0  0  0
  -39.5766   75.4243   26.3178 H   0  0  0  0  0
  -38.0487   75.3042   23.9200 H   0  0  0  0  0
  -40.4718   75.8012   23.9542 H   0  0  0  0  0
  -40.1549   77.3391   24.7940 H   0  0  0  0  0
  -39.5898   77.1050   23.1216 H   0  0  0  0  0
  -37.6121   77.3171   26.7040 H   0  0  0  0  0
  -36.1226   79.2892   25.0754 H   0  0  0  0  0
  -36.2334   80.7435   26.9462 H   0  0  0  0  0
  -36.7433   79.3468   28.0409 H   0  0  0  0  0
  -38.8705   79.2944   26.9654 H   0  0  0  0  0
  -38.6090   80.7459   28.9097 H   0  0  0  0  0
  -38.1170   82.0956   27.8575 H   0  0  0  0  0
  -39.7732   81.4487   27.7600 H   0  0  0  0  0
  -37.9128   81.6424   25.3112 H   0  0  0  0  0
  -38.2556   79.9965   24.7242 H   0  0  0  0  0
  -39.5767   81.0096   25.3562 H   0  0  0  0  0
  -35.3726   76.4247   26.5973 H   0  0  0  0  0
  -33.0582   77.0148   28.0894 H   0  0  0  0  0
  -33.5211   74.7475   26.1496 H   0  0  0  0  0
  -33.9273   74.7947   27.9408 H   0  0  0  0  0
  -31.1871   74.8429   26.7004 H   0  0  0  0  0
  -31.2946   76.0654   28.8132 H   0  0  0  0  0
  -32.0892   74.6771   29.5955 H   0  0  0  0  0
  -30.4072   74.5366   29.0281 H   0  0  0  0  0
  -32.6316   72.6238   28.1796 H   0  0  0  0  0
  -32.2096   72.6459   26.4498 H   0  0  0  0  0
  -30.9228   72.5936   27.6796 H   0  0  0  0  0
  -31.0490   77.6812   27.6647 H   0  0  0  0  0
  -30.2596   77.9720   24.8072 H   0  0  0  0  0
  -30.1200   80.1865   26.8782 H   0  0  0  0  0
  -31.2131   80.1223   25.4533 H   0  0  0  0  0
  -29.3229   81.3872   25.0795 H   0  0  0  0  0
  -28.1451   77.5984   24.4202 H   0  0  0  0  0
  -26.3982   76.8949   26.7133 H   0  0  0  0  0
  -26.0743   76.7673   23.6950 H   0  0  0  0  0
  -23.8855   77.1680   24.6741 H   0  0  0  0  0
  -24.1294   75.8258   25.8187 H   0  0  0  0  0
  -24.0071   75.4962   24.0730 H   0  0  0  0  0
  -26.3887   74.6202   25.8394 H   0  0  0  0  0
  -27.6342   75.1215   24.6696 H   0  0  0  0  0
  -26.1536   74.3114   24.1015 H   0  0  0  0  0
  -27.1677   79.7386   25.0587 H   0  0  0  0  0
  -24.4318   80.8297   25.4759 H   0  0  0  0  0
  -25.8556   81.6115   26.2607 H   0  0  0  0  0
  -24.4923   80.8977   23.2775 H   0  0  0  0  0
  1  2  1  0  0  0
  2  3  1  0  0  0
  2  5  1  0  0  0
  3  4  2  0  0  0
  3  7  1  0  0  0
  5  6  1  0  0  0
  7  8  1  0  0  0
  8  9  1  0  0  0
  8 11  1  0  0  0
  9 10  2  0  0  0
  9 19  1  0  0  0
 11 12  1  0  0  0
 12 13  4  0  0  0
 12 14  4  0  0  0
 13 15  4  0  0  0
 14 16  4  0  0  0
 15 17  4  0  0  0
 16 17  4  0  0  0
 17 18  1  0  0  0
 19 20  1  0  0  0
 20 21  1  0  0  0
 20 23  1  0  0  0
 21 22  2  0  0  0
 21 28  1  0  0  0
 23 24  1  0  0  0
 24 25  1  0  0  0
 25 26  1  0  0  0
 25 27  2  0  0  0
 28 29  1  0  0  0
 29 30  1  0  0  0
 29 32  1  0  0  0
 30 31  2  0  0  0
 30 33  1  0  0  0
 33 34  1  0  0  0
 34 35  1  0  0  0
 34 37  1  0  0  0
 35 36  2  0  0  0
 35 42  1  0  0  0
 37 38  1  0  0  0
 38 39  1  0  0  0
 39 40  2  0  0  0
 39 41  1  0  0  0
 42 43  1  0  0  0
 43 44  1  0  0  0
 43 46  1  0  0  0
 44 45  2  0  0  0
 44 49  1  0  0  0
 46 47  1  0  0  0
 46 48  1  0  0  0
 49 50  1  0  0  0
 50 51  1  0  0  0
 50 53  1  0  0  0
 51 52  2  0  0  0
 51 56  1  0  0  0
 53 54  1  0  0  0
 53 55  1  0  0  0
 56 57  1  0  0  0
 57 58  1  0  0  0
 57 60  1  0  0  0
 58 59  2  0  0  0
 58 62  1  0  0  0
 60 61  1  0  0  0
 62 63  1  0  0  0
 63 64  1  0  0  0
 63 66  1  0  0  0
 64 65  2  0  0  0
 64 67  1  0  0  0
 67 68  1  0  0  0
 68 69  1  0  0  0
 68 71  1  0  0  0
 69 70  2  0  0  0
 69 75  1  0  0  0
 71 72  1  0  0  0
 72 73  1  0  0  0
 73 74  1  0  0  0
 75 76  1  0  0  0
 76 77  1  0  0  0
 76 79  1  0  0  0
 77 78  2  0  0  0
 77 80  1  0  0  0
 80 81  1  0  0  0
 81 82  1  0  0  0
 81 84  1  0  0  0
 82 83  2  0  0  0
 82 88  1  0  0  0
 84 85  1  0  0  0
 85 86  1  0  0  0
 85 87  1  0  0  0
 88 89  1  0  0  0
 89 90  1  0  0  0
 89 92  1  0  0  0
 90 91  2  0  0  0
 90 96  1  0  0  0
 92 93  1  0  0  0
 93 94  1  0  0  0
 93 95  1  0  0  0
 96 97  1  0  0  0
 97 98  1  0  0  0
 97100  1  0  0  0
 98 99  2  0  0  0
 98102  1  0  0  0
100101  1  0  0  0
102103  1  0  0  0
103104  1  0  0  0
103106  1  0  0  0
104105  2  0  0  0
104109  1  0  0  0
106107  1  0  0  0
106108  1  0  0  0
109110  1  0  0  0
110111  1  0  0  0
111112  2  0  0  0
111113  1  0  0  0
  1114  1  0  0  0
  1115  1  0  0  0
  1116  1  0  0  0
  2117  1  0  0  0
  5118  1  0  0  0
  5119  1  0  0  0
  6120  1  0  0  0
  7121  1  0  0  0
  8122  1  0  0  0
 11123  1  0  0  0
 11124  1  0  0  0
 13125  1  0  0  0
 14126  1  0  0  0
 15127  1  0  0  0
 16128  1  0  0  0
 18129  1  0  0  0
 19130  1  0  0  0
 20131  1  0  0  0
 23132  1  0  0  0
 23133  1  0  0  0
 24134  1  0  0  0
 24135  1  0  0  0
 26136  1  0  0  0
 28137  1  0  0  0
 29138  1  0  0  0
 32139  1  0  0  0
 32140  1  0  0  0
 32141  1  0  0  0
 33142  1  0  0  0
 34143  1  0  0  0
 37144  1  0  0  0
 37145  1  0  0  0
 38146  1  0  0  0
 38147  1  0  0  0
 41148  1  0  0  0
 42149  1  0  0  0
 43150  1  0  0  0
 46151  1  0  0  0
 47152  1  0  0  0
 48153  1  0  0  0
 48154  1  0  0  0
 48155  1  0  0  0
 49156  1  0  0  0
 50157  1  0  0  0
 53158  1  0  0  0
 54159  1  0  0  0
 54160  1  0  0  0
 54161  1  0  0  0
 55162  1  0  0  0
 55163  1  0  0  0
 55164  1  0  0  0
 56165  1  0  0  0
 57166  1  0  0  0
 60167  1  0  0  0
 60168  1  0  0  0
 61169  1  0  0  0
 62170  1  0  0  0
 63171  1  0  0  0
 66172  1  0  0  0
 66173  1  0  0  0
 66174  1  0  0  0
 67175  1  0  0  0
 68176  1  0  0  0
 71177  1  0  0  0
 71178  1  0  0  0
 72179  1  0  0  0
 72180  1  0  0  0
 74181  1  0  0  0
 74182  1  0  0  0
 74183  1  0  0  0
 75184  1  0  0  0
 76185  1  0  0  0
 79186  1  0  0  0
 79187  1  0  0  0
 79188  1  0  0  0
 80189  1  0  0  0
 81190  1  0  0  0
 84191  1  0  0  0
 84192  1  0  0  0
 85193  1  0  0  0
 86194  1  0  0  0
 86195  1  0  0  0
 86196  1  0  0  0
 87197  1  0  0  0
 87198  1  0  0  0
 87199  1  0  0  0
 88200  1  0  0  0
 89201  1  0  0  0
 92202  1  0  0  0
 92203  1  0  0  0
 93204  1  0  0  0
 94205  1  0  0  0
 94206  1  0  0  0
 94207  1  0  0  0
 95208  1  0  0  0
 95209  1  0  0  0
 95210  1  0  0  0
 96211  1  0  0  0
 97212  1  0  0  0
100213  1  0  0  0
100214  1  0  0  0
101215  1  0  0  0
102216  1  0  0  0
103217  1  0  0  0
106218  1  0  0  0
107219  1  0  0  0
107220  1  0  0  0
107221  1  0  0  0
108222  1  0  0  0
108223  1  0  0  0
108224  1  0  0  0
109225  1  0  0  0
110226  1  0  0  0
110227  1  0  0  0
113228  1  0  0  0
M  END
$$$$
