### 
### Created by X-TOOL on Tue Oct 16 15:17:50 2018
### 

@<TRIPOS>MOLECULE
5uwi_ligand
  225   225     1     0     0
SMALL
GAST_HUCK


@<TRIPOS>ATOM
      1 N         -52.5300   65.0990   30.8810 N.4       1 SER         0.2396
      2 CA        -52.4040   66.5560   31.1720 C.3       1 SER         0.0885
      3 C         -51.3750   67.1920   30.2380 C.2       1 SER         0.2291
      4 O         -50.8650   66.5310   29.3330 O.2       1 SER        -0.3906
      5 CB        -52.0250   66.7760   32.6390 C.3       1 SER         0.1041
      6 OG        -53.1430   66.5550   33.4820 O.3       1 SER        -0.3870
      7 N         -51.0710   68.4710   30.4570 N.am      1 SER        -0.2594
      8 CA        -50.2720   69.2420   29.5110 C.3       1 SER         0.1391
      9 C         -48.9990   69.8100   30.1180 C.2       1 SER         0.2057
     10 O         -47.9290   69.6930   29.5080 O.2       1 SER        -0.3942
     11 CB        -51.1310   70.3800   28.9200 C.3       1 SER         0.0164
     12 CG        -52.0990   69.9440   27.8300 C.ar      1 SER        -0.0493
     13 CD1       -51.8040   68.8740   26.9920 C.ar      1 SER        -0.0685
     14 CD2       -53.3050   70.6080   27.6380 C.ar      1 SER        -0.0685
     15 CE1       -52.6790   68.4770   26.0010 C.ar      1 SER        -0.0398
     16 CE2       -54.1880   70.2160   26.6460 C.ar      1 SER        -0.0398
     17 CZ        -53.8680   69.1500   25.8310 C.ar      1 SER         0.0805
     18 OH        -54.7370   68.7510   24.8410 O.3       1 SER        -0.3376
     19 N         -49.0710   70.4210   31.2980 N.am      1 SER        -0.2635
     20 CA        -47.9170   71.0860   31.9020 C.3       1 SER         0.1325
     21 C         -47.2420   72.0140   30.8860 C.2       1 SER         0.2040
     22 O         -46.1730   71.7340   30.3410 O.2       1 SER        -0.3944
     23 CB        -46.9220   70.0590   32.4550 C.3       1 SER        -0.0008
     24 CG        -47.2120   69.6040   33.8830 C.3       1 SER         0.0044
     25 CD        -47.8260   68.2180   33.9550 C.2       1 SER         0.0350
     26 OE1       -48.4000   67.7590   32.9440 O.co2     1 SER        -0.5690
     27 OE2       -47.7300   67.5830   35.0270 O.co2     1 SER        -0.5690
     28 N         -47.9120   73.1440   30.6510 N.am      1 SER        -0.2640
     29 CA        -47.4920   74.0720   29.6090 C.3       1 SER         0.1282
     30 C         -46.3510   74.9830   30.0400 C.2       1 SER         0.2036
     31 O         -45.6630   75.5370   29.1750 O.2       1 SER        -0.3944
     32 CB        -48.6820   74.9220   29.1580 C.3       1 SER        -0.0244
     33 N         -46.1330   75.1640   31.3450 N.am      1 SER        -0.2636
     34 CA        -45.0170   75.9930   31.7880 C.3       1 SER         0.1325
     35 C         -43.6910   75.2550   31.6750 C.2       1 SER         0.2041
     36 O         -42.6650   75.8780   31.3760 O.2       1 SER        -0.3944
     37 CB        -45.2320   76.4630   33.2270 C.3       1 SER        -0.0008
     38 CG        -44.2390   77.5330   33.6640 C.3       1 SER         0.0044
     39 CD        -44.3890   77.9180   35.1230 C.2       1 SER         0.0350
     40 OE1       -45.5310   77.9040   35.6300 O.co2     1 SER        -0.5690
     41 OE2       -43.3600   78.2300   35.7620 O.co2     1 SER        -0.5690
     42 N         -43.6840   73.9430   31.9180 N.am      1 SER        -0.2613
     43 CA        -42.4960   73.1470   31.6290 C.3       1 SER         0.1565
     44 C         -42.1010   73.2960   30.1670 C.2       1 SER         0.2065
     45 O         -40.9440   73.5950   29.8470 O.2       1 SER        -0.3943
     46 CB        -42.7530   71.6770   31.9660 C.3       1 SER         0.0924
     47 OG1       -43.2130   71.5630   33.3180 O.3       1 SER        -0.3874
     48 CG2       -41.4810   70.8520   31.7970 C.3       1 SER        -0.0346
     49 N         -43.0620   73.0960   29.2620 N.am      1 SER        -0.2634
     50 CA        -42.8020   73.2440   27.8320 C.3       1 SER         0.1333
     51 C         -42.2310   74.6250   27.5390 C.2       1 SER         0.2042
     52 O         -41.1950   74.7630   26.8770 O.2       1 SER        -0.3944
     53 CB        -44.0900   72.9860   27.0300 C.3       1 SER        -0.0063
     54 CG1       -43.8740   73.2690   25.5470 C.3       1 SER        -0.0584
     55 CG2       -44.5610   71.5520   27.2400 C.3       1 SER        -0.0584
     56 N         -42.9080   75.6710   28.0200 N.am      1 SER        -0.2616
     57 CA        -42.4540   77.0320   27.7590 C.3       1 SER         0.1539
     58 C         -41.0020   77.2140   28.1790 C.2       1 SER         0.2062
     59 O         -40.1580   77.6260   27.3760 O.2       1 SER        -0.3943
     60 CB        -43.3560   78.0350   28.4820 C.3       1 SER         0.0843
     61 OG        -44.6780   77.9890   27.9740 O.3       1 SER        -0.3903
     62 N         -40.6870   76.8950   29.4370 N.am      1 SER        -0.2639
     63 CA        -39.3140   77.0300   29.9120 C.3       1 SER         0.1282
     64 C         -38.3570   76.1430   29.1250 C.2       1 SER         0.2036
     65 O         -37.1920   76.5090   28.9290 O.2       1 SER        -0.3944
     66 CB        -39.2420   76.7000   31.4030 C.3       1 SER        -0.0244
     67 N         -38.8220   74.9770   28.6690 N.am      1 SER        -0.2637
     68 CA        -37.9770   74.1100   27.8510 C.3       1 SER         0.1317
     69 C         -37.6550   74.7670   26.5150 C.2       1 SER         0.2039
     70 O         -36.5120   74.7090   26.0470 O.2       1 SER        -0.3944
     71 CB        -38.6690   72.7630   27.6370 C.3       1 SER        -0.0034
     72 CG        -37.9050   71.7570   26.7730 C.3       1 SER        -0.0024
     73 SD        -36.4930   70.9980   27.6020 S.3       1 SER        -0.1639
     74 CE        -35.1580   72.0390   27.0270 C.3       1 SER        -0.0181
     75 N         -38.6510   75.4000   25.8900 N.am      1 SER        -0.2640
     76 CA        -38.4370   76.0570   24.6060 C.3       1 SER         0.1282
     77 C         -37.4070   77.1740   24.6890 C.2       1 SER         0.2036
     78 O         -36.8390   77.5540   23.6580 O.2       1 SER        -0.3944
     79 CB        -39.7590   76.6160   24.0810 C.3       1 SER        -0.0244
     80 N         -37.1500   77.7060   25.8820 N.am      1 SER        -0.2637
     81 CA        -36.2320   78.8240   26.0550 C.3       1 SER         0.1312
     82 C         -34.8440   78.3940   26.5070 C.2       1 SER         0.2039
     83 O         -33.9750   79.2530   26.6800 O.2       1 SER        -0.3944
     84 CB        -36.8070   79.8240   27.0630 C.3       1 SER        -0.0101
     85 CG        -38.2760   80.2020   26.8610 C.3       1 SER        -0.0425
     86 CD1       -38.7260   81.1940   27.9230 C.3       1 SER        -0.0625
     87 CD2       -38.5230   80.7520   25.4630 C.3       1 SER        -0.0625
     88 N         -34.6140   77.0970   26.7110 N.am      1 SER        -0.2637
     89 CA        -33.2880   76.6320   27.0950 C.3       1 SER         0.1312
     90 C         -32.2490   77.1530   26.1130 C.2       1 SER         0.2040
     91 O         -32.4280   77.0680   24.8950 O.2       1 SER        -0.3944
     92 CB        -33.2500   75.1020   27.1440 C.3       1 SER        -0.0101
     93 CG        -31.8780   74.5010   27.4710 C.3       1 SER        -0.0425
     94 CD1       -31.3820   74.9790   28.8230 C.3       1 SER        -0.0625
     95 CD2       -31.9130   72.9830   27.4430 C.3       1 SER        -0.0625
     96 N         -31.1610   77.6960   26.6510 N.am      1 SER        -0.2616
     97 CA        -30.1270   78.3100   25.8350 C.3       1 SER         0.1539
     98 C         -28.7570   77.8890   26.3410 C.2       1 SER         0.2062
     99 O         -28.5270   77.8080   27.5510 O.2       1 SER        -0.3943
    100 CB        -30.2390   79.8390   25.8520 C.3       1 SER         0.0843
    101 OG        -29.2310   80.4320   25.0520 O.3       1 SER        -0.3903
    102 N         -27.8520   77.6180   25.3970 N.am      1 SER        -0.2634
    103 CA        -26.4550   77.3490   25.7240 C.3       1 SER         0.1332
    104 C         -25.6400   78.6310   25.8050 C.2       1 SER         0.2034
    105 O         -24.4920   78.5980   26.2730 O.2       1 SER        -0.3944
    106 CB        -25.8790   76.3600   24.6870 C.3       1 SER        -0.0063
    107 CG1       -24.3660   76.2010   24.8230 C.3       1 SER        -0.0584
    108 CG2       -26.5630   75.0060   24.8350 C.3       1 SER        -0.0584
    109 N         -26.2050   79.7630   25.3950 N.am      1 SER        -0.2722
    110 CA        -25.5010   81.0310   25.4090 C.3       1 SER         0.0833
    111 C         -25.7590   81.8290   24.1460 C.2       1 SER         0.0570
    112 O         -26.6180   82.7110   24.1180 O.co2     1 SER        -0.5669
    113 OXT       -25.1230   81.6030   23.1150 O.co2     1 SER        -0.5669
    114 H1        -53.2105   64.6900   31.5021 H         1 SER         0.2016
    115 H2        -51.6377   64.6506   31.0180 H         1 SER         0.2016
    116 H3        -52.8271   64.9715   29.9263 H         1 SER         0.2016
    117 H4        -53.3782   67.0336   30.9912 H         1 SER         0.1122
    118 H5        -51.6722   67.8096   32.7701 H         1 SER         0.0640
    119 H6        -51.2215   66.0767   32.9135 H         1 SER         0.0640
    120 H7        -52.8890   66.6959   34.3865 H         1 SER         0.2099
    121 H8        -51.3992   68.9136   31.2915 H         1 SER         0.1886
    122 H9        -49.9786   68.5679   28.6928 H         1 SER         0.0821
    123 H10       -50.4538   71.1355   28.4950 H         1 SER         0.0453
    124 H11       -51.7146   70.8290   29.7372 H         1 SER         0.0453
    125 H12       -50.8686   68.3413   27.1196 H         1 SER         0.0530
    126 H13       -53.5586   71.4471   28.2758 H         1 SER         0.0530
    127 H14       -52.4311   67.6391   25.3595 H         1 SER         0.0525
    128 H15       -55.1252   70.7437   26.5107 H         1 SER         0.0525
    129 H16       -54.3670   68.0096   24.3763 H         1 SER         0.2458
    130 H17       -49.9428   70.4256   31.7878 H         1 SER         0.1883
    131 H18       -48.2753   71.6999   32.7415 H         1 SER         0.0801
    132 H19       -45.9178   70.5075   32.4343 H         1 SER         0.0330
    133 H20       -46.9421   69.1744   31.8016 H         1 SER         0.0330
    134 H21       -47.9091   70.3196   34.3434 H         1 SER         0.0433
    135 H22       -46.2675   69.5978   34.4467 H         1 SER         0.0433
    136 H23       -48.7190   73.3583   31.2014 H         1 SER         0.1883
    137 H24       -47.1429   73.4778   28.7516 H         1 SER         0.0797
    138 H25       -48.3573   75.6196   28.3719 H         1 SER         0.0277
    139 H26       -49.0719   75.4910   30.0149 H         1 SER         0.0277
    140 H27       -49.4721   74.2665   28.7630 H         1 SER         0.0277
    141 H28       -46.7338   74.7320   32.0177 H         1 SER         0.1883
    142 H29       -44.9724   76.8790   31.1377 H         1 SER         0.0801
    143 H30       -45.1294   75.5965   33.8968 H         1 SER         0.0330
    144 H31       -46.2487   76.8740   33.3123 H         1 SER         0.0330
    145 H32       -44.3954   78.4299   33.0467 H         1 SER         0.0433
    146 H33       -43.2196   77.1516   33.5049 H         1 SER         0.0433
    147 H34       -44.4969   73.5033   32.3000 H         1 SER         0.1884
    148 H35       -41.6678   73.5113   32.2546 H         1 SER         0.0826
    149 H36       -43.5254   71.2863   31.2873 H         1 SER         0.0639
    150 H37       -43.3709   70.6486   33.5216 H         1 SER         0.2101
    151 H38       -41.6902   69.8008   32.0444 H         1 SER         0.0257
    152 H39       -40.7011   71.2387   32.4694 H         1 SER         0.0257
    153 H40       -41.1345   70.9215   30.7553 H         1 SER         0.0257
    154 H41       -43.9785   72.8397   29.5692 H         1 SER         0.1883
    155 H42       -42.0552   72.4933   27.5343 H         1 SER         0.0802
    156 H43       -44.8711   73.6661   27.4006 H         1 SER         0.0343
    157 H44       -44.8074   73.0773   24.9974 H         1 SER         0.0234
    158 H45       -43.0798   72.6135   25.1605 H         1 SER         0.0234
    159 H46       -43.5792   74.3203   25.4134 H         1 SER         0.0234
    160 H47       -44.7106   71.3688   28.3143 H         1 SER         0.0234
    161 H48       -43.8026   70.8563   26.8516 H         1 SER         0.0234
    162 H49       -45.5098   71.3957   26.7059 H         1 SER         0.0234
    163 H50       -43.7334   75.5196   28.5639 H         1 SER         0.1884
    164 H51       -42.5248   77.2187   26.6773 H         1 SER         0.0823
    165 H52       -42.9519   79.0484   28.3413 H         1 SER         0.0606
    166 H53       -43.3746   77.7934   29.5550 H         1 SER         0.0606
    167 H54       -45.0330   77.1163   28.0966 H         1 SER         0.2097
    168 H55       -41.3968   76.5614   30.0575 H         1 SER         0.1883
    169 H56       -39.0037   78.0760   29.7720 H         1 SER         0.0797
    170 H57       -38.2040   76.8044   31.7519 H         1 SER         0.0277
    171 H58       -39.5816   75.6666   31.5667 H         1 SER         0.0277
    172 H59       -39.8884   77.3915   31.9633 H         1 SER         0.0277
    173 H60       -39.7559   74.6951   28.8892 H         1 SER         0.1883
    174 H61       -37.0325   73.9366   28.3875 H         1 SER         0.0800
    175 H62       -39.6396   72.9538   27.1559 H         1 SER         0.0320
    176 H63       -38.8325   72.3059   28.6241 H         1 SER         0.0320
    177 H64       -37.5397   72.2788   25.8762 H         1 SER         0.0378
    178 H65       -38.6007   70.9588   26.4749 H         1 SER         0.0378
    179 H66       -34.2087   71.6902   27.4596 H         1 SER         0.0340
    180 H67       -35.3429   73.0778   27.3381 H         1 SER         0.0340
    181 H68       -35.1010   71.9895   25.9296 H         1 SER         0.0340
    182 H69       -39.5585   75.4238   26.3094 H         1 SER         0.1883
    183 H70       -38.0674   75.3034   23.8950 H         1 SER         0.0797
    184 H71       -39.5896   77.1098   23.1128 H         1 SER         0.0277
    185 H72       -40.1597   77.3460   24.7997 H         1 SER         0.0277
    186 H73       -40.4793   75.7946   23.9526 H         1 SER         0.0277
    187 H74       -37.6031   77.3248   26.6879 H         1 SER         0.1883
    188 H75       -36.1298   79.3279   25.0826 H         1 SER         0.0800
    189 H76       -36.2098   80.7458   27.0024 H         1 SER         0.0315
    190 H77       -36.7059   79.3870   28.0674 H         1 SER         0.0315
    191 H78       -38.8779   79.2882   26.9738 H         1 SER         0.0298
    192 H79       -39.7828   81.4518   27.7596 H         1 SER         0.0232
    193 H80       -38.1122   82.1045   27.8579 H         1 SER         0.0232
    194 H81       -38.6085   80.7430   28.9194 H         1 SER         0.0232
    195 H82       -38.1896   80.0169   24.7156 H         1 SER         0.0232
    196 H83       -37.9606   81.6883   25.3326 H         1 SER         0.0232
    197 H84       -39.5972   80.9480   25.3306 H         1 SER         0.0232
    198 H85       -35.3577   76.4379   26.5995 H         1 SER         0.1883
    199 H86       -33.0542   77.0217   28.0967 H         1 SER         0.0800
    200 H87       -33.5648   74.7206   26.1614 H         1 SER         0.0315
    201 H88       -33.9619   74.7668   27.9127 H         1 SER         0.0315
    202 H89       -31.1677   74.8416   26.7032 H         1 SER         0.0298
    203 H90       -30.3982   74.5332   29.0312 H         1 SER         0.0232
    204 H91       -32.0949   74.6749   29.6036 H         1 SER         0.0232
    205 H92       -31.2933   76.0754   28.8144 H         1 SER         0.0232
    206 H93       -32.2732   72.6426   26.4609 H         1 SER         0.0232
    207 H94       -32.5903   72.6173   28.2288 H         1 SER         0.0232
    208 H95       -30.9009   72.5896   27.6188 H         1 SER         0.0232
    209 H96       -31.0512   77.6815   27.6448 H         1 SER         0.1884
    210 H97       -30.2459   77.9618   24.7984 H         1 SER         0.0823
    211 H98       -30.1327   80.1958   26.8871 H         1 SER         0.0606
    212 H99       -31.2253   80.1316   25.4627 H         1 SER         0.0606
    213 H100      -29.3220   81.3773   25.0792 H         1 SER         0.2097
    214 H101      -28.1394   77.5988   24.4394 H         1 SER         0.1883
    215 H102      -26.4192   76.8685   26.7128 H         1 SER         0.0802
    216 H103      -26.0926   76.7529   23.6820 H         1 SER         0.0343
    217 H104      -24.0026   75.4899   24.0665 H         1 SER         0.0234
    218 H105      -24.1259   75.8223   25.8275 H         1 SER         0.0234
    219 H106      -23.8798   77.1762   24.6729 H         1 SER         0.0234
    220 H107      -27.6512   75.1321   24.7355 H         1 SER         0.0234
    221 H108      -26.3318   74.5845   25.8244 H         1 SER         0.0234
    222 H109      -26.1998   74.3242   24.0520 H         1 SER         0.0234
    223 H110      -27.1488   79.7391   25.0653 H         1 SER         0.1873
    224 H111      -24.4214   80.8385   25.4948 H         1 SER         0.0689
    225 H112      -25.8391   81.6170   26.2763 H         1 SER         0.0689
@<TRIPOS>BOND
     1    1    2 1  
     2    2    3 1  
     3    2    5 1  
     4    3    4 2  
     5    3    7 am 
     6    5    6 1  
     7    7    8 1  
     8    8    9 1  
     9    8   11 1  
    10    9   10 2  
    11    9   19 am 
    12   11   12 1  
    13   12   13 ar 
    14   12   14 ar 
    15   13   15 ar 
    16   14   16 ar 
    17   15   17 ar 
    18   16   17 ar 
    19   17   18 1  
    20   19   20 1  
    21   20   21 1  
    22   20   23 1  
    23   21   22 2  
    24   21   28 am 
    25   23   24 1  
    26   24   25 1  
    27   25   26 ar 
    28   25   27 ar 
    29   28   29 1  
    30   29   30 1  
    31   29   32 1  
    32   30   31 2  
    33   30   33 am 
    34   33   34 1  
    35   34   35 1  
    36   34   37 1  
    37   35   36 2  
    38   35   42 am 
    39   37   38 1  
    40   38   39 1  
    41   39   40 ar 
    42   39   41 ar 
    43   42   43 1  
    44   43   44 1  
    45   43   46 1  
    46   44   45 2  
    47   44   49 am 
    48   46   47 1  
    49   46   48 1  
    50   49   50 1  
    51   50   51 1  
    52   50   53 1  
    53   51   52 2  
    54   51   56 am 
    55   53   54 1  
    56   53   55 1  
    57   56   57 1  
    58   57   58 1  
    59   57   60 1  
    60   58   59 2  
    61   58   62 am 
    62   60   61 1  
    63   62   63 1  
    64   63   64 1  
    65   63   66 1  
    66   64   65 2  
    67   64   67 am 
    68   67   68 1  
    69   68   69 1  
    70   68   71 1  
    71   69   70 2  
    72   69   75 am 
    73   71   72 1  
    74   72   73 1  
    75   73   74 1  
    76   75   76 1  
    77   76   77 1  
    78   76   79 1  
    79   77   78 2  
    80   77   80 am 
    81   80   81 1  
    82   81   82 1  
    83   81   84 1  
    84   82   83 2  
    85   82   88 am 
    86   84   85 1  
    87   85   86 1  
    88   85   87 1  
    89   88   89 1  
    90   89   90 1  
    91   89   92 1  
    92   90   91 2  
    93   90   96 am 
    94   92   93 1  
    95   93   94 1  
    96   93   95 1  
    97   96   97 1  
    98   97   98 1  
    99   97  100 1  
   100   98   99 2  
   101   98  102 am 
   102  100  101 1  
   103  102  103 1  
   104  103  104 1  
   105  103  106 1  
   106  104  105 2  
   107  104  109 am 
   108  106  107 1  
   109  106  108 1  
   110  109  110 1  
   111  110  111 1  
   112  111  112 ar 
   113  111  113 ar 
   114    1  114 1  
   115    1  115 1  
   116    1  116 1  
   117    2  117 1  
   118    5  118 1  
   119    5  119 1  
   120    6  120 1  
   121    7  121 1  
   122    8  122 1  
   123   11  123 1  
   124   11  124 1  
   125   13  125 1  
   126   14  126 1  
   127   15  127 1  
   128   16  128 1  
   129   18  129 1  
   130   19  130 1  
   131   20  131 1  
   132   23  132 1  
   133   23  133 1  
   134   24  134 1  
   135   24  135 1  
   136   28  136 1  
   137   29  137 1  
   138   32  138 1  
   139   32  139 1  
   140   32  140 1  
   141   33  141 1  
   142   34  142 1  
   143   37  143 1  
   144   37  144 1  
   145   38  145 1  
   146   38  146 1  
   147   42  147 1  
   148   43  148 1  
   149   46  149 1  
   150   47  150 1  
   151   48  151 1  
   152   48  152 1  
   153   48  153 1  
   154   49  154 1  
   155   50  155 1  
   156   53  156 1  
   157   54  157 1  
   158   54  158 1  
   159   54  159 1  
   160   55  160 1  
   161   55  161 1  
   162   55  162 1  
   163   56  163 1  
   164   57  164 1  
   165   60  165 1  
   166   60  166 1  
   167   61  167 1  
   168   62  168 1  
   169   63  169 1  
   170   66  170 1  
   171   66  171 1  
   172   66  172 1  
   173   67  173 1  
   174   68  174 1  
   175   71  175 1  
   176   71  176 1  
   177   72  177 1  
   178   72  178 1  
   179   74  179 1  
   180   74  180 1  
   181   74  181 1  
   182   75  182 1  
   183   76  183 1  
   184   79  184 1  
   185   79  185 1  
   186   79  186 1  
   187   80  187 1  
   188   81  188 1  
   189   84  189 1  
   190   84  190 1  
   191   85  191 1  
   192   86  192 1  
   193   86  193 1  
   194   86  194 1  
   195   87  195 1  
   196   87  196 1  
   197   87  197 1  
   198   88  198 1  
   199   89  199 1  
   200   92  200 1  
   201   92  201 1  
   202   93  202 1  
   203   94  203 1  
   204   94  204 1  
   205   94  205 1  
   206   95  206 1  
   207   95  207 1  
   208   95  208 1  
   209   96  209 1  
   210   97  210 1  
   211  100  211 1  
   212  100  212 1  
   213  101  213 1  
   214  102  214 1  
   215  103  215 1  
   216  106  216 1  
   217  107  217 1  
   218  107  218 1  
   219  107  219 1  
   220  108  220 1  
   221  108  221 1  
   222  108  222 1  
   223  109  223 1  
   224  110  224 1  
   225  110  225 1  
@<TRIPOS>SUBSTRUCTURE
     1 SER         1

