4zy4_ligand
  -I-interpret- 

 46 50  0  0  0  0  0  0  0  0999 V2000
   12.6900  -14.0630   17.1310 C   0  0  0  0  0
   11.9290  -12.9910   16.6630 C   0  0  0  0  0
   13.7090  -12.3740   15.3030 C   0  0  0  0  0
   17.4430  -16.1740   14.8340 C   0  0  0  0  0
   18.2070  -16.1400   13.5340 C   0  0  0  0  0
   15.6410  -11.6660   13.9460 C   0  0  0  0  0
   16.3060  -10.2910   13.9700 C   0  0  0  0  0
   14.0670   -9.2010   13.6490 C   0  0  0  0  0
   10.6570  -12.9410   17.2450 C   0  0  0  0  0
   10.3850  -13.8870   18.1250 C   0  0  0  0  0
   11.7510  -14.9670   18.3060 S   0  0  0  0  0
   12.4830  -12.1670   15.7450 N   0  0  0  0  0
   14.4570  -13.3830   15.7370 N   0  0  0  0  0
   13.9970  -14.2470   16.6370 C   0  0  0  0  0
   14.7740  -15.3080   17.0940 N   0  0  0  0  0
   15.9070  -15.7900   16.4130 C   0  0  0  0  0
   16.3060  -15.4970   15.0960 C   0  0  0  0  0
   17.7620  -16.8870   15.9350 N   0  0  0  0  0
   16.7860  -16.6310   16.9070 N   0  0  0  0  0
   17.9000  -14.9900   12.5770 C   0  0  0  0  0
   19.2350  -15.0270   13.3250 C   0  0  0  0  0
   14.2480  -11.5080   14.3610 N   0  0  0  0  0
   15.4940   -9.3230   13.1050 C   0  0  0  0  0
   13.3930  -10.5740   13.6260 C   0  0  0  0  0
   16.1460   -8.0070   13.1190 N   0  3  0  0  0
   18.2334  -17.2272   13.4604 H   0  0  0  0  0
   16.1590  -12.3443   14.6240 H   0  0  0  0  0
   15.6870  -12.0866   12.9415 H   0  0  0  0  0
   17.3202  -10.3686   13.5782 H   0  0  0  0  0
   16.3444   -9.9214   14.9947 H   0  0  0  0  0
   13.4997   -8.5075   13.0282 H   0  0  0  0  0
   14.0993   -8.8294   14.6732 H   0  0  0  0  0
    9.9340  -12.1671   16.9871 H   0  0  0  0  0
    9.4420  -13.9822   18.6634 H   0  0  0  0  0
   14.5078  -15.7599   17.9689 H   0  0  0  0  0
   15.7847  -14.8351   14.4045 H   0  0  0  0  0
   17.0931  -14.2843   12.3794 H   0  0  0  0  0
   17.5372  -14.8486   11.5589 H   0  0  0  0  0
   20.2982  -14.9251   13.1075 H   0  0  0  0  0
   19.8551  -14.3620   13.9262 H   0  0  0  0  0
   15.4470   -9.7004   12.0835 H   0  0  0  0  0
   13.2609  -10.9123   12.5983 H   0  0  0  0  0
   12.4083  -10.5187   14.0901 H   0  0  0  0  0
   15.6097   -7.3571   12.5442 H   0  0  0  0  0
   16.1884   -7.6601   14.0773 H   0  0  0  0  0
   17.0911   -8.0931   12.7452 H   0  0  0  0  0
  1  2  4  0  0  0
  1 11  4  0  0  0
 14  1  4  0  0  0
  2  9  4  0  0  0
  2 12  4  0  0  0
  3 12  4  0  0  0
 13  3  4  0  0  0
  3 22  1  0  0  0
  4  5  1  0  0  0
 17  4  4  0  0  0
  4 18  4  0  0  0
  5 20  1  0  0  0
  5 21  1  0  0  0
  6  7  1  0  0  0
 22  6  1  0  0  0
  7 23  1  0  0  0
 23  8  1  0  0  0
  8 24  1  0  0  0
 10  9  4  0  0  0
 11 10  4  0  0  0
 14 13  4  0  0  0
 15 14  1  0  0  0
 16 15  1  0  0  0
 16 17  4  0  0  0
 16 19  4  0  0  0
 18 19  4  0  0  0
 20 21  1  0  0  0
 22 24  1  0  0  0
 23 25  1  0  0  0
  5 26  1  0  0  0
  6 27  1  0  0  0
  6 28  1  0  0  0
  7 29  1  0  0  0
  7 30  1  0  0  0
  8 31  1  0  0  0
  8 32  1  0  0  0
  9 33  1  0  0  0
 10 34  1  0  0  0
 15 35  1  0  0  0
 17 36  1  0  0  0
 20 37  1  0  0  0
 20 38  1  0  0  0
 21 39  1  0  0  0
 21 40  1  0  0  0
 23 41  1  0  0  0
 24 42  1  0  0  0
 24 43  1  0  0  0
 25 44  1  0  0  0
 25 45  1  0  0  0
 25 46  1  0  0  0
M  END
$$$$
