3o99_ligand
  -I-interpret- 

 78 81  0  0  0  0  0  0  0  0999 V2000
   14.2900   34.9560   18.1170 N   0  0  0  0  0
   15.1850   34.3770   17.2940 C   0  0  0  0  0
   16.2760   35.0950   16.7970 C   0  0  0  0  0
   17.1690   34.4450   15.9350 C   0  0  0  0  0
   16.9870   33.1050   15.5770 C   0  0  0  0  0
   15.8960   32.4230   16.0900 C   0  0  0  0  0
   14.9950   33.0570   16.9390 C   0  0  0  0  0
   18.0160   32.3170   14.6060 S   0  0  0  0  0
   17.3560   31.2410   13.9410 O   0  0  0  0  0
   18.5970   33.2130   13.6530 O   0  0  0  0  0
   19.2770   31.7200   15.4300 N   0  0  0  0  0
   19.9720   32.7460   16.2460 C   0  0  0  0  0
   21.4690   32.4510   16.3100 C   0  0  0  0  0
   22.1470   32.4360   14.9330 C   0  0  0  0  0
   22.1430   33.4300   17.2830 C   0  0  0  0  0
   18.9850   30.4770   16.1570 C   0  0  0  0  0
   19.9100   29.3860   15.6070 C   0  0  0  0  0
   22.1510   34.8520   16.7800 C   0  0  0  0  0
   19.8660   28.2590   16.4930 O   0  0  0  0  0
   19.5700   28.9530   14.1740 C   0  0  0  0  0
   20.6780   28.1510   13.7030 N   0  0  0  0  0
   21.5550   28.5010   12.7730 C   0  0  0  0  0
   21.5970   29.5460   12.1620 O   0  0  0  0  0
   22.5340   27.4800   12.5300 O   0  0  0  0  0
   23.3880   27.5350   11.4060 C   0  0  0  0  0
   24.6900   26.9110   11.8740 C   0  0  0  0  0
   24.5150   25.5030   11.6570 O   0  0  0  0  0
   23.5510   25.2830   10.6260 C   0  0  0  0  0
   22.4990   24.4350   11.0710 O   0  0  0  0  0
   21.2500   25.1230   11.1120 C   0  0  0  0  0
   21.4290   26.3300   10.2060 C   0  0  0  0  0
   22.9180   26.6200   10.2920 C   0  0  0  0  0
   18.2670   28.1530   14.0400 C   0  0  0  0  0
   18.1720   26.4220   12.1900 C   0  0  0  0  0
   17.9980   26.0690   10.8630 C   0  0  0  0  0
   17.6470   27.0140    9.9130 C   0  0  0  0  0
   17.5150   28.3280   10.3130 C   0  0  0  0  0
   17.6940   28.6800   11.6430 C   0  0  0  0  0
   18.0380   27.7420   12.5950 C   0  0  0  0  0
   14.4028   35.9332   18.3867 H   0  0  0  0  0
   13.4993   34.4173   18.4707 H   0  0  0  0  0
   16.4289   36.1381   17.0739 H   0  0  0  0  0
   18.0218   34.9939   15.5357 H   0  0  0  0  0
   15.7417   31.3770   15.8252 H   0  0  0  0  0
   14.1355   32.5092   17.3254 H   0  0  0  0  0
   19.5639   32.7320   17.2566 H   0  0  0  0  0
   19.8222   33.7242   15.7891 H   0  0  0  0  0
   21.5924   31.4361   16.6879 H   0  0  0  0  0
   21.6876   31.6673   14.3116 H   0  0  0  0  0
   22.0246   33.4097   14.4586 H   0  0  0  0  0
   23.2085   32.2204   15.0544 H   0  0  0  0  0
   23.1796   33.1156   17.4044 H   0  0  0  0  0
   21.5789   33.4115   18.2155 H   0  0  0  0  0
   17.9415   30.1938   16.0195 H   0  0  0  0  0
   19.1540   30.6141   17.2251 H   0  0  0  0  0
   20.9153   29.8041   15.5563 H   0  0  0  0  0
   22.6926   34.8988   15.8352 H   0  0  0  0  0
   21.1253   35.1885   16.6294 H   0  0  0  0  0
   22.6410   35.4926   17.5132 H   0  0  0  0  0
   20.4423   27.5678   16.1587 H   0  0  0  0  0
   19.4126   29.8548   13.5824 H   0  0  0  0  0
   20.7952   27.2303   14.1261 H   0  0  0  0  0
   23.4432   28.5623   11.0459 H   0  0  0  0  0
   24.8990   27.1395   12.9191 H   0  0  0  0  0
   25.5489   27.3036   11.3298 H   0  0  0  0  0
   24.0546   24.8238    9.7753 H   0  0  0  0  0
   20.9872   25.4185   12.1277 H   0  0  0  0  0
   20.4301   24.4875   10.7774 H   0  0  0  0  0
   20.8194   27.1789   10.5155 H   0  0  0  0  0
   21.0988   26.1387    9.1850 H   0  0  0  0  0
   23.1816   27.1095    9.3545 H   0  0  0  0  0
   17.4346   28.7766   14.3660 H   0  0  0  0  0
   18.3383   27.2561   14.6553 H   0  0  0  0  0
   18.4169   25.6548   12.9245 H   0  0  0  0  0
   18.1394   25.0313   10.5609 H   0  0  0  0  0
   17.4792   26.7267    8.8750 H   0  0  0  0  0
   17.2683   29.0949    9.5788 H   0  0  0  0  0
   17.5601   29.7195   11.9423 H   0  0  0  0  0
  2  1  1  0  0  0
  3  2  4  0  0  0
  7  2  4  0  0  0
  4  3  4  0  0  0
  5  4  4  0  0  0
  5  6  4  0  0  0
  8  5  1  0  0  0
  6  7  4  0  0  0
  8  9  2  0  0  0
  8 10  2  0  0  0
 11  8  1  0  0  0
 11 12  1  0  0  0
 16 11  1  0  0  0
 12 13  1  0  0  0
 13 14  1  0  0  0
 13 15  1  0  0  0
 15 18  1  0  0  0
 17 16  1  0  0  0
 17 19  1  0  0  0
 20 17  1  0  0  0
 20 21  1  0  0  0
 33 20  1  0  0  0
 21 22  1  0  0  0
 22 23  2  0  0  0
 22 24  1  0  0  0
 24 25  1  0  0  0
 25 26  1  0  0  0
 25 32  1  0  0  0
 26 27  1  0  0  0
 28 27  1  0  0  0
 28 29  1  0  0  0
 32 28  1  0  0  0
 30 29  1  0  0  0
 31 30  1  0  0  0
 32 31  1  0  0  0
 39 33  1  0  0  0
 34 35  4  0  0  0
 34 39  4  0  0  0
 35 36  4  0  0  0
 36 37  4  0  0  0
 37 38  4  0  0  0
 38 39  4  0  0  0
  1 40  1  0  0  0
  1 41  1  0  0  0
  3 42  1  0  0  0
  4 43  1  0  0  0
  6 44  1  0  0  0
  7 45  1  0  0  0
 12 46  1  0  0  0
 12 47  1  0  0  0
 13 48  1  0  0  0
 14 49  1  0  0  0
 14 50  1  0  0  0
 14 51  1  0  0  0
 15 52  1  0  0  0
 15 53  1  0  0  0
 16 54  1  0  0  0
 16 55  1  0  0  0
 17 56  1  0  0  0
 18 57  1  0  0  0
 18 58  1  0  0  0
 18 59  1  0  0  0
 19 60  1  0  0  0
 20 61  1  0  0  0
 21 62  1  0  0  0
 25 63  1  0  0  0
 26 64  1  0  0  0
 26 65  1  0  0  0
 28 66  1  0  0  0
 30 67  1  0  0  0
 30 68  1  0  0  0
 31 69  1  0  0  0
 31 70  1  0  0  0
 32 71  1  0  0  0
 33 72  1  0  0  0
 33 73  1  0  0  0
 34 74  1  0  0  0
 35 75  1  0  0  0
 36 76  1  0  0  0
 37 77  1  0  0  0
 38 78  1  0  0  0
M  END
$$$$
