3zpu_ligand
  -I-interpret- 

102104  0  0  0  0  0  0  0  0999 V2000
   20.0070   18.0790    6.8370 C   0  0  0  0  0
   18.5960   17.9030    6.6060 O   0  0  0  0  0
   18.1050   18.8170    5.7030 C   0  0  0  0  0
   18.8460   19.5930    5.0530 O   0  0  0  0  0
   16.8070   18.8230    5.4920 N   0  0  0  0  0
   16.0590   19.8160    4.6810 C   0  0  0  0  0
   15.3130   19.1240    3.5330 C   0  0  0  0  0
   16.4070   18.6200    2.6370 C   0  0  0  0  0
   14.3870   17.9410    4.0160 C   0  0  0  0  0
   14.4830   20.1720    2.6940 C   0  0  0  0  0
   15.2160   20.6620    5.6950 C   0  0  0  0  0
   14.0930   20.3220    6.0930 O   0  0  0  0  0
   15.8820   21.7450    6.1760 N   0  0  0  0  0
   15.3710   22.4380    7.1710 N   0  3  0  0  0
   16.2530   22.3250    8.3600 C   0  0  0  0  0
   16.3360   21.0100    8.8960 C   0  0  0  0  0
   15.1730   20.3210    9.2720 C   0  0  0  0  0
   15.3160   19.0000    9.7550 C   0  0  0  0  0
   16.5380   18.4060    9.9130 C   0  0  0  0  0
   16.6140   16.5140   10.7070 Br  0  0  0  0  0
   17.6760   19.1130    9.5590 C   0  0  0  0  0
   17.5650   20.3950    9.0010 C   0  0  0  0  0
   15.2870   23.8370    6.8160 C   0  0  0  0  0
   13.8800   24.2530    6.3590 C   0  0  0  0  0
   13.4340   23.6310    5.0040 C   0  0  0  0  0
   12.1260   24.3050    4.5710 C   0  0  0  0  0
   11.6650   23.6250    3.1940 C   0  0  0  0  0
   12.4360   25.6910    4.3930 O   0  0  0  0  0
   11.0470   24.3300    5.5320 C   0  0  0  0  0
   10.5070   23.3240    6.0040 O   0  0  0  0  0
   10.3500   25.5230    5.7620 N   0  0  0  0  0
    9.0490   25.6410    6.5110 C   0  0  0  0  0
    9.2090   26.1480    7.9220 C   0  0  0  0  0
    9.9820   27.4970    7.9700 C   0  0  0  0  0
    7.7570   26.4490    8.4840 C   0  0  0  0  0
    9.8960   25.1300    8.7770 C   0  0  0  0  0
    8.1810   26.4950    5.6810 C   0  0  0  0  0
    8.5380   27.5950    5.2440 O   0  0  0  0  0
    6.8930   26.1370    5.2840 N   0  0  0  0  0
    6.0180   26.9370    4.3860 C   0  0  0  0  0
    5.1380   26.0130    3.7440 C   0  0  0  0  0
    5.3580   25.3990    2.5060 C   0  0  0  0  0
    6.4630   25.5680    1.6570 C   0  0  0  0  0
    7.7640   25.0530    2.0560 C   0  0  0  0  0
    8.9240   25.8220    1.8210 C   0  0  0  0  0
   10.2300   25.3710    2.1640 C   0  0  0  0  0
   10.3420   24.1170    2.7980 C   0  0  0  0  0
    9.1830   23.3500    3.0200 C   0  0  0  0  0
    7.9290   23.7960    2.6620 C   0  0  0  0  0
   20.5459   17.9545    5.8978 H   0  0  0  0  0
   20.1874   19.0791    7.2311 H   0  0  0  0  0
   20.3516   17.3361    7.5563 H   0  0  0  0  0
   16.2641   18.0763    5.9257 H   0  0  0  0  0
   16.6910   20.5205    4.1403 H   0  0  0  0  0
   17.0164   17.8980    3.1806 H   0  0  0  0  0
   15.9668   18.1406    1.7626 H   0  0  0  0  0
   17.0293   19.4567    2.3195 H   0  0  0  0  0
   13.9352   17.4580    3.1496 H   0  0  0  0  0
   14.9847   17.2153    4.5676 H   0  0  0  0  0
   13.6037   18.3354    4.6633 H   0  0  0  0  0
   15.1369   20.9873    2.3844 H   0  0  0  0  0
   14.0678   19.6830    1.8128 H   0  0  0  0  0
   13.6732   20.5670    3.3074 H   0  0  0  0  0
   16.7751   22.0196    5.7669 H   0  0  0  0  0
   14.4411   22.0709    7.3731 H   0  0  0  0  0
   15.8328   22.9646    9.1362 H   0  0  0  0  0
   17.2571   22.6101    8.0460 H   0  0  0  0  0
   14.1916   20.7888    9.1943 H   0  0  0  0  0
   14.4200   18.4344   10.0107 H   0  0  0  0  0
   18.6604   18.6715    9.7147 H   0  0  0  0  0
   18.4585   20.9094    8.6473 H   0  0  0  0  0
   15.9724   24.0123    5.9868 H   0  0  0  0  0
   15.5363   24.4213    7.7017 H   0  0  0  0  0
   13.8939   25.3347    6.2252 H   0  0  0  0  0
   13.1805   23.9021    7.1177 H   0  0  0  0  0
   13.2813   22.5578    5.1179 H   0  0  0  0  0
   14.2038   23.7896    4.2488 H   0  0  0  0  0
   11.6154   22.5448    3.3310 H   0  0  0  0  0
   12.3849   23.8772    2.4154 H   0  0  0  0  0
   11.6454   26.1620    4.1197 H   0  0  0  0  0
   10.7569   26.3820    5.3919 H   0  0  0  0  0
    8.6016   24.6579    6.6576 H   0  0  0  0  0
   10.9748   27.3609    7.5411 H   0  0  0  0  0
    9.4370   28.2472    7.3970 H   0  0  0  0  0
   10.0740   27.8249    9.0054 H   0  0  0  0  0
    7.2758   27.2015    7.8593 H   0  0  0  0  0
    7.1667   25.5328    8.4712 H   0  0  0  0  0
    7.8340   26.8189    9.5064 H   0  0  0  0  0
    9.3042   24.2148    8.7965 H   0  0  0  0  0
   10.8825   24.9176    8.3650 H   0  0  0  0  0
    9.9999   25.5187    9.7900 H   0  0  0  0  0
    6.5211   25.2556    5.6379 H   0  0  0  0  0
    6.6098   27.4846    3.6526 H   0  0  0  0  0
    5.4564   27.6808    4.9512 H   0  0  0  0  0
    4.2132   25.7642    4.2645 H   0  0  0  0  0
    4.5844   24.7123    2.1623 H   0  0  0  0  0
    6.6012   26.6475    1.5970 H   0  0  0  0  0
    6.2082   25.0055    0.7588 H   0  0  0  0  0
    8.8153   26.8025    1.3574 H   0  0  0  0  0
   11.1114   25.9735    1.9443 H   0  0  0  0  0
    9.2803   22.3715    3.4903 H   0  0  0  0  0
    7.0580   23.1684    2.8505 H   0  0  0  0  0
  1  2  1  0  0  0
  2  3  1  0  0  0
  3  4  2  0  0  0
  3  5  1  0  0  0
  5  6  1  0  0  0
  6  7  1  0  0  0
  6 11  1  0  0  0
  7  8  1  0  0  0
  7  9  1  0  0  0
  7 10  1  0  0  0
 11 12  2  0  0  0
 11 13  1  0  0  0
 13 14  1  0  0  0
 14 15  1  0  0  0
 14 23  1  0  0  0
 15 16  1  0  0  0
 16 17  4  0  0  0
 16 22  4  0  0  0
 17 18  4  0  0  0
 18 19  4  0  0  0
 19 20  1  0  0  0
 19 21  4  0  0  0
 21 22  4  0  0  0
 23 24  1  0  0  0
 24 25  1  0  0  0
 25 26  1  0  0  0
 26 27  1  0  0  0
 26 28  1  0  0  0
 26 29  1  0  0  0
 27 47  1  0  0  0
 29 30  2  0  0  0
 29 31  1  0  0  0
 31 32  1  0  0  0
 32 33  1  0  0  0
 32 37  1  0  0  0
 33 34  1  0  0  0
 33 35  1  0  0  0
 33 36  1  0  0  0
 37 38  2  0  0  0
 37 39  1  0  0  0
 39 40  1  0  0  0
 40 41  1  0  0  0
 41 42  2  0  0  0
 42 43  1  0  0  0
 43 44  1  0  0  0
 44 45  4  0  0  0
 44 49  4  0  0  0
 45 46  4  0  0  0
 46 47  4  0  0  0
 47 48  4  0  0  0
 48 49  4  0  0  0
  1 50  1  0  0  0
  1 51  1  0  0  0
  1 52  1  0  0  0
  5 53  1  0  0  0
  6 54  1  0  0  0
  8 55  1  0  0  0
  8 56  1  0  0  0
  8 57  1  0  0  0
  9 58  1  0  0  0
  9 59  1  0  0  0
  9 60  1  0  0  0
 10 61  1  0  0  0
 10 62  1  0  0  0
 10 63  1  0  0  0
 13 64  1  0  0  0
 14 65  1  0  0  0
 15 66  1  0  0  0
 15 67  1  0  0  0
 17 68  1  0  0  0
 18 69  1  0  0  0
 21 70  1  0  0  0
 22 71  1  0  0  0
 23 72  1  0  0  0
 23 73  1  0  0  0
 24 74  1  0  0  0
 24 75  1  0  0  0
 25 76  1  0  0  0
 25 77  1  0  0  0
 27 78  1  0  0  0
 27 79  1  0  0  0
 28 80  1  0  0  0
 31 81  1  0  0  0
 32 82  1  0  0  0
 34 83  1  0  0  0
 34 84  1  0  0  0
 34 85  1  0  0  0
 35 86  1  0  0  0
 35 87  1  0  0  0
 35 88  1  0  0  0
 36 89  1  0  0  0
 36 90  1  0  0  0
 36 91  1  0  0  0
 39 92  1  0  0  0
 40 93  1  0  0  0
 40 94  1  0  0  0
 41 95  1  0  0  0
 42 96  1  0  0  0
 43 97  1  0  0  0
 43 98  1  0  0  0
 45 99  1  0  0  0
 46100  1  0  0  0
 48101  1  0  0  0
 49102  1  0  0  0
M  END
$$$$
