4xv9_ligand
  -I-interpret- 

 44 47  0  0  0  0  0  0  0  0999 V2000
   77.3440   26.6640   -1.1700 F   0  0  0  0  0
   76.2940   27.3420   -1.5970 C   0  0  0  0  0
   76.5370   28.6320   -1.4370 F   0  0  0  0  0
   75.2390   27.0440   -0.8600 F   0  0  0  0  0
   76.0350   27.0720   -3.0610 C   0  0  0  0  0
   74.8110   26.5630   -3.5090 C   0  0  0  0  0
   74.5910   26.3410   -4.8710 C   0  0  0  0  0
   77.0260   27.3630   -4.0020 C   0  0  0  0  0
   76.8030   27.1380   -5.3620 C   0  0  0  0  0
   75.5880   26.6230   -5.8120 C   0  0  0  0  0
   75.3390   26.3900   -7.3850 S   0  0  0  0  0
   76.0080   27.4320   -8.1110 O   0  0  0  0  0
   73.9350   26.4610   -7.6770 O   0  0  0  0  0
   75.9350   24.9780   -7.8340 N   0  0  0  0  0
   76.1650   24.6140   -9.1220 C   0  0  0  0  0
   76.9850   23.3950   -9.3270 C   0  0  0  0  0
   77.4430   22.6600   -8.2980 F   0  0  0  0  0
   75.7350   25.3430  -10.2430 C   0  0  0  0  0
   76.0430   24.9490  -11.5530 C   0  0  0  0  0
   76.8030   23.8120  -11.8250 C   0  0  0  0  0
   77.0830   23.4490  -13.0880 F   0  0  0  0  0
   77.2910   22.9790  -10.7050 C   0  0  0  0  0
   78.1280   21.7680  -10.9390 C   0  0  0  0  0
   77.6590   20.6410  -10.8990 O   0  0  0  0  0
   79.5540   22.0980  -11.2000 C   0  0  0  0  0
   80.2280   23.3420  -11.1230 C   0  0  0  0  0
   80.5450   21.0890  -11.6340 C   0  0  0  0  0
   81.7490   21.8720  -11.7640 C   0  0  0  0  0
   81.5490   23.1930  -11.4620 N   0  0  0  0  0
   82.9050   21.3100  -12.1420 N   0  0  0  0  0
   82.9250   19.9980  -12.3980 C   0  0  0  0  0
   81.7790   19.2060  -12.2820 C   0  0  0  0  0
   81.9720   17.4760  -12.6530 Cl  0  0  0  0  0
   80.5420   19.7320  -11.8910 C   0  0  0  0  0
   74.0232   26.3380   -2.7901 H   0  0  0  0  0
   73.6322   25.9438   -5.2043 H   0  0  0  0  0
   77.9819   27.7694   -3.6715 H   0  0  0  0  0
   77.5891   27.3680   -6.0812 H   0  0  0  0  0
   76.1584   24.3028   -7.1028 H   0  0  0  0  0
   75.1423   26.2448  -10.0895 H   0  0  0  0  0
   75.6768   25.5505  -12.3850 H   0  0  0  0  0
   79.7625   24.2846  -10.8350 H   0  0  0  0  0
   83.8614   19.5327  -12.7059 H   0  0  0  0  0
   79.6461   19.1183  -11.7967 H   0  0  0  0  0
  1  2  1  0  0  0
  2  3  1  0  0  0
  2  4  1  0  0  0
  2  5  1  0  0  0
  5  6  4  0  0  0
  5  8  4  0  0  0
  6  7  4  0  0  0
  7 10  4  0  0  0
  8  9  4  0  0  0
  9 10  4  0  0  0
 10 11  1  0  0  0
 11 12  2  0  0  0
 11 13  2  0  0  0
 11 14  1  0  0  0
 14 15  1  0  0  0
 15 16  4  0  0  0
 15 18  4  0  0  0
 16 17  1  0  0  0
 16 22  4  0  0  0
 18 19  4  0  0  0
 19 20  4  0  0  0
 20 21  1  0  0  0
 20 22  4  0  0  0
 22 23  1  0  0  0
 23 24  2  0  0  0
 23 25  1  0  0  0
 25 26  4  0  0  0
 25 27  4  0  0  0
 26 29  4  0  0  0
 27 28  4  0  0  0
 27 34  4  0  0  0
 28 29  4  0  0  0
 28 30  4  0  0  0
 30 31  4  0  0  0
 31 32  4  0  0  0
 32 33  1  0  0  0
 32 34  4  0  0  0
  6 35  1  0  0  0
  7 36  1  0  0  0
  8 37  1  0  0  0
  9 38  1  0  0  0
 14 39  1  0  0  0
 18 40  1  0  0  0
 19 41  1  0  0  0
 26 42  1  0  0  0
 31 43  1  0  0  0
 34 44  1  0  0  0
M  END
$$$$
