4dfg_ligand
  -I-interpret- 

 87 90  0  0  0  0  0  0  0  0999 V2000
   21.7390   28.7370   14.6620 O   0  0  0  0  0
   23.1270   28.6950   14.9510 C   0  0  0  0  0
   21.1290   27.5880   15.0170 C   0  0  0  0  0
   19.7560   27.5880   14.8290 C   0  0  0  0  0
   18.9840   26.4890   15.1430 C   0  0  0  0  0
   19.5770   25.3480   15.6580 C   0  0  0  0  0
   20.9390   25.3780   15.8330 C   0  0  0  0  0
   21.7550   26.4530   15.5340 C   0  0  0  0  0
   18.5850   23.9560   16.0530 S   0  0  0  0  0
   17.4870   23.8930   15.0680 O   0  0  0  0  0
   19.4120   22.7420   16.2230 O   0  0  0  0  0
   17.8860   24.2420   17.5220 N   0  0  0  0  0
   18.8140   24.5560   18.5890 C   0  0  0  0  0
   18.5060   23.7990   19.8870 C   0  0  0  0  0
   18.6340   22.2740   19.7260 C   0  0  0  0  0
   19.4960   24.2770   20.9670 C   0  0  0  0  0
   16.6160   24.9500   17.5440 C   0  0  0  0  0
   15.4730   24.0460   18.0270 C   0  0  0  0  0
   14.2820   24.7560   18.3770 O   0  0  0  0  0
   15.0810   22.9170   17.0770 C   0  0  0  0  0
   14.2300   21.9550   17.7620 N   0  0  0  0  0
   14.4710   20.6680   18.0080 C   0  0  0  0  0
   15.5700   20.1490   17.7550 O   0  0  0  0  0
   13.4190   20.0090   18.5840 O   0  0  0  0  0
   13.7360   18.6140   18.8670 C   0  0  0  0  0
   12.6440   18.1820   19.8600 C   0  0  0  0  0
   11.4070   17.8420   19.0390 C   0  0  0  0  0
   10.7000   19.0050   18.6320 O   0  0  0  0  0
   10.5770   19.0640   17.2130 C   0  0  0  0  0
   10.9300   17.6640   16.7330 C   0  0  0  0  0
   11.9650   17.2370   17.7780 C   0  0  0  0  0
   13.3810   17.7730   17.6370 C   0  0  0  0  0
   11.4700   17.5390   15.3920 N   0  0  0  0  0
   10.7650   17.8050   14.2760 C   0  0  0  0  0
    9.6390   18.3350   14.2550 O   0  0  0  0  0
   11.2700   17.5620   13.0320 O   0  0  0  0  0
   10.2470   17.8350   12.0450 C   0  0  0  0  0
   14.4220   23.4340   15.7920 C   0  0  0  0  0
   12.8290   21.7170   14.8710 C   0  0  0  0  0
   12.4920   20.6260   14.0800 C   0  0  0  0  0
   13.4770   20.0390   13.3010 C   0  0  0  0  0
   14.7670   20.5260   13.3080 C   0  0  0  0  0
   15.1070   21.6280   14.1080 C   0  0  0  0  0
   14.1260   22.2220   14.8910 C   0  0  0  0  0
   23.2696   28.5424   16.0208 H   0  0  0  0  0
   23.5866   27.8737   14.4011 H   0  0  0  0  0
   23.5877   29.6367   14.6524 H   0  0  0  0  0
   19.2746   28.4778   14.4233 H   0  0  0  0  0
   17.9058   26.5184   14.9857 H   0  0  0  0  0
   21.4133   24.4847   16.2392 H   0  0  0  0  0
   22.8326   26.4160   15.6939 H   0  0  0  0  0
   18.7338   25.6228   18.7978 H   0  0  0  0  0
   19.8114   24.2634   18.2607 H   0  0  0  0  0
   17.4732   24.0079   20.1658 H   0  0  0  0  0
   17.9352   21.9305   18.9632 H   0  0  0  0  0
   19.6521   22.0258   19.4261 H   0  0  0  0  0
   18.4050   21.7893   20.6750 H   0  0  0  0  0
   20.5151   24.0673   20.6422 H   0  0  0  0  0
   19.3753   25.3495   21.1196 H   0  0  0  0  0
   19.2953   23.7511   21.9004 H   0  0  0  0  0
   16.3886   25.2807   16.5306 H   0  0  0  0  0
   16.7030   25.7918   18.2310 H   0  0  0  0  0
   15.9170   23.6011   18.9175 H   0  0  0  0  0
   13.6130   24.1323   18.6685 H   0  0  0  0  0
   15.9975   22.4141   16.7684 H   0  0  0  0  0
   13.3348   22.3118   18.0964 H   0  0  0  0  0
   14.7735   18.5007   19.1815 H   0  0  0  0  0
   12.4290   18.9811   20.5694 H   0  0  0  0  0
   12.9702   17.3200   20.4419 H   0  0  0  0  0
   10.7313   17.2106   19.6159 H   0  0  0  0  0
   11.2336   19.8187   16.7801 H   0  0  0  0  0
    9.5735   19.3574   16.9048 H   0  0  0  0  0
   10.0313   17.0525   16.6519 H   0  0  0  0  0
   12.0855   16.1557   17.7127 H   0  0  0  0  0
   14.0778   16.9389   17.5548 H   0  0  0  0  0
   13.4466   18.3929   16.7428 H   0  0  0  0  0
   12.4374   17.2326   15.2890 H   0  0  0  0  0
    9.3879   17.1889   12.2257 H   0  0  0  0  0
    9.9407   18.8784   12.1201 H   0  0  0  0  0
   10.6447   17.6426   11.0486 H   0  0  0  0  0
   15.0866   24.1306   15.2810 H   0  0  0  0  0
   13.4987   23.9632   16.0280 H   0  0  0  0  0
   12.0630   22.1868   15.4880 H   0  0  0  0  0
   11.4730   20.2390   14.0720 H   0  0  0  0  0
   13.2287   19.1818   12.6752 H   0  0  0  0  0
   15.5279   20.0519   12.6880 H   0  0  0  0  0
   16.1270   22.0122   14.1146 H   0  0  0  0  0
  1  2  1  0  0  0
  3  1  1  0  0  0
  4  3  4  0  0  0
  8  3  4  0  0  0
  5  4  4  0  0  0
  6  5  4  0  0  0
  6  7  4  0  0  0
  9  6  1  0  0  0
  7  8  4  0  0  0
  9 10  2  0  0  0
  9 11  2  0  0  0
 12  9  1  0  0  0
 12 13  1  0  0  0
 17 12  1  0  0  0
 13 14  1  0  0  0
 14 15  1  0  0  0
 14 16  1  0  0  0
 18 17  1  0  0  0
 18 19  1  0  0  0
 20 18  1  0  0  0
 20 21  1  0  0  0
 38 20  1  0  0  0
 21 22  1  0  0  0
 22 23  2  0  0  0
 22 24  1  0  0  0
 24 25  1  0  0  0
 25 26  1  0  0  0
 25 32  1  0  0  0
 26 27  1  0  0  0
 27 28  1  0  0  0
 31 27  1  0  0  0
 28 29  1  0  0  0
 30 29  1  0  0  0
 31 30  1  0  0  0
 30 33  1  0  0  0
 32 31  1  0  0  0
 33 34  1  0  0  0
 34 35  2  0  0  0
 34 36  1  0  0  0
 36 37  1  0  0  0
 44 38  1  0  0  0
 39 40  4  0  0  0
 39 44  4  0  0  0
 40 41  4  0  0  0
 41 42  4  0  0  0
 42 43  4  0  0  0
 43 44  4  0  0  0
  2 45  1  0  0  0
  2 46  1  0  0  0
  2 47  1  0  0  0
  4 48  1  0  0  0
  5 49  1  0  0  0
  7 50  1  0  0  0
  8 51  1  0  0  0
 13 52  1  0  0  0
 13 53  1  0  0  0
 14 54  1  0  0  0
 15 55  1  0  0  0
 15 56  1  0  0  0
 15 57  1  0  0  0
 16 58  1  0  0  0
 16 59  1  0  0  0
 16 60  1  0  0  0
 17 61  1  0  0  0
 17 62  1  0  0  0
 18 63  1  0  0  0
 19 64  1  0  0  0
 20 65  1  0  0  0
 21 66  1  0  0  0
 25 67  1  0  0  0
 26 68  1  0  0  0
 26 69  1  0  0  0
 27 70  1  0  0  0
 29 71  1  0  0  0
 29 72  1  0  0  0
 30 73  1  0  0  0
 31 74  1  0  0  0
 32 75  1  0  0  0
 32 76  1  0  0  0
 33 77  1  0  0  0
 37 78  1  0  0  0
 37 79  1  0  0  0
 37 80  1  0  0  0
 38 81  1  0  0  0
 38 82  1  0  0  0
 39 83  1  0  0  0
 40 84  1  0  0  0
 41 85  1  0  0  0
 42 86  1  0  0  0
 43 87  1  0  0  0
M  END
$$$$
