5trj_ligand
  -I-interpret- 

 50 52  0  0  0  0  0  0  0  0999 V2000
   24.1760    7.4280   14.7700 C   0  0  0  0  0
   22.9090   10.4640   12.9240 C   0  0  0  0  0
   23.6630   10.4040   11.7740 C   0  0  0  0  0
   24.7000    9.5060   11.6520 C   0  0  0  0  0
   24.9370    8.6060   12.6770 C   0  0  0  0  0
   23.1630    9.5660   13.9440 C   0  0  0  0  0
   21.0830    4.4880   12.4400 C   0  0  0  0  0
   20.8110    4.8230   10.9990 C   0  0  0  0  0
   19.4960    4.6330   10.5630 C   0  0  0  0  0
   19.1170    4.9740    9.2740 C   0  0  0  0  0
   21.7330    5.3510   10.0820 C   0  0  0  0  0
   23.2360   11.4090   10.4180 Cl  0  0  0  0  0
   23.1360    2.5890   16.0130 C   0  0  0  0  0
   22.5790    2.8270   14.7540 C   0  0  0  0  0
   22.8150    4.0680   14.1250 C   0  0  0  0  0
   23.5720    5.0520   14.7890 C   0  0  0  0  0
   24.1130    4.7900   16.0420 C   0  0  0  0  0
   23.9090    3.5550   16.6360 C   0  0  0  0  0
   21.7690    1.7390   14.1190 C   0  0  0  0  0
   22.2920    1.2340   13.0340 O   0  0  0  0  0
   20.6940    1.3720   14.5820 O   0  0  0  0  0
   22.3780    4.2800   12.7840 N   0  0  0  0  0
   23.7340    6.2280   14.0880 O   0  0  0  0  0
   24.1390    8.5890   13.8140 C   0  0  0  0  0
   20.1660    4.4120   13.2500 O   0  0  0  0  0
   20.0270    5.5330    8.4060 C   0  0  0  0  0
   21.3310    5.7490    8.8090 C   0  0  0  0  0
   23.0540    5.2910   10.4440 O   0  0  0  0  0
   23.9460    4.5620    9.5880 C   0  0  0  0  0
   25.0660    5.4960    9.2340 C   0  0  0  0  0
   25.0030    6.6370    9.8710 O   0  0  0  0  0
   25.8820    5.2520    8.3850 O   0  0  0  0  0
   25.1945    7.2868   15.1316 H   0  0  0  0  0
   23.5167    7.6306   15.6140 H   0  0  0  0  0
   22.1215   11.2102   13.0292 H   0  0  0  0  0
   25.3262    9.5039   10.7598 H   0  0  0  0  0
   25.7627    7.8997   12.5905 H   0  0  0  0  0
   22.5860    9.6268   14.8668 H   0  0  0  0  0
   18.7589    4.2110   11.2461 H   0  0  0  0  0
   18.0925    4.7984    8.9460 H   0  0  0  0  0
   22.9607    1.6346   16.5095 H   0  0  0  0  0
   24.6962    5.5540   16.5561 H   0  0  0  0  0
   24.3618    3.3412   17.6042 H   0  0  0  0  0
   23.1309    1.6646   12.8541 H   0  0  0  0  0
   23.0785    4.2749   12.0426 H   0  0  0  0  0
   19.7180    5.8063    7.3971 H   0  0  0  0  0
   22.0409    6.2280    8.1347 H   0  0  0  0  0
   23.4293    4.2187    8.6917 H   0  0  0  0  0
   24.3266    3.6732   10.0913 H   0  0  0  0  0
   24.2790    6.6110   10.5008 H   0  0  0  0  0
 23  1  1  0  0  0
  1 24  1  0  0  0
  2  3  4  0  0  0
  6  2  4  0  0  0
  4  3  4  0  0  0
  3 12  1  0  0  0
  5  4  4  0  0  0
 24  5  4  0  0  0
 24  6  4  0  0  0
  7  8  1  0  0  0
 22  7  1  0  0  0
  7 25  2  0  0  0
  8  9  4  0  0  0
  8 11  4  0  0  0
  9 10  4  0  0  0
 10 26  4  0  0  0
 11 27  4  0  0  0
 11 28  1  0  0  0
 14 13  4  0  0  0
 13 18  4  0  0  0
 15 14  4  0  0  0
 14 19  1  0  0  0
 16 15  4  0  0  0
 15 22  1  0  0  0
 16 17  4  0  0  0
 16 23  1  0  0  0
 17 18  4  0  0  0
 19 20  1  0  0  0
 19 21  2  0  0  0
 26 27  4  0  0  0
 28 29  1  0  0  0
 29 30  1  0  0  0
 30 31  1  0  0  0
 30 32  2  0  0  0
  1 33  1  0  0  0
  1 34  1  0  0  0
  2 35  1  0  0  0
  4 36  1  0  0  0
  5 37  1  0  0  0
  6 38  1  0  0  0
  9 39  1  0  0  0
 10 40  1  0  0  0
 13 41  1  0  0  0
 17 42  1  0  0  0
 18 43  1  0  0  0
 20 44  1  0  0  0
 22 45  1  0  0  0
 26 46  1  0  0  0
 27 47  1  0  0  0
 29 48  1  0  0  0
 29 49  1  0  0  0
 31 50  1  0  0  0
M  END
$$$$
