5cs3_ligand
  -I-interpret- 

 38 38  0  0  0  0  0  0  0  0999 V2000
   -4.7020   30.7240  -13.7350 O   0  0  0  0  0
   -5.6300   30.1500  -12.7580 S   0  0  0  0  0
   -6.3640   28.9310  -13.2610 O   0  0  0  0  0
   -6.6390   31.2060  -12.3700 O   0  0  0  0  0
   -4.6490   29.5150  -11.3380 C   0  0  0  0  0
   -3.5490   28.5770  -11.8470 C   0  0  0  0  0
   -2.7580   27.8730  -10.7270 C   0  0  0  0  0
   -2.6500   26.4020  -10.9310 N   0  3  0  0  0
   -2.4280   25.7630   -9.6010 C   0  0  0  0  0
   -1.6680   24.4110   -9.6530 C   0  0  0  0  0
   -0.4980   24.4750  -10.5620 N   0  3  0  0  0
   -1.0130   24.7180  -11.9200 C   0  0  0  0  0
   -1.6900   26.1030  -12.0230 C   0  0  0  0  0
    0.4780   25.5120  -10.1420 C   0  0  0  0  0
    1.8200   24.8860   -9.7870 C   0  0  0  0  0
    2.7420   25.0560  -10.8750 O   0  0  0  0  0
   -7.2530   30.8402  -11.7291 H   0  0  0  0  0
   -5.3056   28.9677  -10.6617 H   0  0  0  0  0
   -4.1932   30.3530  -10.8107 H   0  0  0  0  0
   -2.8408   29.1847  -12.4103 H   0  0  0  0  0
   -4.0342   27.8001  -12.4378 H   0  0  0  0  0
   -3.2873   28.0412   -9.7891 H   0  0  0  0  0
   -1.7484   28.2838  -10.7235 H   0  0  0  0  0
   -3.5092   25.9763  -11.2788 H   0  0  0  0  0
   -3.4116   25.5591   -9.1778 H   0  0  0  0  0
   -1.8161   26.4497   -9.0162 H   0  0  0  0  0
   -2.3507   23.6470  -10.0248 H   0  0  0  0  0
   -1.3114   24.1783   -8.6496 H   0  0  0  0  0
    0.0180   23.5956  -10.5337 H   0  0  0  0  0
   -1.7523   23.9518  -12.1534 H   0  0  0  0  0
   -0.1773   24.6870  -12.6191 H   0  0  0  0  0
   -0.8983   26.8500  -11.9650 H   0  0  0  0  0
   -2.2543   26.1135  -12.9555 H   0  0  0  0  0
    0.0874   26.0243   -9.2627 H   0  0  0  0  0
    0.6245   26.2091  -10.9670 H   0  0  0  0  0
    1.6811   23.8218   -9.5966 H   0  0  0  0  0
    2.2198   25.3731   -8.8976 H   0  0  0  0  0
    3.5849   24.6590  -10.6437 H   0  0  0  0  0
  1  2  2  0  0  0
  2  3  2  0  0  0
  2  4  1  0  0  0
  2  5  1  0  0  0
  5  6  1  0  0  0
  6  7  1  0  0  0
  7  8  1  0  0  0
  8  9  1  0  0  0
  8 13  1  0  0  0
  9 10  1  0  0  0
 10 11  1  0  0  0
 11 12  1  0  0  0
 11 14  1  0  0  0
 12 13  1  0  0  0
 14 15  1  0  0  0
 15 16  1  0  0  0
  4 17  1  0  0  0
  5 18  1  0  0  0
  5 19  1  0  0  0
  6 20  1  0  0  0
  6 21  1  0  0  0
  7 22  1  0  0  0
  7 23  1  0  0  0
  8 24  1  0  0  0
  9 25  1  0  0  0
  9 26  1  0  0  0
 10 27  1  0  0  0
 10 28  1  0  0  0
 11 29  1  0  0  0
 12 30  1  0  0  0
 12 31  1  0  0  0
 13 32  1  0  0  0
 13 33  1  0  0  0
 14 34  1  0  0  0
 14 35  1  0  0  0
 15 36  1  0  0  0
 15 37  1  0  0  0
 16 38  1  0  0  0
M  END
$$$$
