4ngq_ligand
  -I-interpret- 

 64 64  0  0  0  0  0  0  0  0999 V2000
  -23.7000  -15.5120  -50.6330 Br  0  0  0  0  0
  -23.7080  -15.4870  -48.7010 C   0  0  0  0  0
  -23.9250  -16.6000  -47.8820 C   0  0  0  0  0
  -23.8630  -16.5130  -46.4740 C   0  0  0  0  0
  -23.4530  -14.3060  -48.0600 C   0  0  0  0  0
  -23.3890  -14.1910  -46.6810 C   0  0  0  0  0
  -23.5870  -15.2880  -45.8430 C   0  0  0  0  0
  -23.5010  -15.0790  -44.3320 C   0  0  0  0  0
  -23.8260  -16.3250  -43.6220 N   0  0  0  0  0
  -22.6670  -17.2040  -43.3870 C   0  0  0  0  0
  -22.9340  -18.5650  -42.6560 C   0  0  0  0  0
  -22.1540  -19.6930  -43.3460 C   0  0  0  0  0
  -20.6800  -19.5400  -43.1880 C   0  0  0  0  0
  -19.7630  -20.1250  -44.2730 C   0  0  0  0  0
  -18.4850  -19.7960  -43.6830 N   0  0  0  0  0
  -17.8550  -20.6210  -42.8350 C   0  0  0  0  0
  -18.3640  -21.6540  -42.3990 O   0  0  0  0  0
  -16.6690  -20.2260  -42.4330 N   0  0  0  0  0
  -16.0400  -20.6990  -41.2530 C   0  0  0  0  0
  -17.0130  -20.4940  -40.1730 C   0  0  0  0  0
  -17.8900  -19.5860  -40.1960 O   0  0  0  0  0
  -16.8830  -21.3590  -39.1970 O   0  0  0  0  0
  -14.7570  -19.9510  -40.9080 C   0  0  0  0  0
  -14.9660  -18.4090  -40.9880 C   0  0  0  0  0
  -13.8820  -17.6280  -40.2610 C   0  0  0  0  0
  -13.7340  -16.4050  -40.4230 O   0  0  0  0  0
  -13.0580  -18.2450  -39.4350 O   0  0  0  0  0
  -20.0370  -19.4440  -45.5900 C   0  0  0  0  0
  -19.5680  -18.2380  -45.7870 O   0  0  0  0  0
  -20.7800  -19.9030  -46.4280 O   0  0  0  0  0
  -25.1090  -16.5460  -43.2810 C   0  0  0  0  0
  -25.9910  -16.1540  -44.0190 O   0  0  0  0  0
  -25.5030  -17.2420  -41.9790 C   0  0  0  0  0
  -25.8450  -16.3380  -40.9210 C   0  0  0  0  0
  -24.1483  -17.5618  -48.3438 H   0  0  0  0  0
  -24.0309  -17.4050  -45.8704 H   0  0  0  0  0
  -23.2924  -13.4124  -48.6632 H   0  0  0  0  0
  -23.1783  -13.2171  -46.2391 H   0  0  0  0  0
  -24.2136  -14.3078  -44.0395 H   0  0  0  0  0
  -22.4861  -14.7774  -44.0728 H   0  0  0  0  0
  -21.9992  -16.6435  -42.7328 H   0  0  0  0  0
  -22.2918  -17.4685  -44.3756 H   0  0  0  0  0
  -23.9998  -18.7900  -42.6948 H   0  0  0  0  0
  -22.6076  -18.4853  -41.6191 H   0  0  0  0  0
  -22.3851  -19.6618  -44.4108 H   0  0  0  0  0
  -22.4472  -20.6370  -42.8867 H   0  0  0  0  0
  -20.4320  -20.0879  -42.2789 H   0  0  0  0  0
  -20.5005  -18.4651  -43.2117 H   0  0  0  0  0
  -19.8683  -21.1829  -44.5134 H   0  0  0  0  0
  -18.0477  -18.9055  -43.9201 H   0  0  0  0  0
  -16.1720  -19.5403  -43.0014 H   0  0  0  0  0
  -15.7537  -21.7413  -41.3936 H   0  0  0  0  0
  -16.1542  -21.9527  -39.3920 H   0  0  0  0  0
  -13.9851  -20.2354  -41.6231 H   0  0  0  0  0
  -14.4655  -20.2106  -39.8903 H   0  0  0  0  0
  -15.9195  -18.1766  -40.5137 H   0  0  0  0  0
  -14.9355  -18.1224  -42.0392 H   0  0  0  0  0
  -13.2798  -19.1784  -39.4015 H   0  0  0  0  0
  -18.9963  -17.9947  -45.0552 H   0  0  0  0  0
  -24.6416  -17.8211  -41.6462 H   0  0  0  0  0
  -26.3853  -17.8470  -42.1878 H   0  0  0  0  0
  -24.9904  -15.6982  -40.7011 H   0  0  0  0  0
  -26.6909  -15.7234  -41.2291 H   0  0  0  0  0
  -26.1130  -16.9072  -40.0309 H   0  0  0  0  0
  1  2  1  0  0  0
  2  3  4  0  0  0
  2  5  4  0  0  0
  3  4  4  0  0  0
  4  7  4  0  0  0
  5  6  4  0  0  0
  6  7  4  0  0  0
  7  8  1  0  0  0
  8  9  1  0  0  0
  9 10  1  0  0  0
  9 31  1  0  0  0
 10 11  1  0  0  0
 11 12  1  0  0  0
 12 13  1  0  0  0
 13 14  1  0  0  0
 14 15  1  0  0  0
 14 28  1  0  0  0
 15 16  1  0  0  0
 16 17  2  0  0  0
 16 18  1  0  0  0
 18 19  1  0  0  0
 19 20  1  0  0  0
 19 23  1  0  0  0
 20 21  2  0  0  0
 20 22  1  0  0  0
 23 24  1  0  0  0
 24 25  1  0  0  0
 25 26  2  0  0  0
 25 27  1  0  0  0
 28 29  1  0  0  0
 28 30  2  0  0  0
 31 32  2  0  0  0
 31 33  1  0  0  0
 33 34  1  0  0  0
  3 35  1  0  0  0
  4 36  1  0  0  0
  5 37  1  0  0  0
  6 38  1  0  0  0
  8 39  1  0  0  0
  8 40  1  0  0  0
 10 41  1  0  0  0
 10 42  1  0  0  0
 11 43  1  0  0  0
 11 44  1  0  0  0
 12 45  1  0  0  0
 12 46  1  0  0  0
 13 47  1  0  0  0
 13 48  1  0  0  0
 14 49  1  0  0  0
 15 50  1  0  0  0
 18 51  1  0  0  0
 19 52  1  0  0  0
 22 53  1  0  0  0
 23 54  1  0  0  0
 23 55  1  0  0  0
 24 56  1  0  0  0
 24 57  1  0  0  0
 27 58  1  0  0  0
 29 59  1  0  0  0
 33 60  1  0  0  0
 33 61  1  0  0  0
 34 62  1  0  0  0
 34 63  1  0  0  0
 34 64  1  0  0  0
M  END
$$$$
