1xxh_ligand
  -I-interpret- 

 47 49  0  0  0  0  0  0  0  0999 V2000
   50.5880   79.4630   30.2030 P   0  0  0  0  0
   50.7440   80.4040   31.4410 O   0  0  0  0  0
   51.6980   78.4630   30.2150 O   0  0  0  0  0
   49.0310   78.7340   30.2560 S   0  0  0  0  0
   49.9220   81.4700   28.0220 P   0  0  0  0  0
   49.3340   82.3510   29.0880 O   0  0  0  0  0
   49.0330   80.9340   26.9290 O   0  0  0  0  0
   50.7000   80.2860   28.7630 O   0  0  0  0  0
   51.7510   83.7230   27.6060 P   0  0  0  0  0
   50.7930   84.7190   27.0040 O   0  0  0  0  0
   52.0410   83.9160   29.0790 O   0  0  0  0  0
   51.1250   82.2640   27.3530 O   0  0  0  0  0
   53.0780   83.6110   26.6790 O   0  0  0  0  0
   54.3630   83.4880   27.3620 C   0  0  0  0  0
   55.4860   84.0790   26.5070 C   0  0  0  0  0
   55.4200   83.3910   25.2050 O   0  0  0  0  0
   55.3060   85.5820   26.1600 C   0  0  0  0  0
   55.9720   86.4600   27.0540 O   0  0  0  0  0
   55.7680   85.6840   24.7050 C   0  0  0  0  0
   57.1120   86.0810   24.5370 O   0  0  0  0  0
   55.5340   84.3350   24.1190 C   0  0  0  0  0
   54.2510   84.2420   23.2980 N   0  0  0  0  0
   53.2530   83.3390   23.6210 C   0  0  0  0  0
   52.1920   83.3490   22.8360 N   0  0  0  0  0
   52.4800   84.3210   21.9180 C   0  0  0  0  0
   51.7530   84.8380   20.7900 C   0  0  0  0  0
   50.5360   84.3830   20.4190 N   0  0  0  0  0
   52.3490   85.8450   20.0570 N   0  0  0  0  0
   53.5890   86.3150   20.4220 C   0  0  0  0  0
   54.3630   85.8990   21.4690 N   0  0  0  0  0
   53.7570   84.8980   22.1870 C   0  0  0  0  0
   50.0343   81.0505   31.4415 H   0  0  0  0  0
   48.0985   79.6823   30.2424 H   0  0  0  0  0
   49.5538   80.3928   26.3311 H   0  0  0  0  0
   52.6565   83.2409   29.3739 H   0  0  0  0  0
   54.5704   82.4323   27.5369 H   0  0  0  0  0
   54.3147   84.0309   28.3059 H   0  0  0  0  0
   56.4100   83.9604   27.0729 H   0  0  0  0  0
   54.2730   85.9108   26.2736 H   0  0  0  0  0
   55.8195   87.3680   26.7821 H   0  0  0  0  0
   55.2055   86.4724   24.2049 H   0  0  0  0  0
   57.3184   86.1195   23.6002 H   0  0  0  0  0
   56.3705   84.1256   23.4523 H   0  0  0  0  0
   53.3380   82.6617   24.4708 H   0  0  0  0  0
   50.0878   83.6355   20.9488 H   0  0  0  0  0
   50.0656   84.7871   19.6092 H   0  0  0  0  0
   54.0027   87.1121   19.8043 H   0  0  0  0  0
  1  2  1  0  0  0
  1  3  2  0  0  0
  1  4  1  0  0  0
  8  1  1  0  0  0
  5  6  2  0  0  0
  5  7  1  0  0  0
  5  8  1  0  0  0
 12  5  1  0  0  0
  9 10  2  0  0  0
  9 11  1  0  0  0
  9 12  1  0  0  0
  9 13  1  0  0  0
 13 14  1  0  0  0
 14 15  1  0  0  0
 15 16  1  0  0  0
 15 17  1  0  0  0
 16 21  1  0  0  0
 17 18  1  0  0  0
 17 19  1  0  0  0
 19 20  1  0  0  0
 19 21  1  0  0  0
 21 22  1  0  0  0
 22 23  4  0  0  0
 22 31  4  0  0  0
 23 24  4  0  0  0
 24 25  4  0  0  0
 25 26  4  0  0  0
 25 31  4  0  0  0
 26 27  1  0  0  0
 26 28  4  0  0  0
 28 29  4  0  0  0
 29 30  4  0  0  0
 30 31  4  0  0  0
  2 32  1  0  0  0
  4 33  1  0  0  0
  7 34  1  0  0  0
 11 35  1  0  0  0
 14 36  1  0  0  0
 14 37  1  0  0  0
 15 38  1  0  0  0
 17 39  1  0  0  0
 18 40  1  0  0  0
 19 41  1  0  0  0
 20 42  1  0  0  0
 21 43  1  0  0  0
 23 44  1  0  0  0
 27 45  1  0  0  0
 27 46  1  0  0  0
 29 47  1  0  0  0
M  END
$$$$
