### 
### Created by X-TOOL on Mon Sep 10 21:12:52 2018
### 

@<TRIPOS>MOLECULE
1xxh_ligand
   44    46     1     0     0
SMALL
GAST_HUCK


@<TRIPOS>ATOM
      1 PG         50.5880   79.4630   30.2030 P.3       1 AGS         0.2197
      2 O1G        50.7440   80.4040   31.4410 O.co2     1 AGS        -0.6077
      3 O2G        51.6980   78.4630   30.2150 O.co2     1 AGS        -0.6077
      4 S3G        49.0310   78.7340   30.2560 S.3       1 AGS        -0.0461
      5 PB         49.9220   81.4700   28.0220 P.3       1 AGS         0.3347
      6 O1B        49.3340   82.3510   29.0880 O.co2     1 AGS        -0.6076
      7 O2B        49.0330   80.9340   26.9290 O.co2     1 AGS        -0.6076
      8 O3B        50.7000   80.2860   28.7630 O.3       1 AGS        -0.1434
      9 PA         51.7510   83.7230   27.6060 P.3       1 AGS         0.2978
     10 O1A        50.7930   84.7190   27.0040 O.co2     1 AGS        -0.6127
     11 O2A        52.0410   83.9160   29.0790 O.co2     1 AGS        -0.6127
     12 O3A        51.1250   82.2640   27.3530 O.3       1 AGS        -0.1263
     13 O5         53.0780   83.6110   26.6790 O.3       1 AGS        -0.2476
     14 C5         54.3630   83.4880   27.3620 C.3       1 AGS         0.1128
     15 C4         55.4860   84.0790   26.5070 C.3       1 AGS         0.1189
     16 O4         55.4200   83.3910   25.2050 O.3       1 AGS        -0.3364
     17 C3         55.3060   85.5820   26.1600 C.3       1 AGS         0.1149
     18 O3         55.9720   86.4600   27.0540 O.3       1 AGS        -0.3864
     19 C2         55.7680   85.6840   24.7050 C.3       1 AGS         0.1385
     20 O2         57.1120   86.0810   24.5370 O.3       1 AGS        -0.3836
     21 C1         55.5340   84.3350   24.1190 C.3       1 AGS         0.2010
     22 N9         54.2510   84.2420   23.2980 N.pl3     1 AGS        -0.1919
     23 C8         53.2530   83.3390   23.6210 C.2       1 AGS         0.1123
     24 N7         52.1920   83.3490   22.8360 N.2       1 AGS        -0.2958
     25 C5         52.4800   84.3210   21.9180 C.ar      1 AGS         0.1045
     26 C6         51.7530   84.8380   20.7900 C.ar      1 AGS         0.1298
     27 N6         50.5360   84.3830   20.4190 N.pl3     1 AGS        -0.3152
     28 N1         52.3490   85.8450   20.0570 N.ar      1 AGS        -0.2698
     29 C2         53.5890   86.3150   20.4220 C.ar      1 AGS         0.0533
     30 N3         54.3630   85.8990   21.4690 N.ar      1 AGS        -0.2714
     31 C4         53.7570   84.8980   22.1870 C.ar      1 AGS         0.1613
     32 H1         48.3243   79.4527   30.2457 H         1 AGS         0.1255
     33 H2         54.5726   82.4245   27.5492 H         1 AGS         0.0648
     34 H3         54.3163   84.0267   28.3199 H         1 AGS         0.0648
     35 H4         56.4542   83.9196   27.0041 H         1 AGS         0.0651
     36 H5         54.2358   85.8318   26.2079 H         1 AGS         0.0648
     37 H6         56.9041   86.2766   27.0407 H         1 AGS         0.2100
     38 H7         55.1371   86.4216   24.1873 H         1 AGS         0.0676
     39 H8         57.2387   86.9384   24.9258 H         1 AGS         0.2101
     40 H9         56.3886   84.0726   23.4781 H         1 AGS         0.0996
     41 H10        53.3379   82.6623   24.4700 H         1 AGS         0.1349
     42 H11        50.0609   84.7910   19.6012 H         1 AGS         0.1820
     43 H12        50.0834   83.6281   20.9540 H         1 AGS         0.1820
     44 H13        54.0004   87.1078   19.8077 H         1 AGS         0.0996
@<TRIPOS>BOND
     1    1    2 ar 
     2    1    3 ar 
     3    1    4 1  
     4    8    1 1  
     5    5    6 ar 
     6    5    7 ar 
     7    5    8 1  
     8   12    5 1  
     9    9   10 ar 
    10    9   11 ar 
    11    9   12 1  
    12    9   13 1  
    13   13   14 1  
    14   14   15 1  
    15   15   16 1  
    16   15   17 1  
    17   16   21 1  
    18   17   18 1  
    19   17   19 1  
    20   19   20 1  
    21   19   21 1  
    22   21   22 1  
    23   22   23 1  
    24   22   31 1  
    25   23   24 2  
    26   24   25 1  
    27   25   26 ar 
    28   25   31 ar 
    29   26   27 1  
    30   26   28 ar 
    31   28   29 ar 
    32   29   30 ar 
    33   30   31 ar 
    34    4   32 1  
    35   14   33 1  
    36   14   34 1  
    37   15   35 1  
    38   17   36 1  
    39   18   37 1  
    40   19   38 1  
    41   20   39 1  
    42   21   40 1  
    43   23   41 1  
    44   27   42 1  
    45   27   43 1  
    46   29   44 1  
@<TRIPOS>SUBSTRUCTURE
     1 AGS         1

