### 
### Created by X-TOOL on Mon Sep 10 21:13:34 2018
### 

@<TRIPOS>MOLECULE
5twg_ligand
   76    76     1     0     0
SMALL
GAST_HUCK


@<TRIPOS>ATOM
      1 N          20.2060    3.9050   10.9370 N.4       1 TPO         0.2400
      2 CA         21.1020    2.8980   10.3300 C.3       1 TPO         0.0958
      3 CB         21.8050    2.0700   11.4160 C.3       1 TPO         0.1457
      4 CG2        20.7930    1.6230   12.4780 C.3       1 TPO        -0.0266
      5 OG1        22.3590    0.9120   10.7900 O.3       1 TPO        -0.2651
      6 P          23.3560    0.1320   11.7940 P.3       1 TPO         0.2016
      7 O1P        22.6600   -1.0430   12.3980 O.co2     1 TPO        -0.5537
      8 O2P        24.6610   -0.2310   10.9110 O.co2     1 TPO        -0.5537
      9 O3P        23.9020    1.0790   12.9690 O.co2     1 TPO        -0.5537
     10 C          20.3960    1.9620    9.3070 C.2       1 TPO         0.2296
     11 O          20.8220    1.8650    8.1460 O.2       1 TPO        -0.3906
     12 N          19.3150    1.3160    9.7520 N.am      1 MET        -0.2609
     13 CA         18.5050    0.4130    8.9410 C.3       1 MET         0.1318
     14 C          17.0190    0.7860    8.9700 C.2       1 MET         0.2039
     15 O          16.3670    0.6550   10.0070 O.2       1 MET        -0.3944
     16 CB         18.6930   -1.0140    9.4350 C.3       1 MET        -0.0034
     17 CG         17.7240   -2.0310    8.8670 C.3       1 MET        -0.0024
     18 SD         18.2430   -3.7260    9.2270 S.3       1 MET        -0.1639
     19 CE         16.8960   -4.6840    8.5400 C.3       1 MET        -0.0181
     20 N          16.4820    1.2320    7.8240 N.am      1 ILE        -0.2640
     21 CA         15.1040    1.7020    7.7340 C.3       1 ILE         0.1282
     22 C          14.2530    0.6650    7.0240 C.2       1 ILE         0.2036
     23 O          14.7260   -0.0800    6.1620 O.2       1 ILE        -0.3944
     24 CB         14.9870    3.0630    7.0220 C.3       1 ILE        -0.0244
     25 N          13.0040    0.5910    7.4290 N.am      1 GLU        -0.2636
     26 CA         12.0140   -0.3510    6.8930 C.3       1 GLU         0.1326
     27 C          11.0720    0.4830    5.9960 C.2       1 GLU         0.2059
     28 O          11.2880    1.7070    5.9290 O.2       1 GLU        -0.3942
     29 CB         11.4780   -1.1080    8.1140 C.3       1 GLU        -0.0008
     30 CG         10.2060   -2.0160    8.1680 C.3       1 GLU         0.0044
     31 CD          8.8750   -1.2780    8.2020 C.2       1 GLU         0.0350
     32 OE1         7.8570   -1.9870    8.1750 O.co2     1 GLU        -0.5690
     33 OE2         8.8510   -0.0520    8.1910 O.co2     1 GLU        -0.5690
     34 N          10.1070   -0.1420    5.2090 N.am      1 PRO        -0.2556
     35 CA          9.6530    0.5310    3.9900 C.3       1 PRO         0.0972
     36 C           9.8680    2.0270    3.8080 C.2       1 PRO         0.0603
     37 O          10.5890    2.5250    2.9770 O.co2     1 PRO        -0.5666
     38 CB          8.1640    0.2270    3.9980 C.3       1 PRO        -0.0159
     39 CG          8.0580   -1.1040    4.7130 C.3       1 PRO        -0.0288
     40 CD          9.4090   -1.4240    5.1930 C.3       1 PRO         0.0362
     41 OXT         9.3420    2.8860    4.4740 O.co2     1 PRO        -0.5666
     42 H1         20.7289    4.4725   11.5855 H         1 TPO         0.2016
     43 H2         19.4583    3.4382   11.4261 H         1 TPO         0.2016
     44 H3         19.8199    4.4909   10.2134 H         1 TPO         0.2016
     45 H4         21.8772    3.4502    9.7785 H         1 TPO         0.1128
     46 H5         22.6006    2.6657   11.8873 H         1 TPO         0.0730
     47 H6         21.3081    1.0316   13.2493 H         1 TPO         0.0261
     48 H7         20.0126    1.0087   12.0052 H         1 TPO         0.0261
     49 H8         20.3326    2.5081   12.9413 H         1 TPO         0.0261
     50 H9         19.0429    1.4607   10.7033 H         1 MET         0.1885
     51 H10        18.8546    0.4757    7.8999 H         1 MET         0.0800
     52 H11        18.5803   -1.0121   10.5292 H         1 MET         0.0320
     53 H12        19.7124   -1.3327    9.1720 H         1 MET         0.0320
     54 H13        17.6684   -1.8996    7.7763 H         1 MET         0.0378
     55 H14        16.7306   -1.8615    9.3079 H         1 MET         0.0378
     56 H15        17.0914   -5.7553    8.6955 H         1 MET         0.0340
     57 H16        16.8126   -4.4792    7.4625 H         1 MET         0.0340
     58 H17        15.9563   -4.4064    9.0399 H         1 MET         0.0340
     59 H18        17.0483    1.2426    6.9999 H         1 ILE         0.1883
     60 H19        14.7207    1.8236    8.7578 H         1 ILE         0.0797
     61 H20        13.9305    3.3668    6.9831 H         1 ILE         0.0277
     62 H21        15.3815    2.9767    5.9988 H         1 ILE         0.0277
     63 H22        15.5653    3.8174    7.5756 H         1 ILE         0.0277
     64 H23        12.7091    1.2181    8.1500 H         1 GLU         0.1883
     65 H24        12.5052   -1.0902    6.2432 H         1 GLU         0.0801
     66 H25        11.3075   -0.3338    8.8765 H         1 GLU         0.0330
     67 H26        12.3060   -1.7590    8.4312 H         1 GLU         0.0330
     68 H27        10.2718   -2.6380    9.0728 H         1 GLU         0.0433
     69 H28        10.2126   -2.6620    7.2777 H         1 GLU         0.0433
     70 H29        10.1361    0.0396    3.1326 H         1 PRO         0.0728
     71 H30         7.7764    0.1498    2.9714 H         1 PRO         0.0306
     72 H31         7.6100    1.0065    4.5415 H         1 PRO         0.0306
     73 H32         7.7063   -1.8819    4.0193 H         1 PRO         0.0286
     74 H33         7.3613   -1.0264    5.5607 H         1 PRO         0.0286
     75 H34         9.3697   -1.8575    6.2032 H         1 PRO         0.0524
     76 H35         9.9067   -2.1288    4.5107 H         1 PRO         0.0524
@<TRIPOS>BOND
     1    1    2 1  
     2    2    3 1  
     3    2   10 1  
     4    3    4 1  
     5    3    5 1  
     6    5    6 1  
     7    6    7 ar 
     8    6    8 ar 
     9    6    9 ar 
    10   10   11 2  
    11   10   12 am 
    12   12   13 1  
    13   13   14 1  
    14   13   16 1  
    15   14   15 2  
    16   14   20 am 
    17   16   17 1  
    18   17   18 1  
    19   18   19 1  
    20   20   21 1  
    21   21   22 1  
    22   21   24 1  
    23   22   23 2  
    24   22   25 am 
    25   25   26 1  
    26   26   27 1  
    27   26   29 1  
    28   27   28 2  
    29   27   34 am 
    30   29   30 1  
    31   30   31 1  
    32   31   32 ar 
    33   31   33 ar 
    34   34   35 1  
    35   34   40 1  
    36   35   36 1  
    37   35   38 1  
    38   36   37 ar 
    39   36   41 ar 
    40   38   39 1  
    41   39   40 1  
    42    1   42 1  
    43    1   43 1  
    44    1   44 1  
    45    2   45 1  
    46    3   46 1  
    47    4   47 1  
    48    4   48 1  
    49    4   49 1  
    50   12   50 1  
    51   13   51 1  
    52   16   52 1  
    53   16   53 1  
    54   17   54 1  
    55   17   55 1  
    56   19   56 1  
    57   19   57 1  
    58   19   58 1  
    59   20   59 1  
    60   21   60 1  
    61   24   61 1  
    62   24   62 1  
    63   24   63 1  
    64   25   64 1  
    65   26   65 1  
    66   29   66 1  
    67   29   67 1  
    68   30   68 1  
    69   30   69 1  
    70   35   70 1  
    71   38   71 1  
    72   38   72 1  
    73   39   73 1  
    74   39   74 1  
    75   40   75 1  
    76   40   76 1  
@<TRIPOS>SUBSTRUCTURE
     1 TPO         1

