5twg_ligand
  -I-interpret- 

 80 80  0  0  0  0  0  0  0  0999 V2000
   20.2060    3.9050   10.9370 N   0  3  0  0  0
   21.1020    2.8980   10.3300 C   0  0  0  0  0
   21.8050    2.0700   11.4160 C   0  0  0  0  0
   20.7930    1.6230   12.4780 C   0  0  0  0  0
   22.3590    0.9120   10.7900 O   0  0  0  0  0
   23.3560    0.1320   11.7940 P   0  0  0  0  0
   22.6600   -1.0430   12.3980 O   0  0  0  0  0
   24.6610   -0.2310   10.9110 O   0  0  0  0  0
   23.9020    1.0790   12.9690 O   0  0  0  0  0
   20.3960    1.9620    9.3070 C   0  0  0  0  0
   20.8220    1.8650    8.1460 O   0  0  0  0  0
   19.3150    1.3160    9.7520 N   0  0  0  0  0
   18.5050    0.4130    8.9410 C   0  0  0  0  0
   17.0190    0.7860    8.9700 C   0  0  0  0  0
   16.3670    0.6550   10.0070 O   0  0  0  0  0
   18.6930   -1.0140    9.4350 C   0  0  0  0  0
   17.7240   -2.0310    8.8670 C   0  0  0  0  0
   18.2430   -3.7260    9.2270 S   0  0  0  0  0
   16.8960   -4.6840    8.5400 C   0  0  0  0  0
   16.4820    1.2320    7.8240 N   0  0  0  0  0
   15.1040    1.7020    7.7340 C   0  0  0  0  0
   14.2530    0.6650    7.0240 C   0  0  0  0  0
   14.7260   -0.0800    6.1620 O   0  0  0  0  0
   14.9870    3.0630    7.0220 C   0  0  0  0  0
   13.0040    0.5910    7.4290 N   0  0  0  0  0
   12.0140   -0.3510    6.8930 C   0  0  0  0  0
   11.0720    0.4830    5.9960 C   0  0  0  0  0
   11.2880    1.7070    5.9290 O   0  0  0  0  0
   11.4780   -1.1080    8.1140 C   0  0  0  0  0
   10.2060   -2.0160    8.1680 C   0  0  0  0  0
    8.8750   -1.2780    8.2020 C   0  0  0  0  0
    7.8570   -1.9870    8.1750 O   0  0  0  0  0
    8.8510   -0.0520    8.1910 O   0  0  0  0  0
   10.1070   -0.1420    5.2090 N   0  0  0  0  0
    9.6530    0.5310    3.9900 C   0  0  0  0  0
    9.8680    2.0270    3.8080 C   0  0  0  0  0
   10.5890    2.5250    2.9770 O   0  0  0  0  0
    8.1640    0.2270    3.9980 C   0  0  0  0  0
    8.0580   -1.1040    4.7130 C   0  0  0  0  0
    9.4090   -1.4240    5.1930 C   0  0  0  0  0
    9.3420    2.8860    4.4740 O   0  0  0  0  0
   20.7361    4.4786   11.5930 H   0  0  0  0  0
   19.8159    4.4972   10.2038 H   0  0  0  0  0
   19.4499    3.4315   11.4315 H   0  0  0  0  0
   21.8426    3.4631    9.7640 H   0  0  0  0  0
   22.5795    2.6678   11.8966 H   0  0  0  0  0
   20.0005    1.0453   12.0024 H   0  0  0  0  0
   21.2974    1.0065   13.2220 H   0  0  0  0  0
   20.3644    2.5007   12.9618 H   0  0  0  0  0
   25.0449    0.5769   10.5623 H   0  0  0  0  0
   24.3505    1.8363   12.5857 H   0  0  0  0  0
   19.0375    1.4635   10.7224 H   0  0  0  0  0
   18.8396    0.4998    7.9073 H   0  0  0  0  0
   18.5282   -0.9948   10.5123 H   0  0  0  0  0
   19.6895   -1.3237    9.1201 H   0  0  0  0  0
   17.6902   -1.9053    7.7848 H   0  0  0  0  0
   16.7480   -1.8669    9.3237 H   0  0  0  0  0
   15.9655   -4.4079    9.0361 H   0  0  0  0  0
   16.8144   -4.4801    7.4723 H   0  0  0  0  0
   17.0907   -5.7452    8.6947 H   0  0  0  0  0
   17.0596    1.2428    6.9834 H   0  0  0  0  0
   14.7427    1.8450    8.7524 H   0  0  0  0  0
   15.5604    3.8095    7.5715 H   0  0  0  0  0
   15.3783    2.9762    6.0084 H   0  0  0  0  0
   13.9398    3.3629    6.9841 H   0  0  0  0  0
   12.7032    1.2306    8.1644 H   0  0  0  0  0
   12.3427   -1.1450    6.2224 H   0  0  0  0  0
   11.1891   -0.2874    8.7707 H   0  0  0  0  0
   12.2725   -1.8338    8.2876 H   0  0  0  0  0
   10.2695   -2.5844    9.0959 H   0  0  0  0  0
   10.2089   -2.6089    7.2534 H   0  0  0  0  0
    8.1123   -2.9123    8.1910 H   0  0  0  0  0
   10.2605    0.1596    3.1647 H   0  0  0  0  0
   11.0003    1.8321    2.4552 H   0  0  0  0  0
    7.7479    0.1865    2.9914 H   0  0  0  0  0
    7.5884    1.0074    4.4958 H   0  0  0  0  0
    7.6862   -1.8797    4.0436 H   0  0  0  0  0
    7.3511   -1.0487    5.5408 H   0  0  0  0  0
    9.3918   -1.8911    6.1777 H   0  0  0  0  0
    9.9075   -2.1516    4.5525 H   0  0  0  0  0
  1  2  1  0  0  0
  2  3  1  0  0  0
  2 10  1  0  0  0
  3  4  1  0  0  0
  3  5  1  0  0  0
  5  6  1  0  0  0
  6  7  2  0  0  0
  6  8  1  0  0  0
  6  9  1  0  0  0
 10 11  2  0  0  0
 10 12  1  0  0  0
 12 13  1  0  0  0
 13 14  1  0  0  0
 13 16  1  0  0  0
 14 15  2  0  0  0
 14 20  1  0  0  0
 16 17  1  0  0  0
 17 18  1  0  0  0
 18 19  1  0  0  0
 20 21  1  0  0  0
 21 22  1  0  0  0
 21 24  1  0  0  0
 22 23  2  0  0  0
 22 25  1  0  0  0
 25 26  1  0  0  0
 26 27  1  0  0  0
 26 29  1  0  0  0
 27 28  2  0  0  0
 27 34  1  0  0  0
 29 30  1  0  0  0
 30 31  1  0  0  0
 31 32  1  0  0  0
 31 33  2  0  0  0
 34 35  1  0  0  0
 34 40  1  0  0  0
 35 36  1  0  0  0
 35 38  1  0  0  0
 36 37  1  0  0  0
 36 41  2  0  0  0
 38 39  1  0  0  0
 39 40  1  0  0  0
  1 42  1  0  0  0
  1 43  1  0  0  0
  1 44  1  0  0  0
  2 45  1  0  0  0
  3 46  1  0  0  0
  4 47  1  0  0  0
  4 48  1  0  0  0
  4 49  1  0  0  0
  8 50  1  0  0  0
  9 51  1  0  0  0
 12 52  1  0  0  0
 13 53  1  0  0  0
 16 54  1  0  0  0
 16 55  1  0  0  0
 17 56  1  0  0  0
 17 57  1  0  0  0
 19 58  1  0  0  0
 19 59  1  0  0  0
 19 60  1  0  0  0
 20 61  1  0  0  0
 21 62  1  0  0  0
 24 63  1  0  0  0
 24 64  1  0  0  0
 24 65  1  0  0  0
 25 66  1  0  0  0
 26 67  1  0  0  0
 29 68  1  0  0  0
 29 69  1  0  0  0
 30 70  1  0  0  0
 30 71  1  0  0  0
 32 72  1  0  0  0
 35 73  1  0  0  0
 37 74  1  0  0  0
 38 75  1  0  0  0
 38 76  1  0  0  0
 39 77  1  0  0  0
 39 78  1  0  0  0
 40 79  1  0  0  0
 40 80  1  0  0  0
M  END
$$$$
