1gwv_ligand
  -I-interpret- 

 45 46  0  0  0  0  0  0  0  0999 V2000
    8.3750    9.7520   55.8080 C   0  0  0  0  0
    8.2590    9.6630   54.2910 C   0  0  0  0  0
    6.7730    9.5550   53.9050 C   0  0  0  0  0
    6.1810    8.3110   54.6170 C   0  0  0  0  0
    6.3670    8.4610   56.1560 C   0  0  0  0  0
    5.8860    7.3960   56.8280 C   0  0  0  0  0
    9.7430    9.7950   56.1820 O   0  0  0  0  0
    8.8310   10.8150   53.6450 O   0  0  0  0  0
    6.6540    9.4630   52.4910 O   0  0  0  0  0
    6.8410    7.1050   54.1860 O   0  0  0  0  0
    7.7920    8.6140   56.4730 O   0  0  0  0  0
    5.8790    7.6850   58.2130 O   0  0  0  0  0
   11.9910   10.4990   59.6800 C   0  0  0  0  0
   10.7230    9.6380   59.8780 C   0  0  0  0  0
   10.3290    9.0690   58.4910 C   0  0  0  0  0
   10.0740   10.2460   57.5280 C   0  0  0  0  0
   11.3200   11.1370   57.4080 C   0  0  0  0  0
   11.0840   12.3910   56.5740 C   0  0  0  0  0
   12.3800   11.0420   60.9000 O   0  0  0  0  0
   10.9530    8.5690   60.7590 O   0  0  0  0  0
    9.1830    8.2540   58.6500 O   0  0  0  0  0
   11.7200   11.5810   58.7410 O   0  0  0  0  0
   12.3030   12.8390   56.0060 O   0  0  0  0  0
    7.8414   10.6544   56.1064 H   0  0  0  0  0
    8.8088    8.7817   53.9605 H   0  0  0  0  0
    6.2183   10.4387   54.2205 H   0  0  0  0  0
    5.1231    8.2433   54.3635 H   0  0  0  0  0
    5.8084    9.3444   56.4651 H   0  0  0  0  0
    6.5173    6.5279   56.6384 H   0  0  0  0  0
    4.8711    7.1803   56.4940 H   0  0  0  0  0
    9.7583   10.8864   53.8830 H   0  0  0  0  0
    7.0303   10.2487   52.0875 H   0  0  0  0  0
    6.7320    7.0033   53.2376 H   0  0  0  0  0
    5.5369    6.9285   58.6949 H   0  0  0  0  0
   12.7872    9.8686   59.2842 H   0  0  0  0  0
    9.9334   10.2558   60.3057 H   0  0  0  0  0
   11.1254    8.4565   58.0683 H   0  0  0  0  0
    9.2345   10.7982   57.9504 H   0  0  0  0  0
   12.0841   10.5333   56.9183 H   0  0  0  0  0
   10.6803   13.1746   57.2151 H   0  0  0  0  0
   10.3816   12.1595   55.7733 H   0  0  0  0  0
   13.1676   11.5763   60.7746 H   0  0  0  0  0
   10.1464    8.0578   60.8576 H   0  0  0  0  0
    8.9269    7.8940   57.7977 H   0  0  0  0  0
   12.1406   13.6282   55.4840 H   0  0  0  0  0
  1  2  1  0  0  0
  7  1  1  0  0  0
  1 11  1  0  0  0
  2  3  1  0  0  0
  2  8  1  0  0  0
  3  4  1  0  0  0
  3  9  1  0  0  0
  5  4  1  0  0  0
  4 10  1  0  0  0
  5  6  1  0  0  0
 11  5  1  0  0  0
  6 12  1  0  0  0
 16  7  1  0  0  0
 14 13  1  0  0  0
 13 19  1  0  0  0
 13 22  1  0  0  0
 15 14  1  0  0  0
 14 20  1  0  0  0
 15 16  1  0  0  0
 15 21  1  0  0  0
 16 17  1  0  0  0
 17 18  1  0  0  0
 17 22  1  0  0  0
 18 23  1  0  0  0
  1 24  1  0  0  0
  2 25  1  0  0  0
  3 26  1  0  0  0
  4 27  1  0  0  0
  5 28  1  0  0  0
  6 29  1  0  0  0
  6 30  1  0  0  0
  8 31  1  0  0  0
  9 32  1  0  0  0
 10 33  1  0  0  0
 12 34  1  0  0  0
 13 35  1  0  0  0
 14 36  1  0  0  0
 15 37  1  0  0  0
 16 38  1  0  0  0
 17 39  1  0  0  0
 18 40  1  0  0  0
 18 41  1  0  0  0
 19 42  1  0  0  0
 20 43  1  0  0  0
 21 44  1  0  0  0
 23 45  1  0  0  0
M  END
$$$$
