3b2t_ligand
  -I-interpret- 

 44 46  0  0  0  0  0  0  0  0999 V2000
   26.8760  -22.2150  -31.7810 P   0  0  0  0  0
   27.1880  -20.8710  -31.2450 O   0  0  0  0  0
   27.2500  -23.4960  -31.1410 O   0  0  0  0  0
   26.5580  -22.3560  -33.5580 C   0  0  0  0  0
   24.7770  -22.6150  -29.9560 P   0  0  0  0  0
   23.6300  -21.7370  -29.6320 O   0  0  0  0  0
   25.9420  -22.6180  -29.0410 O   0  0  0  0  0
   25.3040  -22.2250  -31.4290 O   0  0  0  0  0
   24.2520  -24.1260  -30.1430 O   0  0  0  0  0
   25.1070  -25.2350  -29.8470 C   0  0  0  0  0
   24.4420  -26.5720  -30.1880 C   0  0  0  0  0
   23.1590  -26.6290  -29.5350 O   0  0  0  0  0
   24.1430  -26.6170  -31.6890 C   0  0  0  0  0
   23.9260  -27.9690  -32.1010 O   0  0  0  0  0
   22.8200  -25.8570  -31.7160 C   0  0  0  0  0
   22.1350  -26.1610  -32.9340 O   0  0  0  0  0
   22.1420  -26.5800  -30.5520 C   0  0  0  0  0
   20.9480  -25.8420  -30.0810 N   0  0  0  0  0
   20.9100  -24.5550  -29.7410 C   0  0  0  0  0
   19.6740  -24.2220  -29.3770 N   0  0  0  0  0
   18.9120  -25.3080  -29.4840 C   0  0  0  0  0
   17.5680  -25.5720  -29.2530 C   0  0  0  0  0
   16.7480  -24.6130  -28.8330 N   0  0  0  0  0
   17.1090  -26.8130  -29.4710 N   0  0  0  0  0
   17.9110  -27.7730  -29.8970 C   0  0  0  0  0
   19.1940  -27.5560  -30.1270 N   0  0  0  0  0
   19.7240  -26.3410  -29.9320 C   0  0  0  0  0
   26.8408  -20.2021  -31.8396 H   0  0  0  0  0
   27.4551  -22.7203  -34.0586 H   0  0  0  0  0
   25.7382  -23.0548  -33.7248 H   0  0  0  0  0
   26.2899  -21.3776  -33.9566 H   0  0  0  0  0
   26.6055  -23.2281  -29.3715 H   0  0  0  0  0
   25.3261  -25.2235  -28.7793 H   0  0  0  0  0
   26.0123  -25.1396  -30.4466 H   0  0  0  0  0
   25.1004  -27.3844  -29.8804 H   0  0  0  0  0
   24.9279  -26.2185  -32.3319 H   0  0  0  0  0
   23.7393  -27.9894  -33.0424 H   0  0  0  0  0
   22.8710  -24.7702  -31.6493 H   0  0  0  0  0
   21.3011  -25.6860  -32.9580 H   0  0  0  0  0
   21.7791  -27.5695  -30.8301 H   0  0  0  0  0
   21.7629  -23.8765  -29.7582 H   0  0  0  0  0
   17.1039  -23.6700  -28.6766 H   0  0  0  0  0
   15.7632  -24.8205  -28.6672 H   0  0  0  0  0
   17.5034  -28.7702  -30.0630 H   0  0  0  0  0
  1  2  1  0  0  0
  1  3  2  0  0  0
  1  4  1  0  0  0
  8  1  1  0  0  0
  5  6  2  0  0  0
  5  7  1  0  0  0
  5  8  1  0  0  0
  5  9  1  0  0  0
  9 10  1  0  0  0
 10 11  1  0  0  0
 11 12  1  0  0  0
 11 13  1  0  0  0
 12 17  1  0  0  0
 13 14  1  0  0  0
 13 15  1  0  0  0
 15 16  1  0  0  0
 15 17  1  0  0  0
 17 18  1  0  0  0
 18 19  4  0  0  0
 18 27  4  0  0  0
 19 20  4  0  0  0
 20 21  4  0  0  0
 21 22  4  0  0  0
 21 27  4  0  0  0
 22 23  1  0  0  0
 22 24  4  0  0  0
 24 25  4  0  0  0
 25 26  4  0  0  0
 26 27  4  0  0  0
  2 28  1  0  0  0
  4 29  1  0  0  0
  4 30  1  0  0  0
  4 31  1  0  0  0
  7 32  1  0  0  0
 10 33  1  0  0  0
 10 34  1  0  0  0
 11 35  1  0  0  0
 13 36  1  0  0  0
 14 37  1  0  0  0
 15 38  1  0  0  0
 16 39  1  0  0  0
 17 40  1  0  0  0
 19 41  1  0  0  0
 23 42  1  0  0  0
 23 43  1  0  0  0
 25 44  1  0  0  0
M  END
$$$$
