### 
### Created by X-TOOL on Mon Sep 10 21:12:58 2018
### 

@<TRIPOS>MOLECULE
3b2t_ligand
   42    44     1     0     0
SMALL
GAST_HUCK


@<TRIPOS>ATOM
      1 PB         26.8760  -22.2150  -31.7810 P.3       1 M33         0.1591
      2 O1B        27.1880  -20.8710  -31.2450 O.co2     1 M33        -0.6153
      3 O2B        27.2500  -23.4960  -31.1410 O.co2     1 M33        -0.6153
      4 C3B        26.5580  -22.3560  -33.5580 C.3       1 M33         0.0314
      5 PA         24.7770  -22.6150  -29.9560 P.3       1 M33         0.2951
      6 O1A        23.6300  -21.7370  -29.6320 O.co2     1 M33        -0.6125
      7 O2A        25.9420  -22.6180  -29.0410 O.co2     1 M33        -0.6125
      8 O3A        25.3040  -22.2250  -31.4290 O.3       1 M33        -0.1601
      9 O5'        24.2520  -24.1260  -30.1430 O.3       1 M33        -0.2475
     10 C5'        25.1070  -25.2350  -29.8470 C.3       1 M33         0.1128
     11 C4'        24.4420  -26.5720  -30.1880 C.3       1 M33         0.1189
     12 O4'        23.1590  -26.6290  -29.5350 O.3       1 M33        -0.3364
     13 C3'        24.1430  -26.6170  -31.6890 C.3       1 M33         0.1149
     14 O3'        23.9260  -27.9690  -32.1010 O.3       1 M33        -0.3864
     15 C2'        22.8200  -25.8570  -31.7160 C.3       1 M33         0.1385
     16 O2'        22.1350  -26.1610  -32.9340 O.3       1 M33        -0.3836
     17 C1'        22.1420  -26.5800  -30.5520 C.3       1 M33         0.2010
     18 N9         20.9480  -25.8420  -30.0810 N.pl3     1 M33        -0.1919
     19 C8         20.9100  -24.5550  -29.7410 C.2       1 M33         0.1123
     20 N7         19.6740  -24.2220  -29.3770 N.2       1 M33        -0.2958
     21 C5         18.9120  -25.3080  -29.4840 C.ar      1 M33         0.1045
     22 C6         17.5680  -25.5720  -29.2530 C.ar      1 M33         0.1298
     23 N6         16.7480  -24.6130  -28.8330 N.pl3     1 M33        -0.3152
     24 N1         17.1090  -26.8130  -29.4710 N.ar      1 M33        -0.2698
     25 C2         17.9110  -27.7730  -29.8970 C.ar      1 M33         0.0533
     26 N3         19.1940  -27.5560  -30.1270 N.ar      1 M33        -0.2714
     27 C4         19.7240  -26.3410  -29.9320 C.ar      1 M33         0.1613
     28 H1         27.5143  -22.3747  -34.1012 H         1 M33         0.0452
     29 H2         25.9625  -21.4941  -33.8935 H         1 M33         0.0452
     30 H3         26.0041  -23.2849  -33.7588 H         1 M33         0.0452
     31 H4         25.3496  -25.2213  -28.7742 H         1 M33         0.0648
     32 H5         26.0325  -25.1377  -30.4335 H         1 M33         0.0648
     33 H6         25.0835  -27.4124  -29.8842 H         1 M33         0.0651
     34 H7         24.9258  -26.1398  -32.2968 H         1 M33         0.0648
     35 H8         23.7412  -27.9892  -33.0326 H         1 M33         0.2100
     36 H9         22.9231  -24.7720  -31.5675 H         1 M33         0.0676
     37 H10        21.9698  -27.0954  -32.9784 H         1 M33         0.2101
     38 H11        21.8434  -27.5960  -30.8496 H         1 M33         0.0996
     39 H12        21.7621  -23.8771  -29.7582 H         1 M33         0.1349
     40 H13        15.7535  -24.8225  -28.6656 H         1 M33         0.1820
     41 H14        17.1074  -23.6607  -28.6751 H         1 M33         0.1820
     42 H15        17.5057  -28.7647  -30.0621 H         1 M33         0.0996
@<TRIPOS>BOND
     1    1    2 ar 
     2    1    3 ar 
     3    1    4 1  
     4    8    1 1  
     5    5    6 ar 
     6    5    7 ar 
     7    5    8 1  
     8    5    9 1  
     9    9   10 1  
    10   10   11 1  
    11   11   12 1  
    12   11   13 1  
    13   12   17 1  
    14   13   14 1  
    15   13   15 1  
    16   15   16 1  
    17   15   17 1  
    18   17   18 1  
    19   18   19 1  
    20   18   27 1  
    21   19   20 2  
    22   20   21 1  
    23   21   22 ar 
    24   21   27 ar 
    25   22   23 1  
    26   22   24 ar 
    27   24   25 ar 
    28   25   26 ar 
    29   26   27 ar 
    30    4   28 1  
    31    4   29 1  
    32    4   30 1  
    33   10   31 1  
    34   10   32 1  
    35   11   33 1  
    36   13   34 1  
    37   14   35 1  
    38   15   36 1  
    39   16   37 1  
    40   17   38 1  
    41   19   39 1  
    42   23   40 1  
    43   23   41 1  
    44   25   42 1  
@<TRIPOS>SUBSTRUCTURE
     1 M33         1

