### 
### Created by X-TOOL on Wed Jan  1 15:39:38 2020
### 

@<TRIPOS>MOLECULE
6cvv_ligand
   43    45     1     0     0
SMALL
GAST_HUCK


@<TRIPOS>ATOM
      1 PG         -4.2060  -35.0360   20.5880 P.3       1 ATP         0.1879
      2 O1G        -5.0370  -35.9380   19.7050 O.co2     1 ATP        -0.6091
      3 O2G        -3.8060  -33.7230   19.9540 O.co2     1 ATP        -0.6091
      4 O3G        -2.9910  -35.7190   21.1750 O.co2     1 ATP        -0.6091
      5 PB         -6.7550  -34.3100   21.7780 P.3       1 ATP         0.3553
      6 O1B        -7.2700  -34.3500   20.3630 O.co2     1 ATP        -0.5652
      7 O2B        -6.9520  -33.0290   22.5720 O.co2     1 ATP        -0.5652
      8 O3B        -5.1850  -34.7610   21.8630 O.3       1 ATP        -0.1546
      9 PA         -8.1660  -36.6840   21.8070 P.3       1 ATP         0.3266
     10 O1A        -7.3340  -36.8690   20.5630 O.co2     1 ATP        -0.5692
     11 O2A        -9.6890  -36.4800   21.6870 O.co2     1 ATP        -0.5692
     12 O3A        -7.5560  -35.4240   22.5940 O.3       1 ATP        -0.1171
     13 O5'        -7.6590  -37.8570   22.8050 O.3       1 ATP        -0.2441
     14 C5'        -7.4460  -37.5890   24.1950 C.3       1 ATP         0.1131
     15 C4'        -5.9840  -37.4060   24.6290 C.3       1 ATP         0.1189
     16 O4'        -5.6880  -38.0910   25.8550 O.3       1 ATP        -0.3364
     17 C3'        -4.8760  -37.8480   23.6850 C.3       1 ATP         0.1149
     18 O3'        -4.5680  -36.8420   22.7390 O.3       1 ATP        -0.3864
     19 C2'        -3.6720  -37.9850   24.5900 C.3       1 ATP         0.1385
     20 O2'        -2.9110  -36.7710   24.5910 O.3       1 ATP        -0.3836
     21 C1'        -4.2620  -38.1830   25.9750 C.3       1 ATP         0.2010
     22 N9         -3.8130  -39.4970   26.4800 N.pl3     1 ATP        -0.1919
     23 C8         -3.3340  -39.7090   27.7260 C.2       1 ATP         0.1123
     24 N7         -2.9690  -41.0010   27.9050 N.2       1 ATP        -0.2958
     25 C5         -3.2060  -41.6320   26.7440 C.ar      1 ATP         0.1045
     26 C6         -3.0290  -43.0170   26.2760 C.ar      1 ATP         0.1298
     27 N6         -2.5300  -43.9590   27.1160 N.pl3     1 ATP        -0.3152
     28 N1         -3.3830  -43.3010   25.0040 N.ar      1 ATP        -0.2698
     29 C2         -3.8790  -42.3510   24.1810 C.ar      1 ATP         0.0533
     30 N3         -4.0720  -41.0640   24.5360 N.ar      1 ATP        -0.2714
     31 C4         -3.7510  -40.6450   25.7930 C.ar      1 ATP         0.1613
     32 H1         -7.8644  -38.4297   24.7679 H         1 ATP         0.0648
     33 H2         -7.9899  -36.6667   24.4472 H         1 ATP         0.0648
     34 H3         -5.8579  -36.3257   24.7936 H         1 ATP         0.0651
     35 H4         -5.1306  -38.7921   23.1811 H         1 ATP         0.0648
     36 H5         -4.2815  -36.0585   23.1935 H         1 ATP         0.2100
     37 H6         -3.0414  -38.8352   24.2910 H         1 ATP         0.0676
     38 H7         -2.6163  -36.5826   23.7078 H         1 ATP         0.2101
     39 H8         -3.9051  -37.3954   26.6549 H         1 ATP         0.0996
     40 H9         -3.2518  -38.9376   28.4903 H         1 ATP         0.1349
     41 H10        -2.4063  -44.9276   26.7884 H         1 ATP         0.1820
     42 H11        -2.2750  -43.7053   28.0811 H         1 ATP         0.1820
     43 H12        -4.1387  -42.6421   23.1696 H         1 ATP         0.0996
@<TRIPOS>BOND
     1    1    2 ar 
     2    1    3 ar 
     3    1    4 ar 
     4    8    1 1  
     5    5    6 ar 
     6    5    7 ar 
     7    5    8 1  
     8   12    5 1  
     9    9   10 ar 
    10    9   11 ar 
    11    9   12 1  
    12    9   13 1  
    13   13   14 1  
    14   14   15 1  
    15   15   16 1  
    16   15   17 1  
    17   16   21 1  
    18   17   18 1  
    19   17   19 1  
    20   19   20 1  
    21   19   21 1  
    22   21   22 1  
    23   22   23 1  
    24   22   31 1  
    25   23   24 2  
    26   24   25 1  
    27   25   26 ar 
    28   25   31 ar 
    29   26   27 1  
    30   26   28 ar 
    31   28   29 ar 
    32   29   30 ar 
    33   30   31 ar 
    34   14   32 1  
    35   14   33 1  
    36   15   34 1  
    37   17   35 1  
    38   18   36 1  
    39   19   37 1  
    40   20   38 1  
    41   21   39 1  
    42   23   40 1  
    43   27   41 1  
    44   27   42 1  
    45   29   43 1  
@<TRIPOS>SUBSTRUCTURE
     1 ATP         1

