6cvv_ligand
  -I-interpret- 

 47 49  0  0  0  0  0  0  0  0999 V2000
   -4.2060  -35.0360   20.5880 P   0  0  0  0  0
   -5.0370  -35.9380   19.7050 O   0  0  0  0  0
   -3.8060  -33.7230   19.9540 O   0  0  0  0  0
   -2.9910  -35.7190   21.1750 O   0  0  0  0  0
   -6.7550  -34.3100   21.7780 P   0  0  0  0  0
   -7.2700  -34.3500   20.3630 O   0  0  0  0  0
   -6.9520  -33.0290   22.5720 O   0  0  0  0  0
   -5.1850  -34.7610   21.8630 O   0  0  0  0  0
   -8.1660  -36.6840   21.8070 P   0  0  0  0  0
   -7.3340  -36.8690   20.5630 O   0  0  0  0  0
   -9.6890  -36.4800   21.6870 O   0  0  0  0  0
   -7.5560  -35.4240   22.5940 O   0  0  0  0  0
   -7.6590  -37.8570   22.8050 O   0  0  0  0  0
   -7.4460  -37.5890   24.1950 C   0  0  0  0  0
   -5.9840  -37.4060   24.6290 C   0  0  0  0  0
   -5.6880  -38.0910   25.8550 O   0  0  0  0  0
   -4.8760  -37.8480   23.6850 C   0  0  0  0  0
   -4.5680  -36.8420   22.7390 O   0  0  0  0  0
   -3.6720  -37.9850   24.5900 C   0  0  0  0  0
   -2.9110  -36.7710   24.5910 O   0  0  0  0  0
   -4.2620  -38.1830   25.9750 C   0  0  0  0  0
   -3.8130  -39.4970   26.4800 N   0  0  0  0  0
   -3.3340  -39.7090   27.7260 C   0  0  0  0  0
   -2.9690  -41.0010   27.9050 N   0  0  0  0  0
   -3.2060  -41.6320   26.7440 C   0  0  0  0  0
   -3.0290  -43.0170   26.2760 C   0  0  0  0  0
   -2.5300  -43.9590   27.1160 N   0  0  0  0  0
   -3.3830  -43.3010   25.0040 N   0  0  0  0  0
   -3.8790  -42.3510   24.1810 C   0  0  0  0  0
   -4.0720  -41.0640   24.5360 N   0  0  0  0  0
   -3.7510  -40.6450   25.7930 C   0  0  0  0  0
   -3.2838  -33.2136   20.5780 H   0  0  0  0  0
   -2.5084  -35.0957   21.7228 H   0  0  0  0  0
   -6.5806  -33.1380   23.4505 H   0  0  0  0  0
  -10.0672  -36.3784   22.5635 H   0  0  0  0  0
   -7.8191  -38.4591   24.7352 H   0  0  0  0  0
   -7.9482  -36.6447   24.4052 H   0  0  0  0  0
   -5.9629  -36.3179   24.6890 H   0  0  0  0  0
   -5.1583  -38.7491   23.1406 H   0  0  0  0  0
   -3.8674  -37.1520   22.1605 H   0  0  0  0  0
   -3.0157  -38.7959   24.2742 H   0  0  0  0  0
   -2.1508  -36.8716   25.1686 H   0  0  0  0  0
   -3.9331  -37.4264   26.6873 H   0  0  0  0  0
   -3.2518  -38.9369   28.4910 H   0  0  0  0  0
   -2.2775  -43.7077   28.0718 H   0  0  0  0  0
   -2.4075  -44.9182   26.7915 H   0  0  0  0  0
   -4.1402  -42.6437   23.1640 H   0  0  0  0  0
  1  2  2  0  0  0
  1  3  1  0  0  0
  1  4  1  0  0  0
  8  1  1  0  0  0
  5  6  2  0  0  0
  5  7  1  0  0  0
  5  8  1  0  0  0
 12  5  1  0  0  0
  9 10  2  0  0  0
  9 11  1  0  0  0
  9 12  1  0  0  0
  9 13  1  0  0  0
 13 14  1  0  0  0
 14 15  1  0  0  0
 15 16  1  0  0  0
 15 17  1  0  0  0
 16 21  1  0  0  0
 17 18  1  0  0  0
 17 19  1  0  0  0
 19 20  1  0  0  0
 19 21  1  0  0  0
 21 22  1  0  0  0
 22 23  4  0  0  0
 22 31  4  0  0  0
 23 24  4  0  0  0
 24 25  4  0  0  0
 25 26  4  0  0  0
 25 31  4  0  0  0
 26 27  1  0  0  0
 26 28  4  0  0  0
 28 29  4  0  0  0
 29 30  4  0  0  0
 30 31  4  0  0  0
  3 32  1  0  0  0
  4 33  1  0  0  0
  7 34  1  0  0  0
 11 35  1  0  0  0
 14 36  1  0  0  0
 14 37  1  0  0  0
 15 38  1  0  0  0
 17 39  1  0  0  0
 18 40  1  0  0  0
 19 41  1  0  0  0
 20 42  1  0  0  0
 21 43  1  0  0  0
 23 44  1  0  0  0
 27 45  1  0  0  0
 27 46  1  0  0  0
 29 47  1  0  0  0
M  END
$$$$
