2ylc_ligand
  -I-interpret- 

 32 33  0  0  0  0  0  0  0  0999 V2000
   -3.0180   -3.4630  -11.9720 P   0  0  0  0  0
   -2.8910   -2.8630  -13.2730 O   0  0  0  0  0
   -2.4130   -2.8100  -10.8090 O   0  0  0  0  0
   -2.5600   -4.9820  -12.0710 O   0  0  0  0  0
   -2.2800   -5.7070  -10.9210 C   0  0  0  0  0
   -1.2920   -6.8030  -11.1900 C   0  0  0  0  0
   -1.8630   -7.8100  -12.0570 O   0  0  0  0  0
   -0.0100   -6.4560  -11.9200 C   0  0  0  0  0
    0.9140   -5.6510  -11.1600 O   0  0  0  0  0
    0.5050   -7.8540  -12.2480 C   0  0  0  0  0
    1.1000   -8.4400  -11.0920 O   0  0  0  0  0
   -0.8240   -8.5940  -12.5740 C   0  0  0  0  0
   -1.0180   -8.7680  -14.0360 N   0  0  0  0  0
   -0.8060  -10.0330  -14.5610 C   0  0  0  0  0
   -0.6040  -10.9720  -13.8330 O   0  0  0  0  0
   -0.9070  -10.1390  -15.9140 N   0  0  0  0  0
   -1.1410   -9.1380  -16.8080 C   0  0  0  0  0
   -1.1530   -9.4080  -18.0110 O   0  0  0  0  0
   -1.3070   -7.8530  -16.2030 C   0  0  0  0  0
   -1.2370   -7.7080  -14.8800 C   0  0  0  0  0
   -2.5869   -3.3333  -10.0232 H   0  0  0  0  0
   -3.2057   -6.1567  -10.5621 H   0  0  0  0  0
   -1.8524   -5.0301  -10.1813 H   0  0  0  0  0
   -1.0568   -7.1014  -10.1684 H   0  0  0  0  0
   -0.1549   -5.8135  -12.7885 H   0  0  0  0  0
    0.5237   -4.7901  -10.9923 H   0  0  0  0  0
    1.2552   -7.8829  -13.0383 H   0  0  0  0  0
    1.4205   -9.3185  -11.3089 H   0  0  0  0  0
   -0.8042   -9.5908  -12.1335 H   0  0  0  0  0
   -0.7946  -11.0751  -16.3033 H   0  0  0  0  0
   -1.4930   -6.9819  -16.8312 H   0  0  0  0  0
   -1.3579   -6.7124  -14.4531 H   0  0  0  0  0
  1  2  2  0  0  0
  1  3  1  0  0  0
  1  4  1  0  0  0
  4  5  1  0  0  0
  5  6  1  0  0  0
  6  7  1  0  0  0
  6  8  1  0  0  0
  7 12  1  0  0  0
  8  9  1  0  0  0
  8 10  1  0  0  0
 10 11  1  0  0  0
 10 12  1  0  0  0
 12 13  1  0  0  0
 13 14  1  0  0  0
 13 20  1  0  0  0
 14 15  2  0  0  0
 14 16  1  0  0  0
 16 17  1  0  0  0
 17 18  2  0  0  0
 17 19  1  0  0  0
 19 20  2  0  0  0
  3 21  1  0  0  0
  5 22  1  0  0  0
  5 23  1  0  0  0
  6 24  1  0  0  0
  8 25  1  0  0  0
  9 26  1  0  0  0
 10 27  1  0  0  0
 11 28  1  0  0  0
 12 29  1  0  0  0
 16 30  1  0  0  0
 19 31  1  0  0  0
 20 32  1  0  0  0
M  END
$$$$
