2z94_ligand
  -I-interpret- 

 17 17  0  0  0  0  0  0  0  0999 V2000
   18.5010   -6.0130   26.1120 C   0  0  0  0  0
   17.7740   -5.4730   24.9260 C   0  0  0  0  0
   17.9250   -4.1350   24.5660 C   0  0  0  0  0
   18.8100   -3.2550   25.3750 C   0  0  0  0  0
   19.4650   -3.7650   26.4600 C   0  0  0  0  0
   19.3010   -5.2040   26.8460 C   0  0  0  0  0
   20.3530   -2.8750   27.2820 C   0  0  0  0  0
   16.7180   -6.5950   23.9980 S   0  0  0  0  0
   17.0640   -3.4260   23.1550 S   0  0  0  0  0
   18.3877   -7.0613   26.3881 H   0  0  0  0  0
   18.9355   -2.2069   25.1032 H   0  0  0  0  0
   19.8251   -5.5987   27.7165 H   0  0  0  0  0
   21.1494   -2.4775   26.6529 H   0  0  0  0  0
   19.7646   -2.0524   27.6886 H   0  0  0  0  0
   20.7871   -3.4515   28.0989 H   0  0  0  0  0
   16.1586   -5.9391   22.9852 H   0  0  0  0  0
   17.3872   -2.1410   23.0403 H   0  0  0  0  0
  1  2  4  0  0  0
  1  6  4  0  0  0
  2  3  4  0  0  0
  2  8  1  0  0  0
  3  4  4  0  0  0
  3  9  1  0  0  0
  4  5  4  0  0  0
  5  6  4  0  0  0
  5  7  1  0  0  0
  1 10  1  0  0  0
  4 11  1  0  0  0
  6 12  1  0  0  0
  7 13  1  0  0  0
  7 14  1  0  0  0
  7 15  1  0  0  0
  8 16  1  0  0  0
  9 17  1  0  0  0
M  END
$$$$
