### 
### Created by X-TOOL on Mon Sep 10 21:13:18 2018
### 

@<TRIPOS>MOLECULE
4kp4_ligand
   44    46     1     0     0
SMALL
GAST_HUCK


@<TRIPOS>ATOM
      1 PG        -42.1760   36.0430    0.4230 P.3       1 ANP         0.1803
      2 O1G       -41.1080   36.1180   -0.6530 O.co2     1 ANP        -0.5454
      3 O2G       -42.1260   37.0840    1.5180 O.co2     1 ANP        -0.5454
      4 O3G       -43.5650   35.9790   -0.1780 O.co2     1 ANP        -0.5454
      5 PB        -41.1670   34.2650    2.5050 P.3       1 ANP         0.2543
      6 O1B       -41.0510   32.7840    2.6200 O.co2     1 ANP        -0.6257
      7 O2B       -41.6800   35.0410    3.7060 O.co2     1 ANP        -0.6257
      8 N3B       -41.9830   34.5710    1.1290 N.am      1 ANP        -0.1803
      9 PA        -38.5670   35.1980    3.1460 P.3       1 ANP         0.2949
     10 O1A       -38.9210   36.5060    3.7670 O.co2     1 ANP        -0.6129
     11 O2A       -37.3090   34.9840    2.3230 O.co2     1 ANP        -0.6129
     12 O3A       -39.7200   34.8170    2.1040 O.3       1 ANP        -0.1431
     13 O5'       -38.6450   34.2560    4.4560 O.3       1 ANP        -0.2478
     14 C5'       -37.7130   33.1880    4.6310 C.3       1 ANP         0.1128
     15 C4'       -38.1680   32.2120    5.7030 C.3       1 ANP         0.1189
     16 O4'       -37.8140   32.6930    7.0010 O.3       1 ANP        -0.3364
     17 C3'       -39.6760   32.0160    5.7530 C.3       1 ANP         0.1149
     18 O3'       -40.1030   31.0330    4.7980 O.3       1 ANP        -0.3864
     19 C2'       -39.9080   31.6320    7.2010 C.3       1 ANP         0.1385
     20 O2'       -39.6720   30.2430    7.4310 O.3       1 ANP        -0.3836
     21 C1'       -38.8400   32.3850    7.9560 C.3       1 ANP         0.2010
     22 N9        -39.3340   33.6260    8.5960 N.pl3     1 ANP        -0.1919
     23 C8        -39.3060   34.8580    8.0470 C.2       1 ANP         0.1123
     24 N7        -39.7950   35.7700    8.9350 N.2       1 ANP        -0.2958
     25 C5        -40.1280   35.1170   10.0520 C.ar      1 ANP         0.1045
     26 C6        -40.6840   35.4790   11.3570 C.ar      1 ANP         0.1298
     27 N6        -40.9870   36.7660   11.5620 N.pl3     1 ANP        -0.3152
     28 N1        -40.9160   34.5230   12.3020 N.ar      1 ANP        -0.2698
     29 C2        -40.6100   33.2440   12.0200 C.ar      1 ANP         0.0533
     30 N3        -40.0800   32.8530   10.8310 N.ar      1 ANP        -0.2714
     31 C4        -39.8260   33.7130    9.8290 C.ar      1 ANP         0.1613
     32 H         -42.4065   33.7898    0.6704 H         1 ANP         0.2132
     33 H         -36.7396   33.6091    4.9229 H         1 ANP         0.0648
     34 H         -37.6080   32.6474    3.6788 H         1 ANP         0.0648
     35 H         -37.6815   31.2434    5.5157 H         1 ANP         0.0651
     36 H         -40.1956   32.9594    5.5294 H         1 ANP         0.0648
     37 H         -39.8623   31.3168    3.9239 H         1 ANP         0.2100
     38 H         -40.9211   31.9106    7.5265 H         1 ANP         0.0676
     39 H         -40.2598   29.7292    6.8897 H         1 ANP         0.2101
     40 H         -38.4302   31.7331    8.7415 H         1 ANP         0.0996
     41 H         -38.9469   35.0894    7.0453 H         1 ANP         0.1349
     42 H         -41.3805   37.0648   12.4658 H         1 ANP         0.1820
     43 H         -40.8268   37.4579   10.8160 H         1 ANP         0.1820
     44 H         -40.7947   32.4897   12.7763 H         1 ANP         0.0996
@<TRIPOS>BOND
     1    1    2 ar 
     2    1    3 ar 
     3    1    4 ar 
     4    8    1 am 
     5    5    6 ar 
     6    5    7 ar 
     7    5    8 1  
     8   12    5 1  
     9    9   10 ar 
    10    9   11 ar 
    11    9   12 1  
    12    9   13 1  
    13   13   14 1  
    14   14   15 1  
    15   15   16 1  
    16   15   17 1  
    17   16   21 1  
    18   17   18 1  
    19   17   19 1  
    20   19   20 1  
    21   19   21 1  
    22   21   22 1  
    23   22   23 1  
    24   22   31 1  
    25   23   24 2  
    26   24   25 1  
    27   25   26 ar 
    28   25   31 ar 
    29   26   27 1  
    30   26   28 ar 
    31   28   29 ar 
    32   29   30 ar 
    33   30   31 ar 
    34    8   32 1  
    35   14   33 1  
    36   14   34 1  
    37   15   35 1  
    38   17   36 1  
    39   18   37 1  
    40   19   38 1  
    41   20   39 1  
    42   21   40 1  
    43   23   41 1  
    44   27   42 1  
    45   27   43 1  
    46   29   44 1  
@<TRIPOS>SUBSTRUCTURE
     1 ANP         1

