4kp4_ligand
  -I-interpret- 

 48 50  0  0  0  0  0  0  0  0999 V2000
  -42.1760   36.0430    0.4230 P   0  0  0  0  0
  -41.1080   36.1180   -0.6530 O   0  0  0  0  0
  -42.1260   37.0840    1.5180 O   0  0  0  0  0
  -43.5650   35.9790   -0.1780 O   0  0  0  0  0
  -41.1670   34.2650    2.5050 P   0  0  0  0  0
  -41.0510   32.7840    2.6200 O   0  0  0  0  0
  -41.6800   35.0410    3.7060 O   0  0  0  0  0
  -41.9830   34.5710    1.1290 N   0  0  0  0  0
  -38.5670   35.1980    3.1460 P   0  0  0  0  0
  -38.9210   36.5060    3.7670 O   0  0  0  0  0
  -37.3090   34.9840    2.3230 O   0  0  0  0  0
  -39.7200   34.8170    2.1040 O   0  0  0  0  0
  -38.6450   34.2560    4.4560 O   0  0  0  0  0
  -37.7130   33.1880    4.6310 C   0  0  0  0  0
  -38.1680   32.2120    5.7030 C   0  0  0  0  0
  -37.8140   32.6930    7.0010 O   0  0  0  0  0
  -39.6760   32.0160    5.7530 C   0  0  0  0  0
  -40.1030   31.0330    4.7980 O   0  0  0  0  0
  -39.9080   31.6320    7.2010 C   0  0  0  0  0
  -39.6720   30.2430    7.4310 O   0  0  0  0  0
  -38.8400   32.3850    7.9560 C   0  0  0  0  0
  -39.3340   33.6260    8.5960 N   0  0  0  0  0
  -39.3060   34.8580    8.0470 C   0  0  0  0  0
  -39.7950   35.7700    8.9350 N   0  0  0  0  0
  -40.1280   35.1170   10.0520 C   0  0  0  0  0
  -40.6840   35.4790   11.3570 C   0  0  0  0  0
  -40.9870   36.7660   11.5620 N   0  0  0  0  0
  -40.9160   34.5230   12.3020 N   0  0  0  0  0
  -40.6100   33.2440   12.0200 C   0  0  0  0  0
  -40.0800   32.8530   10.8310 N   0  0  0  0  0
  -39.8260   33.7130    9.8290 C   0  0  0  0  0
  -41.2439   35.4101   -1.2871 H   0  0  0  0  0
  -43.5823   35.3149   -0.8710 H   0  0  0  0  0
  -41.7035   35.9771    3.4944 H   0  0  0  0  0
  -42.4150   33.7742    0.6612 H   0  0  0  0  0
  -37.2773   34.0737    2.0198 H   0  0  0  0  0
  -36.7578   33.6137    4.9384 H   0  0  0  0  0
  -37.6305   32.6473    3.6881 H   0  0  0  0  0
  -37.6781   31.2737    5.4428 H   0  0  0  0  0
  -40.2614   32.8923    5.4746 H   0  0  0  0  0
  -41.0559   30.9297    4.8511 H   0  0  0  0  0
  -40.9342   31.8528    7.4949 H   0  0  0  0  0
  -39.8293   30.0418    8.3564 H   0  0  0  0  0
  -38.4753   31.7663    8.7760 H   0  0  0  0  0
  -38.9465   35.0896    7.0444 H   0  0  0  0  0
  -40.8283   37.4512   10.8233 H   0  0  0  0  0
  -41.3767   37.0619   12.4570 H   0  0  0  0  0
  -40.7957   32.4856   12.7805 H   0  0  0  0  0
  1  2  1  0  0  0
  1  3  2  0  0  0
  1  4  1  0  0  0
  8  1  1  0  0  0
  5  6  2  0  0  0
  5  7  1  0  0  0
  5  8  1  0  0  0
 12  5  1  0  0  0
  9 10  2  0  0  0
  9 11  1  0  0  0
  9 12  1  0  0  0
  9 13  1  0  0  0
 13 14  1  0  0  0
 14 15  1  0  0  0
 15 16  1  0  0  0
 15 17  1  0  0  0
 16 21  1  0  0  0
 17 18  1  0  0  0
 17 19  1  0  0  0
 19 20  1  0  0  0
 19 21  1  0  0  0
 21 22  1  0  0  0
 22 23  4  0  0  0
 22 31  4  0  0  0
 23 24  4  0  0  0
 24 25  4  0  0  0
 25 26  4  0  0  0
 25 31  4  0  0  0
 26 27  1  0  0  0
 26 28  4  0  0  0
 28 29  4  0  0  0
 29 30  4  0  0  0
 30 31  4  0  0  0
  2 32  1  0  0  0
  4 33  1  0  0  0
  7 34  1  0  0  0
  8 35  1  0  0  0
 11 36  1  0  0  0
 14 37  1  0  0  0
 14 38  1  0  0  0
 15 39  1  0  0  0
 17 40  1  0  0  0
 18 41  1  0  0  0
 19 42  1  0  0  0
 20 43  1  0  0  0
 21 44  1  0  0  0
 23 45  1  0  0  0
 27 46  1  0  0  0
 27 47  1  0  0  0
 29 48  1  0  0  0
M  END
$$$$
