4twc_ligand
  -I-interpret- 

 45 48  0  0  0  0  0  0  0  0999 V2000
    9.3220  -13.2930    6.2540 N   0  0  0  0  0
    8.7690  -12.6990    5.1990 C   0  0  0  0  0
   12.0620  -16.0750    5.4260 O   0  0  0  0  0
    5.9290   -9.3020    5.7970 N   0  0  0  0  0
    7.7840  -11.6220    5.4620 C   0  0  0  0  0
    6.0850   -9.0160    3.5760 N   0  0  0  0  0
   11.8670  -15.8330    6.5760 C   0  0  0  0  0
   12.6450  -16.3490    7.7320 C   0  0  0  0  0
    1.8750   -5.6690    6.5770 F   0  0  0  0  0
    3.1390   -5.2250    6.4000 C   0  0  0  0  0
    3.6340   -5.0410    7.6200 F   0  0  0  0  0
    3.0910   -4.0370    5.7780 F   0  0  0  0  0
    3.9620   -6.2410    5.6130 C   0  0  0  0  0
    4.5390   -7.3300    6.2510 C   0  0  0  0  0
    5.2680   -8.2070    5.4620 C   0  0  0  0  0
    6.4100   -9.7670    4.6280 C   0  0  0  0  0
    5.3730   -8.0210    4.1210 C   0  0  0  0  0
    4.7830   -6.9890    3.4720 C   0  0  0  0  0
    4.0770   -6.0680    4.2310 C   0  0  0  0  0
    7.2320  -10.8650    4.4410 N   0  0  0  0  0
    7.5010  -11.3990    6.6220 O   0  0  0  0  0
   10.1780  -14.2320    5.8570 C   0  0  0  0  0
   10.3310  -14.3200    4.2430 S   0  0  0  0  0
    9.2260  -13.1640    3.9800 C   0  0  0  0  0
   10.8680  -14.9520    6.8280 N   0  0  0  0  0
   11.9960  -16.6070    8.9350 C   0  0  0  0  0
   12.7030  -17.0390   10.0310 C   0  0  0  0  0
   14.0770  -17.2350    9.9370 C   0  0  0  0  0
   14.7460  -16.9610    8.7560 C   0  0  0  0  0
   14.0250  -16.5090    7.6550 C   0  0  0  0  0
   14.5960  -16.2290    6.4610 O   0  0  0  0  0
   15.9270  -15.8930    6.2140 C   0  0  0  0  0
   16.2300  -14.8720    7.0080 F   0  0  0  0  0
   15.9830  -15.5580    4.8990 F   0  0  0  0  0
   16.7630  -16.9110    6.4860 F   0  0  0  0  0
    4.4244   -7.4888    7.3233 H   0  0  0  0  0
    4.8605   -6.8859    2.3897 H   0  0  0  0  0
    3.6113   -5.2083    3.7493 H   0  0  0  0  0
    7.4471  -11.1367    3.4817 H   0  0  0  0  0
    8.8972  -12.8111    3.0025 H   0  0  0  0  0
   10.6021  -14.8058    7.8018 H   0  0  0  0  0
   10.9178  -16.4653    9.0088 H   0  0  0  0  0
   12.1880  -17.2279   10.9729 H   0  0  0  0  0
   14.6309  -17.6069   10.7990 H   0  0  0  0  0
   15.8253  -17.0978    8.6895 H   0  0  0  0  0
  1  2  4  0  0  0
 22  1  4  0  0  0
  2  5  1  0  0  0
  2 24  4  0  0  0
  7  3  2  0  0  0
  4 15  4  0  0  0
 16  4  4  0  0  0
  5 20  1  0  0  0
  5 21  2  0  0  0
 16  6  4  0  0  0
  6 17  4  0  0  0
  7  8  1  0  0  0
 25  7  1  0  0  0
  8 26  4  0  0  0
  8 30  4  0  0  0
 10  9  1  0  0  0
 10 11  1  0  0  0
 10 12  1  0  0  0
 13 10  1  0  0  0
 14 13  4  0  0  0
 19 13  4  0  0  0
 15 14  4  0  0  0
 17 15  4  0  0  0
 20 16  1  0  0  0
 17 18  4  0  0  0
 18 19  4  0  0  0
 22 23  4  0  0  0
 22 25  1  0  0  0
 23 24  4  0  0  0
 26 27  4  0  0  0
 27 28  4  0  0  0
 28 29  4  0  0  0
 29 30  4  0  0  0
 30 31  1  0  0  0
 31 32  1  0  0  0
 32 33  1  0  0  0
 32 34  1  0  0  0
 32 35  1  0  0  0
 14 36  1  0  0  0
 18 37  1  0  0  0
 19 38  1  0  0  0
 20 39  1  0  0  0
 24 40  1  0  0  0
 25 41  1  0  0  0
 26 42  1  0  0  0
 27 43  1  0  0  0
 28 44  1  0  0  0
 29 45  1  0  0  0
M  END
$$$$
