6r9x_ligand
  -I-interpret- 

 35 36  0  0  0  0  0  0  0  0999 V2000
    4.9960   19.9120   18.8110 C   0  0  0  0  0
    7.2620   20.8210   18.9990 C   0  0  0  0  0
    8.5790   20.5230   18.2740 C   0  0  0  0  0
    9.0270   21.8680   17.6800 C   0  0  0  0  0
    7.7470   22.7200   17.5560 C   0  0  0  0  0
    6.9960   22.3320   18.8400 C   0  0  0  0  0
    1.6830   18.2960   17.9140 C   0  0  0  0  0
    1.3540   15.8870   20.8290 C   0  0  0  0  0
    0.0580   15.4190   20.5960 C   0  0  0  0  0
   -0.6480   15.9030   19.4940 C   0  0  0  0  0
    4.6910   20.4260   19.8750 O   0  0  0  0  0
    6.2360   20.0440   18.3050 N   0  0  0  0  0
    4.0010   19.1140   18.0430 C   0  0  0  0  0
    4.3080   18.5440   16.9990 O   0  0  0  0  0
    2.7590   19.0550   18.5540 N   0  0  0  0  0
    1.1280   17.2800   18.8810 C   0  0  0  0  0
    1.9040   16.8260   19.9550 C   0  0  0  0  0
   -0.1080   16.8150   18.6940 N   0  0  0  0  0
    7.2769   20.5651   20.0584 H   0  0  0  0  0
    8.4493   19.7658   17.5008 H   0  0  0  0  0
    9.3276   20.1145   18.9528 H   0  0  0  0  0
    9.5088   21.7330   16.7116 H   0  0  0  0  0
    9.7674   22.3548   18.3148 H   0  0  0  0  0
    7.1813   22.5280   16.6443 H   0  0  0  0  0
    7.9408   23.7892   17.4697 H   0  0  0  0  0
    7.3404   22.9012   19.7034 H   0  0  0  0  0
    5.9311   22.5554   18.7747 H   0  0  0  0  0
    2.0773   17.7813   17.0378 H   0  0  0  0  0
    0.8886   18.9798   17.6149 H   0  0  0  0  0
    1.9276   15.5237   21.6817 H   0  0  0  0  0
   -0.3945   14.6870   21.2650 H   0  0  0  0  0
   -1.6511   15.5294   19.2881 H   0  0  0  0  0
    6.4648   19.5928   17.4193 H   0  0  0  0  0
    2.5590   19.5572   19.4190 H   0  0  0  0  0
    2.9173   17.1986   20.1053 H   0  0  0  0  0
  1 11  2  0  0  0
  1 12  1  0  0  0
 13  1  1  0  0  0
  2  3  1  0  0  0
  2  6  1  0  0  0
 12  2  1  0  0  0
  3  4  1  0  0  0
  5  4  1  0  0  0
  6  5  1  0  0  0
  7 15  1  0  0  0
 16  7  1  0  0  0
  8  9  4  0  0  0
 17  8  4  0  0  0
  9 10  4  0  0  0
 10 18  4  0  0  0
 13 14  2  0  0  0
 15 13  1  0  0  0
 16 17  4  0  0  0
 16 18  4  0  0  0
  2 19  1  0  0  0
  3 20  1  0  0  0
  3 21  1  0  0  0
  4 22  1  0  0  0
  4 23  1  0  0  0
  5 24  1  0  0  0
  5 25  1  0  0  0
  6 26  1  0  0  0
  6 27  1  0  0  0
  7 28  1  0  0  0
  7 29  1  0  0  0
  8 30  1  0  0  0
  9 31  1  0  0  0
 10 32  1  0  0  0
 12 33  1  0  0  0
 15 34  1  0  0  0
 17 35  1  0  0  0
M  END
$$$$
