1dm2_ligand
  -I-interpret- 

 28 30  0  0  0  0  0  0  0  0999 V2000
   23.1200   26.8710   28.1360 Br  0  0  0  0  0
   25.1840   31.3200   30.2860 O   0  0  0  0  0
   30.5370   29.9590   25.4670 O   0  0  0  0  0
   24.5420   29.1570   28.7920 N   0  0  0  0  0
   26.7440   32.0690   28.7860 N   0  0  0  0  0
   29.8580   28.1070   24.2840 N   0  0  0  0  0
   27.9500   27.6500   25.3760 N   0  0  0  0  0
   28.5480   26.2710   23.6020 N   0  0  0  0  0
   24.5650   28.0270   28.0820 C   0  0  0  0  0
   25.7290   27.9080   27.3810 C   0  0  0  0  0
   26.4900   29.0720   27.6720 C   0  0  0  0  0
   25.6920   29.8330   28.5810 C   0  0  0  0  0
   25.8600   31.1210   29.2680 C   0  0  0  0  0
   27.6150   31.9880   27.6010 C   0  0  0  0  0
   28.5210   30.7700   27.6000 C   0  0  0  0  0
   27.8380   29.5180   27.0570 C   0  0  0  0  0
   28.4320   28.8050   26.0100 C   0  0  0  0  0
   29.7250   29.0460   25.2510 C   0  0  0  0  0
   28.7890   27.3080   24.3810 C   0  0  0  0  0
   26.8001   32.9362   29.3200 H   0  0  0  0  0
   29.2029   26.0285   22.8585 H   0  0  0  0  0
   27.7068   25.7117   23.7432 H   0  0  0  0  0
   26.0177   27.0844   26.7280 H   0  0  0  0  0
   28.2530   32.8718   27.6015 H   0  0  0  0  0
   26.9710   31.9189   26.7243 H   0  0  0  0  0
   28.8087   30.5697   28.6321 H   0  0  0  0  0
   29.3717   30.9899   26.9550 H   0  0  0  0  0
   27.7932   28.4540   26.8246 H   0  0  0  0  0
  1  9  1  0  0  0
  9  4  4  0  0  0
  9 10  4  0  0  0
 10 11  4  0  0  0
 11 16  1  0  0  0
 11 12  4  0  0  0
 12  4  4  0  0  0
 12 13  1  0  0  0
 13  2  2  0  0  0
 13  5  1  0  0  0
  5 14  1  0  0  0
 14 15  1  0  0  0
 15 16  1  0  0  0
 16 17  1  0  0  0
 17  7  2  0  0  0
 17 18  1  0  0  0
 18  3  2  0  0  0
 18  6  1  0  0  0
  6 19  2  0  0  0
 19  7  1  0  0  0
 19  8  1  0  0  0
  5 20  1  0  0  0
  8 21  1  0  0  0
  8 22  1  0  0  0
 10 23  1  0  0  0
 14 24  1  0  0  0
 14 25  1  0  0  0
 15 26  1  0  0  0
 15 27  1  0  0  0
 16 28  1  0  0  0
M  END
$$$$
