3rjm_ligand
  -I-interpret- 

 89 89  0  0  0  0  0  0  0  0999 V2000
   -3.2040  -19.1050   31.5750 C   0  0  0  0  0
   -4.2420  -19.5790   32.0350 O   0  0  0  0  0
   -2.5280  -19.7670   30.4130 C   0  0  0  0  0
   -2.8100  -17.8550   31.8310 N   0  0  0  0  0
   -3.3330  -17.0660   32.9570 C   0  0  0  0  0
   -3.8520  -15.6840   32.4880 C   0  0  0  0  0
   -3.4610  -15.1860   31.4180 O   0  0  0  0  0
   -2.2800  -16.9080   34.1060 C   0  0  0  0  0
   -1.5630  -18.2150   34.3410 C   0  0  0  0  0
   -1.2830  -15.7980   33.8100 C   0  0  0  0  0
   -4.7380  -15.0790   33.2830 N   0  0  0  0  0
   -5.3970  -13.8470   32.8850 C   0  0  0  0  0
   -4.7120  -12.6480   33.5680 C   0  0  0  0  0
   -4.4510  -12.6600   34.7750 O   0  0  0  0  0
   -6.9020  -13.9310   33.1710 C   0  0  0  0  0
   -7.6300  -14.9260   32.2390 C   0  0  0  0  0
   -7.3610  -14.9060   31.0240 O   0  0  0  0  0
   -8.4870  -15.7200   32.6980 O   0  0  0  0  0
   -4.3910  -11.6310   32.7670 N   0  0  0  0  0
   -3.6930  -10.4420   33.2410 C   0  0  0  0  0
   -4.4550   -9.1870   32.7740 C   0  0  0  0  0
   -5.1810   -9.2260   31.7720 O   0  0  0  0  0
   -2.1920  -10.3960   32.7510 C   0  0  0  0  0
   -1.3460  -11.5110   33.3970 C   0  0  0  0  0
   -2.0910  -10.4670   31.2320 C   0  0  0  0  0
   -4.4430   -6.0960   31.9890 C   0  0  0  0  0
   -4.3140   -8.0740   33.5160 N   0  0  0  0  0
   -3.2380   -6.0910   31.7290 O   0  0  0  0  0
   -4.9500   -6.7830   33.2250 C   0  0  0  0  0
   -4.6760   -5.8970   34.4360 C   0  0  0  0  0
   -3.6590   -7.9770   34.8430 C   0  0  0  0  0
   -3.4650   -6.4970   35.1070 C   0  0  0  0  0
   -5.8150   -5.9880   35.2870 O   0  0  0  0  0
   -5.7850   -5.1390   36.4430 C   0  0  0  0  0
   -5.6900   -3.6660   36.0390 C   0  0  0  0  0
   -7.0240   -5.4150   37.2950 C   0  0  0  0  0
   -5.1440   -3.1540   30.3510 C   0  0  0  0  0
   -5.3650   -5.4820   31.2450 N   0  0  0  0  0
   -4.3610   -2.3700   29.8430 O   0  0  0  0  0
   -5.0450   -4.6510   30.0690 C   0  0  0  0  0
   -5.9940   -4.9910   28.9040 C   0  0  0  0  0
   -5.2550   -5.3580   27.6290 C   0  0  0  0  0
   -4.0250   -5.5540   27.6850 O   0  0  0  0  0
   -5.9060   -5.4610   26.5670 O   0  0  0  0  0
   -2.2545  -20.7862   30.6859 H   0  0  0  0  0
   -3.2086  -19.7876   29.5619 H   0  0  0  0  0
   -1.6309  -19.2070   30.1490 H   0  0  0  0  0
   -2.1152  -17.4281   31.2183 H   0  0  0  0  0
   -4.1769  -17.6224   33.3648 H   0  0  0  0  0
   -2.8178  -16.6297   35.0123 H   0  0  0  0  0
   -0.9919  -18.4797   33.4512 H   0  0  0  0  0
   -0.8875  -18.1098   35.1899 H   0  0  0  0  0
   -2.2936  -18.9961   34.5510 H   0  0  0  0  0
   -0.6064  -15.6837   34.6569 H   0  0  0  0  0
   -0.7108  -16.0536   32.9182 H   0  0  0  0  0
   -1.8198  -14.8641   33.6435 H   0  0  0  0  0
   -4.9570  -15.4911   34.1900 H   0  0  0  0  0
   -5.2986  -13.6988   31.8096 H   0  0  0  0  0
   -7.3303  -12.9423   33.0060 H   0  0  0  0  0
   -7.0295  -14.2776   34.1965 H   0  0  0  0  0
   -8.5618  -15.5948   33.6469 H   0  0  0  0  0
   -4.6447  -11.6875   31.7807 H   0  0  0  0  0
   -3.6662  -10.4747   34.3302 H   0  0  0  0  0
   -1.7892   -9.4355   33.0725 H   0  0  0  0  0
   -1.3573  -11.3924   34.4805 H   0  0  0  0  0
   -1.7640  -12.4822   33.1322 H   0  0  0  0  0
   -0.3206  -11.4441   33.0336 H   0  0  0  0  0
   -2.5377  -11.3978   30.8826 H   0  0  0  0  0
   -2.6210   -9.6213   30.7940 H   0  0  0  0  0
   -1.0423  -10.4325   30.9369 H   0  0  0  0  0
   -6.0088   -6.9601   33.0363 H   0  0  0  0  0
   -4.4988   -4.8507   34.1870 H   0  0  0  0  0
   -2.7069   -8.5075   34.8527 H   0  0  0  0  0
   -4.2692   -8.4394   35.6188 H   0  0  0  0  0
   -3.3939   -6.2534   36.1670 H   0  0  0  0  0
   -2.5218   -6.1098   34.7215 H   0  0  0  0  0
   -4.8965   -5.3587   37.0349 H   0  0  0  0  0
   -4.7781   -3.5065   35.4635 H   0  0  0  0  0
   -6.5554   -3.4006   35.4318 H   0  0  0  0  0
   -5.6690   -3.0455   36.9349 H   0  0  0  0  0
   -7.9196   -5.2081   36.7092 H   0  0  0  0  0
   -7.0246   -6.4599   37.6053 H   0  0  0  0  0
   -7.0081   -4.7731   38.1758 H   0  0  0  0  0
   -5.9244   -2.7816   31.0147 H   0  0  0  0  0
   -6.3453   -5.5935   31.5038 H   0  0  0  0  0
   -4.0110   -4.8774   29.8090 H   0  0  0  0  0
   -6.5974   -4.1072   28.6969 H   0  0  0  0  0
   -6.5924   -5.8519   29.2020 H   0  0  0  0  0
   -6.8308   -5.2705   26.7402 H   0  0  0  0  0
  1  2  2  0  0  0
  1  3  1  0  0  0
  4  1  1  0  0  0
  5  4  1  0  0  0
  6  5  1  0  0  0
  5  8  1  0  0  0
  6  7  2  0  0  0
 11  6  1  0  0  0
  8  9  1  0  0  0
  8 10  1  0  0  0
 12 11  1  0  0  0
 13 12  1  0  0  0
 12 15  1  0  0  0
 13 14  2  0  0  0
 19 13  1  0  0  0
 15 16  1  0  0  0
 16 17  2  0  0  0
 16 18  1  0  0  0
 20 19  1  0  0  0
 21 20  1  0  0  0
 20 23  1  0  0  0
 21 22  2  0  0  0
 27 21  1  0  0  0
 23 24  1  0  0  0
 23 25  1  0  0  0
 26 28  2  0  0  0
 26 29  1  0  0  0
 38 26  1  0  0  0
 29 27  1  0  0  0
 27 31  1  0  0  0
 29 30  1  0  0  0
 30 32  1  0  0  0
 30 33  1  0  0  0
 32 31  1  0  0  0
 33 34  1  0  0  0
 34 35  1  0  0  0
 34 36  1  0  0  0
 37 39  2  0  0  0
 40 37  1  0  0  0
 38 40  1  0  0  0
 40 41  1  0  0  0
 41 42  1  0  0  0
 42 43  2  0  0  0
 42 44  1  0  0  0
  3 45  1  0  0  0
  3 46  1  0  0  0
  3 47  1  0  0  0
  4 48  1  0  0  0
  5 49  1  0  0  0
  8 50  1  0  0  0
  9 51  1  0  0  0
  9 52  1  0  0  0
  9 53  1  0  0  0
 10 54  1  0  0  0
 10 55  1  0  0  0
 10 56  1  0  0  0
 11 57  1  0  0  0
 12 58  1  0  0  0
 15 59  1  0  0  0
 15 60  1  0  0  0
 18 61  1  0  0  0
 19 62  1  0  0  0
 20 63  1  0  0  0
 23 64  1  0  0  0
 24 65  1  0  0  0
 24 66  1  0  0  0
 24 67  1  0  0  0
 25 68  1  0  0  0
 25 69  1  0  0  0
 25 70  1  0  0  0
 29 71  1  0  0  0
 30 72  1  0  0  0
 31 73  1  0  0  0
 31 74  1  0  0  0
 32 75  1  0  0  0
 32 76  1  0  0  0
 34 77  1  0  0  0
 35 78  1  0  0  0
 35 79  1  0  0  0
 35 80  1  0  0  0
 36 81  1  0  0  0
 36 82  1  0  0  0
 36 83  1  0  0  0
 37 84  1  0  0  0
 38 85  1  0  0  0
 40 86  1  0  0  0
 41 87  1  0  0  0
 41 88  1  0  0  0
 44 89  1  0  0  0
M  END
$$$$
