3kgt_ligand
  -I-interpret- 

 30 32  0  0  0  0  0  0  0  0999 V2000
   22.4240   43.0910   34.7660 C   0  0  0  0  0
   21.5470   42.4820   33.9050 C   0  0  0  0  0
   21.7170   42.6070   32.5550 O   0  0  0  0  0
   20.4680   41.7390   34.3690 C   0  0  0  0  0
   20.2770   41.6050   35.7370 C   0  0  0  0  0
   19.2250   40.8720   36.1970 O   0  0  0  0  0
   21.1630   42.2170   36.6210 C   0  0  0  0  0
   20.9920   42.0920   37.9940 C   0  0  0  0  0
   20.0550   41.4500   38.4620 O   0  0  0  0  0
   21.9050   42.6970   38.8370 C   0  0  0  0  0
   22.9490   43.4200   38.2900 C   0  0  0  0  0
   23.1280   43.5710   36.9490 O   0  0  0  0  0
   22.2350   42.9560   36.1300 C   0  0  0  0  0
   21.7980   42.6130   40.2200 C   0  0  0  0  0
   21.8070   41.3820   40.8630 C   0  0  0  0  0
   21.7050   41.3300   42.2470 C   0  0  0  0  0
   21.6040   42.4930   42.9980 C   0  0  0  0  0
   21.5060   42.4340   44.3550 O   0  0  0  0  0
   21.6020   43.7180   42.3480 C   0  0  0  0  0
   21.6990   43.7810   40.9660 C   0  0  0  0  0
   23.2600   43.6744   34.3802 H   0  0  0  0  0
   21.0231   42.1241   32.1002 H   0  0  0  0  0
   19.7803   41.2674   33.6671 H   0  0  0  0  0
   19.2299   40.8748   37.1570 H   0  0  0  0  0
   23.6630   43.8918   38.9650 H   0  0  0  0  0
   21.8936   40.4621   40.2847 H   0  0  0  0  0
   21.7042   40.3631   42.7502 H   0  0  0  0  0
   21.4450   43.3241   44.7093 H   0  0  0  0  0
   21.5236   44.6379   42.9274 H   0  0  0  0  0
   21.6976   44.7486   40.4641 H   0  0  0  0  0
  1  2  4  0  0  0
  1 13  4  0  0  0
  2  3  1  0  0  0
  2  4  4  0  0  0
  4  5  4  0  0  0
  5  6  1  0  0  0
  5  7  4  0  0  0
  7  8  1  0  0  0
  7 13  4  0  0  0
  8  9  2  0  0  0
  8 10  1  0  0  0
 10 11  2  0  0  0
 10 14  1  0  0  0
 11 12  1  0  0  0
 12 13  1  0  0  0
 14 15  4  0  0  0
 14 20  4  0  0  0
 15 16  4  0  0  0
 16 17  4  0  0  0
 17 18  1  0  0  0
 17 19  4  0  0  0
 19 20  4  0  0  0
  1 21  1  0  0  0
  3 22  1  0  0  0
  4 23  1  0  0  0
  6 24  1  0  0  0
 11 25  1  0  0  0
 15 26  1  0  0  0
 16 27  1  0  0  0
 18 28  1  0  0  0
 19 29  1  0  0  0
 20 30  1  0  0  0
M  END
$$$$
