2vo7_ligand
  -I-interpret- 

 44 47  0  0  0  0  0  0  0  0999 V2000
   -6.8090   -8.3940   -8.2000 N   0  0  0  0  0
   -8.0300   -8.8050   -7.4940 C   0  0  0  0  0
  -10.2160   -7.1850   -9.1930 C   0  0  0  0  0
   -9.3830   -8.4080   -9.6390 C   0  0  0  0  0
  -10.0730   -9.2030  -10.7130 N   0  3  0  0  0
   -7.1240   -7.3290   -9.1570 C   0  0  0  0  0
  -11.5230   -7.4600   -8.4960 C   0  0  0  0  0
  -12.5540   -8.1380   -9.1480 C   0  0  0  0  0
  -13.7510   -8.3720   -8.5030 C   0  0  0  0  0
  -13.9420   -7.9130   -7.2090 C   0  0  0  0  0
  -15.4510   -8.1970   -6.4020 Cl  0  0  0  0  0
  -12.9280   -7.2230   -6.5610 C   0  0  0  0  0
  -11.7290   -6.9940   -7.2010 C   0  0  0  0  0
   -5.6360   -9.1770   -8.3300 C   0  0  0  0  0
   -5.7040  -10.4630   -7.9200 N   0  0  0  0  0
   -4.6020  -11.2180   -8.0320 C   0  0  0  0  0
   -3.3900  -10.8700   -8.4690 N   0  0  0  0  0
   -3.3460   -9.5690   -8.8440 C   0  0  0  0  0
   -2.2580   -8.8920   -9.3220 N   0  0  0  0  0
   -2.6080   -7.6060   -9.5710 C   0  0  0  0  0
   -3.9280   -7.4410   -9.2500 C   0  0  0  0  0
   -9.0580   -9.3560   -8.4710 C   0  0  0  0  0
   -8.0710   -7.8590  -10.2180 C   0  0  0  0  0
   -4.4100   -8.6710   -8.7890 C   0  0  0  0  0
   -8.4540   -7.9368   -6.9895 H   0  0  0  0  0
   -7.7755   -9.5834   -6.7747 H   0  0  0  0  0
  -10.4748   -6.6532  -10.1086 H   0  0  0  0  0
   -9.5990   -6.6553   -8.4671 H   0  0  0  0  0
  -10.2968   -8.5903  -11.4972 H   0  0  0  0  0
   -9.4563   -9.9512  -11.0298 H   0  0  0  0  0
  -10.9322   -9.6048  -10.3380 H   0  0  0  0  0
   -6.2047   -6.9861   -9.6317 H   0  0  0  0  0
   -7.5974   -6.4995   -8.6318 H   0  0  0  0  0
  -12.4129   -8.4844  -10.1718 H   0  0  0  0  0
  -14.5463   -8.9177   -9.0108 H   0  0  0  0  0
  -13.0797   -6.8613   -5.5440 H   0  0  0  0  0
  -10.9380   -6.4450   -6.6901 H   0  0  0  0  0
   -4.7107  -12.2580   -7.7242 H   0  0  0  0  0
   -1.9476   -6.8320   -9.9620 H   0  0  0  0  0
   -4.5007   -6.5177   -9.3377 H   0  0  0  0  0
   -9.9821   -9.5116   -7.9143 H   0  0  0  0  0
   -8.6402  -10.2666   -8.9004 H   0  0  0  0  0
   -8.3234   -7.0299  -10.8791 H   0  0  0  0  0
   -7.5675   -8.6790  -10.7299 H   0  0  0  0  0
  2  1  1  0  0  0
  1  6  1  0  0  0
  1 14  1  0  0  0
 22  2  1  0  0  0
  4  3  1  0  0  0
  3  7  1  0  0  0
  4  5  1  0  0  0
  4 22  1  0  0  0
  4 23  1  0  0  0
  6 23  1  0  0  0
  7  8  4  0  0  0
  7 13  4  0  0  0
  8  9  4  0  0  0
  9 10  4  0  0  0
 10 11  1  0  0  0
 10 12  4  0  0  0
 12 13  4  0  0  0
 14 15  4  0  0  0
 14 24  4  0  0  0
 15 16  4  0  0  0
 16 17  4  0  0  0
 17 18  4  0  0  0
 18 19  4  0  0  0
 18 24  4  0  0  0
 19 20  4  0  0  0
 20 21  4  0  0  0
 21 24  4  0  0  0
  2 25  1  0  0  0
  2 26  1  0  0  0
  3 27  1  0  0  0
  3 28  1  0  0  0
  5 29  1  0  0  0
  5 30  1  0  0  0
  5 31  1  0  0  0
  6 32  1  0  0  0
  6 33  1  0  0  0
  8 34  1  0  0  0
  9 35  1  0  0  0
 12 36  1  0  0  0
 13 37  1  0  0  0
 16 38  1  0  0  0
 20 39  1  0  0  0
 21 40  1  0  0  0
 22 41  1  0  0  0
 22 42  1  0  0  0
 23 43  1  0  0  0
 23 44  1  0  0  0
M  END
$$$$
