4um3_ligand
  -I-interpret- 

 29 30  0  0  0  0  0  0  0  0999 V2000
  -53.2170   64.4710  -26.4310 C   0  0  0  0  0
  -51.9880   65.1380  -26.6820 C   0  0  0  0  0
  -51.4290   65.8550  -25.5760 C   0  0  0  0  0
  -52.1590   65.9310  -24.3850 C   0  0  0  0  0
  -53.3460   65.1810  -24.2330 C   0  0  0  0  0
  -53.8810   64.4810  -25.2660 N   0  0  0  0  0
  -54.2300   65.1400  -22.7390 Br  0  0  0  0  0
  -51.4640   65.1200  -27.9650 N   0  0  0  0  0
  -51.7540   64.0150  -28.8900 C   0  0  0  0  0
  -50.5130   63.6100  -29.6860 C   0  0  0  0  0
  -49.4280   63.2350  -28.7770 N   0  3  0  0  0
  -48.4230   64.2840  -28.4340 C   0  0  0  0  0
  -48.9330   65.6480  -27.8910 C   0  0  0  0  0
  -50.3630   66.0310  -28.3440 C   0  0  0  0  0
  -53.6561   63.9049  -27.2525 H   0  0  0  0  0
  -50.4529   66.3327  -25.6603 H   0  0  0  0  0
  -51.8112   66.5699  -23.5733 H   0  0  0  0  0
  -52.5215   64.3438  -29.5907 H   0  0  0  0  0
  -52.0863   63.1556  -28.3077 H   0  0  0  0  0
  -50.1907   64.4531  -30.2970 H   0  0  0  0  0
  -50.7583   62.7573  -30.3191 H   0  0  0  0  0
  -48.9068   62.5025  -29.2589 H   0  0  0  0  0
  -49.8801   62.9894  -27.8963 H   0  0  0  0  0
  -47.9239   64.5195  -29.3740 H   0  0  0  0  0
  -47.8305   63.8579  -27.6244 H   0  0  0  0  0
  -48.2617   66.4145  -28.2781 H   0  0  0  0  0
  -48.9552   65.5684  -26.8041 H   0  0  0  0  0
  -50.5832   66.9787  -27.8527 H   0  0  0  0  0
  -50.3379   66.0246  -29.4337 H   0  0  0  0  0
  1  2  4  0  0  0
  1  6  4  0  0  0
  2  3  4  0  0  0
  2  8  1  0  0  0
  3  4  4  0  0  0
  4  5  4  0  0  0
  5  6  4  0  0  0
  5  7  1  0  0  0
  8  9  1  0  0  0
  8 14  1  0  0  0
  9 10  1  0  0  0
 10 11  1  0  0  0
 11 12  1  0  0  0
 12 13  1  0  0  0
 13 14  1  0  0  0
  1 15  1  0  0  0
  3 16  1  0  0  0
  4 17  1  0  0  0
  9 18  1  0  0  0
  9 19  1  0  0  0
 10 20  1  0  0  0
 10 21  1  0  0  0
 11 22  1  0  0  0
 11 23  1  0  0  0
 12 24  1  0  0  0
 12 25  1  0  0  0
 13 26  1  0  0  0
 13 27  1  0  0  0
 14 28  1  0  0  0
 14 29  1  0  0  0
M  END
$$$$
