### 
### Created by X-TOOL on Mon Sep 10 21:12:57 2018
### 

@<TRIPOS>MOLECULE
3bi1_ligand
   70    72     1     0     0
SMALL
GAST_HUCK


@<TRIPOS>ATOM
      1 N1         34.2870   47.8420   41.9620 N.pl3     1 3BI        -0.3051
      2 C2         30.8330   50.0980   42.0170 C.ar      1 3BI         0.1326
      3 N3         32.3270   52.0560   42.3300 N.pl3     1 3BI        -0.3052
      4 C4         28.3790   48.8650   41.7450 C.ar      1 3BI         0.0478
      5 N5         29.4890   48.0690   41.7160 N.ar      1 3BI        -0.2649
      6 C6         27.3250   51.2900   41.9690 C.3       1 3BI         0.0825
      7 C7         26.2570   50.4800   39.9740 C.3       1 3BI         0.0191
      8 C9         24.0100   49.8790   44.2200 C.ar      1 3BI        -0.0535
      9 C11        25.1340   50.2800   42.1130 C.ar      1 3BI         0.0476
     10 C12        24.4920   49.1620   41.5850 C.ar      1 3BI        -0.0379
     11 C13        23.6220   48.3990   42.3640 C.ar      1 3BI        -0.0535
     12 C14        22.5150   47.8310   44.4990 C.2       1 3BI         0.1968
     13 C15        20.8340   46.1060   44.8200 C.3       1 3BI         0.0951
     14 C16        20.3330   46.5440   46.1740 C.2       1 3BI         0.0601
     15 C          33.1390   48.5660   41.9850 C.ar      1 3BI         0.1670
     16 O          22.8960   47.6840   45.7910 O.2       1 3BI        -0.3908
     17 N          31.9080   47.9280   41.8470 N.ar      1 3BI        -0.2668
     18 O1         20.2930   45.8210   47.2240 O.co2     1 3BI        -0.5666
     19 O2         19.8940   47.6670   46.1770 O.co2     1 3BI        -0.5666
     20 O8         18.2180   42.9710   42.8430 O.co2     1 3BI        -0.6189
     21 P          17.5280   43.9150   43.8490 P.3       1 3BI        -0.0139
     22 O7         16.6730   42.9150   44.8820 O.co2     1 3BI        -0.6189
     23 C19        16.3960   44.9670   43.0390 C.3       1 3BI         0.0278
     24 C20        15.9190   44.5150   41.6250 C.3       1 3BI         0.0291
     25 C24        17.0740   44.5710   40.5990 C.2       1 3BI         0.0395
     26 O6         17.9560   45.4590   40.6960 O.co2     1 3BI        -0.5687
     27 O5         17.0570   43.7570   39.6210 O.co2     1 3BI        -0.5687
     28 C21        14.6710   45.2830   41.1080 C.3       1 3BI        -0.0256
     29 C22        14.9460   46.7600   41.0570 C.3       1 3BI         0.0020
     30 C23        13.8150   47.5440   40.3990 C.2       1 3BI         0.0349
     31 O4         13.0670   46.9940   39.5250 O.co2     1 3BI        -0.5690
     32 O3         13.7220   48.7800   40.6690 O.co2     1 3BI        -0.5690
     33 C18        18.6980   44.8480   44.7160 C.3       1 3BI         0.0172
     34 C17        19.6740   45.6400   43.8960 C.3       1 3BI        -0.0021
     35 N7         21.5870   47.0920   44.0150 N.am      1 3BI        -0.2726
     36 C8         23.3700   48.7530   43.6730 C.ar      1 3BI         0.0362
     37 C10        24.8670   50.6570   43.4350 C.ar      1 3BI        -0.0379
     38 N6         26.0160   51.0620   41.2970 N.pl3     1 3BI        -0.2945
     39 C3         28.4810   50.2750   41.8950 C.ar      1 3BI         0.0826
     40 N4         29.7150   50.8320   42.0270 N.ar      1 3BI        -0.2616
     41 C5         30.7240   48.6210   41.8570 C.ar      1 3BI         0.1183
     42 C1         32.1900   50.7110   42.1700 C.ar      1 3BI         0.1540
     43 N2         33.2730   49.9070   42.1530 N.ar      1 3BI        -0.2298
     44 H1         34.2491   46.8202   41.8376 H         1 3BI         0.1844
     45 H2         35.1960   48.3144   42.0690 H         1 3BI         0.1844
     46 H3         33.2646   52.4693   42.4346 H         1 3BI         0.1886
     47 H4         31.4930   52.6603   42.3465 H         1 3BI         0.1886
     48 H5         27.3989   48.4114   41.6516 H         1 3BI         0.0952
     49 H6         27.1010   51.4204   43.0380 H         1 3BI         0.0719
     50 H7         27.7188   52.2318   41.5593 H         1 3BI         0.0719
     51 H8         25.2953   50.3075   39.4686 H         1 3BI         0.0482
     52 H9         26.7893   49.5239   40.0854 H         1 3BI         0.0482
     53 H10        26.8672   51.1717   39.3747 H         1 3BI         0.0482
     54 H11        23.8381   50.1458   45.2565 H         1 3BI         0.0636
     55 H12        24.6712   48.8808   40.5535 H         1 3BI         0.0530
     56 H13        23.1423   47.5247   41.9390 H         1 3BI         0.0636
     57 H14        21.5019   45.2515   45.0035 H         1 3BI         0.0726
     58 H15        16.8726   45.9526   42.9321 H         1 3BI         0.0486
     59 H16        15.5061   45.0575   43.6792 H         1 3BI         0.0486
     60 H17        15.6211   43.4602   41.7178 H         1 3BI         0.0482
     61 H18        13.8244   45.0956   41.7849 H         1 3BI         0.0304
     62 H19        14.4191   44.9266   40.0983 H         1 3BI         0.0304
     63 H20        15.8702   46.9269   40.4843 H         1 3BI         0.0432
     64 H21        15.0796   47.1294   42.0845 H         1 3BI         0.0432
     65 H22        19.2767   44.1552   45.3446 H         1 3BI         0.0467
     66 H23        18.1511   45.5551   45.3570 H         1 3BI         0.0467
     67 H24        20.0742   45.0114   43.0869 H         1 3BI         0.0321
     68 H25        19.1694   46.5166   43.4638 H         1 3BI         0.0321
     69 H26        21.3608   47.1865   43.0455 H         1 3BI         0.1864
     70 H27        25.3232   51.5491   43.8486 H         1 3BI         0.0530
@<TRIPOS>BOND
     1   15    1 1  
     2    2   40 ar 
     3   41    2 ar 
     4    2   42 ar 
     5   42    3 1  
     6    4    5 ar 
     7   39    4 ar 
     8    5   41 ar 
     9   38    6 1  
    10    6   39 1  
    11   38    7 1  
    12   36    8 ar 
    13    8   37 ar 
    14   10    9 ar 
    15   37    9 ar 
    16    9   38 1  
    17   11   10 ar 
    18   36   11 ar 
    19   12   16 2  
    20   35   12 am 
    21   12   36 1  
    22   13   14 1  
    23   34   13 1  
    24   13   35 1  
    25   14   18 ar 
    26   14   19 ar 
    27   17   15 ar 
    28   15   43 ar 
    29   41   17 ar 
    30   21   20 ar 
    31   21   22 ar 
    32   21   23 1  
    33   33   21 1  
    34   23   24 1  
    35   24   25 1  
    36   24   28 1  
    37   25   26 ar 
    38   25   27 ar 
    39   28   29 1  
    40   29   30 1  
    41   30   31 ar 
    42   30   32 ar 
    43   33   34 1  
    44   39   40 ar 
    45   42   43 ar 
    46    1   44 1  
    47    1   45 1  
    48    3   46 1  
    49    3   47 1  
    50    4   48 1  
    51    6   49 1  
    52    6   50 1  
    53    7   51 1  
    54    7   52 1  
    55    7   53 1  
    56    8   54 1  
    57   10   55 1  
    58   11   56 1  
    59   13   57 1  
    60   23   58 1  
    61   23   59 1  
    62   24   60 1  
    63   28   61 1  
    64   28   62 1  
    65   29   63 1  
    66   29   64 1  
    67   33   65 1  
    68   33   66 1  
    69   34   67 1  
    70   34   68 1  
    71   35   69 1  
    72   37   70 1  
@<TRIPOS>SUBSTRUCTURE
     1 3BI         1

