3bi1_ligand
  -I-interpret- 

 74 76  0  0  0  0  0  0  0  0999 V2000
   34.2870   47.8420   41.9620 N   0  0  0  0  0
   30.8330   50.0980   42.0170 C   0  0  0  0  0
   32.3270   52.0560   42.3300 N   0  0  0  0  0
   28.3790   48.8650   41.7450 C   0  0  0  0  0
   29.4890   48.0690   41.7160 N   0  0  0  0  0
   27.3250   51.2900   41.9690 C   0  0  0  0  0
   26.2570   50.4800   39.9740 C   0  0  0  0  0
   24.0100   49.8790   44.2200 C   0  0  0  0  0
   25.1340   50.2800   42.1130 C   0  0  0  0  0
   24.4920   49.1620   41.5850 C   0  0  0  0  0
   23.6220   48.3990   42.3640 C   0  0  0  0  0
   22.5150   47.8310   44.4990 C   0  0  0  0  0
   20.8340   46.1060   44.8200 C   0  0  0  0  0
   20.3330   46.5440   46.1740 C   0  0  0  0  0
   33.1390   48.5660   41.9850 C   0  0  0  0  0
   22.8960   47.6840   45.7910 O   0  0  0  0  0
   31.9080   47.9280   41.8470 N   0  0  0  0  0
   20.2930   45.8210   47.2240 O   0  0  0  0  0
   19.8940   47.6670   46.1770 O   0  0  0  0  0
   18.2180   42.9710   42.8430 O   0  0  0  0  0
   17.5280   43.9150   43.8490 P   0  0  0  0  0
   16.6730   42.9150   44.8820 O   0  0  0  0  0
   16.3960   44.9670   43.0390 C   0  0  0  0  0
   15.9190   44.5150   41.6250 C   0  0  0  0  0
   17.0740   44.5710   40.5990 C   0  0  0  0  0
   17.9560   45.4590   40.6960 O   0  0  0  0  0
   17.0570   43.7570   39.6210 O   0  0  0  0  0
   14.6710   45.2830   41.1080 C   0  0  0  0  0
   14.9460   46.7600   41.0570 C   0  0  0  0  0
   13.8150   47.5440   40.3990 C   0  0  0  0  0
   13.0670   46.9940   39.5250 O   0  0  0  0  0
   13.7220   48.7800   40.6690 O   0  0  0  0  0
   18.6980   44.8480   44.7160 C   0  0  0  0  0
   19.6740   45.6400   43.8960 C   0  0  0  0  0
   21.5870   47.0920   44.0150 N   0  0  0  0  0
   23.3700   48.7530   43.6730 C   0  0  0  0  0
   24.8670   50.6570   43.4350 C   0  0  0  0  0
   26.0160   51.0620   41.2970 N   0  0  0  0  0
   28.4810   50.2750   41.8950 C   0  0  0  0  0
   29.7150   50.8320   42.0270 N   0  0  0  0  0
   30.7240   48.6210   41.8570 C   0  0  0  0  0
   32.1900   50.7110   42.1700 C   0  0  0  0  0
   33.2730   49.9070   42.1530 N   0  0  0  0  0
   34.2492   46.8296   41.8436 H   0  0  0  0  0
   35.1874   48.3104   42.0631 H   0  0  0  0  0
   31.5011   52.6544   42.3463 H   0  0  0  0  0
   33.2555   52.4653   42.4335 H   0  0  0  0  0
   27.3935   48.4089   41.6511 H   0  0  0  0  0
   27.0664   51.3010   43.0278 H   0  0  0  0  0
   27.7237   52.1643   41.4545 H   0  0  0  0  0
   26.7060   49.4934   40.0888 H   0  0  0  0  0
   25.3109   50.3901   39.4402 H   0  0  0  0  0
   26.9327   51.1250   39.4123 H   0  0  0  0  0
   23.8372   50.1472   45.2622 H   0  0  0  0  0
   24.6722   48.8793   40.5478 H   0  0  0  0  0
   23.1396   47.5199   41.9367 H   0  0  0  0  0
   21.5216   45.3120   45.1114 H   0  0  0  0  0
   20.6845   44.9647   47.0366 H   0  0  0  0  0
   16.2174   43.4483   45.5375 H   0  0  0  0  0
   16.9139   45.9152   42.8949 H   0  0  0  0  0
   15.5044   44.9919   43.6655 H   0  0  0  0  0
   15.6031   43.4779   41.7382 H   0  0  0  0  0
   16.3146   43.1563   39.7190 H   0  0  0  0  0
   13.8371   45.1011   41.7860 H   0  0  0  0  0
   14.4301   44.9326   40.1044 H   0  0  0  0  0
   15.8489   46.9132   40.4659 H   0  0  0  0  0
   15.0507   47.1176   42.0813 H   0  0  0  0  0
   13.2839   46.0610   39.4613 H   0  0  0  0  0
   19.2939   44.1309   45.2806 H   0  0  0  0  0
   18.1306   45.5779   45.2934 H   0  0  0  0  0
   20.0676   45.0225   43.0886 H   0  0  0  0  0
   19.1759   46.5059   43.4600 H   0  0  0  0  0
   21.3563   47.1884   43.0261 H   0  0  0  0  0
   25.3257   51.5541   43.8509 H   0  0  0  0  0
 15  1  1  0  0  0
  2 40  4  0  0  0
 41  2  4  0  0  0
  2 42  4  0  0  0
 42  3  1  0  0  0
  4  5  4  0  0  0
 39  4  4  0  0  0
  5 41  4  0  0  0
 38  6  1  0  0  0
  6 39  1  0  0  0
 38  7  1  0  0  0
 36  8  4  0  0  0
  8 37  4  0  0  0
 10  9  4  0  0  0
 37  9  4  0  0  0
  9 38  1  0  0  0
 11 10  4  0  0  0
 36 11  4  0  0  0
 12 16  2  0  0  0
 35 12  1  0  0  0
 12 36  1  0  0  0
 13 14  1  0  0  0
 34 13  1  0  0  0
 13 35  1  0  0  0
 14 18  1  0  0  0
 14 19  2  0  0  0
 17 15  4  0  0  0
 15 43  4  0  0  0
 41 17  4  0  0  0
 21 20  2  0  0  0
 21 22  1  0  0  0
 21 23  1  0  0  0
 33 21  1  0  0  0
 23 24  1  0  0  0
 24 25  1  0  0  0
 24 28  1  0  0  0
 25 26  2  0  0  0
 25 27  1  0  0  0
 28 29  1  0  0  0
 29 30  1  0  0  0
 30 31  1  0  0  0
 30 32  2  0  0  0
 33 34  1  0  0  0
 39 40  4  0  0  0
 42 43  4  0  0  0
  1 44  1  0  0  0
  1 45  1  0  0  0
  3 46  1  0  0  0
  3 47  1  0  0  0
  4 48  1  0  0  0
  6 49  1  0  0  0
  6 50  1  0  0  0
  7 51  1  0  0  0
  7 52  1  0  0  0
  7 53  1  0  0  0
  8 54  1  0  0  0
 10 55  1  0  0  0
 11 56  1  0  0  0
 13 57  1  0  0  0
 18 58  1  0  0  0
 22 59  1  0  0  0
 23 60  1  0  0  0
 23 61  1  0  0  0
 24 62  1  0  0  0
 27 63  1  0  0  0
 28 64  1  0  0  0
 28 65  1  0  0  0
 29 66  1  0  0  0
 29 67  1  0  0  0
 31 68  1  0  0  0
 33 69  1  0  0  0
 33 70  1  0  0  0
 34 71  1  0  0  0
 34 72  1  0  0  0
 35 73  1  0  0  0
 37 74  1  0  0  0
M  END
$$$$
