1o46_ligand
  -I-interpret- 

 84 87  0  0  0  0  0  0  0  0999 V2000
   19.1350   25.5170   19.9930 C   0  0  0  0  0
   17.9590   25.0900   19.3290 C   0  0  0  0  0
   17.2280   26.0830   18.5700 C   0  0  0  0  0
   17.7610   27.4250   18.3690 C   0  0  0  0  0
   19.0400   27.8440   19.0330 C   0  0  0  0  0
   19.6720   26.8850   19.8450 C   0  0  0  0  0
   19.9100   24.6630   20.9570 C   0  0  0  0  0
   19.6210   25.2090   22.3410 C   0  0  0  0  0
   20.3880   24.4090   23.3980 C   0  0  0  0  0
   19.6050   23.3080   23.8240 N   0  0  0  0  0
   21.5660   24.7110   23.7780 O   0  0  0  0  0
   20.1350   26.6240   22.4830 N   0  0  0  0  0
   19.3360   27.4970   23.0940 C   0  0  0  0  0
   18.1180   27.3080   23.2730 O   0  0  0  0  0
   20.0850   28.8560   23.4910 C   0  0  0  0  0
   20.4610   22.2750   24.4800 C   0  0  0  0  0
   21.4640   21.5080   23.4880 C   0  0  0  0  0
   22.4220   20.6160   24.2850 N   0  0  0  0  0
   21.4970   21.6360   22.2170 O   0  0  0  0  0
   22.2620   20.2370   25.7200 C   0  0  0  0  0
   20.9390   19.6910   26.1560 C   0  0  0  0  0
   23.5220   19.8970   23.6150 C   0  0  0  0  0
   22.9310   18.6080   23.2750 C   0  0  0  0  0
   19.9260   20.7840   26.5300 C   0  0  0  0  0
   19.4000   21.5790   25.3600 C   0  0  0  0  0
   23.3910   17.4840   23.9450 C   0  0  0  0  0
   22.6330   16.2820   23.7810 C   0  0  0  0  0
   21.4870   16.1930   23.0090 C   0  0  0  0  0
   21.0140   17.3400   22.3090 C   0  0  0  0  0
   21.7510   18.5660   22.4090 C   0  0  0  0  0
   20.8770   14.8900   22.6510 C   0  0  0  0  0
   19.4070   14.7970   22.4960 C   0  0  0  0  0
   18.8070   13.5160   22.3050 C   0  0  0  0  0
   19.6400   12.3700   22.2470 C   0  0  0  0  0
   21.0700   12.5150   22.2160 C   0  0  0  0  0
   21.7540   13.7690   22.4340 C   0  0  0  0  0
   19.8460   29.2090   18.9070 C   0  0  0  0  0
   19.8400   29.8340   20.1370 O   0  0  0  0  0
   20.1760   29.6520   17.8550 O   0  0  0  0  0
   17.0580   28.3120   17.2720 C   0  0  0  0  0
   17.2990   29.7870   17.1940 C   0  0  0  0  0
   17.3420   30.3270   18.5670 O   0  0  0  0  0
   17.3010   30.3620   16.0850 O   0  0  0  0  0
   15.5720   28.6620   17.8910 C   0  0  0  0  0
   14.7750   28.7100   17.0720 O   0  0  0  0  0
   15.1620   29.0160   19.0580 O   0  0  0  0  0
   17.3720   28.2160   15.7210 F   0  0  0  0  0
   20.2010   31.0060   21.0750 C   0  0  0  0  0
   17.6183   24.0563   19.3870 H   0  0  0  0  0
   16.2607   25.8222   18.1407 H   0  0  0  0  0
   20.5820   27.1586   20.3791 H   0  0  0  0  0
   20.9773   24.6968   20.7384 H   0  0  0  0  0
   19.6125   23.6173   20.8793 H   0  0  0  0  0
   18.5408   25.1533   22.4762 H   0  0  0  0  0
   18.5955   23.2314   23.6998 H   0  0  0  0  0
   21.0511   26.8972   22.1274 H   0  0  0  0  0
   19.6405   29.6875   22.9440 H   0  0  0  0  0
   19.9808   29.0271   24.5624 H   0  0  0  0  0
   21.1416   28.7750   23.2358 H   0  0  0  0  0
   21.2907   22.5839   25.1159 H   0  0  0  0  0
   22.3931   21.1624   26.2809 H   0  0  0  0  0
   22.9779   19.4327   25.8893 H   0  0  0  0  0
   21.1097   19.0815   27.0434 H   0  0  0  0  0
   20.5231   19.1273   25.3209 H   0  0  0  0  0
   24.4029   19.7978   24.2493 H   0  0  0  0  0
   23.8957   20.4285   22.7398 H   0  0  0  0  0
   20.4421   21.4856   27.1854 H   0  0  0  0  0
   19.0712   20.2836   26.9850 H   0  0  0  0  0
   18.8863   20.8674   24.7136 H   0  0  0  0  0
   18.7849   22.3735   25.7825 H   0  0  0  0  0
   24.2862   17.5151   24.5661 H   0  0  0  0  0
   22.9776   15.3839   24.2936 H   0  0  0  0  0
   20.1067   17.2866   21.7072 H   0  0  0  0  0
   21.4390   19.4491   21.8514 H   0  0  0  0  0
   18.7909   15.6957   22.5274 H   0  0  0  0  0
   17.7258   13.4203   22.2053 H   0  0  0  0  0
   19.1945   11.3754   22.2258 H   0  0  0  0  0
   21.6724   11.6287   22.0167 H   0  0  0  0  0
   22.8403   13.8585   22.4341 H   0  0  0  0  0
   17.3264   29.6016   19.1956 H   0  0  0  0  0
   15.8861   28.9480   19.6846 H   0  0  0  0  0
   21.2845   31.1186   21.1132 H   0  0  0  0  0
   19.7521   31.9243   20.6964 H   0  0  0  0  0
   19.8204   30.7996   22.0753 H   0  0  0  0  0
  1  2  4  0  0  0
  1  6  4  0  0  0
  1  7  1  0  0  0
  2  3  4  0  0  0
  3  4  4  0  0  0
  4  5  4  0  0  0
  4 40  1  0  0  0
  5  6  4  0  0  0
  5 37  1  0  0  0
  7  8  1  0  0  0
  8  9  1  0  0  0
  8 12  1  0  0  0
  9 10  1  0  0  0
  9 11  2  0  0  0
 10 16  1  0  0  0
 12 13  1  0  0  0
 13 14  2  0  0  0
 13 15  1  0  0  0
 16 17  1  0  0  0
 16 25  1  0  0  0
 17 18  1  0  0  0
 17 19  2  0  0  0
 18 20  1  0  0  0
 18 22  1  0  0  0
 20 21  1  0  0  0
 21 24  1  0  0  0
 22 23  1  0  0  0
 23 26  4  0  0  0
 23 30  4  0  0  0
 24 25  1  0  0  0
 26 27  4  0  0  0
 27 28  4  0  0  0
 28 29  4  0  0  0
 28 31  1  0  0  0
 29 30  4  0  0  0
 31 32  4  0  0  0
 31 36  4  0  0  0
 32 33  4  0  0  0
 33 34  4  0  0  0
 34 35  4  0  0  0
 35 36  4  0  0  0
 37 38  1  0  0  0
 37 39  2  0  0  0
 38 48  1  0  0  0
 40 41  1  0  0  0
 40 44  1  0  0  0
 40 47  1  0  0  0
 41 42  1  0  0  0
 41 43  2  0  0  0
 44 45  2  0  0  0
 44 46  1  0  0  0
  2 49  1  0  0  0
  3 50  1  0  0  0
  6 51  1  0  0  0
  7 52  1  0  0  0
  7 53  1  0  0  0
  8 54  1  0  0  0
 10 55  1  0  0  0
 12 56  1  0  0  0
 15 57  1  0  0  0
 15 58  1  0  0  0
 15 59  1  0  0  0
 16 60  1  0  0  0
 20 61  1  0  0  0
 20 62  1  0  0  0
 21 63  1  0  0  0
 21 64  1  0  0  0
 22 65  1  0  0  0
 22 66  1  0  0  0
 24 67  1  0  0  0
 24 68  1  0  0  0
 25 69  1  0  0  0
 25 70  1  0  0  0
 26 71  1  0  0  0
 27 72  1  0  0  0
 29 73  1  0  0  0
 30 74  1  0  0  0
 32 75  1  0  0  0
 33 76  1  0  0  0
 34 77  1  0  0  0
 35 78  1  0  0  0
 36 79  1  0  0  0
 42 80  1  0  0  0
 46 81  1  0  0  0
 48 82  1  0  0  0
 48 83  1  0  0  0
 48 84  1  0  0  0
M  END
$$$$
