1lkl_ligand
  -I-interpret- 

 73 73  0  0  0  0  0  0  0  0999 V2000
   28.9270   -4.9240   -3.5800 C   0  0  0  0  0
   28.7210   -4.0850   -2.3300 C   0  0  0  0  0
   29.1730   -4.4970   -1.2560 O   0  0  0  0  0
   28.0400   -2.9510   -2.4390 N   0  0  0  0  0
   27.8080   -2.0810   -1.3080 C   0  0  0  0  0
   26.3360   -1.9770   -0.9450 C   0  0  0  0  0
   25.4560   -2.0900   -1.8050 O   0  0  0  0  0
   28.3570   -0.6790   -1.5930 C   0  0  0  0  0
   29.8720   -0.6260   -1.6670 C   0  0  0  0  0
   30.6320   -0.5030   -0.5070 C   0  0  0  0  0
   30.5390   -0.6550   -2.8980 C   0  0  0  0  0
   32.0190   -0.3960   -0.5570 C   0  0  0  0  0
   31.9370   -0.5530   -2.9630 C   0  0  0  0  0
   32.6650   -0.4180   -1.7850 C   0  0  0  0  0
   34.0280   -0.2590   -1.8330 O   0  0  0  0  0
   26.0940   -1.8170    0.3480 N   0  0  0  0  0
   24.7690   -1.6400    0.8820 C   0  0  0  0  0
   24.5470   -0.1420    0.9410 C   0  0  0  0  0
   25.5030    0.6280    0.9760 O   0  0  0  0  0
   24.6900   -2.2320    2.2880 C   0  0  0  0  0
   24.3020   -3.6800    2.2990 C   0  0  0  0  0
   22.8800   -3.8910    1.7910 C   0  0  0  0  0
   21.9330   -3.3720    2.4300 O   0  0  0  0  0
   22.7120   -4.5650    0.7560 O   0  0  0  0  0
   23.2860    0.2700    0.9080 N   0  0  0  0  0
   22.9300    1.6800    0.9760 C   0  0  0  0  0
   22.3670    1.9390    2.3690 C   0  0  0  0  0
   21.6290    1.1040    2.9040 O   0  0  0  0  0
   21.8400    2.0020   -0.0500 C   0  0  0  0  0
   22.2220    1.7210   -1.4920 C   0  0  0  0  0
   23.2090    2.7330   -2.0560 C   0  0  0  0  0
   23.1180    3.9320   -1.6970 O   0  0  0  0  0
   24.0630    2.3370   -2.8870 O   0  0  0  0  0
   22.7010    3.0930    2.9330 N   0  0  0  0  0
   22.2100    3.4680    4.2470 C   0  0  0  0  0
   21.1600    4.5540    4.0960 C   0  0  0  0  0
   20.3850    4.4870    3.1110 O   0  0  0  0  0
   21.1310    5.4880    4.9270 O   0  0  0  0  0
   35.0920   -1.4330   -1.5510 P   0  0  0  0  0
   35.6000   -1.9870   -2.8210 O   0  0  0  0  0
   34.4900   -2.4960   -0.7480 O   0  0  0  0  0
   36.1150   -0.7100   -0.7650 O   0  0  0  0  0
   29.9947   -5.0500   -3.7596 H   0  0  0  0  0
   28.4629   -5.9005   -3.4412 H   0  0  0  0  0
   28.4706   -4.4213   -4.4327 H   0  0  0  0  0
   27.6681   -2.6846   -3.3507 H   0  0  0  0  0
   28.3307   -2.5243   -0.4604 H   0  0  0  0  0
   28.0461   -0.0323   -0.7725 H   0  0  0  0  0
   27.9704   -0.3666   -2.5630 H   0  0  0  0  0
   30.1304   -0.4902    0.4606 H   0  0  0  0  0
   29.9643   -0.7582   -3.8184 H   0  0  0  0  0
   32.5944   -0.2955    0.3632 H   0  0  0  0  0
   32.4471   -0.5792   -3.9259 H   0  0  0  0  0
   26.8829   -1.8194    0.9946 H   0  0  0  0  0
   24.0171   -2.1376    0.2695 H   0  0  0  0  0
   23.9251   -1.6812    2.8355 H   0  0  0  0  0
   25.6806   -2.1524    2.7358 H   0  0  0  0  0
   24.3551   -4.0404    3.3263 H   0  0  0  0  0
   24.9834   -4.2216    1.6429 H   0  0  0  0  0
   22.2818   -2.8996    3.1894 H   0  0  0  0  0
   22.5420   -0.4237    0.8325 H   0  0  0  0  0
   23.8055    2.2957    0.7700 H   0  0  0  0  0
   21.6422    3.0714    0.0228 H   0  0  0  0  0
   20.9876    1.3636    0.1822 H   0  0  0  0  0
   21.3135    1.7745   -2.0919 H   0  0  0  0  0
   22.6980    0.7409   -1.5237 H   0  0  0  0  0
   23.9628    1.3917   -3.0214 H   0  0  0  0  0
   23.3176    3.7320    2.4312 H   0  0  0  0  0
   21.7695    2.5985    4.7349 H   0  0  0  0  0
   23.0358    3.8393    4.8539 H   0  0  0  0  0
   20.5786    3.6936    2.6063 H   0  0  0  0  0
   35.9932   -1.2827   -3.3415 H   0  0  0  0  0
   36.5006   -0.0162   -1.3050 H   0  0  0  0  0
  2  1  1  0  0  0
  2  3  2  0  0  0
  5  6  1  0  0  0
  8  5  1  0  0  0
  5  4  1  0  0  0
  9  8  1  0  0  0
 11  9  4  0  0  0
 10  9  4  0  0  0
 12 10  4  0  0  0
 14 12  4  0  0  0
 15 14  1  0  0  0
 14 13  4  0  0  0
 13 11  4  0  0  0
  6  7  2  0  0  0
 17 18  1  0  0  0
 17 20  1  0  0  0
 16 17  1  0  0  0
 20 21  1  0  0  0
 21 22  1  0  0  0
 22 23  1  0  0  0
 22 24  2  0  0  0
 18 19  2  0  0  0
 26 27  1  0  0  0
 26 29  1  0  0  0
 25 26  1  0  0  0
 29 30  1  0  0  0
 30 31  1  0  0  0
 31 32  2  0  0  0
 31 33  1  0  0  0
 27 28  2  0  0  0
 35 36  1  0  0  0
 34 35  1  0  0  0
 36 38  2  0  0  0
 36 37  1  0  0  0
 39 42  1  0  0  0
 39 41  2  0  0  0
 39 40  1  0  0  0
  4  2  1  0  0  0
  6 16  1  0  0  0
 18 25  1  0  0  0
 27 34  1  0  0  0
 15 39  1  0  0  0
  1 43  1  0  0  0
  1 44  1  0  0  0
  1 45  1  0  0  0
  4 46  1  0  0  0
  5 47  1  0  0  0
  8 48  1  0  0  0
  8 49  1  0  0  0
 10 50  1  0  0  0
 11 51  1  0  0  0
 12 52  1  0  0  0
 13 53  1  0  0  0
 16 54  1  0  0  0
 17 55  1  0  0  0
 20 56  1  0  0  0
 20 57  1  0  0  0
 21 58  1  0  0  0
 21 59  1  0  0  0
 23 60  1  0  0  0
 25 61  1  0  0  0
 26 62  1  0  0  0
 29 63  1  0  0  0
 29 64  1  0  0  0
 30 65  1  0  0  0
 30 66  1  0  0  0
 33 67  1  0  0  0
 34 68  1  0  0  0
 35 69  1  0  0  0
 35 70  1  0  0  0
 37 71  1  0  0  0
 40 72  1  0  0  0
 42 73  1  0  0  0
M  END
$$$$
