4jjq_ligand
  -I-interpret- 

 49 48  0  0  0  0  0  0  0  0999 V2000
   31.8560  -15.7300   -7.0450 N   0  3  0  0  0
   32.1210  -14.5460   -7.9140 C   0  0  0  0  0
   33.5450  -14.0510   -7.6960 C   0  0  0  0  0
   34.0830  -14.1650   -6.5940 O   0  0  0  0  0
   31.1240  -13.4330   -7.6030 C   0  0  0  0  0
   34.1490  -13.5020   -8.7460 N   0  0  0  0  0
   35.5140  -12.9920   -8.6680 C   0  0  0  0  0
   35.8670  -12.2470   -9.9500 C   0  0  0  0  0
   35.0410  -12.1230  -10.8540 O   0  0  0  0  0
   36.5020  -14.1480   -8.4870 C   0  0  0  0  0
   36.5930  -14.9240   -9.6750 O   0  0  0  0  0
   37.0970  -11.7470  -10.0200 N   0  0  0  0  0
   37.5630  -11.0500  -11.2140 C   0  0  0  0  0
   38.0310  -12.1370  -12.1730 C   0  0  0  0  0
   38.2880  -13.2660  -11.7490 O   0  0  0  0  0
   38.7550  -10.1280  -10.9070 C   0  0  0  0  0
   39.8320  -10.9090  -10.3750 O   0  0  0  0  0
   38.3610   -9.0570   -9.9020 C   0  0  0  0  0
   38.1440  -11.8070  -13.4550 N   0  0  0  0  0
   38.5830  -12.7890  -14.4410 C   0  0  0  0  0
   40.0520  -13.1350  -14.2470 C   0  0  0  0  0
   40.4500  -14.1790  -14.8060 O   0  0  0  0  0
   38.3690  -12.2590  -15.8610 C   0  0  0  0  0
   39.1750  -11.1200  -16.1070 O   0  0  0  0  0
   32.5277  -16.4664   -7.2617 H   0  0  0  0  0
   31.9501  -15.4596   -6.0660 H   0  0  0  0  0
   30.9097  -16.0704   -7.2155 H   0  0  0  0  0
   32.0042  -14.8389   -8.9574 H   0  0  0  0  0
   31.2400  -13.1228   -6.5645 H   0  0  0  0  0
   31.3123  -12.5841   -8.2603 H   0  0  0  0  0
   30.1102  -13.8000   -7.7628 H   0  0  0  0  0
   33.6444  -13.4356   -9.6299 H   0  0  0  0  0
   35.5784  -12.3160   -7.8154 H   0  0  0  0  0
   36.1518  -14.7863   -7.6758 H   0  0  0  0  0
   37.4856  -13.7376   -8.2587 H   0  0  0  0  0
   37.2162  -15.6417   -9.5401 H   0  0  0  0  0
   37.7264  -11.8527   -9.2243 H   0  0  0  0  0
   36.7640  -10.4302  -11.6208 H   0  0  0  0  0
   39.0682   -9.6399  -11.8299 H   0  0  0  0  0
   40.5773  -10.3353  -10.1826 H   0  0  0  0  0
   37.5477   -8.4579  -10.3115 H   0  0  0  0  0
   38.0343   -9.5315   -8.9767 H   0  0  0  0  0
   39.2196   -8.4166   -9.7000 H   0  0  0  0  0
   37.9215  -10.8572  -13.7531 H   0  0  0  0  0
   37.9860  -13.6899  -14.2994 H   0  0  0  0  0
   40.7185  -12.5082  -13.6546 H   0  0  0  0  0
   37.3223  -11.9767  -15.9739 H   0  0  0  0  0
   38.6433  -13.0402  -16.5700 H   0  0  0  0  0
   39.0220  -10.8084  -17.0020 H   0  0  0  0  0
  1  2  1  0  0  0
  2  3  1  0  0  0
  2  5  1  0  0  0
  3  4  2  0  0  0
  3  6  1  0  0  0
  6  7  1  0  0  0
  7  8  1  0  0  0
  7 10  1  0  0  0
  8  9  2  0  0  0
  8 12  1  0  0  0
 10 11  1  0  0  0
 12 13  1  0  0  0
 13 14  1  0  0  0
 13 16  1  0  0  0
 14 15  2  0  0  0
 14 19  1  0  0  0
 16 17  1  0  0  0
 16 18  1  0  0  0
 19 20  1  0  0  0
 20 21  1  0  0  0
 20 23  1  0  0  0
 21 22  2  0  0  0
 23 24  1  0  0  0
  1 25  1  0  0  0
  1 26  1  0  0  0
  1 27  1  0  0  0
  2 28  1  0  0  0
  5 29  1  0  0  0
  5 30  1  0  0  0
  5 31  1  0  0  0
  6 32  1  0  0  0
  7 33  1  0  0  0
 10 34  1  0  0  0
 10 35  1  0  0  0
 11 36  1  0  0  0
 12 37  1  0  0  0
 13 38  1  0  0  0
 16 39  1  0  0  0
 17 40  1  0  0  0
 18 41  1  0  0  0
 18 42  1  0  0  0
 18 43  1  0  0  0
 19 44  1  0  0  0
 20 45  1  0  0  0
 21 46  1  0  0  0
 23 47  1  0  0  0
 23 48  1  0  0  0
 24 49  1  0  0  0
M  END
$$$$
