2qbs_ligand
  -I-interpret- 

 47 49  0  0  0  0  0  0  0  0999 V2000
   44.6510   14.0740    0.6210 S   0  0  0  0  0
   44.7900   15.4820    1.5710 C   0  0  0  0  0
   45.6940   15.2460    2.6400 C   0  0  0  0  0
   46.2290   13.9270    2.6200 C   0  0  0  0  0
   45.7340   13.1350    1.5470 C   0  0  0  0  0
   44.0570   16.6430    1.2480 C   0  0  0  0  0
   43.4980   16.6800    0.1500 O   0  0  0  0  0
   43.9810   17.5810    2.0360 O   0  0  0  0  0
   46.0160   11.7110    1.1830 C   0  0  0  0  0
   47.2610   11.0370    1.4450 C   0  0  0  0  0
   47.4050    9.6640    1.0720 C   0  0  0  0  0
   46.3290    8.9560    0.4400 C   0  0  0  0  0
   45.0950    9.6130    0.1730 C   0  0  0  0  0
   44.9490   10.9800    0.5490 C   0  0  0  0  0
   47.4770   13.3320    3.9450 Br  0  0  0  0  0
   46.0630   16.1740    3.6490 O   0  0  0  0  0
   47.2490   16.9320    3.4120 C   0  0  0  0  0
   47.6510   17.5920    4.7270 C   0  0  0  0  0
   46.8770   17.5250    5.6970 O   0  0  0  0  0
   48.7320   18.1660    4.7830 O   0  0  0  0  0
   48.6210    8.9650    1.3420 N   0  0  0  0  0
   49.1550    7.7650    1.8570 C   0  0  0  0  0
   50.6800    7.8220    2.0380 C   0  0  0  0  0
   51.1580    6.4520    2.5800 C   0  0  0  0  0
   50.4280    6.0460    3.8930 C   0  0  0  0  0
   48.8790    6.1190    3.7780 C   0  0  0  0  0
   48.4240    7.4700    3.1930 C   0  0  0  0  0
   43.6696   15.8624   -0.3229 H   0  0  0  0  0
   48.0848   11.5675    1.9225 H   0  0  0  0  0
   46.4572    7.9096    0.1629 H   0  0  0  0  0
   44.2762    9.0802   -0.3104 H   0  0  0  0  0
   44.0041   11.4861    0.3514 H   0  0  0  0  0
   47.0683   17.6887    2.6485 H   0  0  0  0  0
   48.0481   16.2825    3.0547 H   0  0  0  0  0
   46.0908   17.0354    5.4444 H   0  0  0  0  0
   49.3983    9.5588    1.0527 H   0  0  0  0  0
   48.9897    6.9563    1.1451 H   0  0  0  0  0
   50.9436    8.6137    2.7393 H   0  0  0  0  0
   51.1617    8.0348    1.0837 H   0  0  0  0  0
   52.2236    6.5281    2.7963 H   0  0  0  0  0
   50.9401    5.6962    1.8254 H   0  0  0  0  0
   50.7353    6.7438    4.6719 H   0  0  0  0  0
   50.6952    5.0127    4.1143 H   0  0  0  0  0
   48.4516    6.0110    4.7749 H   0  0  0  0  0
   48.5424    5.3225    3.1143 H   0  0  0  0  0
   47.3511    7.4286    3.0052 H   0  0  0  0  0
   48.6614    8.2598    3.9057 H   0  0  0  0  0
  1  2  4  0  0  0
  1  5  4  0  0  0
  2  3  4  0  0  0
  2  6  1  0  0  0
  3  4  4  0  0  0
  3 16  1  0  0  0
  4  5  4  0  0  0
  4 15  1  0  0  0
  5  9  1  0  0  0
  6  7  1  0  0  0
  6  8  2  0  0  0
  9 10  4  0  0  0
  9 14  4  0  0  0
 10 11  4  0  0  0
 11 12  4  0  0  0
 11 21  1  0  0  0
 12 13  4  0  0  0
 13 14  4  0  0  0
 16 17  1  0  0  0
 17 18  1  0  0  0
 18 19  1  0  0  0
 18 20  2  0  0  0
 21 22  1  0  0  0
 22 23  1  0  0  0
 22 27  1  0  0  0
 23 24  1  0  0  0
 24 25  1  0  0  0
 25 26  1  0  0  0
 26 27  1  0  0  0
  7 28  1  0  0  0
 10 29  1  0  0  0
 12 30  1  0  0  0
 13 31  1  0  0  0
 14 32  1  0  0  0
 17 33  1  0  0  0
 17 34  1  0  0  0
 19 35  1  0  0  0
 21 36  1  0  0  0
 22 37  1  0  0  0
 23 38  1  0  0  0
 23 39  1  0  0  0
 24 40  1  0  0  0
 24 41  1  0  0  0
 25 42  1  0  0  0
 25 43  1  0  0  0
 26 44  1  0  0  0
 26 45  1  0  0  0
 27 46  1  0  0  0
 27 47  1  0  0  0
M  END
$$$$
