4ozn_ligand
  -I-interpret- 

 47 49  0  0  0  0  0  0  0  0999 V2000
  -55.1540   45.4920  -27.6260 P   0  0  0  0  0
  -55.9360   46.7750  -27.8010 O   0  0  0  0  0
  -53.6580   45.6980  -27.5220 O   0  0  0  0  0
  -55.5310   44.3890  -28.5910 O   0  0  0  0  0
  -55.4860   45.6980  -24.7700 P   0  0  0  0  0
  -54.5690   46.8820  -24.9920 O   0  0  0  0  0
  -56.8520   45.8920  -24.1570 O   0  0  0  0  0
  -55.6250   44.9060  -26.1810 O   0  0  0  0  0
  -53.4760   43.8250  -24.3350 P   0  0  0  0  0
  -52.6190   44.7910  -25.1190 O   0  0  0  0  0
  -53.9380   42.5270  -24.9610 O   0  0  0  0  0
  -54.7560   44.6350  -23.8090 O   0  0  0  0  0
  -52.6930   43.5130  -22.9680 O   0  0  0  0  0
  -53.1590   42.5940  -21.9870 C   0  0  0  0  0
  -52.1660   42.6320  -20.8410 C   0  0  0  0  0
  -50.8300   42.7970  -21.3300 O   0  0  0  0  0
  -52.4220   43.8340  -19.9500 C   0  0  0  0  0
  -53.3220   43.4930  -18.8960 O   0  0  0  0  0
  -51.0540   44.2280  -19.4390 C   0  0  0  0  0
  -50.7230   43.5410  -18.2300 O   0  0  0  0  0
  -50.1070   43.7450  -20.5210 C   0  0  0  0  0
  -49.6070   44.9150  -21.3000 N   0  0  0  0  0
  -50.0940   45.3530  -22.4770 C   0  0  0  0  0
  -49.4110   46.4400  -22.9210 N   0  0  0  0  0
  -48.4600   46.7160  -22.0120 C   0  0  0  0  0
  -47.3930   47.7380  -21.8580 C   0  0  0  0  0
  -47.2060   48.6990  -22.7920 N   0  0  0  0  0
  -46.6150   47.6770  -20.7530 N   0  0  0  0  0
  -46.7950   46.7220  -19.8180 C   0  0  0  0  0
  -47.7420   45.7670  -19.8940 N   0  0  0  0  0
  -48.5940   45.7110  -20.9460 C   0  0  0  0  0
  -53.2258   44.8477  -27.4130 H   0  0  0  0  0
  -54.9927   43.6138  -28.4153 H   0  0  0  0  0
  -53.7480   46.5798  -25.3872 H   0  0  0  0  0
  -54.4687   42.0386  -24.3274 H   0  0  0  0  0
  -53.2320   41.5889  -22.4024 H   0  0  0  0  0
  -54.1566   42.8677  -21.6436 H   0  0  0  0  0
  -52.2825   41.6938  -20.2985 H   0  0  0  0  0
  -52.8976   44.6618  -20.4759 H   0  0  0  0  0
  -53.4724   44.2634  -18.3433 H   0  0  0  0  0
  -51.0050   45.2970  -19.2318 H   0  0  0  0  0
  -49.8511   43.8149  -17.9360 H   0  0  0  0  0
  -49.2273   43.2504  -20.1091 H   0  0  0  0  0
  -50.9294   44.8939  -23.0056 H   0  0  0  0  0
  -47.8028   48.7298  -23.6186 H   0  0  0  0  0
  -46.4682   49.3926  -22.6695 H   0  0  0  0  0
  -46.1357   46.7229  -18.9500 H   0  0  0  0  0
  1  2  2  0  0  0
  1  3  1  0  0  0
  1  4  1  0  0  0
  8  1  1  0  0  0
  5  6  1  0  0  0
  5  7  2  0  0  0
  5  8  1  0  0  0
 12  5  1  0  0  0
  9 10  2  0  0  0
  9 11  1  0  0  0
  9 12  1  0  0  0
  9 13  1  0  0  0
 13 14  1  0  0  0
 14 15  1  0  0  0
 15 16  1  0  0  0
 15 17  1  0  0  0
 16 21  1  0  0  0
 17 18  1  0  0  0
 17 19  1  0  0  0
 19 20  1  0  0  0
 19 21  1  0  0  0
 21 22  1  0  0  0
 22 23  4  0  0  0
 22 31  4  0  0  0
 23 24  4  0  0  0
 24 25  4  0  0  0
 25 26  4  0  0  0
 25 31  4  0  0  0
 26 27  1  0  0  0
 26 28  4  0  0  0
 28 29  4  0  0  0
 29 30  4  0  0  0
 30 31  4  0  0  0
  3 32  1  0  0  0
  4 33  1  0  0  0
  6 34  1  0  0  0
 11 35  1  0  0  0
 14 36  1  0  0  0
 14 37  1  0  0  0
 15 38  1  0  0  0
 17 39  1  0  0  0
 18 40  1  0  0  0
 19 41  1  0  0  0
 20 42  1  0  0  0
 21 43  1  0  0  0
 23 44  1  0  0  0
 27 45  1  0  0  0
 27 46  1  0  0  0
 29 47  1  0  0  0
M  END
$$$$
