### 
### Created by X-TOOL on Mon Sep 10 21:13:19 2018
### 

@<TRIPOS>MOLECULE
4ozn_ligand
   43    45     1     0     0
SMALL
GAST_HUCK


@<TRIPOS>ATOM
      1 PG        -55.1540   45.4920  -27.6260 P.3       1 ATP         0.1879
      2 O1G       -55.9360   46.7750  -27.8010 O.co2     1 ATP        -0.6091
      3 O2G       -53.6580   45.6980  -27.5220 O.co2     1 ATP        -0.6091
      4 O3G       -55.5310   44.3890  -28.5910 O.co2     1 ATP        -0.6091
      5 PB        -55.4860   45.6980  -24.7700 P.3       1 ATP         0.3553
      6 O1B       -54.5690   46.8820  -24.9920 O.co2     1 ATP        -0.5652
      7 O2B       -56.8520   45.8920  -24.1570 O.co2     1 ATP        -0.5652
      8 O3B       -55.6250   44.9060  -26.1810 O.3       1 ATP        -0.1546
      9 PA        -53.4760   43.8250  -24.3350 P.3       1 ATP         0.3266
     10 O1A       -52.6190   44.7910  -25.1190 O.co2     1 ATP        -0.5692
     11 O2A       -53.9380   42.5270  -24.9610 O.co2     1 ATP        -0.5692
     12 O3A       -54.7560   44.6350  -23.8090 O.3       1 ATP        -0.1171
     13 O5'       -52.6930   43.5130  -22.9680 O.3       1 ATP        -0.2441
     14 C5'       -53.1590   42.5940  -21.9870 C.3       1 ATP         0.1131
     15 C4'       -52.1660   42.6320  -20.8410 C.3       1 ATP         0.1189
     16 O4'       -50.8300   42.7970  -21.3300 O.3       1 ATP        -0.3364
     17 C3'       -52.4220   43.8340  -19.9500 C.3       1 ATP         0.1149
     18 O3'       -53.3220   43.4930  -18.8960 O.3       1 ATP        -0.3864
     19 C2'       -51.0540   44.2280  -19.4390 C.3       1 ATP         0.1385
     20 O2'       -50.7230   43.5410  -18.2300 O.3       1 ATP        -0.3836
     21 C1'       -50.1070   43.7450  -20.5210 C.3       1 ATP         0.2010
     22 N9        -49.6070   44.9150  -21.3000 N.pl3     1 ATP        -0.1919
     23 C8        -50.0940   45.3530  -22.4770 C.2       1 ATP         0.1123
     24 N7        -49.4110   46.4400  -22.9210 N.2       1 ATP        -0.2958
     25 C5        -48.4600   46.7160  -22.0120 C.ar      1 ATP         0.1045
     26 C6        -47.3930   47.7380  -21.8580 C.ar      1 ATP         0.1298
     27 N6        -47.2060   48.6990  -22.7920 N.pl3     1 ATP        -0.3152
     28 N1        -46.6150   47.6770  -20.7530 N.ar      1 ATP        -0.2698
     29 C2        -46.7950   46.7220  -19.8180 C.ar      1 ATP         0.0533
     30 N3        -47.7420   45.7670  -19.8940 N.ar      1 ATP        -0.2714
     31 C4        -48.5940   45.7110  -20.9460 C.ar      1 ATP         0.1613
     32 H         -53.2083   41.5803  -22.4113 H         1 ATP         0.0648
     33 H         -54.1568   42.8922  -21.6329 H         1 ATP         0.0648
     34 H         -52.2471   41.7016  -20.2598 H         1 ATP         0.0651
     35 H         -52.8564   44.6585  -20.5344 H         1 ATP         0.0648
     36 H         -52.9453   42.7952  -18.3728 H         1 ATP         0.2100
     37 H         -50.9858   45.3158  -19.2906 H         1 ATP         0.0676
     38 H         -49.8602   43.8121  -17.9391 H         1 ATP         0.2101
     39 H         -49.2462   43.2382  -20.0605 H         1 ATP         0.0996
     40 H         -50.9286   44.8943  -23.0051 H         1 ATP         0.1349
     41 H         -46.4610   49.3994  -22.6683 H         1 ATP         0.1820
     42 H         -47.8087   48.7301  -23.6267 H         1 ATP         0.1820
     43 H         -46.1393   46.7229  -18.9548 H         1 ATP         0.0996
@<TRIPOS>BOND
     1    1    2 ar 
     2    1    3 ar 
     3    1    4 ar 
     4    8    1 1  
     5    5    6 ar 
     6    5    7 ar 
     7    5    8 1  
     8   12    5 1  
     9    9   10 ar 
    10    9   11 ar 
    11    9   12 1  
    12    9   13 1  
    13   13   14 1  
    14   14   15 1  
    15   15   16 1  
    16   15   17 1  
    17   16   21 1  
    18   17   18 1  
    19   17   19 1  
    20   19   20 1  
    21   19   21 1  
    22   21   22 1  
    23   22   23 1  
    24   22   31 1  
    25   23   24 2  
    26   24   25 1  
    27   25   26 ar 
    28   25   31 ar 
    29   26   27 1  
    30   26   28 ar 
    31   28   29 ar 
    32   29   30 ar 
    33   30   31 ar 
    34   14   32 1  
    35   14   33 1  
    36   15   34 1  
    37   17   35 1  
    38   18   36 1  
    39   19   37 1  
    40   20   38 1  
    41   21   39 1  
    42   23   40 1  
    43   27   41 1  
    44   27   42 1  
    45   29   43 1  
@<TRIPOS>SUBSTRUCTURE
     1 ATP         1

