3hkt_ligand
  -I-interpret- 

 49 50  0  0  0  0  0  0  0  0999 V2000
   18.6160    6.2680    9.9040 O   0  0  0  0  0
   17.5860    7.2550    9.8730 C   0  0  0  0  0
   18.0340    8.5950   10.5410 C   0  0  0  0  0
   18.9690    9.3230    9.7020 O   0  0  0  0  0
   16.8300    9.4860   11.0430 C   0  0  0  0  0
   16.5730   10.6290   10.2200 O   0  0  0  0  0
   15.5080    8.6570   11.3410 C   0  0  0  0  0
   14.2380    9.4370   11.5920 C   0  0  0  0  0
   14.0850   10.4020   10.5420 O   0  0  0  0  0
   15.2840    7.5610   10.3750 O   0  0  0  0  0
   16.3850    6.6540   10.5810 C   0  0  0  0  0
   16.5590    6.6710   12.0260 O   0  0  0  0  0
   17.1300    5.6170   12.8940 C   0  0  0  0  0
   16.9410    4.1370   12.5070 C   0  0  0  0  0
   16.2950    3.9570   11.2230 O   0  0  0  0  0
   16.3460    3.2370   13.6160 C   0  0  0  0  0
   16.9750    1.9390   13.4230 O   0  0  0  0  0
   16.6390    3.7160   15.0910 C   0  0  0  0  0
   15.6470    2.8520   16.3560 S   0  0  0  0  0
   16.1970    3.2110   17.7180 O   0  0  0  0  0
   14.1850    3.2210   16.2350 O   0  0  0  0  0
   15.8320    1.2220   16.0780 N   0  0  0  0  0
   16.5320    5.1280   15.3730 O   0  0  0  0  0
   16.7720    6.0940   14.3390 C   0  0  0  0  0
   15.4640    6.8500   14.2580 C   0  0  0  0  0
   15.3950    7.7350   15.3230 O   0  0  0  0  0
   19.3981    6.6094    9.4642 H   0  0  0  0  0
   17.3414    7.5140    8.8429 H   0  0  0  0  0
   18.5692    8.3200   11.4499 H   0  0  0  0  0
   19.6762    8.7346    9.4277 H   0  0  0  0  0
   17.1694    9.8771   12.0021 H   0  0  0  0  0
   17.3944   11.1008   10.0641 H   0  0  0  0  0
   15.7387    8.2288   12.3164 H   0  0  0  0  0
   14.2942    9.9411   12.5568 H   0  0  0  0  0
   13.3822    8.7621   11.6062 H   0  0  0  0  0
   13.2813   10.9066   10.6873 H   0  0  0  0  0
   16.2416    5.6406   10.2062 H   0  0  0  0  0
   18.2093    5.5334   12.7670 H   0  0  0  0  0
   17.9609    3.7707   12.3897 H   0  0  0  0  0
   16.2063    3.0189   11.0394 H   0  0  0  0  0
   15.2599    3.2443   13.5237 H   0  0  0  0  0
   16.6481    1.3248   14.0844 H   0  0  0  0  0
   17.6948    3.4518   15.1516 H   0  0  0  0  0
   16.2665    0.6300   16.7859 H   0  0  0  0  0
   15.5109    0.8148   15.1997 H   0  0  0  0  0
   17.6747    6.6321   14.6285 H   0  0  0  0  0
   14.6290    6.1508   14.3031 H   0  0  0  0  0
   15.4109    7.3981   13.3173 H   0  0  0  0  0
   14.5679    8.2205   15.2811 H   0  0  0  0  0
  1  2  1  0  0  0
  2  3  1  0  0  0
  2 11  1  0  0  0
  3  4  1  0  0  0
  3  5  1  0  0  0
  5  6  1  0  0  0
  5  7  1  0  0  0
  7  8  1  0  0  0
  7 10  1  0  0  0
  8  9  1  0  0  0
 10 11  1  0  0  0
 11 12  1  0  0  0
 12 13  1  0  0  0
 13 14  1  0  0  0
 13 24  1  0  0  0
 14 15  1  0  0  0
 14 16  1  0  0  0
 16 17  1  0  0  0
 16 18  1  0  0  0
 18 19  1  0  0  0
 18 23  1  0  0  0
 19 20  2  0  0  0
 19 21  2  0  0  0
 19 22  1  0  0  0
 23 24  1  0  0  0
 24 25  1  0  0  0
 25 26  1  0  0  0
  1 27  1  0  0  0
  2 28  1  0  0  0
  3 29  1  0  0  0
  4 30  1  0  0  0
  5 31  1  0  0  0
  6 32  1  0  0  0
  7 33  1  0  0  0
  8 34  1  0  0  0
  8 35  1  0  0  0
  9 36  1  0  0  0
 11 37  1  0  0  0
 13 38  1  0  0  0
 14 39  1  0  0  0
 15 40  1  0  0  0
 16 41  1  0  0  0
 17 42  1  0  0  0
 18 43  1  0  0  0
 22 44  1  0  0  0
 22 45  1  0  0  0
 24 46  1  0  0  0
 25 47  1  0  0  0
 25 48  1  0  0  0
 26 49  1  0  0  0
M  END
$$$$
