1f9g_ligand
  -I-interpret- 

 20 20  0  0  0  0  0  0  0  0999 V2000
    9.2520  -10.8070   32.3000 C   0  0  0  0  0
   10.3500   -9.7830   32.5730 C   0  0  0  0  0
    9.8060   -8.5820   32.8430 C   0  0  0  0  0
    8.3050   -8.7370   32.7540 C   0  0  0  0  0
    7.5930   -7.6330   31.9260 C   0  0  0  0  0
    6.1170   -7.6770   31.4470 C   0  0  0  0  0
    9.3290  -12.0140   32.0380 O   0  0  0  0  0
   11.7040   -9.9980   32.5670 O   0  0  0  0  0
   10.2070   -7.6800   33.6140 O   0  0  0  0  0
    8.0370  -10.1470   32.4120 O   0  0  0  0  0
    7.8940   -6.3130   32.4420 O   0  0  0  0  0
    6.2230   -7.0890   30.0690 O   0  0  0  0  0
    7.8255   -8.5438   33.7136 H   0  0  0  0  0
    8.0565   -7.9128   30.9799 H   0  0  0  0  0
    5.4335   -7.1330   32.0989 H   0  0  0  0  0
    5.6872   -8.6786   31.4589 H   0  0  0  0  0
   11.8800  -10.9170   32.3523 H   0  0  0  0  0
    9.5950   -6.9409   33.5856 H   0  0  0  0  0
    8.8069   -6.2868   32.7379 H   0  0  0  0  0
    5.3525   -7.0646   29.6649 H   0  0  0  0  0
  1 10  1  0  0  0
  1  7  2  0  0  0
  1  2  1  0  0  0
  2  8  1  0  0  0
  2  3  2  0  0  0
  3  9  1  0  0  0
  3  4  1  0  0  0
  4 10  1  0  0  0
  4  5  1  0  0  0
  5 11  1  0  0  0
  5  6  1  0  0  0
  6 12  1  0  0  0
  4 13  1  0  0  0
  5 14  1  0  0  0
  6 15  1  0  0  0
  6 16  1  0  0  0
  8 17  1  0  0  0
  9 18  1  0  0  0
 11 19  1  0  0  0
 12 20  1  0  0  0
M  END
$$$$
