6fu1_ligand
  -I-interpret- 

 42 43  0  0  0  0  0  0  0  0999 V2000
   51.7620   30.5570   84.0240 C   0  0  0  0  0
   51.1330   30.8300   85.3220 C   0  0  0  0  0
   50.9800   32.3140   85.6220 C   0  0  0  0  0
   50.1580   33.1040   84.6340 C   0  0  0  0  0
   48.8770   32.3910   84.2490 C   0  0  0  0  0
   48.1370   31.8140   85.4330 C   0  0  0  0  0
   46.1160   33.1660   86.0770 C   0  0  0  0  0
   45.6720   34.1770   87.1590 C   0  0  0  0  0
   44.4980   34.8530   86.4930 C   0  0  0  0  0
   43.7120   35.2300   84.1350 C   0  0  0  0  0
   42.3570   35.3410   84.4260 C   0  0  0  0  0
   41.4700   35.7790   83.4580 C   0  0  0  0  0
   41.9460   36.0990   82.2040 C   0  0  0  0  0
   43.2880   36.0200   81.9040 C   0  0  0  0  0
   44.1730   35.5890   82.8750 C   0  0  0  0  0
   45.6690   33.8120   84.7830 C   0  0  0  0  0
   47.5100   32.6800   86.2620 N   0  0  0  0  0
   44.6240   34.6790   85.1080 N   0  0  0  0  0
   48.1240   30.6080   85.6550 O   0  0  0  0  0
   47.8190   32.4600   87.6090 O   0  0  0  0  0
   43.5510   35.4010   87.0380 O   0  0  0  0  0
   46.0950   33.6150   83.6620 O   0  0  0  0  0
   40.8200   36.5660   80.9580 Cl  0  0  0  0  0
   51.1550   30.9905   83.2292 H   0  0  0  0  0
   52.7581   30.9991   84.0043 H   0  0  0  0  0
   51.8383   29.4795   83.8781 H   0  0  0  0  0
   51.7749   30.4043   86.0932 H   0  0  0  0  0
   50.1336   30.3955   85.2997 H   0  0  0  0  0
   51.9838   32.7380   85.5949 H   0  0  0  0  0
   50.4605   32.3822   86.5778 H   0  0  0  0  0
   50.7535   33.2393   83.7312 H   0  0  0  0  0
   49.8897   34.0522   85.0999 H   0  0  0  0  0
   49.1446   31.5635   83.5920 H   0  0  0  0  0
   48.2221   33.1221   83.7749 H   0  0  0  0  0
   45.6526   32.1802   86.1170 H   0  0  0  0  0
   46.4604   34.8703   87.4519 H   0  0  0  0  0
   45.4182   33.7084   88.1099 H   0  0  0  0  0
   41.9920   35.0822   85.4199 H   0  0  0  0  0
   40.4076   35.8699   83.6843 H   0  0  0  0  0
   43.6482   36.2941   80.9124 H   0  0  0  0  0
   45.2380   35.5307   82.6504 H   0  0  0  0  0
   48.7241   32.1485   87.6818 H   0  0  0  0  0
  2  1  1  0  0  0
  3  2  1  0  0  0
  4  3  1  0  0  0
  5  4  1  0  0  0
  6  5  1  0  0  0
 17  6  1  0  0  0
  6 19  2  0  0  0
  8  7  1  0  0  0
  7 16  1  0  0  0
  7 17  1  0  0  0
  9  8  1  0  0  0
 18  9  1  0  0  0
  9 21  2  0  0  0
 10 11  4  0  0  0
 10 15  4  0  0  0
 10 18  1  0  0  0
 11 12  4  0  0  0
 12 13  4  0  0  0
 13 14  4  0  0  0
 13 23  1  0  0  0
 14 15  4  0  0  0
 16 18  1  0  0  0
 16 22  2  0  0  0
 17 20  1  0  0  0
  1 24  1  0  0  0
  1 25  1  0  0  0
  1 26  1  0  0  0
  2 27  1  0  0  0
  2 28  1  0  0  0
  3 29  1  0  0  0
  3 30  1  0  0  0
  4 31  1  0  0  0
  4 32  1  0  0  0
  5 33  1  0  0  0
  5 34  1  0  0  0
  7 35  1  0  0  0
  8 36  1  0  0  0
  8 37  1  0  0  0
 11 38  1  0  0  0
 12 39  1  0  0  0
 14 40  1  0  0  0
 15 41  1  0  0  0
 20 42  1  0  0  0
M  END
$$$$
