4c73_ligand
  -I-interpret- 

 30 30  0  0  0  0  0  0  0  0999 V2000
   -6.5690  -26.2630    5.3210 F   0  0  0  0  0
   -6.8570  -25.0490    5.6950 C   0  0  0  0  0
   -8.1810  -25.0220    5.9280 F   0  0  0  0  0
   -6.5270  -24.2860    4.6670 F   0  0  0  0  0
   -6.0570  -24.6260    6.9440 C   0  0  0  0  0
   -5.7760  -25.5120    7.7210 O   0  0  0  0  0
   -5.8490  -23.2330    7.1790 C   0  0  0  0  0
   -4.8560  -22.9030    8.1420 C   0  0  0  0  0
   -4.0780  -23.6410    8.6840 O   0  0  0  0  0
   -4.8250  -21.1130    8.3560 S   0  0  0  0  0
   -6.5010  -22.1780    6.6430 C   0  0  0  0  0
   -7.5720  -22.1940    5.8700 O   0  0  0  0  0
   -6.0710  -20.7710    7.0160 C   0  0  0  0  0
   -5.3580  -20.1950    5.8200 C   0  0  0  0  0
   -7.2480  -19.9990    7.5130 C   0  0  0  0  0
   -7.2810  -18.8590    8.1860 C   0  0  0  0  0
   -6.0160  -18.1350    8.5980 C   0  0  0  0  0
   -8.5610  -18.2730    8.5540 C   0  0  0  0  0
   -8.6840  -17.0880    9.1410 C   0  0  0  0  0
   -7.8131  -21.2936    5.6405 H   0  0  0  0  0
   -4.8611  -19.2681    6.1065 H   0  0  0  0  0
   -4.6175  -20.9098    5.4610 H   0  0  0  0  0
   -6.0814  -19.9919    5.0304 H   0  0  0  0  0
   -8.2209  -20.4369    7.2897 H   0  0  0  0  0
   -5.4218  -18.7827    9.2426 H   0  0  0  0  0
   -5.4401  -17.8778    7.7090 H   0  0  0  0  0
   -6.2790  -17.2253    9.1379 H   0  0  0  0  0
   -9.4679  -18.8370    8.3361 H   0  0  0  0  0
   -7.7961  -16.4995    9.3720 H   0  0  0  0  0
   -9.6728  -16.7040    9.3917 H   0  0  0  0  0
  1  2  1  0  0  0
  2  3  1  0  0  0
  2  4  1  0  0  0
  2  5  1  0  0  0
  5  6  2  0  0  0
  5  7  1  0  0  0
  7  8  1  0  0  0
  7 11  2  0  0  0
  8  9  2  0  0  0
  8 10  1  0  0  0
 10 13  1  0  0  0
 11 12  1  0  0  0
 11 13  1  0  0  0
 13 14  1  0  0  0
 13 15  1  0  0  0
 15 16  2  0  0  0
 16 17  1  0  0  0
 16 18  1  0  0  0
 18 19  2  0  0  0
 12 20  1  0  0  0
 14 21  1  0  0  0
 14 22  1  0  0  0
 14 23  1  0  0  0
 15 24  1  0  0  0
 17 25  1  0  0  0
 17 26  1  0  0  0
 17 27  1  0  0  0
 18 28  1  0  0  0
 19 29  1  0  0  0
 19 30  1  0  0  0
M  END
$$$$
