### 
### Created by X-TOOL on Sun Sep  9 21:50:02 2018
### 

@<TRIPOS>MOLECULE
1g42_ligand
   12    18     1     0     0
SMALL
GAST_HUCK


@<TRIPOS>ATOM
      1 CL1         7.1350   25.8440   23.7260 Cl        1 NON         0.7431
      2 C2          7.6830   24.3760   24.5350 C.3       1 NON         0.9632
      3 C3          7.8030   24.6570   26.0390 C.3       1 NON         0.5173
      4 C4          7.8990   23.3240   26.8110 C.3       1 NON         0.3773
      5 CL5         9.2180   25.6670   26.3570 Cl        1 NON         0.2332
      6 CL1         7.0810   25.7920   23.5700 Cl        1 NON         0.7431
      7 C2          7.6110   24.2780   24.3090 C.3       1 NON         0.9632
      8 C3          7.7010   24.4310   25.8340 C.3       1 NON         0.6181
      9 C4          9.0130   25.1590   26.2110 C.3       1 NON         0.3773
     10 CL5         7.6330   22.8430   26.5990 Cl        1 NON         0.2332
     11 H1          8.6155   23.1250   27.6215 H         1 NON         0.1155
     12 H2          9.8918   24.5115   26.3467 H         1 NON         0.1155
@<TRIPOS>BOND
     1    2    1 1  
     2    6    1 1  
     3    7    1 1  
     4    2    6 1  
     5    2    7 1  
     6    8    2 1  
     7    4    3 1  
     8    3    5 1  
     9    3    9 1  
    10    3   10 1  
    11    4    8 1  
    12    4   10 1  
    13    5    9 1  
    14    6    7 1  
    15    7    8 1  
    16    8    9 1  
    17    4   11 1  
    18    9   12 1  
@<TRIPOS>SUBSTRUCTURE
     1 NON         1

