1g42_ligand
  -I-interpret- 

 12 18  0  0  0  0  0  0  0  0999 V2000
    7.1350   25.8440   23.7260 Cl  0  0  0  0  0
    7.6830   24.3760   24.5350 C   0  0  0  0  0
    7.8030   24.6570   26.0390 C   0  0  0  0  0
    7.8990   23.3240   26.8110 C   0  0  0  0  0
    9.2180   25.6670   26.3570 Cl  0  0  0  0  0
    7.0810   25.7920   23.5700 Cl  0  0  0  0  0
    7.6110   24.2780   24.3090 C   0  0  0  0  0
    7.7010   24.4310   25.8340 C   0  0  0  0  0
    9.0130   25.1590   26.2110 C   0  0  0  0  0
    7.6330   22.8430   26.5990 Cl  0  0  0  0  0
    8.2846   22.8527   27.7150 H   0  0  0  0  0
   10.0987   25.1237   26.3011 H   0  0  0  0  0
  2  1  1  0  0  0
  6  1  1  0  0  0
  7  1  1  0  0  0
  2  6  1  0  0  0
  2  7  1  0  0  0
  8  2  1  0  0  0
  4  3  1  0  0  0
  3  5  1  0  0  0
  3  9  1  0  0  0
  3 10  1  0  0  0
  4  8  1  0  0  0
  4 10  1  0  0  0
  5  9  1  0  0  0
  6  7  1  0  0  0
  7  8  1  0  0  0
  8  9  1  0  0  0
  4 11  1  0  0  0
  9 12  1  0  0  0
M  END
$$$$
