2jh0_ligand
  -I-interpret- 

 53 55  0  0  0  0  0  0  0  0999 V2000
   10.2540   25.4630   46.1290 Cl  0  0  0  0  0
   10.5490   23.8690   46.9260 C   0  0  0  0  0
   11.4820   22.9090   46.5700 C   0  0  0  0  0
   11.3850   21.8010   47.4370 C   0  0  0  0  0
   10.4160   21.9300   48.4430 C   0  0  0  0  0
    9.9940   20.9760   49.5190 C   0  0  0  0  0
    9.3690   21.5090   50.7740 C   0  0  0  0  0
    9.8380   18.4170   50.2030 S   0  0  0  0  0
   10.5700   18.4440   51.4290 O   0  0  0  0  0
   10.2150   17.2610   49.4240 O   0  0  0  0  0
    8.2880   18.3710   50.5490 N   0  0  0  0  0
    7.3440   17.9470   49.5250 C   0  0  0  0  0
    6.3840   16.8320   49.9840 C   0  0  0  0  0
    4.9980   17.1390   49.3800 C   0  0  0  0  0
    6.4270   19.0410   49.0630 C   0  0  0  0  0
    6.7690   20.2030   48.8590 O   0  0  0  0  0
    5.2180   18.5160   48.9150 N   0  0  0  0  0
    4.1070   19.2320   48.3000 C   0  0  0  0  0
    3.9620   18.8090   46.8350 C   0  0  0  0  0
    2.8260   19.0720   49.0630 C   0  0  0  0  0
    1.8930   18.4910   48.5290 O   0  0  0  0  0
    2.7710   19.5210   50.3220 N   0  0  0  0  0
    3.9190   20.0720   51.0600 C   0  0  0  0  0
    3.4790   21.4240   51.5780 C   0  0  0  0  0
    2.2790   21.2540   52.3390 O   0  0  0  0  0
    1.2070   20.8470   51.4970 C   0  0  0  0  0
    1.5270   19.4270   51.0740 C   0  0  0  0  0
    9.5570   23.4980   48.3110 S   0  0  0  0  0
   10.2070   19.6580   49.2690 C   0  0  0  0  0
   12.1864   22.9969   45.7428 H   0  0  0  0  0
   12.0124   20.9157   47.3337 H   0  0  0  0  0
    8.3644   21.0996   50.8803 H   0  0  0  0  0
    9.9744   21.2171   51.6322 H   0  0  0  0  0
    9.3156   22.5963   50.7183 H   0  0  0  0  0
    7.9583   18.6353   51.4773 H   0  0  0  0  0
    8.0125   17.6080   48.7336 H   0  0  0  0  0
    6.3280   16.8001   51.0721 H   0  0  0  0  0
    6.7403   15.8585   49.6473 H   0  0  0  0  0
    4.1689   17.0279   50.0788 H   0  0  0  0  0
    4.6847   16.4459   48.5993 H   0  0  0  0  0
    4.3347   20.2975   48.3314 H   0  0  0  0  0
    4.8818   19.0415   46.2983 H   0  0  0  0  0
    3.7717   17.7369   46.7848 H   0  0  0  0  0
    3.1297   19.3486   46.3830 H   0  0  0  0  0
    4.7930   20.1639   50.4152 H   0  0  0  0  0
    4.2122   19.4143   51.8783 H   0  0  0  0  0
    3.2955   22.0994   50.7424 H   0  0  0  0  0
    4.2595   21.8519   52.2071 H   0  0  0  0  0
    1.1106   21.5049   50.6333 H   0  0  0  0  0
    0.2519   20.8984   52.0197 H   0  0  0  0  0
    1.6272   18.7651   51.9342 H   0  0  0  0  0
    0.7260   18.9975   50.4723 H   0  0  0  0  0
   10.6860   19.4197   48.3193 H   0  0  0  0  0
  2  1  1  0  0  0
  2  3  4  0  0  0
 28  2  4  0  0  0
  4  3  4  0  0  0
  5  4  4  0  0  0
  6  5  1  0  0  0
  5 28  4  0  0  0
  6  7  1  0  0  0
 29  6  2  0  0  0
  8  9  2  0  0  0
  8 10  2  0  0  0
  8 11  1  0  0  0
  8 29  1  0  0  0
 11 12  1  0  0  0
 12 13  1  0  0  0
 12 15  1  0  0  0
 13 14  1  0  0  0
 14 17  1  0  0  0
 15 16  2  0  0  0
 15 17  1  0  0  0
 17 18  1  0  0  0
 18 19  1  0  0  0
 18 20  1  0  0  0
 20 21  2  0  0  0
 20 22  1  0  0  0
 22 23  1  0  0  0
 22 27  1  0  0  0
 23 24  1  0  0  0
 24 25  1  0  0  0
 25 26  1  0  0  0
 26 27  1  0  0  0
  3 30  1  0  0  0
  4 31  1  0  0  0
  7 32  1  0  0  0
  7 33  1  0  0  0
  7 34  1  0  0  0
 11 35  1  0  0  0
 12 36  1  0  0  0
 13 37  1  0  0  0
 13 38  1  0  0  0
 14 39  1  0  0  0
 14 40  1  0  0  0
 18 41  1  0  0  0
 19 42  1  0  0  0
 19 43  1  0  0  0
 19 44  1  0  0  0
 23 45  1  0  0  0
 23 46  1  0  0  0
 24 47  1  0  0  0
 24 48  1  0  0  0
 26 49  1  0  0  0
 26 50  1  0  0  0
 27 51  1  0  0  0
 27 52  1  0  0  0
 29 53  1  0  0  0
M  END
$$$$
