1cet_ligand
  -I-interpret- 

 49 50  0  0  0  0  0  0  0  0999 V2000
   35.7010   11.6500   16.1060 N   0  0  0  0  0
   35.1830   10.5030   16.5910 C   0  0  0  0  0
   34.8220   10.3740   17.9260 C   0  0  0  0  0
   35.0150   11.4690   18.8760 C   0  0  0  0  0
   35.5920   12.7270   18.3580 C   0  0  0  0  0
   35.8420   13.9310   19.1500 C   0  0  0  0  0
   36.3770   15.0900   18.5720 C   0  0  0  0  0
   36.6750   15.0930   17.1700 C   0  0  0  0  0
   36.4550   13.9680   16.3590 C   0  0  0  0  0
   35.9160   12.7830   16.9300 C   0  0  0  0  0
   34.6720   11.3700   20.1980 N   0  0  0  0  0
   34.2140   10.1460   20.9380 C   0  0  0  0  0
   35.3120    9.0730   20.8840 C   0  0  0  0  0
   36.6190    9.3990   21.5830 C   0  0  0  0  0
   37.7060    8.4520   21.0990 C   0  0  0  0  0
   37.4150    7.0040   21.3790 N   0  3  0  0  0
   38.2660    6.0490   20.5130 C   0  0  0  0  0
   38.0790    4.5480   20.7070 C   0  0  0  0  0
   37.3140    6.6910   22.8460 C   0  0  0  0  0
   38.6200    6.5420   23.5540 C   0  0  0  0  0
   33.8020   10.5100   22.3570 C   0  0  0  0  0
   37.2970   16.5300   16.4670 Cl  0  0  0  0  0
   35.0442    9.6564   15.9187 H   0  0  0  0  0
   34.3858    9.4372   18.2728 H   0  0  0  0  0
   35.6067   13.9266   20.2143 H   0  0  0  0  0
   36.5637   15.9757   19.1793 H   0  0  0  0  0
   36.6964   14.0032   15.2966 H   0  0  0  0  0
   34.7350   12.2289   20.7446 H   0  0  0  0  0
   33.3291    9.7258   20.4600 H   0  0  0  0  0
   35.5585    8.9486   19.8295 H   0  0  0  0  0
   34.9059    8.2019   21.3981 H   0  0  0  0  0
   36.4923    9.2851   22.6596 H   0  0  0  0  0
   36.9053   10.4258   21.3554 H   0  0  0  0  0
   38.6223    8.7089   21.6305 H   0  0  0  0  0
   37.7798    8.5663   20.0175 H   0  0  0  0  0
   36.4659    6.8123   21.0583 H   0  0  0  0  0
   39.3003    6.2499   20.7922 H   0  0  0  0  0
   37.9659    6.2471   19.4840 H   0  0  0  0  0
   38.3161    4.2838   21.7376 H   0  0  0  0  0
   37.0445    4.2811   20.4910 H   0  0  0  0  0
   38.7432    4.0100   20.0306 H   0  0  0  0  0
   36.8020    5.7322   22.9275 H   0  0  0  0  0
   36.7993    7.5317   23.3112 H   0  0  0  0  0
   39.1871    5.7292   23.1003 H   0  0  0  0  0
   39.1845    7.4708   23.4717 H   0  0  0  0  0
   38.4385    6.3176   24.6051 H   0  0  0  0  0
   34.6530   10.9455   22.8807 H   0  0  0  0  0
   32.9862   11.2322   22.3232 H   0  0  0  0  0
   33.4727    9.6121   22.8800 H   0  0  0  0  0
  1 10  4  0  0  0
  1  2  4  0  0  0
  2  3  4  0  0  0
  3  4  4  0  0  0
  4 11  1  0  0  0
  4  5  4  0  0  0
  5 10  4  0  0  0
  5  6  4  0  0  0
  6  7  4  0  0  0
  7  8  4  0  0  0
  8  9  4  0  0  0
  9 10  4  0  0  0
 11 12  1  0  0  0
 12 21  1  0  0  0
 12 13  1  0  0  0
 13 14  1  0  0  0
 14 15  1  0  0  0
 15 16  1  0  0  0
 16 19  1  0  0  0
 16 17  1  0  0  0
 17 18  1  0  0  0
 19 20  1  0  0  0
  8 22  1  0  0  0
  2 23  1  0  0  0
  3 24  1  0  0  0
  6 25  1  0  0  0
  7 26  1  0  0  0
  9 27  1  0  0  0
 11 28  1  0  0  0
 12 29  1  0  0  0
 13 30  1  0  0  0
 13 31  1  0  0  0
 14 32  1  0  0  0
 14 33  1  0  0  0
 15 34  1  0  0  0
 15 35  1  0  0  0
 16 36  1  0  0  0
 17 37  1  0  0  0
 17 38  1  0  0  0
 18 39  1  0  0  0
 18 40  1  0  0  0
 18 41  1  0  0  0
 19 42  1  0  0  0
 19 43  1  0  0  0
 20 44  1  0  0  0
 20 45  1  0  0  0
 20 46  1  0  0  0
 21 47  1  0  0  0
 21 48  1  0  0  0
 21 49  1  0  0  0
M  END
$$$$
