6pg5_ligand
  -I-interpret- 

 42 43  0  0  0  0  0  0  0  0999 V2000
   23.3000   73.7990    5.1900 C   0  0  0  0  0
   19.3570   78.3110    6.3430 C   0  0  0  0  0
   17.5080   79.7660    5.6470 C   0  0  0  0  0
   20.1940   79.4390    6.3360 C   0  0  0  0  0
   15.9910   68.5110    5.0560 O   0  0  0  0  0
   17.0660   68.8560    5.9340 C   0  0  0  0  0
   18.1600   69.4140    5.0830 C   0  0  0  0  0
   18.2940   69.4700    3.7040 C   0  0  0  0  0
   19.4980   70.1230    3.3890 N   0  0  0  0  0
   20.0840   70.4700    4.5560 C   0  0  0  0  0
   21.4290   71.1870    4.8110 C   0  0  0  0  0
   21.9100   72.1230    3.7140 C   0  0  0  0  0
   23.3020   72.7970    4.0110 C   0  0  0  0  0
   22.3470   74.8080    5.0320 N   0  0  0  0  0
   21.3680   75.1310    5.9340 C   0  0  0  0  0
   20.6500   76.2910    5.6610 O   0  0  0  0  0
   19.8910   76.9250    6.6860 C   0  0  0  0  0
   18.0060   78.5000    5.9760 C   0  0  0  0  0
   18.3570   80.8810    5.6610 C   0  0  0  0  0
   19.7030   80.7070    6.0050 C   0  0  0  0  0
   21.0870   74.4610    6.9100 O   0  0  0  0  0
   19.2930   70.0660    5.6230 N   0  0  0  0  0
   24.2828   74.2683    5.2345 H   0  0  0  0  0
   23.0594   73.2482    6.0993 H   0  0  0  0  0
   16.4581   79.8850    5.3794 H   0  0  0  0  0
   21.2469   79.3244    6.5935 H   0  0  0  0  0
   15.2652   68.1470    5.5682 H   0  0  0  0  0
   17.4122   67.9807    6.4837 H   0  0  0  0  0
   16.7410   69.5871    6.6742 H   0  0  0  0  0
   17.5813   69.0722    2.9816 H   0  0  0  0  0
   22.1812   70.4024    4.8928 H   0  0  0  0  0
   21.2806   71.8062    5.6957 H   0  0  0  0  0
   21.1753   72.9235    3.6271 H   0  0  0  0  0
   22.0261   71.5271    2.8087 H   0  0  0  0  0
   23.9908   71.9956    4.2782 H   0  0  0  0  0
   23.5780   73.3590    3.1188 H   0  0  0  0  0
   22.3833   75.3517    4.1697 H   0  0  0  0  0
   19.0216   76.2925    6.8656 H   0  0  0  0  0
   20.5613   77.0517    7.5361 H   0  0  0  0  0
   17.3363   77.6405    5.9484 H   0  0  0  0  0
   17.9748   81.8698    5.4076 H   0  0  0  0  0
   20.3738   81.5661    6.0151 H   0  0  0  0  0
  1 13  1  0  0  0
 14  1  1  0  0  0
  2  4  4  0  0  0
 17  2  1  0  0  0
  2 18  4  0  0  0
 18  3  4  0  0  0
  3 19  4  0  0  0
  4 20  4  0  0  0
  6  5  1  0  0  0
  7  6  1  0  0  0
  7  8  4  0  0  0
 22  7  4  0  0  0
  9  8  4  0  0  0
 10  9  4  0  0  0
 11 10  1  0  0  0
 10 22  4  0  0  0
 12 11  1  0  0  0
 13 12  1  0  0  0
 15 14  1  0  0  0
 16 15  1  0  0  0
 15 21  2  0  0  0
 16 17  1  0  0  0
 19 20  4  0  0  0
  1 23  1  0  0  0
  1 24  1  0  0  0
  3 25  1  0  0  0
  4 26  1  0  0  0
  5 27  1  0  0  0
  6 28  1  0  0  0
  6 29  1  0  0  0
  8 30  1  0  0  0
 11 31  1  0  0  0
 11 32  1  0  0  0
 12 33  1  0  0  0
 12 34  1  0  0  0
 13 35  1  0  0  0
 13 36  1  0  0  0
 14 37  1  0  0  0
 17 38  1  0  0  0
 17 39  1  0  0  0
 18 40  1  0  0  0
 19 41  1  0  0  0
 20 42  1  0  0  0
M  END
$$$$
