6d3q_ligand
  -I-interpret- 

 20 20  0  0  0  0  0  0  0  0999 V2000
  -30.3520   38.5800  -33.9980 C   0  0  0  0  0
  -28.5450   38.7930  -32.4830 C   0  0  0  0  0
  -29.1730   40.1690  -32.6870 C   0  0  0  0  0
  -30.5480   39.8980  -33.3060 C   0  0  0  0  0
  -29.3190   37.9530  -33.4200 N   0  0  0  0  0
  -28.8980   36.6800  -33.7740 O   0  0  0  0  0
  -30.9760   38.1680  -34.9650 O   0  0  0  0  0
  -27.1750   38.7800  -32.8280 O   0  0  0  0  0
  -31.7500   38.4960  -31.2710 O   0  0  0  0  0
  -33.1000   39.4360  -33.1500 O   0  0  0  0  0
  -32.1340   40.9250  -31.4030 O   0  0  0  0  0
  -31.9720   39.6770  -32.1830 P   0  0  0  0  0
  -28.5802   38.4610  -31.4454 H   0  0  0  0  0
  -28.5597   40.7983  -33.3319 H   0  0  0  0  0
  -29.2566   40.7152  -31.7474 H   0  0  0  0  0
  -30.8126   40.7729  -33.8998 H   0  0  0  0  0
  -29.5280   36.2949  -34.3876 H   0  0  0  0  0
  -26.6856   39.3293  -32.2113 H   0  0  0  0  0
  -31.6480   37.7005  -31.7986 H   0  0  0  0  0
  -32.9427   38.6172  -33.6258 H   0  0  0  0  0
  1  4  1  0  0  0
  5  1  1  0  0  0
  1  7  2  0  0  0
  2  3  1  0  0  0
  2  5  1  0  0  0
  2  8  1  0  0  0
  3  4  1  0  0  0
  4 12  1  0  0  0
  5  6  1  0  0  0
 12  9  1  0  0  0
 12 10  1  0  0  0
 12 11  2  0  0  0
  2 13  1  0  0  0
  3 14  1  0  0  0
  3 15  1  0  0  0
  4 16  1  0  0  0
  6 17  1  0  0  0
  8 18  1  0  0  0
  9 19  1  0  0  0
 10 20  1  0  0  0
M  END
$$$$
