### 
### Created by X-TOOL on Mon Aug  2 16:12:53 2021
### 

@<TRIPOS>MOLECULE
6d3q_ligand
   18    18     1     0     0
SMALL
GAST_HUCK


@<TRIPOS>ATOM
      1 CAA       -30.3520   38.5800  -33.9980 C.2       1 MOL         0.2237
      2 CAC       -28.5450   38.7930  -32.4830 C.3       1 MOL         0.1726
      3 CAD       -29.1730   40.1690  -32.6870 C.3       1 MOL         0.0324
      4 CAE       -30.5480   39.8980  -33.3060 C.3       1 MOL         0.1254
      5 NAB       -29.3190   37.9530  -33.4200 N.am      1 MOL        -0.1197
      6 OAF       -28.8980   36.6800  -33.7740 O.3       1 MOL        -0.2667
      7 OAG       -30.9760   38.1680  -34.9650 O.2       1 MOL        -0.3948
      8 OAH       -27.1750   38.7800  -32.8280 O.3       1 MOL        -0.3674
      9 OAJ       -31.7500   38.4960  -31.2710 O.co2     1 MOL        -0.5604
     10 OAK       -33.1000   39.4360  -33.1500 O.co2     1 MOL        -0.5604
     11 OAL       -32.1340   40.9250  -31.4030 O.co2     1 MOL        -0.5604
     12 PAI       -31.9720   39.6770  -32.1830 P.3       1 MOL         0.0809
     13 H1        -28.6655   38.4526  -31.4440 H         1 MOL         0.0896
     14 H2        -28.5575   40.7765  -33.3667 H         1 MOL         0.0353
     15 H3        -29.2799   40.6903  -31.7243 H         1 MOL         0.0353
     16 H4        -30.7867   40.7001  -34.0199 H         1 MOL         0.0729
     17 H5        -29.5214   36.2989  -34.3812 H         1 MOL         0.2494
     18 H6        -27.0682   39.1188  -33.7091 H         1 MOL         0.2123
@<TRIPOS>BOND
     1    1    4 1  
     2    5    1 am 
     3    1    7 2  
     4    2    3 1  
     5    2    5 1  
     6    2    8 1  
     7    3    4 1  
     8    4   12 1  
     9    5    6 1  
    10   12    9 ar 
    11   12   10 ar 
    12   12   11 ar 
    13    2   13 1  
    14    3   14 1  
    15    3   15 1  
    16    4   16 1  
    17    6   17 1  
    18    8   18 1  
@<TRIPOS>SUBSTRUCTURE
     1 MOL         1

