4g3e_ligand
  -I-interpret- 

 41 44  0  0  0  0  0  0  0  0999 V2000
   50.6600   30.1950   -2.8550 C   0  0  0  0  0
   51.6720   29.8080   -2.3830 C   0  0  0  0  0
   52.8860   29.3390   -1.7880 C   0  0  0  0  0
   53.9080   28.9350   -2.6430 C   0  0  0  0  0
   55.1010   28.4840   -2.1260 C   0  0  0  0  0
   56.5000   27.9560    0.0230 C   0  0  0  0  0
   54.7150   28.6720    1.4660 N   0  0  0  0  0
   54.2900   28.8100    0.1300 C   0  0  0  0  0
   53.9390   28.9580    2.5970 C   0  0  0  0  0
   51.9580   29.8610    3.4200 C   0  0  0  0  0
   53.4200   28.9810    4.9530 C   0  0  0  0  0
   54.3060   28.6400    3.9360 C   0  0  0  0  0
   46.1210   29.2260   -1.7610 C   0  0  0  0  0
   49.3540   32.1780   -3.3590 C   0  0  0  0  0
   49.4160   30.6660   -3.5000 C   0  0  0  0  0
   49.3780   30.3720   -4.9060 O   0  0  0  0  0
   55.2920   28.4170   -0.7580 C   0  0  0  0  0
   56.1430   28.3100    1.4720 C   0  0  0  0  0
   53.0780   29.2810   -0.4030 C   0  0  0  0  0
   52.7650   29.5630    2.4090 N   0  0  0  0  0
   50.7500   30.4660    3.1620 N   0  0  0  0  0
   52.2670   29.5790    4.6730 N   0  0  0  0  0
   55.7950   27.8490    4.4090 Cl  0  0  0  0  0
   48.2310   29.9950   -2.8330 C   0  0  0  0  0
   48.1600   28.7400   -2.5510 N   0  0  0  0  0
   47.0530   28.2990   -1.9770 C   0  0  0  0  0
   46.7740   30.7500   -2.3530 S   0  0  0  0  0
   53.7631   28.9760   -3.7225 H   0  0  0  0  0
   55.9012   28.1774   -2.7997 H   0  0  0  0  0
   57.4080   27.4846   -0.3531 H   0  0  0  0  0
   53.6740   28.7556    5.9887 H   0  0  0  0  0
   45.1429   29.0709   -1.3056 H   0  0  0  0  0
   50.2075   32.6245   -3.8692 H   0  0  0  0  0
   48.4297   32.5456   -3.8046 H   0  0  0  0  0
   49.3805   32.4445   -2.3024 H   0  0  0  0  0
   49.4155   29.4213   -5.0341 H   0  0  0  0  0
   56.8113   28.2965    2.3329 H   0  0  0  0  0
   52.2814   29.6036    0.2674 H   0  0  0  0  0
   50.4822   30.6812    2.2016 H   0  0  0  0  0
   50.1220   30.6995    3.9311 H   0  0  0  0  0
   46.9135   27.2538   -1.7010 H   0  0  0  0  0
  1  2  3  0  0  0
 15  1  1  0  0  0
  2  3  1  0  0  0
  3  4  4  0  0  0
  3 19  4  0  0  0
  4  5  4  0  0  0
  5 17  4  0  0  0
 17  6  4  0  0  0
  6 18  4  0  0  0
  8  7  4  0  0  0
  7  9  1  0  0  0
  7 18  4  0  0  0
  8 17  4  0  0  0
 19  8  4  0  0  0
  9 12  4  0  0  0
  9 20  4  0  0  0
 20 10  4  0  0  0
 10 21  1  0  0  0
 10 22  4  0  0  0
 12 11  4  0  0  0
 11 22  4  0  0  0
 12 23  1  0  0  0
 13 26  4  0  0  0
 27 13  4  0  0  0
 15 14  1  0  0  0
 15 16  1  0  0  0
 24 15  1  0  0  0
 24 25  4  0  0  0
 24 27  4  0  0  0
 25 26  4  0  0  0
  4 28  1  0  0  0
  5 29  1  0  0  0
  6 30  1  0  0  0
 11 31  1  0  0  0
 13 32  1  0  0  0
 14 33  1  0  0  0
 14 34  1  0  0  0
 14 35  1  0  0  0
 16 36  1  0  0  0
 18 37  1  0  0  0
 19 38  1  0  0  0
 21 39  1  0  0  0
 21 40  1  0  0  0
 26 41  1  0  0  0
M  END
$$$$
