4wmu_ligand
  -I-interpret- 

 44 46  0  0  0  0  0  0  0  0999 V2000
   16.2800  190.3830   33.6500 O   0  0  0  0  0
   16.4200  191.6130   33.3890 C   0  0  0  0  0
   17.3110  191.9690   32.5810 O   0  0  0  0  0
   15.5420  192.6930   34.0460 C   0  0  0  0  0
   15.0420  193.7880   33.4300 N   0  0  0  0  0
   14.3180  194.5460   34.3310 C   0  0  0  0  0
   13.6110  195.7500   34.1880 C   0  0  0  0  0
   12.9430  196.3140   35.2840 C   0  0  0  0  0
   12.0610  197.8250   35.1240 Cl  0  0  0  0  0
   12.9840  195.6750   36.5220 C   0  0  0  0  0
   13.6770  194.4770   36.6630 C   0  0  0  0  0
   14.3570  193.9080   35.5630 C   0  0  0  0  0
   15.1440  192.7350   35.3940 C   0  0  0  0  0
   15.4950  191.6740   36.4600 C   0  0  0  0  0
   14.5530  190.4820   36.3890 C   0  0  0  0  0
   13.1290  190.8670   36.8230 C   0  0  0  0  0
   13.2570  191.4410   38.1450 O   0  0  0  0  0
   12.0340  191.6560   38.8340 C   0  0  0  0  0
   10.8310  191.6830   38.1250 C   0  0  0  0  0
    9.6540  191.8940   38.8250 C   0  0  0  0  0
    8.3130  191.9170   38.0480 C   0  0  0  0  0
    9.6810  192.0800   40.2130 C   0  0  0  0  0
    8.2070  192.3420   41.1020 Cl  0  0  0  0  0
   10.8850  192.0560   40.9100 C   0  0  0  0  0
   10.9330  192.2650   42.4470 C   0  0  0  0  0
   12.0670  191.8440   40.2150 C   0  0  0  0  0
   15.5640  190.2701   34.2795 H   0  0  0  0  0
   13.5811  196.2493   33.2195 H   0  0  0  0  0
   12.4733  196.1137   37.3792 H   0  0  0  0  0
   13.6955  193.9735   37.6295 H   0  0  0  0  0
   15.4020  192.1301   37.4456 H   0  0  0  0  0
   16.5108  191.3234   36.2776 H   0  0  0  0  0
   14.9227  189.7077   37.0612 H   0  0  0  0  0
   14.5177  190.1292   35.3583 H   0  0  0  0  0
   12.4703  189.9986   36.8316 H   0  0  0  0  0
   12.6818  191.5759   36.1262 H   0  0  0  0  0
   10.8183  191.5411   37.0443 H   0  0  0  0  0
    8.3381  192.7151   37.3060 H   0  0  0  0  0
    8.1675  190.9592   37.5485 H   0  0  0  0  0
    7.4937  192.0928   38.7450 H   0  0  0  0  0
   10.5211  193.2439   42.6923 H   0  0  0  0  0
   10.3447  191.4888   42.9365 H   0  0  0  0  0
   11.9668  192.2086   42.7880 H   0  0  0  0  0
   13.0182  191.8245   40.7470 H   0  0  0  0  0
  1  2  1  0  0  0
  2  3  2  0  0  0
  2  4  1  0  0  0
  4  5  4  0  0  0
  4 13  4  0  0  0
  5  6  4  0  0  0
  6  7  4  0  0  0
  6 12  4  0  0  0
  7  8  4  0  0  0
  8  9  1  0  0  0
  8 10  4  0  0  0
 10 11  4  0  0  0
 11 12  4  0  0  0
 12 13  4  0  0  0
 13 14  1  0  0  0
 14 15  1  0  0  0
 15 16  1  0  0  0
 16 17  1  0  0  0
 17 18  1  0  0  0
 18 19  4  0  0  0
 18 26  4  0  0  0
 19 20  4  0  0  0
 20 21  1  0  0  0
 20 22  4  0  0  0
 22 23  1  0  0  0
 22 24  4  0  0  0
 24 25  1  0  0  0
 24 26  4  0  0  0
  1 27  1  0  0  0
  7 28  1  0  0  0
 10 29  1  0  0  0
 11 30  1  0  0  0
 14 31  1  0  0  0
 14 32  1  0  0  0
 15 33  1  0  0  0
 15 34  1  0  0  0
 16 35  1  0  0  0
 16 36  1  0  0  0
 19 37  1  0  0  0
 21 38  1  0  0  0
 21 39  1  0  0  0
 21 40  1  0  0  0
 25 41  1  0  0  0
 25 42  1  0  0  0
 25 43  1  0  0  0
 26 44  1  0  0  0
M  END
$$$$
