4pio_ligand
  -I-interpret- 

 26 26  0  0  0  0  0  0  0  0999 V2000
   18.4500    1.4120   15.6410 C   0  0  0  0  0
   18.6790    2.7290   16.1890 N   0  3  0  0  0
   19.3210    3.4400   15.0970 C   0  0  0  0  0
   17.3890    3.3510   16.4410 C   0  0  0  0  0
   17.5470    4.8030   16.8590 C   0  0  0  0  0
   18.2300    4.9750   17.8020 O   0  0  0  0  0
   16.9860    5.6300   16.1510 O   0  0  0  0  0
   16.5780    2.5890   17.4810 C   0  0  0  0  0
   15.2580    3.2250   17.8430 C   0  0  0  0  0
   14.8280    3.3400   19.0930 N   0  0  0  0  0
   13.6490    3.9410   19.0960 C   0  0  0  0  0
   13.3100    4.2090   17.8580 N   0  0  0  0  0
   14.3000    3.7500   17.0480 C   0  0  0  0  0
   17.8811    0.8166   16.3551 H   0  0  0  0  0
   17.8891    1.4995   14.7105 H   0  0  0  0  0
   19.4077    0.9297   15.4454 H   0  0  0  0  0
   19.2229    2.7239   17.0519 H   0  0  0  0  0
   18.6948    3.3783   14.2070 H   0  0  0  0  0
   19.4567    4.4850   15.3756 H   0  0  0  0  0
   20.2916    2.9883   14.8919 H   0  0  0  0  0
   16.8392    3.3178   15.5004 H   0  0  0  0  0
   16.4999    5.1785   15.4572 H   0  0  0  0  0
   17.1766    2.5612   18.3915 H   0  0  0  0  0
   16.3523    1.6121   17.0533 H   0  0  0  0  0
   13.0575    4.1746   19.9812 H   0  0  0  0  0
   14.3178    3.7967   15.9591 H   0  0  0  0  0
  1  2  1  0  0  0
  2  3  1  0  0  0
  2  4  1  0  0  0
  4  5  1  0  0  0
  4  8  1  0  0  0
  5  6  2  0  0  0
  5  7  1  0  0  0
  8  9  1  0  0  0
  9 10  4  0  0  0
  9 13  4  0  0  0
 10 11  4  0  0  0
 11 12  4  0  0  0
 12 13  4  0  0  0
  1 14  1  0  0  0
  1 15  1  0  0  0
  1 16  1  0  0  0
  2 17  1  0  0  0
  3 18  1  0  0  0
  3 19  1  0  0  0
  3 20  1  0  0  0
  4 21  1  0  0  0
  7 22  1  0  0  0
  8 23  1  0  0  0
  8 24  1  0  0  0
 11 25  1  0  0  0
 13 26  1  0  0  0
M  END
$$$$
