4a6l_ligand
  -I-interpret- 

 54 57  0  0  0  0  0  0  0  0999 V2000
   -9.4230   53.1060   -7.0260 C   0  0  0  0  0
   -4.0660   62.0940   -3.6050 C   0  0  0  0  0
   -3.9650   60.6810   -3.3970 C   0  0  0  0  0
   -4.2740   59.7400   -4.4610 C   0  0  0  0  0
   -4.6730   60.1830   -5.8050 C   0  0  0  0  0
   -4.7880   61.5820   -6.0040 C   0  0  0  0  0
   -4.4620   62.5210   -4.9300 C   0  0  0  0  0
   -5.2310   62.1600   -7.3660 C   0  0  0  0  0
   -4.5720   61.5100   -8.4650 N   0  3  0  0  0
   -4.1680   58.2980   -4.1550 C   0  0  0  0  0
   -3.4080   57.4960   -5.2680 C   0  0  0  0  0
   -3.2390   56.0470   -4.7870 C   0  0  0  0  0
   -4.6460   55.5340   -4.5640 N   0  0  0  0  0
   -5.4500   56.2240   -3.3570 C   0  0  0  0  0
   -5.5860   57.7600   -3.6330 C   0  0  0  0  0
   -5.1590   54.5850   -5.3760 C   0  0  0  0  0
   -4.4630   54.0930   -6.3640 O   0  0  0  0  0
   -6.5540   54.0650   -5.1590 C   0  0  0  0  0
   -7.2930   53.8650   -6.2900 O   0  0  0  0  0
   -8.5150   53.3660   -5.9610 C   0  0  0  0  0
   -8.6190   53.2380   -4.6030 C   0  0  0  0  0
   -7.2990   53.7050   -4.0540 C   0  0  0  0  0
  -10.2070   52.8750   -7.8910 C   0  0  0  0  0
  -11.1420   52.5970   -8.9210 C   0  0  0  0  0
  -10.7080   52.3590  -10.3220 C   0  0  0  0  0
  -11.7140   52.0080  -11.3520 C   0  0  0  0  0
  -13.0780   51.9280  -10.8890 C   0  0  0  0  0
  -13.5100   52.1430   -9.4810 C   0  0  0  0  0
  -12.5310   52.5040   -8.4830 C   0  0  0  0  0
  -12.9100   52.7190   -7.1430 F   0  0  0  0  0
   -3.8562   62.8088   -2.8093 H   0  0  0  0  0
   -3.6509   60.3043   -2.4236 H   0  0  0  0  0
   -4.8703   59.4721   -6.6074 H   0  0  0  0  0
   -4.5200   63.5896   -5.1371 H   0  0  0  0  0
   -4.9700   63.2180   -7.3890 H   0  0  0  0  0
   -6.3045   62.0030   -7.4706 H   0  0  0  0  0
   -4.8919   61.9202   -9.3424 H   0  0  0  0  0
   -3.5635   61.6354   -8.3774 H   0  0  0  0  0
   -4.7944   60.5146   -8.4526 H   0  0  0  0  0
   -3.4984   58.1148   -3.3147 H   0  0  0  0  0
   -2.4322   57.9452   -5.4525 H   0  0  0  0  0
   -3.9756   57.5176   -6.1983 H   0  0  0  0  0
   -2.6431   55.9934   -3.8759 H   0  0  0  0  0
   -2.7021   55.4417   -5.5173 H   0  0  0  0  0
   -4.9090   56.0685   -2.4236 H   0  0  0  0  0
   -6.4420   55.7790   -3.2792 H   0  0  0  0  0
   -6.3563   57.9409   -4.3827 H   0  0  0  0  0
   -5.8740   58.2823   -2.7206 H   0  0  0  0  0
   -9.4773   52.8743   -4.0381 H   0  0  0  0  0
   -6.9957   53.7496   -3.0080 H   0  0  0  0  0
   -9.6549   52.4422  -10.5908 H   0  0  0  0  0
  -11.4413   51.8225  -12.3909 H   0  0  0  0  0
  -13.8482   51.6930  -11.6237 H   0  0  0  0  0
  -14.5583   52.0287   -9.2052 H   0  0  0  0  0
 20  1  1  0  0  0
  1 23  3  0  0  0
  3  2  4  0  0  0
  2  7  4  0  0  0
  4  3  4  0  0  0
  4  5  4  0  0  0
 10  4  1  0  0  0
  5  6  4  0  0  0
  6  7  4  0  0  0
  6  8  1  0  0  0
  8  9  1  0  0  0
 11 10  1  0  0  0
 15 10  1  0  0  0
 12 11  1  0  0  0
 13 12  1  0  0  0
 13 14  1  0  0  0
 16 13  1  0  0  0
 14 15  1  0  0  0
 16 17  2  0  0  0
 18 16  1  0  0  0
 19 18  4  0  0  0
 18 22  4  0  0  0
 19 20  4  0  0  0
 20 21  4  0  0  0
 21 22  4  0  0  0
 23 24  1  0  0  0
 24 25  4  0  0  0
 24 29  4  0  0  0
 25 26  4  0  0  0
 26 27  4  0  0  0
 27 28  4  0  0  0
 28 29  4  0  0  0
 29 30  1  0  0  0
  2 31  1  0  0  0
  3 32  1  0  0  0
  5 33  1  0  0  0
  7 34  1  0  0  0
  8 35  1  0  0  0
  8 36  1  0  0  0
  9 37  1  0  0  0
  9 38  1  0  0  0
  9 39  1  0  0  0
 10 40  1  0  0  0
 11 41  1  0  0  0
 11 42  1  0  0  0
 12 43  1  0  0  0
 12 44  1  0  0  0
 14 45  1  0  0  0
 14 46  1  0  0  0
 15 47  1  0  0  0
 15 48  1  0  0  0
 21 49  1  0  0  0
 22 50  1  0  0  0
 25 51  1  0  0  0
 26 52  1  0  0  0
 27 53  1  0  0  0
 28 54  1  0  0  0
M  END
$$$$
