4g5f_ligand
  -I-interpret- 

 21 22  0  0  0  0  0  0  0  0999 V2000
   15.3510   12.9380    3.7350 O   0  0  0  0  0
   15.3980   11.8060    3.4780 C   0  0  0  0  0
   15.6690   11.3670    2.3650 O   0  0  0  0  0
   15.1710   10.6630    4.4500 C   0  0  0  0  0
   14.5400   11.2010    5.5880 O   0  0  0  0  0
   14.0900   10.2450    6.4410 C   0  0  0  0  0
   13.6780   10.6390    7.6740 C   0  0  0  0  0
   13.3580    9.6910    8.6100 C   0  0  0  0  0
   13.4400    8.3710    8.3060 C   0  0  0  0  0
   13.8380    7.9630    7.0570 C   0  0  0  0  0
   14.1550    8.9000    6.1240 C   0  0  0  0  0
   14.3670    8.4670    4.8490 O   0  0  0  0  0
   14.4360    9.4920    3.8830 C   0  0  0  0  0
   15.6490   10.4075    2.3871 H   0  0  0  0  0
   16.1383   10.2326    4.7092 H   0  0  0  0  0
   13.6027   11.6990    7.9164 H   0  0  0  0  0
   13.0357    9.9989    9.6047 H   0  0  0  0  0
   13.1872    7.6269    9.0613 H   0  0  0  0  0
   13.8991    6.9016    6.8164 H   0  0  0  0  0
   14.9619    9.1254    3.0015 H   0  0  0  0  0
   13.4273    9.7968    3.6043 H   0  0  0  0  0
  1  2  2  0  0  0
  2  3  1  0  0  0
  2  4  1  0  0  0
  4  5  1  0  0  0
  4 13  1  0  0  0
  5  6  1  0  0  0
  6  7  4  0  0  0
  6 11  4  0  0  0
  7  8  4  0  0  0
  8  9  4  0  0  0
  9 10  4  0  0  0
 10 11  4  0  0  0
 11 12  1  0  0  0
 12 13  1  0  0  0
  3 14  1  0  0  0
  4 15  1  0  0  0
  7 16  1  0  0  0
  8 17  1  0  0  0
  9 18  1  0  0  0
 10 19  1  0  0  0
 13 20  1  0  0  0
 13 21  1  0  0  0
M  END
$$$$
