### 
### Created by X-TOOL on Mon Sep 10 21:13:05 2018
### 

@<TRIPOS>MOLECULE
2kwn_ligand
  254   254     1     0     0
SMALL
GAST_HUCK


@<TRIPOS>ATOM
      1 N           4.2530   -4.1230   17.9790 N.4       1 GLY         0.2357
      2 CA          4.9610   -5.3920   18.3050 C.3       1 GLY         0.0545
      3 C           4.0150   -6.5690   18.4370 C.2       1 GLY         0.2236
      4 O           4.4480   -7.7210   18.4750 O.2       1 GLY        -0.3910
      5 N           2.7180   -6.2810   18.5080 N.am      1 LEU        -0.2613
      6 CA          1.7070   -7.3250   18.6370 C.3       1 LEU         0.1313
      7 C           1.1530   -7.7200   17.2720 C.2       1 LEU         0.2037
      8 O           1.2440   -6.9570   16.3090 O.2       1 LEU        -0.3944
      9 CB          0.5680   -6.8530   19.5440 C.3       1 LEU        -0.0101
     10 CG          0.9720   -6.5300   20.9840 C.3       1 LEU        -0.0425
     11 CD1        -0.2110   -5.9640   21.7540 C.3       1 LEU        -0.0625
     12 CD2         1.5150   -7.7710   21.6790 C.3       1 LEU        -0.0625
     13 N           0.5780   -8.9170   17.1970 N.am      1 GLY        -0.2664
     14 CA          0.0170   -9.3960   15.9460 C.3       1 GLY         0.1201
     15 C          -1.4890   -9.2370   15.8850 C.2       1 GLY         0.2007
     16 O          -2.1800  -10.0430   15.2610 O.2       1 GLY        -0.3947
     17 N          -2.0000   -8.1960   16.5350 N.am      1 LYS        -0.2640
     18 CA         -3.4350   -7.9340   16.5510 C.3       1 LYS         0.1310
     19 C          -3.9170   -7.4550   15.1840 C.2       1 LYS         0.2037
     20 O          -4.9160   -7.9500   14.6630 O.2       1 LYS        -0.3944
     21 CB         -3.7750   -6.8990   17.6270 C.3       1 LYS        -0.0122
     22 CG         -2.9560   -5.6220   17.5330 C.3       1 LYS        -0.0440
     23 CD         -3.2930   -4.6600   18.6620 C.3       1 LYS        -0.0124
     24 CE         -2.4810   -3.3790   18.5670 C.3       1 LYS        -0.0354
     25 NZ         -1.0190   -3.6360   18.6820 N.4       1 LYS         0.2185
     26 N          -3.1990   -6.4940   14.6070 N.am      1 GLY        -0.2664
     27 CA         -3.5690   -5.9700   13.3030 C.3       1 GLY         0.1201
     28 C          -4.9250   -5.2890   13.3070 C.2       1 GLY         0.2005
     29 O          -5.9620   -5.9540   13.3420 O.2       1 GLY        -0.3947
     30 N          -4.9170   -3.9600   13.2640 N.am      1 GLY        -0.2666
     31 CA         -6.1590   -3.2090   13.2630 C.3       1 GLY         0.1201
     32 C          -6.9990   -3.4770   12.0280 C.2       1 GLY         0.2007
     33 O          -8.2140   -3.2840   12.0430 O.2       1 GLY        -0.3947
     34 N          -6.3470   -3.9220   10.9580 N.am      1 ALA        -0.2642
     35 CA         -7.0390   -4.2180    9.7090 C.3       1 ALA         0.1282
     36 C          -6.4070   -5.4160    9.0040 C.2       1 ALA         0.2036
     37 O          -6.8170   -6.5570    9.2180 O.2       1 ALA        -0.3944
     38 CB         -7.0370   -2.9980    8.8000 C.3       1 ALA        -0.0244
     39 OH         -4.6950   -4.5110    1.1420 O.2       1 ALY        -0.3974
     40 CH         -5.5190   -5.3260    0.7260 C.2       1 ALY         0.1729
     41 CH3        -6.0150   -5.1710   -0.7140 C.3       1 ALY         0.0256
     42 NZ         -6.2550   -6.0460    1.5650 N.am      1 ALY        -0.2872
     43 CE         -6.5460   -5.5900    2.9180 C.3       1 ALY         0.0309
     44 CD         -5.8320   -6.4120    3.9810 C.3       1 ALY        -0.0325
     45 CG         -6.2360   -5.9740    5.3830 C.3       1 ALY        -0.0470
     46 CB         -5.6670   -6.9010    6.4480 C.3       1 ALY        -0.0123
     47 CA         -4.7170   -6.2120    7.4370 C.3       1 ALY         0.1310
     48 N          -5.4070   -5.1500    8.1650 N.am      1 ALY        -0.2637
     49 C          -3.4990   -5.6720    6.6950 C.2       1 ALY         0.2039
     50 O          -2.4230   -6.2700    6.7430 O.2       1 ALY        -0.3944
     51 N          -3.6710   -4.5400    6.0130 N.am      1 ARG        -0.2637
     52 CA         -2.5850   -3.9320    5.2470 C.3       1 ARG         0.1311
     53 C          -2.0540   -4.9130    4.2080 C.2       1 ARG         0.2040
     54 O          -2.4510   -6.0790    4.1700 O.2       1 ARG        -0.3944
     55 CB         -1.4460   -3.4840    6.1800 C.3       1 ARG        -0.0092
     56 CG         -0.2200   -2.8980    5.4690 C.3       1 ARG        -0.0156
     57 CD         -0.4880   -1.5030    4.9120 C.3       1 ARG         0.0627
     58 NE         -1.2080   -0.6620    5.8630 N.pl3     1 ARG        -0.2723
     59 CZ         -0.6080    0.1150    6.7610 C.cat     1 ARG         0.2882
     60 NH1         0.7150    0.1410    6.8410 N.pl3     1 ARG        -0.2849
     61 NH2        -1.3330    0.8640    7.5800 N.pl3     1 ARG        -0.2849
     62 N          -1.1780   -4.4210    3.3540 N.am      1 HIS        -0.2625
     63 CA         -0.5590   -5.2260    2.3220 C.3       1 HIS         0.1369
     64 C           0.2670   -6.3670    2.9350 C.2       1 HIS         0.2054
     65 O          -0.1620   -7.0090    3.8950 O.2       1 HIS        -0.3942
     66 CB          0.3320   -4.3220    1.4720 C.3       1 HIS         0.0145
     67 CG         -0.3130   -3.0310    1.0990 C.2       1 HIS        -0.0027
     68 ND1        -0.0050   -1.8320    1.6990 N.2       1 HIS        -0.3252
     69 CD2        -1.2590   -2.7590    0.1770 C.2       1 HIS         0.0291
     70 CE1        -0.7380   -0.8760    1.1640 C.2       1 HIS         0.0907
     71 NE2        -1.5090   -1.4110    0.2370 N.pl3     1 HIS        -0.2752
     72 N           1.4410   -6.6200    2.3460 N.am      1 ARG        -0.2636
     73 CA          2.3720   -7.6530    2.8100 C.3       1 ARG         0.1311
     74 C           2.0530   -9.0580    2.2970 C.2       1 ARG         0.2039
     75 O           2.9480   -9.8960    2.2180 O.2       1 ARG        -0.3944
     76 CB          2.4560   -7.6340    4.3270 C.3       1 ARG        -0.0092
     77 CG          3.8730   -7.7260    4.8660 C.3       1 ARG        -0.0156
     78 CD          4.0710   -8.9760    5.7050 C.3       1 ARG         0.0627
     79 NE          4.5650  -10.0980    4.9120 N.pl3     1 ARG        -0.2723
     80 CZ          5.7230  -10.7100    5.1430 C.cat     1 ARG         0.2882
     81 NH1         6.5150  -10.2930    6.1240 N.pl3     1 ARG        -0.2849
     82 NH2         6.0940  -11.7360    4.3900 N.pl3     1 ARG        -0.2849
     83 N           0.7950   -9.3080    1.9590 N.am      1 LYS        -0.2637
     84 CA          0.3620  -10.6070    1.4270 C.3       1 LYS         0.1310
     85 C           0.9380  -11.7930    2.2090 C.2       1 LYS         0.2039
     86 O           2.1050  -12.1590    2.0600 O.2       1 LYS        -0.3944
     87 CB          0.7000  -10.7210   -0.0740 C.3       1 LYS        -0.0122
     88 CG          2.1690  -10.9010   -0.4120 C.3       1 LYS        -0.0440
     89 CD          2.3880  -10.7600   -1.9090 C.3       1 LYS        -0.0124
     90 CE          3.8430  -10.9420   -2.2860 C.3       1 LYS        -0.0354
     91 NZ          4.0190  -11.1030   -3.7560 N.4       1 LYS         0.2185
     92 N           0.0990  -12.3970    3.0430 N.am      1 VAL        -0.2635
     93 CA          0.5070  -13.5490    3.8370 C.3       1 VAL         0.1332
     94 C          -0.1580  -14.8230    3.3110 C.2       1 VAL         0.2041
     95 O          -1.1630  -15.2890    3.8500 O.2       1 VAL        -0.3944
     96 CB          0.1790  -13.3470    5.3340 C.3       1 VAL        -0.0063
     97 CG1        -1.2830  -12.9700    5.5280 C.3       1 VAL        -0.0584
     98 CG2         0.5320  -14.5910    6.1390 C.3       1 VAL        -0.0584
     99 N           0.4130  -15.3760    2.2430 N.am      1 LEU        -0.2637
    100 CA         -0.1180  -16.5880    1.6240 C.3       1 LEU         0.1312
    101 C          -1.5630  -16.3780    1.1790 C.2       1 LEU         0.2033
    102 O          -2.4990  -16.6350    1.9360 O.2       1 LEU        -0.3944
    103 CB         -0.0270  -17.7720    2.5910 C.3       1 LEU        -0.0101
    104 CG         -0.5430  -19.1050    2.0400 C.3       1 LEU        -0.0425
    105 CD1         0.2080  -19.4900    0.7740 C.3       1 LEU        -0.0625
    106 CD2        -0.4150  -20.1990    3.0880 C.3       1 LEU        -0.0625
    107 N          -1.7310  -15.9100   -0.0570 N.am      1 ARG        -0.2695
    108 CA         -3.0570  -15.6540   -0.6140 C.3       1 ARG         0.0945
    109 C          -3.8200  -14.6430    0.2370 C.2       1 ARG         0.0601
    110 O          -4.5430  -15.0710    1.1610 O.co2     1 ARG        -0.5666
    111 CB         -3.8580  -16.9540   -0.7260 C.3       1 ARG        -0.0148
    112 CG         -3.3030  -17.9270   -1.7530 C.3       1 ARG        -0.0162
    113 CD         -4.1860  -19.1570   -1.8860 C.3       1 ARG         0.0627
    114 NE         -4.3190  -19.8730   -0.6210 N.pl3     1 ARG        -0.2723
    115 CZ         -5.2140  -20.8330   -0.4060 C.cat     1 ARG         0.2882
    116 NH1        -6.0510  -21.1940   -1.3710 N.pl3     1 ARG        -0.2849
    117 NH2        -5.2730  -21.4330    0.7750 N.pl3     1 ARG        -0.2849
    118 OXT        -3.6850  -13.4290   -0.0270 O.co2     1 ARG        -0.5666
    119 H1          4.9235   -3.3743   17.9023 H         1 GLY         0.2012
    120 H2          3.5928   -3.9092   18.7101 H         1 GLY         0.2012
    121 H3          3.7635   -4.2265   17.1039 H         1 GLY         0.2012
    122 H4          5.4969   -5.2621   19.2568 H         1 GLY         0.1061
    123 H5          5.6832   -5.6085   17.5041 H         1 GLY         0.1061
    124 H6          2.4287   -5.3244   18.4720 H         1 LEU         0.1884
    125 H7          2.1763   -8.2092   19.0929 H         1 LEU         0.0800
    126 H8         -0.1937   -7.6460   19.5742 H         1 LEU         0.0315
    127 H9          0.1342   -5.9446   19.1006 H         1 LEU         0.0315
    128 H10         1.7668   -5.7699   20.9596 H         1 LEU         0.0298
    129 H11         0.0972   -5.7379   22.7855 H         1 LEU         0.0232
    130 H12        -1.0262   -6.7023   21.7684 H         1 LEU         0.0232
    131 H13        -0.5596   -5.0423   21.2652 H         1 LEU         0.0232
    132 H14         2.3688   -8.1663   21.1092 H         1 LEU         0.0232
    133 H15         0.7258   -8.5352   21.7343 H         1 LEU         0.0232
    134 H16         1.8428   -7.5081   22.6956 H         1 LEU         0.0232
    135 H17         0.5314   -9.4943   18.0122 H         1 GLY         0.1881
    136 H18         0.2636  -10.4622   15.8344 H         1 GLY         0.0763
    137 H19         0.4653   -8.8273   15.1180 H         1 GLY         0.0763
    138 H20        -1.3857   -7.5774   17.0249 H         1 LYS         0.1883
    139 H21        -3.9558   -8.8722   16.7929 H         1 LYS         0.0800
    140 H22        -3.5969   -7.3530   18.6130 H         1 LYS         0.0312
    141 H23        -4.8388   -6.6361   17.5311 H         1 LYS         0.0312
    142 H24        -3.1667   -5.1320   16.5710 H         1 LYS         0.0269
    143 H25        -1.8875   -5.8776   17.5881 H         1 LYS         0.0269
    144 H26        -3.0774   -5.1487   19.6236 H         1 LYS         0.0317
    145 H27        -4.3627   -4.4091   18.6098 H         1 LYS         0.0317
    146 H28        -2.7877   -2.7030   19.3787 H         1 LYS         0.0813
    147 H29        -2.6825   -2.9019   17.5966 H         1 LYS         0.0813
    148 H30        -0.5182   -2.7638   18.6142 H         1 LYS         0.1994
    149 H31        -0.7263   -4.2502   17.9383 H         1 LYS         0.1994
    150 H32        -0.8227   -4.0679   19.5714 H         1 LYS         0.1994
    151 H33        -2.3954   -6.1283   15.0765 H         1 GLY         0.1881
    152 H34        -3.5957   -6.8023   12.5843 H         1 GLY         0.0763
    153 H35        -2.8093   -5.2389   12.9894 H         1 GLY         0.0763
    154 H36        -4.0447   -3.4721   13.2320 H         1 GLY         0.1881
    155 H37        -5.9222   -2.1355   13.3024 H         1 GLY         0.0763
    156 H38        -6.7413   -3.4890   14.1532 H         1 GLY         0.0763
    157 H39        -5.3576   -4.0570   11.0111 H         1 ALA         0.1883
    158 H40        -8.0831   -4.4706    9.9456 H         1 ALA         0.0797
    159 H41        -7.5621   -3.2376    7.8636 H         1 ALA         0.0277
    160 H42        -5.9995   -2.7099    8.5752 H         1 ALA         0.0277
    161 H43        -7.5481   -2.1644    9.3039 H         1 ALA         0.0277
    162 H44        -6.7412   -5.9660   -0.9392 H         1 ALY         0.0467
    163 H45        -5.1628   -5.2462   -1.4055 H         1 ALY         0.0467
    164 H46        -6.4975   -4.1895   -0.8320 H         1 ALY         0.0467
    165 H47        -6.6196   -6.9257    1.2596 H         1 ALY         0.1850
    166 H48        -7.6305   -5.6611    3.0877 H         1 ALY         0.0520
    167 H49        -6.2281   -4.5411    3.0119 H         1 ALY         0.0520
    168 H50        -4.7459   -6.2829    3.8643 H         1 ALY         0.0285
    169 H51        -6.0916   -7.4726    3.8482 H         1 ALY         0.0285
    170 H52        -7.3336   -5.9788    5.4557 H         1 ALY         0.0268
    171 H53        -5.8612   -4.9551    5.5601 H         1 ALY         0.0268
    172 H54        -5.1149   -7.7080    5.9441 H         1 ALY         0.0312
    173 H55        -6.5055   -7.3297    7.0164 H         1 ALY         0.0312
    174 H56        -4.3735   -6.9599    8.1668 H         1 ALY         0.0800
    175 H57        -5.1220   -4.2010    8.0304 H         1 ALY         0.1883
    176 H58        -4.5665   -4.0951    6.0257 H         1 ARG         0.1883
    177 H59        -2.9788   -3.0471    4.7255 H         1 ARG         0.0800
    178 H60        -1.1178   -4.3577    6.7622 H         1 ARG         0.0313
    179 H61        -1.8441   -2.7178    6.8614 H         1 ARG         0.0313
    180 H62         0.0594   -3.5631    4.6386 H         1 ARG         0.0301
    181 H63         0.6112   -2.8389    6.1871 H         1 ARG         0.0301
    182 H64        -1.0887   -1.5963    3.9952 H         1 ARG         0.0689
    183 H65         0.4737   -1.0254    4.6733 H         1 ARG         0.0689
    184 H66        -2.2377   -0.6705    5.8375 H         1 ARG         0.2642
    185 H67         1.1771    0.7434    7.5371 H         1 ARG         0.2615
    186 H68         1.2808   -0.4412    6.2071 H         1 ARG         0.2615
    187 H69        -2.3611    0.8458    7.5201 H         1 ARG         0.2615
    188 H70        -0.8682    1.4641    8.2762 H         1 ARG         0.2615
    189 H71        -0.9316   -3.4542    3.4218 H         1 HIS         0.1885
    190 H72        -1.3441   -5.6611    1.6862 H         1 HIS         0.0817
    191 H73         0.5936   -4.8598    0.5488 H         1 HIS         0.0420
    192 H74         1.2477   -4.1020    2.0403 H         1 HIS         0.0420
    193 H75        -1.7355   -3.4754   -0.4905 H         1 HIS         0.0729
    194 H76        -0.7116    0.1770    1.4404 H         1 HIS         0.1199
    195 H77        -2.1875   -0.9006   -0.3462 H         1 HIS         0.2361
    196 H78         1.6971   -6.0758    1.5471 H         1 ARG         0.1883
    197 H79         3.3656   -7.3895    2.4184 H         1 ARG         0.0800
    198 H80         1.8813   -8.4872    4.7165 H         1 ARG         0.0313
    199 H81         2.0088   -6.6957    4.6870 H         1 ARG         0.0313
    200 H82         4.0764   -6.8422    5.4885 H         1 ARG         0.0301
    201 H83         4.5760   -7.7485    4.0203 H         1 ARG         0.0301
    202 H84         3.1076   -9.2571    6.1553 H         1 ARG         0.0689
    203 H85         4.7979   -8.7573    6.5011 H         1 ARG         0.0689
    204 H86         3.9845  -10.4342    4.1304 H         1 ARG         0.2642
    205 H87         7.4111  -10.7693    6.3001 H         1 ARG         0.2615
    206 H88         6.2332   -9.4933    6.7088 H         1 ARG         0.2615
    207 H89         5.4831  -12.0630    3.6280 H         1 ARG         0.2615
    208 H90         6.9932  -12.2062    4.5670 H         1 ARG         0.2615
    209 H91         0.1146   -8.5837    2.0707 H         1 LYS         0.1883
    210 H92        -0.7325  -10.6521    1.5267 H         1 LYS         0.0800
    211 H93         0.3507   -9.8027   -0.5687 H         1 LYS         0.0312
    212 H94         0.1531  -11.5858   -0.4777 H         1 LYS         0.0312
    213 H95         2.4953  -11.9011   -0.0904 H         1 LYS         0.0269
    214 H96         2.7587  -10.1360    0.1144 H         1 LYS         0.0269
    215 H97         2.0619   -9.7576   -2.2233 H         1 LYS         0.0317
    216 H98         1.7879  -11.5209   -2.4295 H         1 LYS         0.0317
    217 H99         4.2320  -11.8384   -1.7809 H         1 LYS         0.0813
    218 H100        4.4095  -10.0593   -1.9545 H         1 LYS         0.0813
    219 H101        4.9977  -11.2212   -3.9662 H         1 LYS         0.1994
    220 H102        3.6706  -10.2833   -4.2279 H         1 LYS         0.1994
    221 H103        3.5079  -11.9135   -4.0688 H         1 LYS         0.1994
    222 H104       -0.8360  -12.0527    3.1282 H         1 VAL         0.1883
    223 H105        1.5967  -13.6629    3.7387 H         1 VAL         0.0802
    224 H106        0.7953  -12.5156    5.7067 H         1 VAL         0.0343
    225 H107       -1.4871  -12.8329    6.6002 H         1 VAL         0.0234
    226 H108       -1.9240  -13.7716    5.1323 H         1 VAL         0.0234
    227 H109       -1.4943  -12.0331    4.9918 H         1 VAL         0.0234
    228 H110        1.5915  -14.8412    5.9814 H         1 VAL         0.0234
    229 H111       -0.0962  -15.4316    5.8093 H         1 VAL         0.0234
    230 H112        0.3557  -14.3985    7.2076 H         1 VAL         0.0234
    231 H113        1.2291  -14.9493    1.8532 H         1 LEU         0.1883
    232 H114        0.4890  -16.8174    0.7358 H         1 LEU         0.0800
    233 H115       -0.6136  -17.5247    3.4881 H         1 LEU         0.0315
    234 H116        1.0291  -17.9045    2.8685 H         1 LEU         0.0315
    235 H117       -1.6075  -18.9874    1.7891 H         1 LEU         0.0298
    236 H118       -0.1777  -20.4483    0.3960 H         1 LEU         0.0232
    237 H119        1.2800  -19.5896    0.9995 H         1 LEU         0.0232
    238 H120        0.0646  -18.7106    0.0112 H         1 LEU         0.0232
    239 H121       -0.9632  -19.9039    3.9949 H         1 LEU         0.0232
    240 H122        0.6466  -20.3489    3.3338 H         1 LEU         0.0232
    241 H123       -0.8359  -21.1356    2.6936 H         1 LEU         0.0232
    242 H124       -0.9251  -15.7285   -0.6205 H         1 ARG         0.1875
    243 H125       -2.9318  -15.2344   -1.6231 H         1 ARG         0.0726
    244 H126       -4.8908  -16.7023   -1.0088 H         1 ARG         0.0307
    245 H127       -3.8570  -17.4483    0.2567 H         1 ARG         0.0307
    246 H128       -2.2963  -18.2414   -1.4406 H         1 ARG         0.0301
    247 H129       -3.2433  -17.4222   -2.7285 H         1 ARG         0.0301
    248 H130       -3.7433  -19.8332   -2.6321 H         1 ARG         0.0689
    249 H131       -5.1848  -18.8426   -2.2230 H         1 ARG         0.0689
    250 H132       -3.6834  -19.6203    0.1491 H         1 ARG         0.2642
    251 H133       -6.7429  -21.9379   -1.2010 H         1 ARG         0.2615
    252 H134       -6.0086  -20.7303   -2.2897 H         1 ARG         0.2615
    253 H135       -4.6253  -21.1558    1.5264 H         1 ARG         0.2615
    254 H136       -5.9665  -22.1763    0.9410 H         1 ARG         0.2615
@<TRIPOS>BOND
     1    2    1 1  
     2    3    2 1  
     3    3    4 2  
     4    5    3 am 
     5    6    5 1  
     6    7    6 1  
     7    6    9 1  
     8    7    8 2  
     9   13    7 am 
    10    9   10 1  
    11   10   11 1  
    12   10   12 1  
    13   14   13 1  
    14   15   14 1  
    15   15   16 2  
    16   17   15 am 
    17   18   17 1  
    18   19   18 1  
    19   18   21 1  
    20   19   20 2  
    21   26   19 am 
    22   21   22 1  
    23   22   23 1  
    24   23   24 1  
    25   24   25 1  
    26   27   26 1  
    27   28   27 1  
    28   28   29 2  
    29   30   28 am 
    30   31   30 1  
    31   32   31 1  
    32   32   33 2  
    33   34   32 am 
    34   35   34 1  
    35   36   35 1  
    36   35   38 1  
    37   36   37 2  
    38   48   36 am 
    39   40   39 2  
    40   40   41 1  
    41   42   40 am 
    42   43   42 1  
    43   44   43 1  
    44   45   44 1  
    45   46   45 1  
    46   47   46 1  
    47   47   48 1  
    48   47   49 1  
    49   49   50 2  
    50   49   51 am 
    51   51   52 1  
    52   52   53 1  
    53   52   55 1  
    54   53   54 2  
    55   53   62 am 
    56   55   56 1  
    57   56   57 1  
    58   57   58 1  
    59   58   59 ar 
    60   59   60 ar 
    61   59   61 ar 
    62   62   63 1  
    63   63   64 1  
    64   63   66 1  
    65   64   65 2  
    66   64   72 am 
    67   66   67 1  
    68   67   68 1  
    69   67   69 2  
    70   68   70 2  
    71   69   71 1  
    72   70   71 1  
    73   72   73 1  
    74   73   74 1  
    75   73   76 1  
    76   74   75 2  
    77   74   83 am 
    78   76   77 1  
    79   77   78 1  
    80   78   79 1  
    81   79   80 ar 
    82   80   81 ar 
    83   80   82 ar 
    84   83   84 1  
    85   84   85 1  
    86   84   87 1  
    87   85   86 2  
    88   85   92 am 
    89   87   88 1  
    90   88   89 1  
    91   89   90 1  
    92   90   91 1  
    93   92   93 1  
    94   93   94 1  
    95   93   96 1  
    96   94   95 2  
    97   94   99 am 
    98   96   97 1  
    99   96   98 1  
   100   99  100 1  
   101  100  101 1  
   102  100  103 1  
   103  101  102 2  
   104  101  107 am 
   105  103  104 1  
   106  104  105 1  
   107  104  106 1  
   108  107  108 1  
   109  108  109 1  
   110  108  111 1  
   111  109  110 ar 
   112  109  118 ar 
   113  111  112 1  
   114  112  113 1  
   115  113  114 1  
   116  114  115 ar 
   117  115  116 ar 
   118  115  117 ar 
   119    1  119 1  
   120    1  120 1  
   121    1  121 1  
   122    2  122 1  
   123    2  123 1  
   124    5  124 1  
   125    6  125 1  
   126    9  126 1  
   127    9  127 1  
   128   10  128 1  
   129   11  129 1  
   130   11  130 1  
   131   11  131 1  
   132   12  132 1  
   133   12  133 1  
   134   12  134 1  
   135   13  135 1  
   136   14  136 1  
   137   14  137 1  
   138   17  138 1  
   139   18  139 1  
   140   21  140 1  
   141   21  141 1  
   142   22  142 1  
   143   22  143 1  
   144   23  144 1  
   145   23  145 1  
   146   24  146 1  
   147   24  147 1  
   148   25  148 1  
   149   25  149 1  
   150   25  150 1  
   151   26  151 1  
   152   27  152 1  
   153   27  153 1  
   154   30  154 1  
   155   31  155 1  
   156   31  156 1  
   157   34  157 1  
   158   35  158 1  
   159   38  159 1  
   160   38  160 1  
   161   38  161 1  
   162   41  162 1  
   163   41  163 1  
   164   41  164 1  
   165   42  165 1  
   166   43  166 1  
   167   43  167 1  
   168   44  168 1  
   169   44  169 1  
   170   45  170 1  
   171   45  171 1  
   172   46  172 1  
   173   46  173 1  
   174   47  174 1  
   175   48  175 1  
   176   51  176 1  
   177   52  177 1  
   178   55  178 1  
   179   55  179 1  
   180   56  180 1  
   181   56  181 1  
   182   57  182 1  
   183   57  183 1  
   184   58  184 1  
   185   60  185 1  
   186   60  186 1  
   187   61  187 1  
   188   61  188 1  
   189   62  189 1  
   190   63  190 1  
   191   66  191 1  
   192   66  192 1  
   193   69  193 1  
   194   70  194 1  
   195   71  195 1  
   196   72  196 1  
   197   73  197 1  
   198   76  198 1  
   199   76  199 1  
   200   77  200 1  
   201   77  201 1  
   202   78  202 1  
   203   78  203 1  
   204   79  204 1  
   205   81  205 1  
   206   81  206 1  
   207   82  207 1  
   208   82  208 1  
   209   83  209 1  
   210   84  210 1  
   211   87  211 1  
   212   87  212 1  
   213   88  213 1  
   214   88  214 1  
   215   89  215 1  
   216   89  216 1  
   217   90  217 1  
   218   90  218 1  
   219   91  219 1  
   220   91  220 1  
   221   91  221 1  
   222   92  222 1  
   223   93  223 1  
   224   96  224 1  
   225   97  225 1  
   226   97  226 1  
   227   97  227 1  
   228   98  228 1  
   229   98  229 1  
   230   98  230 1  
   231   99  231 1  
   232  100  232 1  
   233  103  233 1  
   234  103  234 1  
   235  104  235 1  
   236  105  236 1  
   237  105  237 1  
   238  105  238 1  
   239  106  239 1  
   240  106  240 1  
   241  106  241 1  
   242  107  242 1  
   243  108  243 1  
   244  111  244 1  
   245  111  245 1  
   246  112  246 1  
   247  112  247 1  
   248  113  248 1  
   249  113  249 1  
   250  114  250 1  
   251  116  251 1  
   252  116  252 1  
   253  117  253 1  
   254  117  254 1  
@<TRIPOS>SUBSTRUCTURE
     1 GLY         1

