2kwn_ligand
  -I-interpret- 

251251  0  0  0  0  0  0  0  0999 V2000
    4.2530   -4.1230   17.9790 N   0  3  0  0  0
    4.9610   -5.3920   18.3050 C   0  0  0  0  0
    4.0150   -6.5690   18.4370 C   0  0  0  0  0
    4.4480   -7.7210   18.4750 O   0  0  0  0  0
    2.7180   -6.2810   18.5080 N   0  0  0  0  0
    1.7070   -7.3250   18.6370 C   0  0  0  0  0
    1.1530   -7.7200   17.2720 C   0  0  0  0  0
    1.2440   -6.9570   16.3090 O   0  0  0  0  0
    0.5680   -6.8530   19.5440 C   0  0  0  0  0
    0.9720   -6.5300   20.9840 C   0  0  0  0  0
   -0.2110   -5.9640   21.7540 C   0  0  0  0  0
    1.5150   -7.7710   21.6790 C   0  0  0  0  0
    0.5780   -8.9170   17.1970 N   0  0  0  0  0
    0.0170   -9.3960   15.9460 C   0  0  0  0  0
   -1.4890   -9.2370   15.8850 C   0  0  0  0  0
   -2.1800  -10.0430   15.2610 O   0  0  0  0  0
   -2.0000   -8.1960   16.5350 N   0  0  0  0  0
   -3.4350   -7.9340   16.5510 C   0  0  0  0  0
   -3.9170   -7.4550   15.1840 C   0  0  0  0  0
   -4.9160   -7.9500   14.6630 O   0  0  0  0  0
   -3.7750   -6.8990   17.6270 C   0  0  0  0  0
   -2.9560   -5.6220   17.5330 C   0  0  0  0  0
   -3.2930   -4.6600   18.6620 C   0  0  0  0  0
   -2.4810   -3.3790   18.5670 C   0  0  0  0  0
   -1.0190   -3.6360   18.6820 N   0  3  0  0  0
   -3.1990   -6.4940   14.6070 N   0  0  0  0  0
   -3.5690   -5.9700   13.3030 C   0  0  0  0  0
   -4.9250   -5.2890   13.3070 C   0  0  0  0  0
   -5.9620   -5.9540   13.3420 O   0  0  0  0  0
   -4.9170   -3.9600   13.2640 N   0  0  0  0  0
   -6.1590   -3.2090   13.2630 C   0  0  0  0  0
   -6.9990   -3.4770   12.0280 C   0  0  0  0  0
   -8.2140   -3.2840   12.0430 O   0  0  0  0  0
   -6.3470   -3.9220   10.9580 N   0  0  0  0  0
   -7.0390   -4.2180    9.7090 C   0  0  0  0  0
   -6.4070   -5.4160    9.0040 C   0  0  0  0  0
   -6.8170   -6.5570    9.2180 O   0  0  0  0  0
   -7.0370   -2.9980    8.8000 C   0  0  0  0  0
   -4.6950   -4.5110    1.1420 O   0  0  0  0  0
   -5.5190   -5.3260    0.7260 C   0  0  0  0  0
   -6.0150   -5.1710   -0.7140 C   0  0  0  0  0
   -6.2550   -6.0460    1.5650 N   0  0  0  0  0
   -6.5460   -5.5900    2.9180 C   0  0  0  0  0
   -5.8320   -6.4120    3.9810 C   0  0  0  0  0
   -6.2360   -5.9740    5.3830 C   0  0  0  0  0
   -5.6670   -6.9010    6.4480 C   0  0  0  0  0
   -4.7170   -6.2120    7.4370 C   0  0  0  0  0
   -5.4070   -5.1500    8.1650 N   0  0  0  0  0
   -3.4990   -5.6720    6.6950 C   0  0  0  0  0
   -2.4230   -6.2700    6.7430 O   0  0  0  0  0
   -3.6710   -4.5400    6.0130 N   0  0  0  0  0
   -2.5850   -3.9320    5.2470 C   0  0  0  0  0
   -2.0540   -4.9130    4.2080 C   0  0  0  0  0
   -2.4510   -6.0790    4.1700 O   0  0  0  0  0
   -1.4460   -3.4840    6.1800 C   0  0  0  0  0
   -0.2200   -2.8980    5.4690 C   0  0  0  0  0
   -0.4880   -1.5030    4.9120 C   0  0  0  0  0
   -1.2080   -0.6620    5.8630 N   0  0  0  0  0
   -0.6080    0.1150    6.7610 C   0  0  0  0  0
    0.7150    0.1410    6.8410 N   0  0  0  0  0
   -1.3330    0.8640    7.5800 N   0  0  0  0  0
   -1.1780   -4.4210    3.3540 N   0  0  0  0  0
   -0.5590   -5.2260    2.3220 C   0  0  0  0  0
    0.2670   -6.3670    2.9350 C   0  0  0  0  0
   -0.1620   -7.0090    3.8950 O   0  0  0  0  0
    0.3320   -4.3220    1.4720 C   0  0  0  0  0
   -0.3130   -3.0310    1.0990 C   0  0  0  0  0
   -0.0050   -1.8320    1.6990 N   0  0  0  0  0
   -1.2590   -2.7590    0.1770 C   0  0  0  0  0
   -0.7380   -0.8760    1.1640 C   0  0  0  0  0
   -1.5090   -1.4110    0.2370 N   0  0  0  0  0
    1.4410   -6.6200    2.3460 N   0  0  0  0  0
    2.3720   -7.6530    2.8100 C   0  0  0  0  0
    2.0530   -9.0580    2.2970 C   0  0  0  0  0
    2.9480   -9.8960    2.2180 O   0  0  0  0  0
    2.4560   -7.6340    4.3270 C   0  0  0  0  0
    3.8730   -7.7260    4.8660 C   0  0  0  0  0
    4.0710   -8.9760    5.7050 C   0  0  0  0  0
    4.5650  -10.0980    4.9120 N   0  0  0  0  0
    5.7230  -10.7100    5.1430 C   0  0  0  0  0
    6.5150  -10.2930    6.1240 N   0  0  0  0  0
    6.0940  -11.7360    4.3900 N   0  0  0  0  0
    0.7950   -9.3080    1.9590 N   0  0  0  0  0
    0.3620  -10.6070    1.4270 C   0  0  0  0  0
    0.9380  -11.7930    2.2090 C   0  0  0  0  0
    2.1050  -12.1590    2.0600 O   0  0  0  0  0
    0.7000  -10.7210   -0.0740 C   0  0  0  0  0
    2.1690  -10.9010   -0.4120 C   0  0  0  0  0
    2.3880  -10.7600   -1.9090 C   0  0  0  0  0
    3.8430  -10.9420   -2.2860 C   0  0  0  0  0
    4.0190  -11.1030   -3.7560 N   0  3  0  0  0
    0.0990  -12.3970    3.0430 N   0  0  0  0  0
    0.5070  -13.5490    3.8370 C   0  0  0  0  0
   -0.1580  -14.8230    3.3110 C   0  0  0  0  0
   -1.1630  -15.2890    3.8500 O   0  0  0  0  0
    0.1790  -13.3470    5.3340 C   0  0  0  0  0
   -1.2830  -12.9700    5.5280 C   0  0  0  0  0
    0.5320  -14.5910    6.1390 C   0  0  0  0  0
    0.4130  -15.3760    2.2430 N   0  0  0  0  0
   -0.1180  -16.5880    1.6240 C   0  0  0  0  0
   -1.5630  -16.3780    1.1790 C   0  0  0  0  0
   -2.4990  -16.6350    1.9360 O   0  0  0  0  0
   -0.0270  -17.7720    2.5910 C   0  0  0  0  0
   -0.5430  -19.1050    2.0400 C   0  0  0  0  0
    0.2080  -19.4900    0.7740 C   0  0  0  0  0
   -0.4150  -20.1990    3.0880 C   0  0  0  0  0
   -1.7310  -15.9100   -0.0570 N   0  0  0  0  0
   -3.0570  -15.6540   -0.6140 C   0  0  0  0  0
   -3.8200  -14.6430    0.2370 C   0  0  0  0  0
   -4.5430  -15.0710    1.1610 O   0  0  0  0  0
   -3.8580  -16.9540   -0.7260 C   0  0  0  0  0
   -3.3030  -17.9270   -1.7530 C   0  0  0  0  0
   -4.1860  -19.1570   -1.8860 C   0  0  0  0  0
   -4.3190  -19.8730   -0.6210 N   0  0  0  0  0
   -5.2140  -20.8330   -0.4060 C   0  0  0  0  0
   -6.0510  -21.1940   -1.3710 N   0  0  0  0  0
   -5.2730  -21.4330    0.7750 N   0  0  0  0  0
   -3.6850  -13.4290   -0.0270 O   0  0  0  0  0
    4.9324   -3.3662   17.9017 H   0  0  0  0  0
    3.7581   -4.2290   17.0934 H   0  0  0  0  0
    3.5853   -3.9077   18.7194 H   0  0  0  0  0
    5.4662   -5.2584   19.2616 H   0  0  0  0  0
    5.6543   -5.6080   17.4921 H   0  0  0  0  0
    2.4229   -5.3053   18.4713 H   0  0  0  0  0
    2.1807   -8.1992   19.0836 H   0  0  0  0  0
   -0.1495   -7.6719   19.5967 H   0  0  0  0  0
    0.1866   -5.9281   19.1113 H   0  0  0  0  0
    1.7603   -5.7776   20.9591 H   0  0  0  0  0
   -0.5555   -5.0509   21.2686 H   0  0  0  0  0
   -1.0181   -6.6965   21.7675 H   0  0  0  0  0
    0.0956   -5.7404   22.7758 H   0  0  0  0  0
    0.7467   -8.5441   21.6919 H   0  0  0  0  0
    2.3893   -8.1349   21.1393 H   0  0  0  0  0
    1.7963   -7.5194   22.7016 H   0  0  0  0  0
    0.5305   -9.5059   18.0285 H   0  0  0  0  0
    0.2463  -10.4581   15.8601 H   0  0  0  0  0
    0.4498   -8.8077   15.1369 H   0  0  0  0  0
   -1.3734   -7.5651   17.0347 H   0  0  0  0  0
   -3.9483   -8.8665   16.7855 H   0  0  0  0  0
   -3.5581   -7.3530   18.5939 H   0  0  0  0  0
   -4.8212   -6.6239   17.4935 H   0  0  0  0  0
   -3.1831   -5.1349   16.5847 H   0  0  0  0  0
   -1.9001   -5.8827   17.6048 H   0  0  0  0  0
   -3.0599   -5.1459   19.6094 H   0  0  0  0  0
   -4.3501   -4.4035   18.5917 H   0  0  0  0  0
   -2.7779   -2.7255   19.3873 H   0  0  0  0  0
   -2.6720   -2.9255   17.5944 H   0  0  0  0  0
   -0.5133   -2.7528   18.6133 H   0  0  0  0  0
   -0.8216   -4.0731   19.5822 H   0  0  0  0  0
   -0.7240   -4.2575   17.9290 H   0  0  0  0  0
   -2.3793   -6.1209   15.0859 H   0  0  0  0  0
   -3.6181   -6.8081   12.6078 H   0  0  0  0  0
   -2.8234   -5.2281   13.0172 H   0  0  0  0  0
   -4.0273   -3.4623   13.2313 H   0  0  0  0  0
   -5.9104   -2.1478   13.2769 H   0  0  0  0  0
   -6.7370   -3.5137   14.1355 H   0  0  0  0  0
   -5.3378   -4.0597   11.0122 H   0  0  0  0  0
   -8.0721   -4.4738    9.9443 H   0  0  0  0  0
   -7.5436   -2.1728    9.3005 H   0  0  0  0  0
   -6.0084   -2.7135    8.5781 H   0  0  0  0  0
   -7.5575   -3.2367    7.8725 H   0  0  0  0  0
   -6.4928   -4.1981   -0.8296 H   0  0  0  0  0
   -5.1697   -5.2457   -1.3981 H   0  0  0  0  0
   -6.7344   -5.9592   -0.9360 H   0  0  0  0  0
   -6.6269   -6.9432    1.2535 H   0  0  0  0  0
   -7.6189   -5.6908    3.0816 H   0  0  0  0  0
   -6.2022   -4.5593    3.0050 H   0  0  0  0  0
   -4.7576   -6.2671    3.8682 H   0  0  0  0  0
   -6.1059   -7.4591    3.8521 H   0  0  0  0  0
   -7.3236   -5.9995    5.4508 H   0  0  0  0  0
   -5.8449   -4.9714    5.5557 H   0  0  0  0  0
   -5.0924   -7.6702    5.9320 H   0  0  0  0  0
   -6.5089   -7.2849    7.0242 H   0  0  0  0  0
   -4.3780   -6.9442    8.1698 H   0  0  0  0  0
   -5.1163   -4.1820    8.0277 H   0  0  0  0  0
   -4.5844   -4.0862    6.0260 H   0  0  0  0  0
   -2.9793   -3.0545    4.7345 H   0  0  0  0  0
   -1.1067   -4.3726    6.7123 H   0  0  0  0  0
   -1.8499   -2.6946    6.8138 H   0  0  0  0  0
    0.0335   -3.5529    4.6353 H   0  0  0  0  0
    0.5894   -2.8232    6.1953 H   0  0  0  0  0
   -1.1011   -1.6061    4.0167 H   0  0  0  0  0
    0.4714   -1.0315    4.6991 H   0  0  0  0  0
   -2.2277   -0.6704    5.8378 H   0  0  0  0  0
    1.1726    0.7363    7.5314 H   0  0  0  0  0
    1.2754   -0.4342    6.2121 H   0  0  0  0  0
   -2.3512    0.8447    7.5218 H   0  0  0  0  0
   -0.9267   -3.4349    3.4231 H   0  0  0  0  0
   -1.3331   -5.6782    1.7020 H   0  0  0  0  0
    0.5537   -4.8561    0.5481 H   0  0  0  0  0
    1.2177   -4.0869    2.0622 H   0  0  0  0  0
   -1.7360   -3.4761   -0.4911 H   0  0  0  0  0
   -0.7115    0.1780    1.4407 H   0  0  0  0  0
    1.7022   -6.0650    1.5311 H   0  0  0  0  0
    3.3436   -7.4046    2.3830 H   0  0  0  0  0
    1.9128   -8.5054    4.6927 H   0  0  0  0  0
    2.0425   -6.6830    4.6627 H   0  0  0  0  0
    4.0597   -6.8556    5.4950 H   0  0  0  0  0
    4.5611   -7.7651    4.0216 H   0  0  0  0  0
    3.1067   -9.2575    6.1281 H   0  0  0  0  0
    4.8086   -8.7542    6.4762 H   0  0  0  0  0
    3.9902  -10.4309    4.1380 H   0  0  0  0  0
    7.4045  -10.7617    6.2955 H   0  0  0  0  0
    6.2338   -9.5040    6.7060 H   0  0  0  0  0
    5.4911  -12.0569    3.6324 H   0  0  0  0  0
    0.1010   -8.5693    2.0730 H   0  0  0  0  0
   -0.7202  -10.6517    1.5494 H   0  0  0  0  0
    0.3937   -9.7794   -0.5297 H   0  0  0  0  0
    0.1904  -11.6139   -0.4361 H   0  0  0  0  0
    2.4866  -11.8954   -0.0984 H   0  0  0  0  0
    2.7490  -10.1370    0.1056 H   0  0  0  0  0
    2.0805   -9.7575   -2.2066 H   0  0  0  0  0
    1.8051  -11.5303   -2.4139 H   0  0  0  0  0
    4.2131  -11.8428   -1.7965 H   0  0  0  0  0
    4.3916  -10.0544   -1.9710 H   0  0  0  0  0
    5.0096  -11.2225   -3.9675 H   0  0  0  0  0
    3.5014  -11.9234   -4.0714 H   0  0  0  0  0
    3.6661  -10.2730   -4.2324 H   0  0  0  0  0
   -0.8547  -12.0458    3.1299 H   0  0  0  0  0
    1.5881  -13.6524    3.7438 H   0  0  0  0  0
    0.7882  -12.5217    5.7026 H   0  0  0  0  0
   -1.4911  -12.0415    4.9962 H   0  0  0  0  0
   -1.9171  -13.7650    5.1355 H   0  0  0  0  0
   -1.4840  -12.8345    6.5907 H   0  0  0  0  0
   -0.0414  -15.4391    5.7648 H   0  0  0  0  0
    1.5974  -14.7978    6.0373 H   0  0  0  0  0
    0.2917  -14.4231    7.1889 H   0  0  0  0  0
    1.2454  -14.9408    1.8454 H   0  0  0  0  0
    0.4854  -16.8116    0.7442 H   0  0  0  0  0
   -0.6526  -17.5246    3.4486 H   0  0  0  0  0
    1.0305  -17.9137    2.8137 H   0  0  0  0  0
   -1.5973  -18.9869    1.7899 H   0  0  0  0  0
    0.0651  -18.7169    0.0190 H   0  0  0  0  0
    1.2700  -19.5883    0.9988 H   0  0  0  0  0
   -0.1750  -20.4396    0.4004 H   0  0  0  0  0
    0.6325  -20.3121    3.3673 H   0  0  0  0  0
   -0.9996  -19.9283    3.9672 H   0  0  0  0  0
   -0.7865  -21.1382    2.6782 H   0  0  0  0  0
   -0.9089  -15.7248   -0.6317 H   0  0  0  0  0
   -2.9239  -15.2369   -1.6122 H   0  0  0  0  0
   -4.8674  -16.6888   -1.0405 H   0  0  0  0  0
   -3.8169  -17.4468    0.2454 H   0  0  0  0  0
   -2.3126  -18.2456   -1.4280 H   0  0  0  0  0
   -3.2621  -17.4242   -2.7193 H   0  0  0  0  0
   -3.7279  -19.8289   -2.6118 H   0  0  0  0  0
   -5.1780  -18.8325   -2.2002 H   0  0  0  0  0
   -3.6896  -19.6228    0.1417 H   0  0  0  0  0
   -6.7363  -21.9305   -1.2026 H   0  0  0  0  0
   -6.0088  -20.7349   -2.2809 H   0  0  0  0  0
   -4.6318  -21.1584    1.5192 H   0  0  0  0  0
   -3.0867  -13.3291   -0.7711 H   0  0  0  0  0
  2  1  1  0  0  0
  3  2  1  0  0  0
  3  4  2  0  0  0
  5  3  1  0  0  0
  6  5  1  0  0  0
  7  6  1  0  0  0
  6  9  1  0  0  0
  7  8  2  0  0  0
 13  7  1  0  0  0
  9 10  1  0  0  0
 10 11  1  0  0  0
 10 12  1  0  0  0
 14 13  1  0  0  0
 15 14  1  0  0  0
 15 16  2  0  0  0
 17 15  1  0  0  0
 18 17  1  0  0  0
 19 18  1  0  0  0
 18 21  1  0  0  0
 19 20  2  0  0  0
 26 19  1  0  0  0
 21 22  1  0  0  0
 22 23  1  0  0  0
 23 24  1  0  0  0
 24 25  1  0  0  0
 27 26  1  0  0  0
 28 27  1  0  0  0
 28 29  2  0  0  0
 30 28  1  0  0  0
 31 30  1  0  0  0
 32 31  1  0  0  0
 32 33  2  0  0  0
 34 32  1  0  0  0
 35 34  1  0  0  0
 36 35  1  0  0  0
 35 38  1  0  0  0
 36 37  2  0  0  0
 48 36  1  0  0  0
 40 39  2  0  0  0
 40 41  1  0  0  0
 42 40  1  0  0  0
 43 42  1  0  0  0
 44 43  1  0  0  0
 45 44  1  0  0  0
 46 45  1  0  0  0
 47 46  1  0  0  0
 47 48  1  0  0  0
 47 49  1  0  0  0
 49 50  2  0  0  0
 49 51  1  0  0  0
 51 52  1  0  0  0
 52 53  1  0  0  0
 52 55  1  0  0  0
 53 54  2  0  0  0
 53 62  1  0  0  0
 55 56  1  0  0  0
 56 57  1  0  0  0
 57 58  1  0  0  0
 58 59  1  0  0  0
 59 60  1  0  0  0
 59 61  2  0  0  0
 62 63  1  0  0  0
 63 64  1  0  0  0
 63 66  1  0  0  0
 64 65  2  0  0  0
 64 72  1  0  0  0
 66 67  1  0  0  0
 67 68  4  0  0  0
 67 69  4  0  0  0
 68 70  4  0  0  0
 69 71  4  0  0  0
 70 71  4  0  0  0
 72 73  1  0  0  0
 73 74  1  0  0  0
 73 76  1  0  0  0
 74 75  2  0  0  0
 74 83  1  0  0  0
 76 77  1  0  0  0
 77 78  1  0  0  0
 78 79  1  0  0  0
 79 80  1  0  0  0
 80 81  1  0  0  0
 80 82  2  0  0  0
 83 84  1  0  0  0
 84 85  1  0  0  0
 84 87  1  0  0  0
 85 86  2  0  0  0
 85 92  1  0  0  0
 87 88  1  0  0  0
 88 89  1  0  0  0
 89 90  1  0  0  0
 90 91  1  0  0  0
 92 93  1  0  0  0
 93 94  1  0  0  0
 93 96  1  0  0  0
 94 95  2  0  0  0
 94 99  1  0  0  0
 96 97  1  0  0  0
 96 98  1  0  0  0
 99100  1  0  0  0
100101  1  0  0  0
100103  1  0  0  0
101102  2  0  0  0
101107  1  0  0  0
103104  1  0  0  0
104105  1  0  0  0
104106  1  0  0  0
107108  1  0  0  0
108109  1  0  0  0
108111  1  0  0  0
109110  2  0  0  0
109118  1  0  0  0
111112  1  0  0  0
112113  1  0  0  0
113114  1  0  0  0
114115  1  0  0  0
115116  1  0  0  0
115117  2  0  0  0
  1119  1  0  0  0
  1120  1  0  0  0
  1121  1  0  0  0
  2122  1  0  0  0
  2123  1  0  0  0
  5124  1  0  0  0
  6125  1  0  0  0
  9126  1  0  0  0
  9127  1  0  0  0
 10128  1  0  0  0
 11129  1  0  0  0
 11130  1  0  0  0
 11131  1  0  0  0
 12132  1  0  0  0
 12133  1  0  0  0
 12134  1  0  0  0
 13135  1  0  0  0
 14136  1  0  0  0
 14137  1  0  0  0
 17138  1  0  0  0
 18139  1  0  0  0
 21140  1  0  0  0
 21141  1  0  0  0
 22142  1  0  0  0
 22143  1  0  0  0
 23144  1  0  0  0
 23145  1  0  0  0
 24146  1  0  0  0
 24147  1  0  0  0
 25148  1  0  0  0
 25149  1  0  0  0
 25150  1  0  0  0
 26151  1  0  0  0
 27152  1  0  0  0
 27153  1  0  0  0
 30154  1  0  0  0
 31155  1  0  0  0
 31156  1  0  0  0
 34157  1  0  0  0
 35158  1  0  0  0
 38159  1  0  0  0
 38160  1  0  0  0
 38161  1  0  0  0
 41162  1  0  0  0
 41163  1  0  0  0
 41164  1  0  0  0
 42165  1  0  0  0
 43166  1  0  0  0
 43167  1  0  0  0
 44168  1  0  0  0
 44169  1  0  0  0
 45170  1  0  0  0
 45171  1  0  0  0
 46172  1  0  0  0
 46173  1  0  0  0
 47174  1  0  0  0
 48175  1  0  0  0
 51176  1  0  0  0
 52177  1  0  0  0
 55178  1  0  0  0
 55179  1  0  0  0
 56180  1  0  0  0
 56181  1  0  0  0
 57182  1  0  0  0
 57183  1  0  0  0
 58184  1  0  0  0
 60185  1  0  0  0
 60186  1  0  0  0
 61187  1  0  0  0
 62188  1  0  0  0
 63189  1  0  0  0
 66190  1  0  0  0
 66191  1  0  0  0
 69192  1  0  0  0
 70193  1  0  0  0
 72194  1  0  0  0
 73195  1  0  0  0
 76196  1  0  0  0
 76197  1  0  0  0
 77198  1  0  0  0
 77199  1  0  0  0
 78200  1  0  0  0
 78201  1  0  0  0
 79202  1  0  0  0
 81203  1  0  0  0
 81204  1  0  0  0
 82205  1  0  0  0
 83206  1  0  0  0
 84207  1  0  0  0
 87208  1  0  0  0
 87209  1  0  0  0
 88210  1  0  0  0
 88211  1  0  0  0
 89212  1  0  0  0
 89213  1  0  0  0
 90214  1  0  0  0
 90215  1  0  0  0
 91216  1  0  0  0
 91217  1  0  0  0
 91218  1  0  0  0
 92219  1  0  0  0
 93220  1  0  0  0
 96221  1  0  0  0
 97222  1  0  0  0
 97223  1  0  0  0
 97224  1  0  0  0
 98225  1  0  0  0
 98226  1  0  0  0
 98227  1  0  0  0
 99228  1  0  0  0
100229  1  0  0  0
103230  1  0  0  0
103231  1  0  0  0
104232  1  0  0  0
105233  1  0  0  0
105234  1  0  0  0
105235  1  0  0  0
106236  1  0  0  0
106237  1  0  0  0
106238  1  0  0  0
107239  1  0  0  0
108240  1  0  0  0
111241  1  0  0  0
111242  1  0  0  0
112243  1  0  0  0
112244  1  0  0  0
113245  1  0  0  0
113246  1  0  0  0
114247  1  0  0  0
116248  1  0  0  0
116249  1  0  0  0
117250  1  0  0  0
118251  1  0  0  0
M  END
$$$$
