2iku_ligand
  -I-interpret- 

 62 65  0  0  0  0  0  0  0  0999 V2000
   -9.6520   28.0120  -34.2670 N   0  0  0  0  0
  -10.7850   27.7760  -36.2880 N   0  0  0  0  0
  -11.6130   26.6000  -34.2870 C   0  0  0  0  0
  -12.2430   25.4260  -32.0240 C   0  0  0  0  0
  -14.0190   26.2270  -35.0350 C   0  0  0  0  0
  -14.8920   25.4520  -35.8030 C   0  0  0  0  0
  -13.0110   24.0520  -36.5590 C   0  0  0  0  0
  -15.3710   23.5660  -37.3940 C   0  0  0  0  0
  -13.3670   22.2390  -38.2960 C   0  0  0  0  0
  -10.7670   21.8740  -35.9850 C   0  0  0  0  0
  -11.8670   23.9880  -32.3150 C   0  0  0  0  0
  -13.3990   22.8230  -39.6630 C   0  0  0  0  0
  -13.8150   21.9950  -40.7150 C   0  0  0  0  0
  -13.5150   23.7930  -42.2840 C   0  0  0  0  0
  -13.0480   24.1490  -39.9340 C   0  0  0  0  0
  -10.6620   27.4800  -34.9800 C   0  0  0  0  0
  -11.3680   26.3380  -32.8500 C   0  0  0  0  0
  -10.3320   26.9490  -32.2640 N   0  0  0  0  0
   -9.4850   27.7440  -32.9570 C   0  0  0  0  0
   -8.4480   28.3300  -32.3210 N   0  0  0  0  0
  -12.6800   25.9250  -35.0460 C   0  0  0  0  0
  -12.1890   24.8560  -35.7890 C   0  0  0  0  0
  -14.4350   24.3790  -36.5550 C   0  0  0  0  0
  -14.7830   22.2060  -37.7370 C   0  0  0  0  0
  -13.8690   22.4750  -42.0160 C   0  0  0  0  0
  -13.1030   24.6250  -41.2500 C   0  0  0  0  0
  -12.5300   22.9780  -37.3430 N   0  0  0  0  0
  -11.1230   22.5140  -37.3320 C   0  0  0  0  0
   -9.2570   21.6930  -35.8620 C   0  0  0  0  0
   -8.8570   20.9230  -34.7170 O   0  0  0  0  0
   -7.4240   20.8230  -34.5950 C   0  0  0  0  0
  -10.1142   28.4012  -36.7347 H   0  0  0  0  0
  -11.5490   27.3750  -36.8320 H   0  0  0  0  0
  -12.0982   25.6372  -30.9645 H   0  0  0  0  0
  -13.2901   25.5913  -32.2778 H   0  0  0  0  0
  -14.3949   27.0574  -34.4373 H   0  0  0  0  0
  -15.9544   25.6954  -35.8116 H   0  0  0  0  0
  -15.5546   24.1048  -38.3235 H   0  0  0  0  0
  -16.2903   23.4099  -36.8295 H   0  0  0  0  0
  -12.9336   21.2449  -38.4062 H   0  0  0  0  0
  -11.2473   20.8978  -35.9188 H   0  0  0  0  0
  -11.1123   22.5245  -35.1815 H   0  0  0  0  0
  -12.0166   23.7820  -33.3749 H   0  0  0  0  0
  -10.8202   23.8281  -32.0567 H   0  0  0  0  0
  -12.4946   23.3226  -31.7222 H   0  0  0  0  0
  -14.0991   20.9631  -40.5089 H   0  0  0  0  0
  -13.5607   24.1732  -43.3045 H   0  0  0  0  0
  -12.7333   24.8087  -39.1254 H   0  0  0  0  0
   -7.8221   28.9523  -32.8322 H   0  0  0  0  0
   -8.2906   28.1504  -31.3294 H   0  0  0  0  0
  -11.1200   24.6445  -35.7637 H   0  0  0  0  0
  -15.4171   21.7756  -38.5121 H   0  0  0  0  0
  -14.7411   21.6380  -36.8076 H   0  0  0  0  0
  -14.1884   21.8200  -42.8266 H   0  0  0  0  0
  -12.8206   25.6556  -41.4648 H   0  0  0  0  0
  -10.9936   21.7701  -38.1181 H   0  0  0  0  0
  -10.4703   23.3716  -37.4954 H   0  0  0  0  0
   -8.8181   22.6851  -35.7561 H   0  0  0  0  0
   -8.9206   21.1558  -36.7488 H   0  0  0  0  0
   -7.0177   20.3409  -35.4841 H   0  0  0  0  0
   -6.9986   21.8216  -34.4951 H   0  0  0  0  0
   -7.1761   20.2312  -33.7139 H   0  0  0  0  0
 16  1  4  0  0  0
  1 19  4  0  0  0
 16  2  1  0  0  0
  3 16  4  0  0  0
  3 17  4  0  0  0
 21  3  1  0  0  0
  4 11  1  0  0  0
 17  4  1  0  0  0
  6  5  4  0  0  0
 21  5  4  0  0  0
 23  6  4  0  0  0
  7 22  4  0  0  0
  7 23  4  0  0  0
 27  7  1  0  0  0
 23  8  1  0  0  0
 24  8  1  0  0  0
  9 12  1  0  0  0
  9 24  1  0  0  0
 27  9  1  0  0  0
 28 10  1  0  0  0
 10 29  1  0  0  0
 12 13  4  0  0  0
 12 15  4  0  0  0
 13 25  4  0  0  0
 25 14  4  0  0  0
 26 14  4  0  0  0
 15 26  4  0  0  0
 17 18  4  0  0  0
 18 19  4  0  0  0
 19 20  1  0  0  0
 22 21  4  0  0  0
 27 28  1  0  0  0
 29 30  1  0  0  0
 30 31  1  0  0  0
  2 32  1  0  0  0
  2 33  1  0  0  0
  4 34  1  0  0  0
  4 35  1  0  0  0
  5 36  1  0  0  0
  6 37  1  0  0  0
  8 38  1  0  0  0
  8 39  1  0  0  0
  9 40  1  0  0  0
 10 41  1  0  0  0
 10 42  1  0  0  0
 11 43  1  0  0  0
 11 44  1  0  0  0
 11 45  1  0  0  0
 13 46  1  0  0  0
 14 47  1  0  0  0
 15 48  1  0  0  0
 20 49  1  0  0  0
 20 50  1  0  0  0
 22 51  1  0  0  0
 24 52  1  0  0  0
 24 53  1  0  0  0
 25 54  1  0  0  0
 26 55  1  0  0  0
 28 56  1  0  0  0
 28 57  1  0  0  0
 29 58  1  0  0  0
 29 59  1  0  0  0
 31 60  1  0  0  0
 31 61  1  0  0  0
 31 62  1  0  0  0
M  END
$$$$
