4qz7_ligand
  -I-interpret- 

 87 89  0  0  0  0  0  0  0  0999 V2000
   59.5390 -134.7650   34.9870 C   0  0  0  0  0
   59.7310 -135.9790   34.9210 O   0  0  0  0  0
   58.3650 -134.1180   34.2300 C   0  0  0  0  0
   57.1250 -134.5570   34.8780 N   0  3  0  0  0
   54.5850 -133.7720   35.7260 O   0  0  0  0  0
   56.8900 -133.7540   36.1030 C   0  0  0  0  0
   56.0190 -134.3920   33.8960 C   0  0  0  0  0
   55.5720 -134.0510   36.7470 C   0  0  0  0  0
   54.7170 -134.6310   34.5740 C   0  0  0  0  0
   60.3230 -133.9120   35.6730 N   0  0  0  0  0
   61.4770 -134.3760   36.4570 C   0  0  0  0  0
   61.0450 -134.4750   37.9200 C   0  0  0  0  0
   60.3160 -133.6180   38.4210 O   0  0  0  0  0
   62.6430 -133.3930   36.3200 C   0  0  0  0  0
   61.5060 -135.5560   38.5660 N   0  0  0  0  0
   61.1860 -135.8180   39.9730 C   0  0  0  0  0
   60.6140 -137.2080   40.1150 C   0  0  0  0  0
   59.2430 -137.1070   39.8200 C   0  0  0  0  0
   58.2870 -137.1410   40.8400 C   0  0  0  0  0
   56.9290 -137.0450   40.5370 C   0  0  0  0  0
   56.5120 -136.9170   39.2130 C   0  0  0  0  0
   55.1810 -136.8230   38.9210 O   0  0  0  0  0
   54.7160 -137.8570   38.0330 C   0  0  0  0  0
   57.4640 -136.8800   38.1950 C   0  0  0  0  0
   58.8180 -136.9800   38.4970 C   0  0  0  0  0
   62.4830 -135.7010   40.7740 C   0  0  0  0  0
   63.5710 -135.6730   40.1960 O   0  0  0  0  0
   62.3190 -135.6270   42.1060 N   0  0  0  0  0
   63.4560 -135.4760   43.0240 C   0  0  0  0  0
   63.4210 -136.5230   44.1660 C   0  0  0  0  0
   62.1110 -136.5080   44.7640 O   0  0  0  0  0
   63.7980 -138.0250   43.7780 C   0  0  0  0  0
   64.8340 -138.0770   42.5930 C   0  0  0  0  0
   62.4990 -138.7020   43.3200 C   0  0  0  0  0
   62.8660 -139.8700   42.5730 O   0  0  0  0  0
   63.3830 -134.0920   43.6670 C   0  0  0  0  0
   64.0910 -133.0870   42.9570 C   0  0  0  0  0
   63.9180 -131.7710   43.4010 C   0  0  0  0  0
   64.5620 -130.7020   42.7800 C   0  0  0  0  0
   65.3990 -130.9370   41.6930 C   0  0  0  0  0
   65.5860 -132.2390   41.2360 C   0  0  0  0  0
   64.9410 -133.3060   41.8600 C   0  0  0  0  0
   58.3747 -134.4202   33.1828 H   0  0  0  0  0
   58.4458 -133.0314   34.2596 H   0  0  0  0  0
   57.1825 -135.5351   35.1617 H   0  0  0  0  0
   56.8929 -132.7019   35.8182 H   0  0  0  0  0
   57.6743 -133.9998   36.8189 H   0  0  0  0  0
   56.1434 -135.1082   33.0838 H   0  0  0  0  0
   56.0387 -133.3798   33.4921 H   0  0  0  0  0
   55.5148 -135.0831   37.0929 H   0  0  0  0  0
   55.4127 -133.4453   37.6391 H   0  0  0  0  0
   53.9082 -134.4156   33.8758 H   0  0  0  0  0
   54.6713 -135.6704   34.8989 H   0  0  0  0  0
   60.1101 -132.9148   35.6481 H   0  0  0  0  0
   61.8101 -135.3479   36.0930 H   0  0  0  0  0
   62.9317 -133.3175   35.2716 H   0  0  0  0  0
   62.3352 -132.4131   36.6849 H   0  0  0  0  0
   63.4892 -133.7511   36.9063 H   0  0  0  0  0
   62.0979 -136.2169   38.0628 H   0  0  0  0  0
   60.4483 -135.1041   40.3393 H   0  0  0  0  0
   60.7692 -137.5930   41.1229 H   0  0  0  0  0
   61.1087 -137.9048   39.4384 H   0  0  0  0  0
   58.6049 -137.2431   41.8776 H   0  0  0  0  0
   56.1908 -137.0702   41.3386 H   0  0  0  0  0
   55.2632 -137.7992   37.0921 H   0  0  0  0  0
   54.8830 -138.8311   38.4927 H   0  0  0  0  0
   53.6511 -137.7205   37.8445 H   0  0  0  0  0
   57.1458 -136.7722   37.1581 H   0  0  0  0  0
   59.5537 -136.9590   37.6930 H   0  0  0  0  0
   61.3759 -135.6772   42.4914 H   0  0  0  0  0
   64.3703 -135.6140   42.4469 H   0  0  0  0  0
   64.2105 -136.2139   44.8510 H   0  0  0  0  0
   62.0771 -137.1535   45.4738 H   0  0  0  0  0
   64.2496 -138.5213   44.6370 H   0  0  0  0  0
   64.4054 -137.5923   41.7158 H   0  0  0  0  0
   65.7465 -137.5582   42.8868 H   0  0  0  0  0
   65.0647 -139.1163   42.3591 H   0  0  0  0  0
   61.9105 -138.0228   42.7033 H   0  0  0  0  0
   61.8860 -138.9744   44.1792 H   0  0  0  0  0
   62.0723 -140.3179   42.2711 H   0  0  0  0  0
   63.8368 -134.1703   44.6550 H   0  0  0  0  0
   62.3335 -133.7980   43.6829 H   0  0  0  0  0
   63.2647 -131.5776   44.2518 H   0  0  0  0  0
   64.4107 -129.6859   43.1443 H   0  0  0  0  0
   65.9055 -130.1061   41.2020 H   0  0  0  0  0
   66.2409 -132.4252   40.3848 H   0  0  0  0  0
   65.0978 -134.3203   41.4930 H   0  0  0  0  0
  1  2  2  0  0  0
  3  1  1  0  0  0
  1 10  1  0  0  0
  4  3  1  0  0  0
  6  4  1  0  0  0
  4  7  1  0  0  0
  8  5  1  0  0  0
  5  9  1  0  0  0
  6  8  1  0  0  0
  7  9  1  0  0  0
 10 11  1  0  0  0
 11 12  1  0  0  0
 11 14  1  0  0  0
 12 13  2  0  0  0
 12 15  1  0  0  0
 15 16  1  0  0  0
 16 17  1  0  0  0
 16 26  1  0  0  0
 17 18  1  0  0  0
 18 19  4  0  0  0
 18 25  4  0  0  0
 19 20  4  0  0  0
 20 21  4  0  0  0
 21 22  1  0  0  0
 21 24  4  0  0  0
 22 23  1  0  0  0
 24 25  4  0  0  0
 26 27  2  0  0  0
 26 28  1  0  0  0
 28 29  1  0  0  0
 29 30  1  0  0  0
 29 36  1  0  0  0
 30 31  1  0  0  0
 30 32  1  0  0  0
 32 33  1  0  0  0
 32 34  1  0  0  0
 34 35  1  0  0  0
 36 37  1  0  0  0
 37 38  4  0  0  0
 37 42  4  0  0  0
 38 39  4  0  0  0
 39 40  4  0  0  0
 40 41  4  0  0  0
 41 42  4  0  0  0
  3 43  1  0  0  0
  3 44  1  0  0  0
  4 45  1  0  0  0
  6 46  1  0  0  0
  6 47  1  0  0  0
  7 48  1  0  0  0
  7 49  1  0  0  0
  8 50  1  0  0  0
  8 51  1  0  0  0
  9 52  1  0  0  0
  9 53  1  0  0  0
 10 54  1  0  0  0
 11 55  1  0  0  0
 14 56  1  0  0  0
 14 57  1  0  0  0
 14 58  1  0  0  0
 15 59  1  0  0  0
 16 60  1  0  0  0
 17 61  1  0  0  0
 17 62  1  0  0  0
 19 63  1  0  0  0
 20 64  1  0  0  0
 23 65  1  0  0  0
 23 66  1  0  0  0
 23 67  1  0  0  0
 24 68  1  0  0  0
 25 69  1  0  0  0
 28 70  1  0  0  0
 29 71  1  0  0  0
 30 72  1  0  0  0
 31 73  1  0  0  0
 32 74  1  0  0  0
 33 75  1  0  0  0
 33 76  1  0  0  0
 33 77  1  0  0  0
 34 78  1  0  0  0
 34 79  1  0  0  0
 35 80  1  0  0  0
 36 81  1  0  0  0
 36 82  1  0  0  0
 38 83  1  0  0  0
 39 84  1  0  0  0
 40 85  1  0  0  0
 41 86  1  0  0  0
 42 87  1  0  0  0
M  END
$$$$
