1ugx_ligand
  -I-interpret- 

 54 55  0  0  0  0  0  0  0  0999 V2000
   38.2590   34.4510   25.4310 C   0  0  0  0  0
   39.3090   34.6100   24.3490 C   0  0  0  0  0
   40.0520   35.9310   24.5350 C   0  0  0  0  0
   39.0350   37.1720   24.4260 C   0  0  0  0  0
   37.9510   37.0050   25.5490 C   0  0  0  0  0
   36.7700   37.8920   25.9000 C   0  0  0  0  0
   40.1670   33.4770   24.4450 O   0  0  0  0  0
   41.0350   36.0550   23.5120 O   0  0  0  0  0
   38.3350   37.1690   23.1730 O   0  0  0  0  0
   37.3220   35.6210   25.4040 O   0  0  0  0  0
   35.7330   37.8690   26.8680 O   0  0  0  0  0
   32.0040   32.6350   26.5090 O   0  0  0  0  0
   32.8500   33.0820   27.5500 C   0  0  0  0  0
   34.2970   32.5870   27.4100 C   0  0  0  0  0
   34.3580   31.0970   27.0990 O   0  0  0  0  0
   35.7100   30.4760   26.9570 C   0  0  0  0  0
   36.3570   30.4950   28.2390 O   0  0  0  0  0
   35.7250   29.7650   29.4700 C   0  0  0  0  0
   36.5020   31.2500   25.9000 C   0  0  0  0  0
   37.7340   30.5590   25.8660 N   0  0  0  0  0
   38.4030   30.2170   24.7300 C   0  0  0  0  0
   37.8600   30.1380   23.6130 O   0  0  0  0  0
   39.8880   29.9270   24.8530 C   0  0  0  0  0
   36.5490   32.7350   26.2580 C   0  0  0  0  0
   37.2990   33.3920   25.2820 O   0  0  0  0  0
   35.1040   33.3520   26.2630 C   0  0  0  0  0
   34.5370   33.0940   24.9530 O   0  0  0  0  0
   38.8887   34.2954   26.3070 H   0  0  0  0  0
   38.8712   34.6488   23.3516 H   0  0  0  0  0
   40.5174   35.9379   25.5206 H   0  0  0  0  0
   39.6074   38.0948   24.5202 H   0  0  0  0  0
   38.6360   37.3008   26.3436 H   0  0  0  0  0
   36.1615   37.6952   25.0173 H   0  0  0  0  0
   37.3272   38.7433   26.2910 H   0  0  0  0  0
   39.6525   32.6760   24.3213 H   0  0  0  0  0
   41.6481   35.3184   23.5679 H   0  0  0  0  0
   38.9649   37.2695   22.4556 H   0  0  0  0  0
   35.1701   38.6377   26.7506 H   0  0  0  0  0
   31.1174   32.9748   26.6505 H   0  0  0  0  0
   32.4560   32.6887   28.4871 H   0  0  0  0  0
   32.8691   34.1713   27.5148 H   0  0  0  0  0
   34.7585   32.7926   28.3758 H   0  0  0  0  0
   35.6398   29.4394   26.6273 H   0  0  0  0  0
   34.7410   30.1867   29.6750 H   0  0  0  0  0
   35.6274   28.7020   29.2497 H   0  0  0  0  0
   36.3678   29.8995   30.3399 H   0  0  0  0  0
   36.0734   31.2755   24.8981 H   0  0  0  0  0
   38.1533   30.2969   26.7581 H   0  0  0  0  0
   40.0859   28.9064   24.5255 H   0  0  0  0  0
   40.4461   30.6249   24.2289 H   0  0  0  0  0
   40.1945   30.0422   25.8927 H   0  0  0  0  0
   36.9886   32.8501   27.2488 H   0  0  0  0  0
   35.0798   34.4246   26.4555 H   0  0  0  0  0
   35.0429   33.5665   24.2879 H   0  0  0  0  0
  1  2  1  0  0  0
  1 10  1  0  0  0
  2  3  1  0  0  0
  2  7  1  0  0  0
  3  4  1  0  0  0
  3  8  1  0  0  0
  5  4  1  0  0  0
  4  9  1  0  0  0
  5  6  1  0  0  0
 10  5  1  0  0  0
  6 11  1  0  0  0
 13 12  1  0  0  0
 14 13  1  0  0  0
 14 15  1  0  0  0
 26 14  1  0  0  0
 16 15  1  0  0  0
 16 17  1  0  0  0
 19 16  1  0  0  0
 17 18  1  0  0  0
 19 20  1  0  0  0
 24 19  1  0  0  0
 20 21  1  0  0  0
 21 22  2  0  0  0
 21 23  1  0  0  0
 25 24  1  0  0  0
 24 26  1  0  0  0
 25  1  1  0  0  0
 26 27  1  0  0  0
  1 28  1  0  0  0
  2 29  1  0  0  0
  3 30  1  0  0  0
  4 31  1  0  0  0
  5 32  1  0  0  0
  6 33  1  0  0  0
  6 34  1  0  0  0
  7 35  1  0  0  0
  8 36  1  0  0  0
  9 37  1  0  0  0
 11 38  1  0  0  0
 12 39  1  0  0  0
 13 40  1  0  0  0
 13 41  1  0  0  0
 14 42  1  0  0  0
 16 43  1  0  0  0
 18 44  1  0  0  0
 18 45  1  0  0  0
 18 46  1  0  0  0
 19 47  1  0  0  0
 20 48  1  0  0  0
 23 49  1  0  0  0
 23 50  1  0  0  0
 23 51  1  0  0  0
 24 52  1  0  0  0
 26 53  1  0  0  0
 27 54  1  0  0  0
M  END
$$$$
