5hlb_ligand
  -I-interpret- 

 47 47  0  0  0  0  0  0  0  0999 V2000
  -38.7160  -14.9250   62.6900 C   0  0  0  0  0
  -37.7010   -7.4000   58.6390 S   0  0  0  0  0
  -35.2510  -12.6350   61.2970 O   0  0  0  0  0
  -38.6430  -10.3770   62.2170 O   0  0  0  0  0
  -40.7900  -12.3730   60.1030 O   0  0  0  0  0
  -36.4550  -14.8340   63.4300 N   0  0  0  0  0
  -37.9360  -12.3170   61.2260 N   0  0  0  0  0
  -40.2760  -11.2990   59.4380 N   0  0  0  0  0
  -38.8750   -9.3300   57.7540 N   0  0  0  0  0
  -38.3190   -7.7580   55.9750 N   0  0  0  0  0
  -35.4870  -16.0540   62.9790 S   0  0  0  0  0
  -37.3300  -14.3730   62.4270 C   0  0  0  0  0
  -37.2120  -12.8620   62.3180 C   0  0  0  0  0
  -35.8920  -12.5820   62.3430 C   0  0  0  0  0
  -38.6190  -11.0920   61.2590 C   0  0  0  0  0
  -39.2750  -10.6660   59.9820 C   0  0  0  0  0
  -42.2070  -12.4770   59.9220 C   0  0  0  0  0
  -38.7270   -9.4740   59.2840 C   0  0  0  0  0
  -38.0360   -8.3300   59.8290 C   0  0  0  0  0
  -38.2990   -8.1130   57.3480 C   0  0  0  0  0
  -42.8190  -12.9960   61.2440 C   0  0  0  0  0
  -42.7750  -11.0790   59.5550 C   0  0  0  0  0
  -42.4960  -13.4950   58.8060 C   0  0  0  0  0
  -43.4550  -13.2750   58.0230 O   0  0  0  0  0
  -41.7960  -14.5480   58.6570 O   0  0  0  0  0
  -34.6420  -15.7910   61.8680 O   0  0  0  0  0
  -34.7660  -16.5380   64.1010 O   0  0  0  0  0
  -36.3330  -17.0770   62.4640 O   0  0  0  0  0
  -39.0912  -14.5273   63.6329 H   0  0  0  0  0
  -39.3826  -14.6310   61.8793 H   0  0  0  0  0
  -38.6679  -16.0125   62.7463 H   0  0  0  0  0
  -36.4321  -14.4317   64.3670 H   0  0  0  0  0
  -37.9616  -12.8523   60.3581 H   0  0  0  0  0
  -37.8859   -6.8874   55.6670 H   0  0  0  0  0
  -38.7665   -8.3733   55.2956 H   0  0  0  0  0
  -37.0668  -14.7417   61.4356 H   0  0  0  0  0
  -37.6948  -12.3635   63.1585 H   0  0  0  0  0
  -35.4018  -12.3126   63.2785 H   0  0  0  0  0
  -37.7962   -8.1549   60.8778 H   0  0  0  0  0
  -42.5835  -12.3005   62.0496 H   0  0  0  0  0
  -43.9007  -13.0756   61.1355 H   0  0  0  0  0
  -42.4026  -13.9764   61.4754 H   0  0  0  0  0
  -43.8564  -11.1473   59.4365 H   0  0  0  0  0
  -42.5393  -10.3722   60.3506 H   0  0  0  0  0
  -42.3266  -10.7398   58.6212 H   0  0  0  0  0
  -41.1086  -14.5714   59.3267 H   0  0  0  0  0
  -36.9608  -17.3421   63.1402 H   0  0  0  0  0
 12  1  1  0  0  0
  2 19  4  0  0  0
 20  2  4  0  0  0
 14  3  2  0  0  0
 15  4  2  0  0  0
  8  5  1  0  0  0
  5 17  1  0  0  0
  6 11  1  0  0  0
 12  6  1  0  0  0
  7 13  1  0  0  0
 15  7  1  0  0  0
 16  8  2  0  0  0
 18  9  4  0  0  0
  9 20  4  0  0  0
 20 10  1  0  0  0
 11 26  2  0  0  0
 11 27  2  0  0  0
 11 28  1  0  0  0
 13 12  1  0  0  0
 13 14  1  0  0  0
 16 15  1  0  0  0
 16 18  1  0  0  0
 17 21  1  0  0  0
 17 22  1  0  0  0
 17 23  1  0  0  0
 18 19  4  0  0  0
 23 24  2  0  0  0
 23 25  1  0  0  0
  1 29  1  0  0  0
  1 30  1  0  0  0
  1 31  1  0  0  0
  6 32  1  0  0  0
  7 33  1  0  0  0
 10 34  1  0  0  0
 10 35  1  0  0  0
 12 36  1  0  0  0
 13 37  1  0  0  0
 14 38  1  0  0  0
 19 39  1  0  0  0
 21 40  1  0  0  0
 21 41  1  0  0  0
 21 42  1  0  0  0
 22 43  1  0  0  0
 22 44  1  0  0  0
 22 45  1  0  0  0
 25 46  1  0  0  0
 28 47  1  0  0  0
M  END
$$$$
