5jq9_ligand
  -I-interpret- 

 49 52  0  0  0  0  0  0  0  0999 V2000
   15.4460   16.0960  115.3170 C   0  0  0  0  0
   16.3390   16.6690  116.2650 C   0  0  0  0  0
   16.4820   16.0330  117.5020 N   0  0  0  0  0
   15.7750   14.9440  117.6920 C   0  0  0  0  0
   14.8750   14.3660  116.7230 C   0  0  0  0  0
   14.7160   14.9510  115.5460 N   0  0  0  0  0
   14.1160   13.1070  117.0790 C   0  0  0  0  0
   15.3740   16.8270  114.0890 C   0  0  0  0  0
   17.0850   17.8110  116.0750 N   0  0  0  0  0
   16.0650   17.9430  113.8250 N   0  0  0  0  0
   16.9110   18.3990  114.8500 C   0  0  0  0  0
   14.5650   16.3780  113.1260 O   0  0  0  0  0
   17.6150   19.5420  114.5740 N   0  0  0  0  0
   12.7050   13.2740  117.3470 N   0  0  0  0  0
   11.6640   12.5560  116.7240 C   0  0  0  0  0
   11.7140   11.1770  116.5140 C   0  0  0  0  0
   10.6650   10.5040  115.9000 C   0  0  0  0  0
    9.5290   11.1470  115.4510 C   0  0  0  0  0
    9.4650   12.5150  115.6690 C   0  0  0  0  0
   10.4990   13.2140  116.2810 C   0  0  0  0  0
    8.1720   10.3280  114.6950 S   0  0  0  0  0
    6.8890    9.5020  115.5040 N   0  0  0  0  0
    6.8060    9.1650  116.8490 C   0  0  0  0  0
    7.6970   11.1090  113.3780 O   0  0  0  0  0
    8.9010    9.1300  113.8670 O   0  0  0  0  0
    5.9600    9.5200  117.9020 C   0  0  0  0  0
    6.4980    8.8050  119.0310 C   0  0  0  0  0
    7.5790    8.1050  118.6430 N   0  0  0  0  0
    7.7780    8.3190  117.3370 O   0  0  0  0  0
    4.7950   10.4020  117.8650 C   0  0  0  0  0
    6.0070    8.7850  120.4290 C   0  0  0  0  0
   15.8748   14.4386  118.6526 H   0  0  0  0  0
   14.5608   12.7308  118.0003 H   0  0  0  0  0
   14.1879   12.4500  116.2122 H   0  0  0  0  0
   15.9823   18.4324  112.9339 H   0  0  0  0  0
   18.2478   19.9324  115.2723 H   0  0  0  0  0
   17.5062   20.0023  113.6703 H   0  0  0  0  0
   12.4408   13.9693  118.0450 H   0  0  0  0  0
   12.5920   10.6179  116.8376 H   0  0  0  0  0
   10.7421    9.4248  115.7675 H   0  0  0  0  0
    8.5760   13.0593  115.3505 H   0  0  0  0  0
   10.4071   14.2911  116.4209 H   0  0  0  0  0
    6.0960    9.2284  114.9237 H   0  0  0  0  0
    5.1029   11.3950  117.5374 H   0  0  0  0  0
    4.0588   10.0004  117.1687 H   0  0  0  0  0
    4.3576   10.4661  118.8613 H   0  0  0  0  0
    6.0269    9.7967  120.8342 H   0  0  0  0  0
    4.9858    8.4044  120.4487 H   0  0  0  0  0
    6.6484    8.1393  121.0288 H   0  0  0  0  0
  1  2  4  0  0  0
  1  6  4  0  0  0
  1  8  1  0  0  0
  2  3  4  0  0  0
  2  9  1  0  0  0
  3  4  4  0  0  0
  4  5  4  0  0  0
  5  6  4  0  0  0
  5  7  1  0  0  0
  7 14  1  0  0  0
  8 10  1  0  0  0
  8 12  2  0  0  0
  9 11  2  0  0  0
 10 11  1  0  0  0
 11 13  1  0  0  0
 14 15  1  0  0  0
 15 16  4  0  0  0
 15 20  4  0  0  0
 16 17  4  0  0  0
 17 18  4  0  0  0
 18 19  4  0  0  0
 18 21  1  0  0  0
 19 20  4  0  0  0
 21 22  1  0  0  0
 21 24  2  0  0  0
 21 25  2  0  0  0
 22 23  1  0  0  0
 23 26  4  0  0  0
 23 29  4  0  0  0
 26 27  4  0  0  0
 26 30  1  0  0  0
 27 28  4  0  0  0
 27 31  1  0  0  0
 28 29  4  0  0  0
  4 32  1  0  0  0
  7 33  1  0  0  0
  7 34  1  0  0  0
 10 35  1  0  0  0
 13 36  1  0  0  0
 13 37  1  0  0  0
 14 38  1  0  0  0
 16 39  1  0  0  0
 17 40  1  0  0  0
 19 41  1  0  0  0
 20 42  1  0  0  0
 22 43  1  0  0  0
 30 44  1  0  0  0
 30 45  1  0  0  0
 30 46  1  0  0  0
 31 47  1  0  0  0
 31 48  1  0  0  0
 31 49  1  0  0  0
M  END
$$$$
