1v2u_ligand
  -I-interpret- 

 17 17  0  0  0  0  0  0  0  0999 V2000
   53.3620   66.9340  -28.8540 C   0  0  0  0  0
   52.7390   66.5590  -30.1320 C   0  0  0  0  0
   52.4560   67.5680  -31.1460 C   0  0  0  0  0
   52.7910   68.9600  -30.8960 C   0  0  0  0  0
   53.4060   69.3470  -29.6430 C   0  0  0  0  0
   53.6920   68.3420  -28.6250 C   0  0  0  0  0
   53.6660   65.8680  -27.7800 C   0  0  0  0  0
   54.3970   66.1840  -26.7270 N   0  0  0  0  0
   53.2010   64.6420  -27.9270 N   0  0  0  0  0
   52.4861   65.5162  -30.3234 H   0  0  0  0  0
   51.9940   67.2787  -32.0899 H   0  0  0  0  0
   52.5789   69.7147  -31.6534 H   0  0  0  0  0
   53.6558   70.3921  -29.4602 H   0  0  0  0  0
   54.1556   68.6420  -27.6852 H   0  0  0  0  0
   54.6056   65.4784  -26.0206 H   0  0  0  0  0
   54.7532   67.1338  -26.6199 H   0  0  0  0  0
   53.4056   63.9313  -27.2246 H   0  0  0  0  0
  1  2  4  0  0  0
  1  6  4  0  0  0
  1  7  1  0  0  0
  2  3  4  0  0  0
  3  4  4  0  0  0
  4  5  4  0  0  0
  5  6  4  0  0  0
  7  8  1  0  0  0
  7  9  2  0  0  0
  2 10  1  0  0  0
  3 11  1  0  0  0
  4 12  1  0  0  0
  5 13  1  0  0  0
  6 14  1  0  0  0
  8 15  1  0  0  0
  8 16  1  0  0  0
  9 17  1  0  0  0
M  END
$$$$
