2y7w_ligand
  -I-interpret- 

 16 16  0  0  0  0  0  0  0  0999 V2000
   14.3080   14.3500    2.7620 C   0  0  0  0  0
   14.0170   15.5530    2.9630 O   0  0  0  0  0
   14.7140   13.5600    3.6460 O   0  0  0  0  0
   14.1160   13.8140    1.3490 C   0  0  0  0  0
   14.3840   12.4960    1.0560 C   0  0  0  0  0
   14.1890   12.0290   -0.2280 C   0  0  0  0  0
   13.7290   12.8760   -1.2240 C   0  0  0  0  0
   13.4600   14.1970   -0.9360 C   0  0  0  0  0
   13.6540   14.6630    0.3560 C   0  0  0  0  0
   14.8380   11.6610    2.0170 O   0  0  0  0  0
   13.7315   15.9540    2.1388 H   0  0  0  0  0
   14.3986   10.9850   -0.4608 H   0  0  0  0  0
   13.5799   12.4975   -2.2352 H   0  0  0  0  0
   13.0987   14.8681   -1.7152 H   0  0  0  0  0
   13.4413   15.7056    0.5922 H   0  0  0  0  0
   14.9712   10.7869    1.6431 H   0  0  0  0  0
  1  2  1  0  0  0
  1  3  2  0  0  0
  1  4  1  0  0  0
  4  5  4  0  0  0
  4  9  4  0  0  0
  5  6  4  0  0  0
  5 10  1  0  0  0
  6  7  4  0  0  0
  7  8  4  0  0  0
  8  9  4  0  0  0
  2 11  1  0  0  0
  6 12  1  0  0  0
  7 13  1  0  0  0
  8 14  1  0  0  0
  9 15  1  0  0  0
 10 16  1  0  0  0
M  END
$$$$
