1lxf_ligand
  -I-interpret- 

 62 64  0  0  0  0  0  0  0  0999 V2000
   90.7040    3.1330   -0.0780 C   0  0  0  0  0
   90.1600    2.1200   -1.0890 C   0  0  0  0  0
   89.0790    1.1960   -0.4220 C   0  0  0  0  0
   92.1100    2.8750    0.1660 O   0  0  0  0  0
   91.2680    1.2990   -1.6540 N   0  3  0  0  0
   87.7150    1.7930   -0.5160 N   0  0  0  0  0
   92.9480    4.0560    0.2400 C   0  0  0  0  0
   93.8870    3.9380    1.4430 C   0  0  0  0  0
   95.2620    4.4970    1.0720 C   0  0  0  0  0
   94.0250    2.4670    1.8440 C   0  0  0  0  0
   92.3640    1.9960   -2.3810 C   0  0  0  0  0
   93.6490    1.2360   -2.0080 C   0  0  0  0  0
   93.1440   -0.1190   -1.4920 C   0  0  0  0  0
   91.8310    0.2180   -0.8120 C   0  0  0  0  0
   86.8460    1.7290    0.6920 C   0  0  0  0  0
   87.1300    2.7650    1.8090 C   0  0  0  0  0
   87.4250    2.3320    3.1080 C   0  0  0  0  0
   87.6820    3.2680    4.1170 C   0  0  0  0  0
   87.6440    4.6380    3.8270 C   0  0  0  0  0
   87.3490    5.0720    2.5280 C   0  0  0  0  0
   87.0910    4.1350    1.5190 C   0  0  0  0  0
   87.0290    1.6650   -1.8220 C   0  0  0  0  0
   87.3110    2.5710   -2.8540 C   0  0  0  0  0
   86.6610    2.4500   -4.0890 C   0  0  0  0  0
   85.7310    1.4230   -4.2920 C   0  0  0  0  0
   85.4490    0.5170   -3.2620 C   0  0  0  0  0
   86.0990    0.6370   -2.0270 C   0  0  0  0  0
   90.1525    3.0408    0.8577 H   0  0  0  0  0
   90.5860    4.1403   -0.4773 H   0  0  0  0  0
   89.6869    2.6703   -1.9023 H   0  0  0  0  0
   89.3309    1.0754    0.6316 H   0  0  0  0  0
   89.0735    0.2392   -0.9441 H   0  0  0  0  0
   90.6904    0.8506   -2.3651 H   0  0  0  0  0
   92.3213    4.9407    0.3526 H   0  0  0  0  0
   93.5360    4.1431   -0.6737 H   0  0  0  0  0
   93.4772    4.5039    2.2797 H   0  0  0  0  0
   95.6694    3.9302    0.2348 H   0  0  0  0  0
   95.1625    5.5449    0.7889 H   0  0  0  0  0
   95.9303    4.4128    1.9289 H   0  0  0  0  0
   93.0448    2.0703    2.1084 H   0  0  0  0  0
   94.4340    1.9005    1.0074 H   0  0  0  0  0
   94.6941    2.3865    2.7007 H   0  0  0  0  0
   92.4250    3.0476   -2.1007 H   0  0  0  0  0
   92.1954    1.9932   -3.4579 H   0  0  0  0  0
   94.2409    1.7670   -1.2625 H   0  0  0  0  0
   94.3258    1.1286   -2.8556 H   0  0  0  0  0
   93.8523   -0.5943   -0.8134 H   0  0  0  0  0
   93.0209   -0.8479   -2.2930 H   0  0  0  0  0
   91.1663   -0.6429   -0.7406 H   0  0  0  0  0
   91.9663    0.5257    0.2249 H   0  0  0  0  0
   87.0232    0.7503    1.1380 H   0  0  0  0  0
   85.8331    1.9322    0.3444 H   0  0  0  0  0
   87.4545    1.2660    3.3334 H   0  0  0  0  0
   87.9116    2.9308    5.1278 H   0  0  0  0  0
   87.8441    5.3668    4.6125 H   0  0  0  0  0
   87.3202    6.1380    2.3025 H   0  0  0  0  0
   86.8599    4.4719    0.5084 H   0  0  0  0  0
   88.0359    3.3694   -2.6955 H   0  0  0  0  0
   86.8790    3.1548   -4.8914 H   0  0  0  0  0
   85.2258    1.3286   -5.2532 H   0  0  0  0  0
   84.7240   -0.2812   -3.4213 H   0  0  0  0  0
   85.8815   -0.0691   -1.2256 H   0  0  0  0  0
  1  2  1  0  0  0
  1  4  1  0  0  0
  2  3  1  0  0  0
  2  5  1  0  0  0
  3  6  1  0  0  0
  4  7  1  0  0  0
  5 11  1  0  0  0
  5 14  1  0  0  0
  6 15  1  0  0  0
  6 22  1  0  0  0
  7  8  1  0  0  0
  8  9  1  0  0  0
  8 10  1  0  0  0
 11 12  1  0  0  0
 12 13  1  0  0  0
 13 14  1  0  0  0
 15 16  1  0  0  0
 16 17  4  0  0  0
 16 21  4  0  0  0
 17 18  4  0  0  0
 18 19  4  0  0  0
 19 20  4  0  0  0
 20 21  4  0  0  0
 22 23  4  0  0  0
 22 27  4  0  0  0
 23 24  4  0  0  0
 24 25  4  0  0  0
 25 26  4  0  0  0
 26 27  4  0  0  0
  1 28  1  0  0  0
  1 29  1  0  0  0
  2 30  1  0  0  0
  3 31  1  0  0  0
  3 32  1  0  0  0
  5 33  1  0  0  0
  7 34  1  0  0  0
  7 35  1  0  0  0
  8 36  1  0  0  0
  9 37  1  0  0  0
  9 38  1  0  0  0
  9 39  1  0  0  0
 10 40  1  0  0  0
 10 41  1  0  0  0
 10 42  1  0  0  0
 11 43  1  0  0  0
 11 44  1  0  0  0
 12 45  1  0  0  0
 12 46  1  0  0  0
 13 47  1  0  0  0
 13 48  1  0  0  0
 14 49  1  0  0  0
 14 50  1  0  0  0
 15 51  1  0  0  0
 15 52  1  0  0  0
 17 53  1  0  0  0
 18 54  1  0  0  0
 19 55  1  0  0  0
 20 56  1  0  0  0
 21 57  1  0  0  0
 23 58  1  0  0  0
 24 59  1  0  0  0
 25 60  1  0  0  0
 26 61  1  0  0  0
 27 62  1  0  0  0
M  END
$$$$
