5uwf_ligand
  -I-interpret- 

 52 57  0  0  0  0  0  0  0  0999 V2000
   54.2220  110.8860   33.8420 N   0  0  0  0  0
   53.0000  108.4360   34.2870 C   0  0  0  0  0
   53.8710  110.1390   32.7540 C   0  0  0  0  0
   52.3440  107.1060   32.8120 C   0  0  0  0  0
   53.7940  110.1410   38.9600 C   0  0  0  0  0
   52.3310  108.2100   38.9080 C   0  0  0  0  0
   56.8650  112.5730   35.1470 C   0  0  0  0  0
   58.0930  112.2520   35.6780 C   0  0  0  0  0
   58.7430  111.1080   35.2700 C   0  0  0  0  0
   56.9470  110.6190   33.8040 C   0  0  0  0  0
   60.1300  109.4240   35.6150 C   0  0  0  0  0
   55.5790  108.8950   40.5850 C   0  0  0  0  0
   58.1770  110.2750   34.3300 C   0  0  0  0  0
   53.3690  109.1980   35.3940 C   0  0  0  0  0
   53.2430  108.9820   36.7870 C   0  0  0  0  0
   56.2770  111.7660   34.1990 C   0  0  0  0  0
   53.7670  110.0460   37.4950 C   0  0  0  0  0
   53.9730  110.4030   35.1050 C   0  0  0  0  0
   54.4290  108.0990   40.1630 C   0  0  0  0  0
   52.6620  107.8320   37.4860 C   0  0  0  0  0
   56.7220  108.2550   41.3310 C   0  0  0  0  0
   55.7520  109.1480   42.0440 C   0  0  0  0  0
   54.9230  112.1180   33.6320 C   0  0  0  0  0
   52.4130  107.2680   34.1700 N   0  0  0  0  0
   52.8540  108.1040   32.0830 N   0  0  0  0  0
   53.2640  108.9400   33.0480 N   0  0  0  0  0
   53.4630  108.8550   39.5200 N   0  0  0  0  0
   54.0240  110.4200   31.5760 O   0  0  0  0  0
   54.4090  106.8990   40.3960 O   0  0  0  0  0
   59.9730  110.8230   35.8320 O   0  0  0  0  0
   54.8420  108.5930   42.9410 F   0  0  0  0  0
   56.0970  110.4360   42.4510 F   0  0  0  0  0
   54.3970  111.3040   36.5060 S   0  0  0  0  0
   51.9019  106.2207   32.3550 H   0  0  0  0  0
   53.0699  110.8844   39.2934 H   0  0  0  0  0
   54.7885  110.4408   39.2905 H   0  0  0  0  0
   52.0827  107.3100   39.4706 H   0  0  0  0  0
   51.4829  108.8947   38.9097 H   0  0  0  0  0
   56.3524  113.4754   35.4802 H   0  0  0  0  0
   58.5518  112.9033   36.4219 H   0  0  0  0  0
   56.4903  109.9698   33.0569 H   0  0  0  0  0
   59.3177  108.8881   36.1060 H   0  0  0  0  0
   60.1077  109.2189   34.5447 H   0  0  0  0  0
   61.0843  109.0983   36.0289 H   0  0  0  0  0
   55.5127  109.5037   39.6833 H   0  0  0  0  0
   58.6873  109.3668   34.0092 H   0  0  0  0  0
   51.7504  107.5231   36.9744 H   0  0  0  0  0
   53.3808  107.0126   37.4896 H   0  0  0  0  0
   57.7997  108.1263   41.2304 H   0  0  0  0  0
   57.1761  107.2716   41.4525 H   0  0  0  0  0
   54.4545  112.9825   34.1024 H   0  0  0  0  0
   54.9470  112.4448   32.5924 H   0  0  0  0  0
  1  3  1  0  0  0
 18  1  1  0  0  0
  1 23  1  0  0  0
 14  2  1  0  0  0
  2 24  4  0  0  0
  2 26  4  0  0  0
 26  3  1  0  0  0
  3 28  2  0  0  0
 24  4  4  0  0  0
  4 25  4  0  0  0
  5 17  1  0  0  0
 27  5  1  0  0  0
  6 20  1  0  0  0
 27  6  1  0  0  0
  7  8  4  0  0  0
 16  7  4  0  0  0
  8  9  4  0  0  0
 13  9  4  0  0  0
  9 30  1  0  0  0
 10 13  4  0  0  0
 16 10  4  0  0  0
 30 11  1  0  0  0
 19 12  1  0  0  0
 12 21  1  0  0  0
 12 22  1  0  0  0
 15 14  4  0  0  0
 14 18  4  0  0  0
 17 15  4  0  0  0
 20 15  1  0  0  0
 23 16  1  0  0  0
 17 33  4  0  0  0
 33 18  4  0  0  0
 19 27  1  0  0  0
 19 29  2  0  0  0
 21 22  1  0  0  0
 22 31  1  0  0  0
 22 32  1  0  0  0
 25 26  4  0  0  0
  4 34  1  0  0  0
  5 35  1  0  0  0
  5 36  1  0  0  0
  6 37  1  0  0  0
  6 38  1  0  0  0
  7 39  1  0  0  0
  8 40  1  0  0  0
 10 41  1  0  0  0
 11 42  1  0  0  0
 11 43  1  0  0  0
 11 44  1  0  0  0
 12 45  1  0  0  0
 13 46  1  0  0  0
 20 47  1  0  0  0
 20 48  1  0  0  0
 21 49  1  0  0  0
 21 50  1  0  0  0
 23 51  1  0  0  0
 23 52  1  0  0  0
M  END
$$$$
