6cec_ligand
  -I-interpret- 

 29 30  0  0  0  0  0  0  0  0999 V2000
    2.9760    4.1350    9.3420 O   0  0  0  0  0
    4.3710    3.9350    7.5850 O   0  0  0  0  0
    1.5040    1.9250    8.3140 C   0  0  0  0  0
    3.5190    3.4920    8.2960 C   0  0  0  0  0
    0.7930    5.2850    4.9110 C   0  0  0  0  0
   -0.0420    6.0780    4.1710 C   0  0  0  0  0
   -1.4210    6.0400    4.3700 C   0  0  0  0  0
    2.9860    2.1090    8.0640 C   0  0  0  0  0
    0.5880    2.8020    7.5000 C   0  0  0  0  0
    1.1110    3.6080    6.6020 N   0  0  0  0  0
    0.2620    4.4010    5.8770 C   0  0  0  0  0
   -1.1430    4.3540    6.0770 C   0  0  0  0  0
   -1.9740    5.1990    5.3000 C   0  0  0  0  0
   -1.7060    3.5020    6.9960 N   0  0  0  0  0
   -0.8790    2.7550    7.6680 C   0  0  0  0  0
   -1.2540    1.8280    8.5800 O   0  0  0  0  0
   -2.6290    1.8260    9.0000 C   0  0  0  0  0
    2.3152    3.5732    9.7536 H   0  0  0  0  0
    1.3331    2.1867    9.3582 H   0  0  0  0  0
    1.2706    0.8965    8.0385 H   0  0  0  0  0
    1.8705    5.3356    4.7546 H   0  0  0  0  0
    0.3759    6.7463    3.4181 H   0  0  0  0  0
   -2.0680    6.6876    3.7782 H   0  0  0  0  0
    3.1506    1.8880    7.0094 H   0  0  0  0  0
    3.5010    1.4576    8.7701 H   0  0  0  0  0
   -3.0545    5.1800    5.4423 H   0  0  0  0  0
   -2.8712    2.7883    9.4510 H   0  0  0  0  0
   -3.2713    1.6563    8.1358 H   0  0  0  0  0
   -2.7833    1.0319    9.7305 H   0  0  0  0  0
  4  1  1  0  0  0
  4  2  2  0  0  0
  3  8  1  0  0  0
  9  3  1  0  0  0
  8  4  1  0  0  0
  5  6  4  0  0  0
 11  5  4  0  0  0
  6  7  4  0  0  0
  7 13  4  0  0  0
 10  9  4  0  0  0
  9 15  4  0  0  0
 10 11  4  0  0  0
 11 12  4  0  0  0
 12 13  4  0  0  0
 12 14  4  0  0  0
 14 15  4  0  0  0
 15 16  1  0  0  0
 16 17  1  0  0  0
  1 18  1  0  0  0
  3 19  1  0  0  0
  3 20  1  0  0  0
  5 21  1  0  0  0
  6 22  1  0  0  0
  7 23  1  0  0  0
  8 24  1  0  0  0
  8 25  1  0  0  0
 13 26  1  0  0  0
 17 27  1  0  0  0
 17 28  1  0  0  0
 17 29  1  0  0  0
M  END
$$$$
