5j71_ligand
  -I-interpret- 

 51 54  0  0  0  0  0  0  0  0999 V2000
   11.7980    3.2180  -35.4270 C   0  0  0  0  0
   17.5910    2.6120  -37.8840 C   0  0  0  0  0
   16.3330    0.5760  -38.1420 C   0  0  0  0  0
   17.4350   -0.0810  -38.6280 C   0  0  0  0  0
   18.6400    0.5920  -38.7400 C   0  0  0  0  0
   19.8650   -1.5020  -39.4580 C   0  0  0  0  0
   21.3050   -1.9900  -39.3270 C   0  0  0  0  0
   19.2980   -1.8570  -40.8070 C   0  0  0  0  0
   18.6880    1.9300  -38.3710 C   0  0  0  0  0
   19.4260   -3.3400  -41.1400 C   0  0  0  0  0
    9.9540    6.1760  -36.4830 O   0  0  0  0  0
   10.6100    4.9820  -36.5280 C   0  0  0  0  0
   10.7760    4.3070  -37.7290 C   0  0  0  0  0
   11.4730    3.0960  -37.7740 C   0  0  0  0  0
   11.6410    2.4190  -38.9480 O   0  0  0  0  0
   12.0320    2.4970  -36.5910 C   0  0  0  0  0
   12.8290    1.0290  -36.6220 S   0  0  0  0  0
   14.1570    1.2280  -37.5490 N   0  0  0  0  0
   14.9380    0.0820  -37.9430 C   0  0  0  0  0
   19.7870   -0.0830  -39.2210 N   0  0  0  0  0
   21.4340   -3.4650  -39.6630 C   0  0  0  0  0
   20.8350   -3.8410  -40.9730 N   0  3  0  0  0
   16.3700    1.9360  -37.7610 C   0  0  0  0  0
   15.0480    2.3540  -37.2800 C   0  0  0  0  0
   13.2270    0.7090  -35.2500 O   0  0  0  0  0
   12.0840   -0.0140  -37.2880 O   0  0  0  0  0
   11.1490    4.4050  -35.3700 C   0  0  0  0  0
   12.1638    2.7972  -34.4904 H   0  0  0  0  0
   17.6735    3.6609  -37.5994 H   0  0  0  0  0
   17.3624   -1.1274  -38.9244 H   0  0  0  0  0
   19.2636   -2.0054  -38.7011 H   0  0  0  0  0
   21.6230   -1.8450  -38.2946 H   0  0  0  0  0
   21.9229   -1.4246  -40.0246 H   0  0  0  0  0
   19.8580   -1.2999  -41.5581 H   0  0  0  0  0
   18.2361   -1.6113  -40.7945 H   0  0  0  0  0
   19.6326    2.4647  -38.4702 H   0  0  0  0  0
   19.1379   -3.4795  -42.1819 H   0  0  0  0  0
   18.7849   -3.8973  -40.4570 H   0  0  0  0  0
    9.9343    6.4951  -35.5778 H   0  0  0  0  0
   10.3592    4.7247  -38.6455 H   0  0  0  0  0
   12.1406    1.6158  -38.7842 H   0  0  0  0  0
   14.9024   -0.6978  -37.1822 H   0  0  0  0  0
   14.5458   -0.3652  -38.8564 H   0  0  0  0  0
   20.6185    0.4754  -39.4138 H   0  0  0  0  0
   20.9006   -4.0206  -38.8917 H   0  0  0  0  0
   22.4985   -3.6930  -39.7164 H   0  0  0  0  0
   21.4039   -3.4197  -41.7074 H   0  0  0  0  0
   20.8108   -4.8595  -41.0230 H   0  0  0  0  0
   15.0700    2.5994  -36.2182 H   0  0  0  0  0
   14.7089    3.2592  -37.7838 H   0  0  0  0  0
   11.0446    4.9172  -34.4135 H   0  0  0  0  0
 16  1  4  0  0  0
  1 27  4  0  0  0
  2  9  4  0  0  0
 23  2  4  0  0  0
  3  4  4  0  0  0
 19  3  1  0  0  0
  3 23  4  0  0  0
  4  5  4  0  0  0
  5  9  4  0  0  0
  5 20  1  0  0  0
  6  7  1  0  0  0
  6  8  1  0  0  0
 20  6  1  0  0  0
  7 21  1  0  0  0
  8 10  1  0  0  0
 10 22  1  0  0  0
 12 11  1  0  0  0
 13 12  4  0  0  0
 27 12  4  0  0  0
 14 13  4  0  0  0
 14 15  1  0  0  0
 16 14  4  0  0  0
 17 16  1  0  0  0
 18 17  1  0  0  0
 17 25  2  0  0  0
 17 26  2  0  0  0
 18 19  1  0  0  0
 18 24  1  0  0  0
 21 22  1  0  0  0
 23 24  1  0  0  0
  1 28  1  0  0  0
  2 29  1  0  0  0
  4 30  1  0  0  0
  6 31  1  0  0  0
  7 32  1  0  0  0
  7 33  1  0  0  0
  8 34  1  0  0  0
  8 35  1  0  0  0
  9 36  1  0  0  0
 10 37  1  0  0  0
 10 38  1  0  0  0
 11 39  1  0  0  0
 13 40  1  0  0  0
 15 41  1  0  0  0
 19 42  1  0  0  0
 19 43  1  0  0  0
 20 44  1  0  0  0
 21 45  1  0  0  0
 21 46  1  0  0  0
 22 47  1  0  0  0
 22 48  1  0  0  0
 24 49  1  0  0  0
 24 50  1  0  0  0
 27 51  1  0  0  0
M  END
$$$$
