3p8h_ligand
  -I-interpret- 

 41 43  0  0  0  0  0  0  0  0999 V2000
   18.4210   27.8820  -12.6390 C   0  0  0  0  0
   17.3370   28.5990  -13.1270 C   0  0  0  0  0
   17.4940   29.8390  -13.5600 N   0  0  0  0  0
   18.6820   30.4240  -13.5470 C   0  0  0  0  0
   19.8120   29.7530  -13.0760 C   0  0  0  0  0
   19.6890   28.4540  -12.6010 C   0  0  0  0  0
   21.1390   30.5030  -13.0970 C   0  0  0  0  0
   18.1370   26.1240  -12.0170 Br  0  0  0  0  0
   21.2760   31.4740  -12.3590 O   0  0  0  0  0
   22.1070   30.2190  -13.9780 N   0  0  0  0  0
   22.0140   29.0590  -14.8850 C   0  0  0  0  0
   23.1390   28.1170  -14.4360 C   0  0  0  0  0
   23.3850   30.9940  -13.9800 C   0  0  0  0  0
   24.5610   30.0470  -13.6540 C   0  0  0  0  0
   24.5250   28.7930  -14.5340 C   0  0  0  0  0
   25.5730   27.8430  -14.1490 N   0  3  0  0  0
   25.7360   26.7830  -15.1690 C   0  0  0  0  0
   27.1850   26.2870  -14.9970 C   0  0  0  0  0
   27.8290   27.2760  -14.0290 C   0  0  0  0  0
   26.9000   28.4810  -14.0800 C   0  0  0  0  0
   16.3500   28.1371  -13.1535 H   0  0  0  0  0
   18.7792   31.4471  -13.9103 H   0  0  0  0  0
   20.5486   27.9060  -12.2150 H   0  0  0  0  0
   22.1231   29.3515  -15.9293 H   0  0  0  0  0
   21.0371   28.5787  -14.8297 H   0  0  0  0  0
   23.1362   27.2439  -15.0885 H   0  0  0  0  0
   22.9632   27.8441  -13.3955 H   0  0  0  0  0
   23.3336   31.7820  -13.2286 H   0  0  0  0  0
   23.5386   31.4395  -14.9629 H   0  0  0  0  0
   24.4821   29.7416  -12.6106 H   0  0  0  0  0
   25.4953   30.5762  -13.8414 H   0  0  0  0  0
   24.7065   29.0988  -15.5644 H   0  0  0  0  0
   25.2773   27.4781  -13.2435 H   0  0  0  0  0
   25.5534   27.1585  -16.1759 H   0  0  0  0  0
   25.0138   25.9777  -15.0350 H   0  0  0  0  0
   27.7149   26.2502  -15.9488 H   0  0  0  0  0
   27.2200   25.2668  -14.6148 H   0  0  0  0  0
   28.8527   27.5261  -14.3075 H   0  0  0  0  0
   27.9303   26.8694  -13.0228 H   0  0  0  0  0
   27.0134   29.1497  -13.2267 H   0  0  0  0  0
   27.1027   29.1469  -14.9188 H   0  0  0  0  0
  1  2  4  0  0  0
  1  6  4  0  0  0
  1  8  1  0  0  0
  2  3  4  0  0  0
  3  4  4  0  0  0
  4  5  4  0  0  0
  5  6  4  0  0  0
  5  7  1  0  0  0
  7  9  2  0  0  0
  7 10  1  0  0  0
 10 11  1  0  0  0
 10 13  1  0  0  0
 11 12  1  0  0  0
 12 15  1  0  0  0
 13 14  1  0  0  0
 14 15  1  0  0  0
 15 16  1  0  0  0
 16 17  1  0  0  0
 16 20  1  0  0  0
 17 18  1  0  0  0
 18 19  1  0  0  0
 19 20  1  0  0  0
  2 21  1  0  0  0
  4 22  1  0  0  0
  6 23  1  0  0  0
 11 24  1  0  0  0
 11 25  1  0  0  0
 12 26  1  0  0  0
 12 27  1  0  0  0
 13 28  1  0  0  0
 13 29  1  0  0  0
 14 30  1  0  0  0
 14 31  1  0  0  0
 15 32  1  0  0  0
 16 33  1  0  0  0
 17 34  1  0  0  0
 17 35  1  0  0  0
 18 36  1  0  0  0
 18 37  1  0  0  0
 19 38  1  0  0  0
 19 39  1  0  0  0
 20 40  1  0  0  0
 20 41  1  0  0  0
M  END
$$$$
