### 
### Created by X-TOOL on Mon Sep 10 21:13:03 2018
### 

@<TRIPOS>MOLECULE
3p8h_ligand
   40    42     1     0     0
SMALL
GAST_HUCK


@<TRIPOS>ATOM
      1 C1         18.4210   27.8820  -12.6390 C.ar      1 P8H         0.0465
      2 C2         17.3370   28.5990  -13.1270 C.ar      1 P8H         0.0253
      3 N3         17.4940   29.8390  -13.5600 N.ar      1 P8H        -0.2872
      4 C4         18.6820   30.4240  -13.5470 C.ar      1 P8H         0.0341
      5 C5         19.8120   29.7530  -13.0760 C.ar      1 P8H         0.0807
      6 C6         19.6890   28.4540  -12.6010 C.ar      1 P8H        -0.0127
      7 C7         21.1390   30.5030  -13.0970 C.2       1 P8H         0.2160
      8 BR8        18.1370   26.1240  -12.0170 Br        1 P8H        -0.0389
      9 O9         21.2760   31.4740  -12.3590 O.2       1 P8H        -0.3814
     10 N10        22.1070   30.2190  -13.9780 N.am      1 P8H        -0.2714
     11 C11        22.0140   29.0590  -14.8850 C.3       1 P8H         0.0319
     12 C12        23.1390   28.1170  -14.4360 C.3       1 P8H        -0.0484
     13 C13        23.3850   30.9940  -13.9800 C.3       1 P8H         0.0319
     14 C14        24.5610   30.0470  -13.6540 C.3       1 P8H        -0.0484
     15 C15        24.5250   28.7930  -14.5340 C.3       1 P8H        -0.0967
     16 N16        25.5730   27.8430  -14.1490 N.4       1 P8H         0.4051
     17 C17        25.7360   26.7830  -15.1690 C.3       1 P8H        -0.1127
     18 C18        27.1850   26.2870  -14.9970 C.3       1 P8H        -0.0736
     19 C19        27.8290   27.2760  -14.0290 C.3       1 P8H        -0.0736
     20 C20        26.9000   28.4810  -14.0800 C.3       1 P8H        -0.1127
     21 H          16.3500   28.1371  -13.1535 H         1 P8H         0.0885
     22 H          18.7792   31.4471  -13.9103 H         1 P8H         0.0901
     23 H          20.5486   27.9060  -12.2150 H         1 P8H         0.0816
     24 H          22.1231   29.3515  -15.9293 H         1 P8H         0.0521
     25 H          21.0371   28.5787  -14.8297 H         1 P8H         0.0521
     26 H          23.1362   27.2439  -15.0885 H         1 P8H         0.0267
     27 H          22.9632   27.8441  -13.3955 H         1 P8H         0.0267
     28 H          23.3336   31.7820  -13.2286 H         1 P8H         0.0521
     29 H          23.5386   31.4395  -14.9629 H         1 P8H         0.0521
     30 H          24.4821   29.7416  -12.6106 H         1 P8H         0.0267
     31 H          25.4953   30.5762  -13.8414 H         1 P8H         0.0267
     32 H          24.7065   29.0988  -15.5644 H         1 P8H         0.0054
     33 H          25.5534   27.1585  -16.1759 H         1 P8H         0.0017
     34 H          25.0138   25.9777  -15.0350 H         1 P8H         0.0017
     35 H          27.7149   26.2502  -15.9488 H         1 P8H         0.0245
     36 H          27.2200   25.2668  -14.6148 H         1 P8H         0.0245
     37 H          28.8527   27.5261  -14.3075 H         1 P8H         0.0245
     38 H          27.9303   26.8694  -13.0228 H         1 P8H         0.0245
     39 H          27.0134   29.1497  -13.2267 H         1 P8H         0.0017
     40 H          27.1027   29.1469  -14.9188 H         1 P8H         0.0017
@<TRIPOS>BOND
     1    1    2 ar 
     2    1    6 ar 
     3    1    8 1  
     4    2    3 ar 
     5    3    4 ar 
     6    4    5 ar 
     7    5    6 ar 
     8    5    7 1  
     9    7    9 2  
    10    7   10 am 
    11   10   11 1  
    12   10   13 1  
    13   11   12 1  
    14   12   15 1  
    15   13   14 1  
    16   14   15 1  
    17   15   16 1  
    18   16   17 1  
    19   16   20 1  
    20   17   18 1  
    21   18   19 1  
    22   19   20 1  
    23    2   21 1  
    24    4   22 1  
    25    6   23 1  
    26   11   24 1  
    27   11   25 1  
    28   12   26 1  
    29   12   27 1  
    30   13   28 1  
    31   13   29 1  
    32   14   30 1  
    33   14   31 1  
    34   15   32 1  
    35   17   33 1  
    36   17   34 1  
    37   18   35 1  
    38   18   36 1  
    39   19   37 1  
    40   19   38 1  
    41   20   39 1  
    42   20   40 1  
@<TRIPOS>SUBSTRUCTURE
     1 P8H         1

