### 
### Created by X-TOOL on Mon Sep 10 21:13:15 2018
### 

@<TRIPOS>MOLECULE
4hyb_ligand
  142   145     1     0     0
SMALL
GAST_HUCK


@<TRIPOS>ATOM
      1 N         -45.2030   29.9330  -23.0840 N.4       1 LEU         0.2379
      2 CA        -44.8440   31.2680  -22.3120 C.3       1 LEU         0.0652
      3 C         -44.0880   30.9950  -21.0020 C.2       1 LEU         0.2268
      4 O         -44.6460   30.4060  -20.0850 O.2       1 LEU        -0.3907
      5 CB        -46.0870   32.0910  -21.9940 C.3       1 LEU         0.0102
      6 CG        -45.8800   33.4750  -21.3330 C.3       1 LEU        -0.0394
      7 CD1       -45.6140   34.4950  -22.4350 C.3       1 LEU        -0.0623
      8 CD2       -47.1620   33.8880  -20.6200 C.3       1 LEU        -0.0623
      9 N         -42.7890   31.3850  -20.9070 N.am      1 TYR        -0.2594
     10 CA        -42.0050   31.0560  -19.7470 C.3       1 TYR         0.1391
     11 C         -42.0580   32.1560  -18.7310 C.2       1 TYR         0.2057
     12 O         -42.3160   33.3550  -19.0520 O.2       1 TYR        -0.3942
     13 CB        -40.5280   30.7830  -20.1460 C.3       1 TYR         0.0164
     14 CG        -40.3850   29.5330  -20.9840 C.ar      1 TYR        -0.0493
     15 CD1       -40.1470   28.2830  -20.3630 C.ar      1 TYR        -0.0685
     16 CD2       -40.4890   29.5860  -22.3730 C.ar      1 TYR        -0.0685
     17 CE1       -40.0690   27.1100  -21.1140 C.ar      1 TYR        -0.0398
     18 CE2       -40.3900   28.4120  -23.1380 C.ar      1 TYR        -0.0398
     19 CZ        -40.1860   27.2060  -22.5020 C.ar      1 TYR         0.0805
     20 OH        -40.0540   26.0550  -23.2600 O.3       1 TYR        -0.3376
     21 N         -41.7200   31.7640  -17.5140 N.am      1 ALC        -0.2636
     22 CA        -41.9120   32.5890  -16.3550 C.3       1 ALC         0.1312
     23 C         -40.5660   32.8620  -15.6590 C.2       1 ALC         0.2039
     24 O         -39.6350   32.0390  -15.6740 O.2       1 ALC        -0.3944
     25 CB        -42.9360   31.9410  -15.3740 C.3       1 ALC        -0.0096
     26 CG        -44.2230   31.4370  -16.0310 C.3       1 ALC        -0.0368
     27 CD2       -45.0950   30.8070  -14.9020 C.3       1 ALC        -0.0500
     28 CE2       -46.3720   30.2450  -15.6040 C.3       1 ALC        -0.0528
     29 CZ        -47.1490   31.4180  -16.2540 C.3       1 ALC        -0.0530
     30 CE1       -46.2880   32.1510  -17.2990 C.3       1 ALC        -0.0528
     31 CD1       -44.9850   32.6270  -16.5910 C.3       1 ALC        -0.0500
     32 N         -40.4690   34.0290  -15.1010 N.am      1 ILE        -0.2635
     33 CA        -39.2060   34.4810  -14.4920 C.3       1 ILE         0.1337
     34 C         -39.3810   34.7170  -13.0000 C.2       1 ILE         0.2067
     35 O         -40.3070   35.4270  -12.5680 O.2       1 ILE        -0.3942
     36 CB        -38.6690   35.7700  -15.1160 C.3       1 ILE        -0.0037
     37 CG1       -38.5070   35.6760  -16.6690 C.3       1 ILE        -0.0491
     38 CG2       -37.3350   36.2360  -14.4340 C.3       1 ILE        -0.0582
     39 CD1       -38.2830   36.9970  -17.4210 C.3       1 ILE        -0.0648
     40 N         -38.4660   34.1670  -12.1940 N.am      1 PRO        -0.2498
     41 CA        -38.7000   34.3370  -10.7520 C.3       1 PRO         0.1338
     42 C         -38.3160   35.7250  -10.2010 C.2       1 PRO         0.2041
     43 O         -37.6600   36.5730  -10.8450 O.2       1 PRO        -0.3944
     44 CB        -37.7630   33.2990  -10.1330 C.3       1 PRO        -0.0104
     45 CG        -36.6830   33.1990  -11.1360 C.3       1 PRO        -0.0281
     46 CD        -37.4210   33.1700  -12.4450 C.3       1 PRO         0.0369
     47 N         -38.6960   35.9390   -8.9710 N.am      1 ARG        -0.2637
     48 CA        -38.3710   37.2400   -8.4010 C.3       1 ARG         0.1313
     49 C         -36.8770   37.2820   -7.9500 C.2       1 ARG         0.2064
     50 O         -36.2240   36.2010   -7.8700 O.2       1 ARG        -0.3942
     51 CB        -39.2810   37.5190   -7.2120 C.3       1 ARG        -0.0092
     52 CG        -39.0790   36.5400   -6.0580 C.3       1 ARG        -0.0156
     53 CD        -39.6560   37.1650   -4.7950 C.3       1 ARG         0.0627
     54 NE        -40.0770   36.1570   -3.8390 N.pl3     1 ARG        -0.2723
     55 CZ        -39.4740   35.9140   -2.6830 C.cat     1 ARG         0.2882
     56 NH1       -38.4130   36.6220   -2.3200 N.pl3     1 ARG        -0.2849
     57 NH2       -39.9500   34.9640   -1.8840 N.pl3     1 ARG        -0.2849
     58 N         -36.3680   38.5000   -7.6830 N.am      1 PRO        -0.2498
     59 CA        -34.9700   38.5820   -7.3170 C.3       1 PRO         0.1334
     60 C         -34.8190   37.9080   -5.9610 C.2       1 PRO         0.1994
     61 O         -35.7670   37.8580   -5.1660 O.2       1 PRO        -0.3947
     62 CB        -34.7050   40.0610   -7.2640 C.3       1 PRO        -0.0104
     63 CG        -35.8190   40.7210   -8.0280 C.3       1 PRO        -0.0281
     64 CD        -36.9880   39.8370   -7.7580 C.3       1 PRO         0.0369
     65 N         -33.6410   37.3210   -5.7170 N.am      1 PRO        -0.2990
     66 H1        -45.6962   30.1585  -23.9337 H         1 LEU         0.2015
     67 H2        -45.7864   29.3539  -22.5006 H         1 LEU         0.2015
     68 H3        -44.3551   29.4367  -23.3093 H         1 LEU         0.2015
     69 H4        -44.1927   31.8656  -22.9667 H         1 LEU         0.1098
     70 H5        -46.7132   31.4928  -21.3158 H         1 LEU         0.0348
     71 H6        -46.6240   32.2551  -22.9399 H         1 LEU         0.0348
     72 H7        -45.0393   33.4396  -20.6245 H         1 LEU         0.0299
     73 H8        -45.4636   35.4882  -21.9868 H         1 LEU         0.0232
     74 H9        -46.4745   34.5282  -23.1194 H         1 LEU         0.0232
     75 H10       -44.7121   34.2045  -22.9936 H         1 LEU         0.0232
     76 H11       -47.3823   33.1698  -19.8165 H         1 LEU         0.0232
     77 H12       -47.9941   33.9000  -21.3393 H         1 LEU         0.0232
     78 H13       -47.0349   34.8922  -20.1894 H         1 LEU         0.0232
     79 H14       -42.3739   31.9067  -21.6523 H         1 TYR         0.1886
     80 H15       -42.4211   30.1433  -19.2956 H         1 TYR         0.0821
     81 H16       -39.9294   30.6662  -19.2305 H         1 TYR         0.0453
     82 H17       -40.1524   31.6410  -20.7227 H         1 TYR         0.0453
     83 H18       -40.0235   28.2368  -19.2871 H         1 TYR         0.0530
     84 H19       -40.6472   30.5385  -22.8656 H         1 TYR         0.0530
     85 H20       -39.9215   26.1499  -20.6329 H         1 TYR         0.0525
     86 H21       -40.4732   28.4539  -24.2180 H         1 TYR         0.0525
     87 H22       -39.3088   26.1444  -23.8424 H         1 TYR         0.2458
     88 H23       -41.3148   30.8574  -17.3965 H         1 ALC         0.1883
     89 H24       -42.3248   33.5531  -16.6868 H         1 ALC         0.0800
     90 H25       -43.2090   32.6925  -14.6186 H         1 ALC         0.0315
     91 H26       -42.4460   31.0878  -14.8821 H         1 ALC         0.0315
     92 H27       -44.0026   30.7043  -16.8213 H         1 ALC         0.0303
     93 H28       -45.3718   31.5719  -14.1615 H         1 ALC         0.0268
     94 H29       -44.5453   29.9954  -14.4029 H         1 ALC         0.0268
     95 H30       -47.0116   29.7459  -14.8612 H         1 ALC         0.0265
     96 H31       -46.0785   29.5225  -16.3798 H         1 ALC         0.0265
     97 H32       -47.4436   32.1306  -15.4695 H         1 ALC         0.0265
     98 H33       -48.0493   31.0218  -16.7464 H         1 ALC         0.0265
     99 H34       -46.8371   33.0180  -17.6949 H         1 ALC         0.0265
    100 H35       -46.0377   31.4676  -18.1238 H         1 ALC         0.0265
    101 H36       -44.3498   33.1552  -17.3173 H         1 ALC         0.0268
    102 H37       -45.2474   33.3092  -15.7689 H         1 ALC         0.0268
    103 H38       -41.2660   34.6328  -15.0839 H         1 ILE         0.1883
    104 H39       -38.4585   33.6877  -14.6398 H         1 ILE         0.0803
    105 H40       -39.4193   36.5506  -14.9218 H         1 ILE         0.0345
    106 H41       -39.4203   35.2139  -17.0720 H         1 ILE         0.0267
    107 H42       -37.6448   35.0248  -16.8753 H         1 ILE         0.0267
    108 H43       -37.4802   36.2924  -13.3451 H         1 ILE         0.0235
    109 H44       -37.0537   37.2276  -14.8182 H         1 ILE         0.0235
    110 H45       -36.5360   35.5148  -14.6605 H         1 ILE         0.0235
    111 H46       -38.1854   36.7940  -18.4977 H         1 ILE         0.0230
    112 H47       -37.3639   37.4768  -17.0536 H         1 ILE         0.0230
    113 H48       -39.1394   37.6659  -17.2502 H         1 ILE         0.0230
    114 H49       -39.7524   34.1289  -10.5089 H         1 PRO         0.0802
    115 H50       -38.2725   32.3331  -10.0009 H         1 PRO         0.0313
    116 H51       -37.3737   33.6438   -9.1637 H         1 PRO         0.0313
    117 H52       -36.0985   32.2781  -10.9938 H         1 PRO         0.0287
    118 H53       -36.0138   34.0703  -11.0813 H         1 PRO         0.0287
    119 H54       -36.7718   33.4661  -13.2822 H         1 PRO         0.0524
    120 H55       -37.8490   32.1769  -12.6463 H         1 PRO         0.0524
    121 H56       -39.1864   35.2439   -8.4453 H         1 ARG         0.1883
    122 H57       -38.5329   38.0143   -9.1654 H         1 ARG         0.0800
    123 H58       -40.3262   37.4522   -7.5483 H         1 ARG         0.0313
    124 H59       -39.0775   38.5365   -6.8470 H         1 ARG         0.0313
    125 H60       -38.0054   36.3447   -5.9194 H         1 ARG         0.0301
    126 H61       -39.5984   35.5953   -6.2763 H         1 ARG         0.0301
    127 H62       -40.5249   37.7819   -5.0678 H         1 ARG         0.0689
    128 H63       -38.8878   37.7993   -4.3286 H         1 ARG         0.0689
    129 H64       -40.9035   35.5897   -4.0755 H         1 ARG         0.2642
    130 H65       -37.9483   36.4294   -1.4212 H         1 ARG         0.2615
    131 H66       -38.0537   37.3645   -2.9369 H         1 ARG         0.2615
    132 H67       -40.7742   34.4162   -2.1694 H         1 ARG         0.2615
    133 H68       -39.4945   34.7758   -0.9796 H         1 ARG         0.2615
    134 H69       -34.3200   38.0936   -8.0579 H         1 PRO         0.0802
    135 H70       -33.7358   40.2906   -7.7309 H         1 PRO         0.0313
    136 H71       -34.7011   40.4094   -6.2207 H         1 PRO         0.0313
    137 H72       -35.5921   40.7572   -9.1037 H         1 PRO         0.0287
    138 H73       -36.0016   41.7404   -7.6573 H         1 PRO         0.0287
    139 H74       -37.4760   40.1025   -6.8086 H         1 PRO         0.0524
    140 H75       -37.7226   39.8891   -8.5751 H         1 PRO         0.0524
    141 H76       -33.4827   36.8618   -4.8429 H         1 PRO         0.1815
    142 H77       -32.9193   37.3416   -6.4089 H         1 PRO         0.1815
@<TRIPOS>BOND
     1    1    2 1  
     2    2    3 1  
     3    2    5 1  
     4    3    4 2  
     5    3    9 am 
     6    5    6 1  
     7    6    7 1  
     8    6    8 1  
     9    9   10 1  
    10   10   11 1  
    11   10   13 1  
    12   11   12 2  
    13   11   21 am 
    14   13   14 1  
    15   14   15 ar 
    16   14   16 ar 
    17   15   17 ar 
    18   16   18 ar 
    19   17   19 ar 
    20   18   19 ar 
    21   19   20 1  
    22   21   22 1  
    23   22   23 1  
    24   22   25 1  
    25   23   24 2  
    26   23   32 am 
    27   25   26 1  
    28   26   27 1  
    29   26   31 1  
    30   27   28 1  
    31   28   29 1  
    32   29   30 1  
    33   30   31 1  
    34   32   33 1  
    35   33   34 1  
    36   33   36 1  
    37   34   35 2  
    38   34   40 am 
    39   36   37 1  
    40   36   38 1  
    41   37   39 1  
    42   40   41 1  
    43   40   46 1  
    44   41   42 1  
    45   41   44 1  
    46   42   43 2  
    47   42   47 am 
    48   44   45 1  
    49   45   46 1  
    50   47   48 1  
    51   48   49 1  
    52   48   51 1  
    53   49   50 2  
    54   49   58 am 
    55   51   52 1  
    56   52   53 1  
    57   53   54 1  
    58   54   55 ar 
    59   55   56 ar 
    60   55   57 ar 
    61   58   59 1  
    62   58   64 1  
    63   59   60 1  
    64   59   62 1  
    65   60   61 2  
    66   60   65 am 
    67   62   63 1  
    68   63   64 1  
    69    1   66 1  
    70    1   67 1  
    71    1   68 1  
    72    2   69 1  
    73    5   70 1  
    74    5   71 1  
    75    6   72 1  
    76    7   73 1  
    77    7   74 1  
    78    7   75 1  
    79    8   76 1  
    80    8   77 1  
    81    8   78 1  
    82    9   79 1  
    83   10   80 1  
    84   13   81 1  
    85   13   82 1  
    86   15   83 1  
    87   16   84 1  
    88   17   85 1  
    89   18   86 1  
    90   20   87 1  
    91   21   88 1  
    92   22   89 1  
    93   25   90 1  
    94   25   91 1  
    95   26   92 1  
    96   27   93 1  
    97   27   94 1  
    98   28   95 1  
    99   28   96 1  
   100   29   97 1  
   101   29   98 1  
   102   30   99 1  
   103   30  100 1  
   104   31  101 1  
   105   31  102 1  
   106   32  103 1  
   107   33  104 1  
   108   36  105 1  
   109   37  106 1  
   110   37  107 1  
   111   38  108 1  
   112   38  109 1  
   113   38  110 1  
   114   39  111 1  
   115   39  112 1  
   116   39  113 1  
   117   41  114 1  
   118   44  115 1  
   119   44  116 1  
   120   45  117 1  
   121   45  118 1  
   122   46  119 1  
   123   46  120 1  
   124   47  121 1  
   125   48  122 1  
   126   51  123 1  
   127   51  124 1  
   128   52  125 1  
   129   52  126 1  
   130   53  127 1  
   131   53  128 1  
   132   54  129 1  
   133   56  130 1  
   134   56  131 1  
   135   57  132 1  
   136   57  133 1  
   137   59  134 1  
   138   62  135 1  
   139   62  136 1  
   140   63  137 1  
   141   63  138 1  
   142   64  139 1  
   143   64  140 1  
   144   65  141 1  
   145   65  142 1  
@<TRIPOS>SUBSTRUCTURE
     1 LEU         1

