4hyb_ligand
  -I-interpret- 

141144  0  0  0  0  0  0  0  0999 V2000
  -45.2030   29.9330  -23.0840 N   0  3  0  0  0
  -44.8440   31.2680  -22.3120 C   0  0  0  0  0
  -44.0880   30.9950  -21.0020 C   0  0  0  0  0
  -44.6460   30.4060  -20.0850 O   0  0  0  0  0
  -46.0870   32.0910  -21.9940 C   0  0  0  0  0
  -45.8800   33.4750  -21.3330 C   0  0  0  0  0
  -45.6140   34.4950  -22.4350 C   0  0  0  0  0
  -47.1620   33.8880  -20.6200 C   0  0  0  0  0
  -42.7890   31.3850  -20.9070 N   0  0  0  0  0
  -42.0050   31.0560  -19.7470 C   0  0  0  0  0
  -42.0580   32.1560  -18.7310 C   0  0  0  0  0
  -42.3160   33.3550  -19.0520 O   0  0  0  0  0
  -40.5280   30.7830  -20.1460 C   0  0  0  0  0
  -40.3850   29.5330  -20.9840 C   0  0  0  0  0
  -40.1470   28.2830  -20.3630 C   0  0  0  0  0
  -40.4890   29.5860  -22.3730 C   0  0  0  0  0
  -40.0690   27.1100  -21.1140 C   0  0  0  0  0
  -40.3900   28.4120  -23.1380 C   0  0  0  0  0
  -40.1860   27.2060  -22.5020 C   0  0  0  0  0
  -40.0540   26.0550  -23.2600 O   0  0  0  0  0
  -41.7200   31.7640  -17.5140 N   0  0  0  0  0
  -41.9120   32.5890  -16.3550 C   0  0  0  0  0
  -40.5660   32.8620  -15.6590 C   0  0  0  0  0
  -39.6350   32.0390  -15.6740 O   0  0  0  0  0
  -42.9360   31.9410  -15.3740 C   0  0  0  0  0
  -44.2230   31.4370  -16.0310 C   0  0  0  0  0
  -45.0950   30.8070  -14.9020 C   0  0  0  0  0
  -46.3720   30.2450  -15.6040 C   0  0  0  0  0
  -47.1490   31.4180  -16.2540 C   0  0  0  0  0
  -46.2880   32.1510  -17.2990 C   0  0  0  0  0
  -44.9850   32.6270  -16.5910 C   0  0  0  0  0
  -40.4690   34.0290  -15.1010 N   0  0  0  0  0
  -39.2060   34.4810  -14.4920 C   0  0  0  0  0
  -39.3810   34.7170  -13.0000 C   0  0  0  0  0
  -40.3070   35.4270  -12.5680 O   0  0  0  0  0
  -38.6690   35.7700  -15.1160 C   0  0  0  0  0
  -38.5070   35.6760  -16.6690 C   0  0  0  0  0
  -37.3350   36.2360  -14.4340 C   0  0  0  0  0
  -38.2830   36.9970  -17.4210 C   0  0  0  0  0
  -38.4660   34.1670  -12.1940 N   0  0  0  0  0
  -38.7000   34.3370  -10.7520 C   0  0  0  0  0
  -38.3160   35.7250  -10.2010 C   0  0  0  0  0
  -37.6600   36.5730  -10.8450 O   0  0  0  0  0
  -37.7630   33.2990  -10.1330 C   0  0  0  0  0
  -36.6830   33.1990  -11.1360 C   0  0  0  0  0
  -37.4210   33.1700  -12.4450 C   0  0  0  0  0
  -38.6960   35.9390   -8.9710 N   0  0  0  0  0
  -38.3710   37.2400   -8.4010 C   0  0  0  0  0
  -36.8770   37.2820   -7.9500 C   0  0  0  0  0
  -36.2240   36.2010   -7.8700 O   0  0  0  0  0
  -39.2810   37.5190   -7.2120 C   0  0  0  0  0
  -39.0790   36.5400   -6.0580 C   0  0  0  0  0
  -39.6560   37.1650   -4.7950 C   0  0  0  0  0
  -40.0770   36.1570   -3.8390 N   0  0  0  0  0
  -39.4740   35.9140   -2.6830 C   0  0  0  0  0
  -38.4130   36.6220   -2.3200 N   0  0  0  0  0
  -39.9500   34.9640   -1.8840 N   0  0  0  0  0
  -36.3680   38.5000   -7.6830 N   0  0  0  0  0
  -34.9700   38.5820   -7.3170 C   0  0  0  0  0
  -34.8190   37.9080   -5.9610 C   0  0  0  0  0
  -35.7670   37.8580   -5.1660 O   0  0  0  0  0
  -34.7050   40.0610   -7.2640 C   0  0  0  0  0
  -35.8190   40.7210   -8.0280 C   0  0  0  0  0
  -36.9880   39.8370   -7.7580 C   0  0  0  0  0
  -33.6410   37.3210   -5.7170 N   0  0  0  0  0
  -44.3472   29.4129  -23.2774 H   0  0  0  0  0
  -45.8245   29.3652  -22.5080 H   0  0  0  0  0
  -45.6677   30.1639  -23.9621 H   0  0  0  0  0
  -44.1983   31.8322  -22.9849 H   0  0  0  0  0
  -46.6506   31.5023  -21.2702 H   0  0  0  0  0
  -46.5580   32.2935  -22.9559 H   0  0  0  0  0
  -45.0510   33.4278  -20.6269 H   0  0  0  0  0
  -46.4516   34.5011  -23.1325 H   0  0  0  0  0
  -45.5007   35.4847  -21.9926 H   0  0  0  0  0
  -44.7003   34.2257  -22.9648 H   0  0  0  0  0
  -47.0348   34.8832  -20.1939 H   0  0  0  0  0
  -47.9857   33.8996  -21.3338 H   0  0  0  0  0
  -47.3792   33.1756  -19.8241 H   0  0  0  0  0
  -42.3656   31.9171  -21.6672 H   0  0  0  0  0
  -42.4288   30.1540  -19.3056 H   0  0  0  0  0
  -39.9493   30.6470  -19.2324 H   0  0  0  0  0
  -40.1739   31.6288  -20.7353 H   0  0  0  0  0
  -40.0228   28.2365  -19.2811 H   0  0  0  0  0
  -40.6480   30.5438  -22.8684 H   0  0  0  0  0
  -39.9207   26.1445  -20.6303 H   0  0  0  0  0
  -40.4737   28.4542  -24.2240 H   0  0  0  0  0
  -40.1572   26.2717  -24.1895 H   0  0  0  0  0
  -41.3067   30.8392  -17.3942 H   0  0  0  0  0
  -42.3249   33.5450  -16.6770 H   0  0  0  0  0
  -43.2256   32.7142  -14.6624 H   0  0  0  0  0
  -42.4456   31.0737  -14.9318 H   0  0  0  0  0
  -44.0014   30.7220  -16.8233 H   0  0  0  0  0
  -45.3549   31.5474  -14.1454 H   0  0  0  0  0
  -44.5534   30.0185  -14.3795 H   0  0  0  0  0
  -47.0054   29.7468  -14.8701 H   0  0  0  0  0
  -46.0833   29.5260  -16.3707 H   0  0  0  0  0
  -47.4234   32.1268  -15.4727 H   0  0  0  0  0
  -48.0306   31.0153  -16.7527 H   0  0  0  0  0
  -46.8310   33.0038  -17.7065 H   0  0  0  0  0
  -46.0474   31.4840  -18.1268 H   0  0  0  0  0
  -44.3552   33.1436  -17.3153 H   0  0  0  0  0
  -45.2493   33.2969  -15.7728 H   0  0  0  0  0
  -41.2819   34.6448  -15.0836 H   0  0  0  0  0
  -38.4879   33.6821  -14.6767 H   0  0  0  0  0
  -39.4261   36.5311  -14.9274 H   0  0  0  0  0
  -39.4471   35.2724  -17.0449 H   0  0  0  0  0
  -37.6129   35.0770  -16.8418 H   0  0  0  0  0
  -37.5142   36.4170  -13.3742 H   0  0  0  0  0
  -36.5792   35.4590  -14.5485 H   0  0  0  0  0
  -36.9881   37.1546  -14.9072 H   0  0  0  0  0
  -39.1322   37.6589  -17.2509 H   0  0  0  0  0
  -37.3721   37.4714  -17.0560 H   0  0  0  0  0
  -38.1864   36.7945  -18.4877 H   0  0  0  0  0
  -39.7605   34.2271  -10.5252 H   0  0  0  0  0
  -38.2533   32.3450   -9.9390 H   0  0  0  0  0
  -37.4017   33.5869   -9.1458 H   0  0  0  0  0
  -36.0573   32.3185  -10.9897 H   0  0  0  0  0
  -35.9766   34.0267  -11.0730 H   0  0  0  0  0
  -36.7964   33.3917  -13.3103 H   0  0  0  0  0
  -37.8038   32.1860  -12.7156 H   0  0  0  0  0
  -39.1962   35.2300   -8.4347 H   0  0  0  0  0
  -38.5240   38.0056   -9.1616 H   0  0  0  0  0
  -40.3112   37.4191   -7.5537 H   0  0  0  0  0
  -39.0462   38.5175   -6.8433 H   0  0  0  0  0
  -38.0170   36.3354   -5.9226 H   0  0  0  0  0
  -39.5838   35.5983   -6.2736 H   0  0  0  0  0
  -40.5269   37.7584   -5.0733 H   0  0  0  0  0
  -38.8820   37.7759   -4.3305 H   0  0  0  0  0
  -40.8955   35.5952   -4.0732 H   0  0  0  0  0
  -38.0572   37.3573   -2.9309 H   0  0  0  0  0
  -39.4990   34.7776   -0.9883 H   0  0  0  0  0
  -40.7662   34.4215   -2.1666 H   0  0  0  0  0
  -34.2727   38.0930   -7.9972 H   0  0  0  0  0
  -33.7359   40.3001   -7.7019 H   0  0  0  0  0
  -34.6743   40.4156   -6.2338 H   0  0  0  0  0
  -35.6006   40.8159   -9.0917 H   0  0  0  0  0
  -35.9901   41.7512   -7.7157 H   0  0  0  0  0
  -37.5278   40.1085   -6.8508 H   0  0  0  0  0
  -37.7612   39.9065   -8.5231 H   0  0  0  0  0
  -33.4976   36.8071   -4.8477 H   0  0  0  0  0
  -32.8867   37.3876   -6.4004 H   0  0  0  0  0
  1  2  1  0  0  0
  2  3  1  0  0  0
  2  5  1  0  0  0
  3  4  2  0  0  0
  3  9  1  0  0  0
  5  6  1  0  0  0
  6  7  1  0  0  0
  6  8  1  0  0  0
  9 10  1  0  0  0
 10 11  1  0  0  0
 10 13  1  0  0  0
 11 12  2  0  0  0
 11 21  1  0  0  0
 13 14  1  0  0  0
 14 15  4  0  0  0
 14 16  4  0  0  0
 15 17  4  0  0  0
 16 18  4  0  0  0
 17 19  4  0  0  0
 18 19  4  0  0  0
 19 20  1  0  0  0
 21 22  1  0  0  0
 22 23  1  0  0  0
 22 25  1  0  0  0
 23 24  2  0  0  0
 23 32  1  0  0  0
 25 26  1  0  0  0
 26 27  1  0  0  0
 26 31  1  0  0  0
 27 28  1  0  0  0
 28 29  1  0  0  0
 29 30  1  0  0  0
 30 31  1  0  0  0
 32 33  1  0  0  0
 33 34  1  0  0  0
 33 36  1  0  0  0
 34 35  2  0  0  0
 34 40  1  0  0  0
 36 37  1  0  0  0
 36 38  1  0  0  0
 37 39  1  0  0  0
 40 41  1  0  0  0
 40 46  1  0  0  0
 41 42  1  0  0  0
 41 44  1  0  0  0
 42 43  2  0  0  0
 42 47  1  0  0  0
 44 45  1  0  0  0
 45 46  1  0  0  0
 47 48  1  0  0  0
 48 49  1  0  0  0
 48 51  1  0  0  0
 49 50  2  0  0  0
 49 58  1  0  0  0
 51 52  1  0  0  0
 52 53  1  0  0  0
 53 54  1  0  0  0
 54 55  1  0  0  0
 55 56  2  0  0  0
 55 57  1  0  0  0
 58 59  1  0  0  0
 58 64  1  0  0  0
 59 60  1  0  0  0
 59 62  1  0  0  0
 60 61  2  0  0  0
 60 65  1  0  0  0
 62 63  1  0  0  0
 63 64  1  0  0  0
  1 66  1  0  0  0
  1 67  1  0  0  0
  1 68  1  0  0  0
  2 69  1  0  0  0
  5 70  1  0  0  0
  5 71  1  0  0  0
  6 72  1  0  0  0
  7 73  1  0  0  0
  7 74  1  0  0  0
  7 75  1  0  0  0
  8 76  1  0  0  0
  8 77  1  0  0  0
  8 78  1  0  0  0
  9 79  1  0  0  0
 10 80  1  0  0  0
 13 81  1  0  0  0
 13 82  1  0  0  0
 15 83  1  0  0  0
 16 84  1  0  0  0
 17 85  1  0  0  0
 18 86  1  0  0  0
 20 87  1  0  0  0
 21 88  1  0  0  0
 22 89  1  0  0  0
 25 90  1  0  0  0
 25 91  1  0  0  0
 26 92  1  0  0  0
 27 93  1  0  0  0
 27 94  1  0  0  0
 28 95  1  0  0  0
 28 96  1  0  0  0
 29 97  1  0  0  0
 29 98  1  0  0  0
 30 99  1  0  0  0
 30100  1  0  0  0
 31101  1  0  0  0
 31102  1  0  0  0
 32103  1  0  0  0
 33104  1  0  0  0
 36105  1  0  0  0
 37106  1  0  0  0
 37107  1  0  0  0
 38108  1  0  0  0
 38109  1  0  0  0
 38110  1  0  0  0
 39111  1  0  0  0
 39112  1  0  0  0
 39113  1  0  0  0
 41114  1  0  0  0
 44115  1  0  0  0
 44116  1  0  0  0
 45117  1  0  0  0
 45118  1  0  0  0
 46119  1  0  0  0
 46120  1  0  0  0
 47121  1  0  0  0
 48122  1  0  0  0
 51123  1  0  0  0
 51124  1  0  0  0
 52125  1  0  0  0
 52126  1  0  0  0
 53127  1  0  0  0
 53128  1  0  0  0
 54129  1  0  0  0
 56130  1  0  0  0
 57131  1  0  0  0
 57132  1  0  0  0
 59133  1  0  0  0
 62134  1  0  0  0
 62135  1  0  0  0
 63136  1  0  0  0
 63137  1  0  0  0
 64138  1  0  0  0
 64139  1  0  0  0
 65140  1  0  0  0
 65141  1  0  0  0
M  END
$$$$
