5jah_ligand
  -I-interpret- 

 20 20  0  0  0  0  0  0  0  0999 V2000
   29.1050    1.4580   -2.0820 C   0  0  0  0  0
   28.0860    3.6950   -1.8650 C   0  0  0  0  0
   25.8430    3.2340   -1.8460 C   0  0  0  0  0
   26.5740    1.8980   -2.0410 C   0  0  0  0  0
   26.2790    0.9620   -0.8830 C   0  0  0  0  0
   27.9630    2.3550   -2.0230 N   0  0  0  0  0
   29.1140    4.3440   -1.8470 O   0  0  0  0  0
   26.7980    4.1970   -1.7290 N   0  0  0  0  0
   24.6460    3.4040   -1.8020 O   0  0  0  0  0
   26.1890    1.2770   -3.3850 C   0  0  0  0  0
   29.0770    0.7796   -1.2293 H   0  0  0  0  0
   29.0661    0.8827   -3.0070 H   0  0  0  0  0
   30.0254    2.0413   -2.0538 H   0  0  0  0  0
   25.2130    0.7352   -0.8633 H   0  0  0  0  0
   26.8458    0.0396   -1.0096 H   0  0  0  0  0
   26.5671    1.4415    0.0525 H   0  0  0  0  0
   26.5902    5.1811   -1.5597 H   0  0  0  0  0
   26.3133    2.0177   -4.1749 H   0  0  0  0  0
   26.8315    0.4195   -3.5849 H   0  0  0  0  0
   25.1489    0.9529   -3.3494 H   0  0  0  0  0
  6  1  1  0  0  0
  2  6  1  0  0  0
  2  7  2  0  0  0
  8  2  1  0  0  0
  3  4  1  0  0  0
  3  8  1  0  0  0
  3  9  2  0  0  0
  4  5  1  0  0  0
  4  6  1  0  0  0
  4 10  1  0  0  0
  1 11  1  0  0  0
  1 12  1  0  0  0
  1 13  1  0  0  0
  5 14  1  0  0  0
  5 15  1  0  0  0
  5 16  1  0  0  0
  8 17  1  0  0  0
 10 18  1  0  0  0
 10 19  1  0  0  0
 10 20  1  0  0  0
M  END
$$$$
