2opb_ligand
  -I-interpret- 

 41 43  0  0  0  0  0  0  0  0999 V2000
   26.1240   45.4710   13.5220 C   0  0  0  0  0
   25.3300   46.0950   12.3720 C   0  0  0  0  0
   26.5360   46.6830   11.1310 S   0  0  0  0  0
   27.6510   45.2680   10.8300 C   0  0  0  0  0
   28.1120   44.7800   12.2060 C   0  0  0  0  0
   26.9510   44.3630   13.0090 N   0  0  0  0  0
   27.4900   43.4300   14.2320 S   0  0  0  0  0
   26.3720   42.6830   14.7110 O   0  0  0  0  0
   28.5060   42.4870   13.6580 O   0  0  0  0  0
   28.2470   44.2400   15.5870 C   0  0  0  0  0
   28.5710   43.4640   16.6900 C   0  0  0  0  0
   29.1760   44.0360   17.8140 C   0  0  0  0  0
   29.4910   43.1460   19.0230 C   0  0  0  0  0
   30.3820   43.8280   19.9750 N   0  3  0  0  0
   29.8580   45.1650   20.2800 C   0  0  0  0  0
   30.5810   45.7710   21.4870 C   0  0  0  0  0
   30.1910   45.1340   22.6550 F   0  0  0  0  0
   30.0610   46.0630   19.0540 C   0  0  0  0  0
   29.4530   45.3920   17.8240 C   0  0  0  0  0
   29.1330   46.1760   16.7000 C   0  0  0  0  0
   28.5330   45.6070   15.5910 C   0  0  0  0  0
   25.4330   45.0891   14.2735 H   0  0  0  0  0
   26.7692   46.2275   13.9687 H   0  0  0  0  0
   24.7199   46.9226   12.7339 H   0  0  0  0  0
   24.6553   45.3611   11.9312 H   0  0  0  0  0
   28.5010   45.5639   10.2152 H   0  0  0  0  0
   27.1382   44.4751   10.2856 H   0  0  0  0  0
   28.6292   45.5910   12.7187 H   0  0  0  0  0
   28.7827   43.9304   12.0783 H   0  0  0  0  0
   28.3517   42.3963   16.6808 H   0  0  0  0  0
   29.9895   42.2440   18.6680 H   0  0  0  0  0
   28.5563   42.9104   19.5319 H   0  0  0  0  0
   31.3106   43.9167   19.5624 H   0  0  0  0  0
   30.4351   43.2831   20.8356 H   0  0  0  0  0
   28.7981   45.0872   20.5220 H   0  0  0  0  0
   30.3272   46.8287   21.5581 H   0  0  0  0  0
   31.6558   45.6453   21.3564 H   0  0  0  0  0
   31.1273   46.2203   18.8918 H   0  0  0  0  0
   29.5729   47.0230   19.2224 H   0  0  0  0  0
   29.3601   47.2421   16.7033 H   0  0  0  0  0
   28.2850   46.2217   14.7257 H   0  0  0  0  0
  1  2  1  0  0  0
  1  6  1  0  0  0
  2  3  1  0  0  0
  3  4  1  0  0  0
  4  5  1  0  0  0
  5  6  1  0  0  0
  6  7  1  0  0  0
  7  8  2  0  0  0
  7  9  2  0  0  0
  7 10  1  0  0  0
 10 11  4  0  0  0
 10 21  4  0  0  0
 11 12  4  0  0  0
 12 13  1  0  0  0
 12 19  4  0  0  0
 13 14  1  0  0  0
 14 15  1  0  0  0
 15 16  1  0  0  0
 15 18  1  0  0  0
 16 17  1  0  0  0
 18 19  1  0  0  0
 19 20  4  0  0  0
 20 21  4  0  0  0
  1 22  1  0  0  0
  1 23  1  0  0  0
  2 24  1  0  0  0
  2 25  1  0  0  0
  4 26  1  0  0  0
  4 27  1  0  0  0
  5 28  1  0  0  0
  5 29  1  0  0  0
 11 30  1  0  0  0
 13 31  1  0  0  0
 13 32  1  0  0  0
 14 33  1  0  0  0
 14 34  1  0  0  0
 15 35  1  0  0  0
 16 36  1  0  0  0
 16 37  1  0  0  0
 18 38  1  0  0  0
 18 39  1  0  0  0
 20 40  1  0  0  0
 21 41  1  0  0  0
M  END
$$$$
