5oq6_ligand
  -I-interpret- 

 82 87  0  0  0  0  0  0  0  0999 V2000
    4.5930   -4.2880   18.7410 C   0  0  0  0  0
    5.5980   -3.3320   18.7760 C   0  0  0  0  0
    5.4040   -2.1980   19.5250 C   0  0  0  0  0
    4.2290   -2.0190   20.1270 N   0  0  0  0  0
    3.4260   -4.0950   19.3630 N   0  0  0  0  0
   -3.6920  -10.8030   23.9880 C   0  0  0  0  0
   -3.6150  -12.3130   24.2340 C   0  0  0  0  0
   -2.2780  -12.7950   23.8410 N   0  3  0  0  0
   -2.0150  -14.1900   24.2680 C   0  0  0  0  0
   -2.1000  -12.5550   22.3860 C   0  0  0  0  0
   -2.1470  -11.0450   22.0900 C   0  0  0  0  0
   -3.4140  -10.4380   22.5810 N   0  3  0  0  0
   -3.4200   -8.9560   22.5090 C   0  0  0  0  0
   -4.3920   -8.4320   21.4440 C   0  0  0  0  0
   -4.4720   -6.8890   21.4760 C   0  0  0  0  0
   -2.0330   -8.3670   22.2240 C   0  0  0  0  0
   -2.0980   -6.8670   22.4080 C   0  0  0  0  0
   -3.1190   -6.2830   21.4950 N   0  0  0  0  0
   -2.8610   -5.1850   20.7830 C   0  0  0  0  0
   -3.7550   -4.6680   20.1880 O   0  0  0  0  0
   -1.5190   -4.4950   20.7590 C   0  0  0  0  0
   -1.1920   -3.6320   21.7650 C   0  0  0  0  0
    0.0620   -3.0330   21.7420 C   0  0  0  0  0
    0.4580   -2.1870   22.7280 O   0  0  0  0  0
   -0.3550   -2.2630   23.9070 C   0  0  0  0  0
   -0.6440   -4.7530   19.7210 C   0  0  0  0  0
    0.6130   -4.1540   19.7040 C   0  0  0  0  0
    0.9690   -3.2920   20.7290 C   0  0  0  0  0
    2.1780   -2.6310   20.7720 N   0  0  0  0  0
    3.2880   -2.9560   20.0710 C   0  0  0  0  0
    4.6740   -5.3700   17.9600 N   0  0  0  0  0
    4.0380   -6.5630   18.4600 C   0  0  0  0  0
    5.0190   -5.3430   16.6470 C   0  0  0  0  0
    4.1180   -5.8980   15.7080 C   0  0  0  0  0
    4.4350   -5.8420   14.3670 C   0  0  0  0  0
    5.6230   -5.2680   13.9250 C   0  0  0  0  0
    6.4900   -4.6960   14.8590 C   0  0  0  0  0
    6.1720   -4.7620   16.2010 C   0  0  0  0  0
    7.1510   -4.1850   17.1770 C   0  0  0  0  0
    8.3310   -4.2590   16.8360 O   0  0  0  0  0
    6.8330   -3.5560   18.3190 N   0  0  0  0  0
    7.9440   -3.0790   19.1030 C   0  0  0  0  0
    6.1972   -1.4572   19.6254 H   0  0  0  0  0
   -2.9387  -10.3235   24.6130 H   0  0  0  0  0
   -4.7049  -10.4769   24.2242 H   0  0  0  0  0
   -4.3775  -12.8212   23.6437 H   0  0  0  0  0
   -3.7861  -12.5229   25.2898 H   0  0  0  0  0
   -1.5635  -12.2644   24.3393 H   0  0  0  0  0
   -2.0847  -14.2555   25.3538 H   0  0  0  0  0
   -2.7523  -14.8525   23.8147 H   0  0  0  0  0
   -1.0153  -14.4841   23.9484 H   0  0  0  0  0
   -2.9022  -13.0519   21.8405 H   0  0  0  0  0
   -1.1339  -12.9512   22.0734 H   0  0  0  0  0
   -2.0878  -10.9005   21.0112 H   0  0  0  0  0
   -1.3115  -10.5650   22.5996 H   0  0  0  0  0
   -4.1307  -10.8122   21.9591 H   0  0  0  0  0
   -3.7466   -8.6314   23.4970 H   0  0  0  0  0
   -5.3834   -8.8372   21.6465 H   0  0  0  0  0
   -4.0348   -8.7428   20.4622 H   0  0  0  0  0
   -5.0017   -6.5865   22.3793 H   0  0  0  0  0
   -4.9934   -6.5487   20.5813 H   0  0  0  0  0
   -1.7325   -8.6028   21.2031 H   0  0  0  0  0
   -1.3009   -8.7934   22.9097 H   0  0  0  0  0
   -1.1238   -6.4359   22.1775 H   0  0  0  0  0
   -2.3716   -6.6447   23.4394 H   0  0  0  0  0
   -1.8978   -3.4177   22.5675 H   0  0  0  0  0
   -1.3847   -2.0109   23.6536 H   0  0  0  0  0
   -0.3158   -3.2753   24.3092 H   0  0  0  0  0
    0.0198   -1.5603   24.6512 H   0  0  0  0  0
   -0.9379   -5.4257   18.9152 H   0  0  0  0  0
    1.3103   -4.3612   18.8922 H   0  0  0  0  0
    2.2413   -1.8218   21.3898 H   0  0  0  0  0
    3.1094   -6.7337   17.9153 H   0  0  0  0  0
    4.7044   -7.4142   18.3204 H   0  0  0  0  0
    3.8210   -6.4400   19.5211 H   0  0  0  0  0
    3.1889   -6.3621   16.0389 H   0  0  0  0  0
    3.7396   -6.2565   13.6372 H   0  0  0  0  0
    5.8737   -5.2647   12.8642 H   0  0  0  0  0
    7.4061   -4.2037   14.5325 H   0  0  0  0  0
    8.5766   -3.9209   19.3843 H   0  0  0  0  0
    8.5238   -2.3681   18.5143 H   0  0  0  0  0
    7.5691   -2.5885   20.0013 H   0  0  0  0  0
  1  2  4  0  0  0
  5  1  4  0  0  0
  1 31  1  0  0  0
  3  2  4  0  0  0
  2 41  1  0  0  0
  4  3  4  0  0  0
 30  4  4  0  0  0
 30  5  4  0  0  0
  6  7  1  0  0  0
 12  6  1  0  0  0
  7  8  1  0  0  0
  8  9  1  0  0  0
 10  8  1  0  0  0
 11 10  1  0  0  0
 12 11  1  0  0  0
 13 12  1  0  0  0
 14 13  1  0  0  0
 16 13  1  0  0  0
 15 14  1  0  0  0
 18 15  1  0  0  0
 17 16  1  0  0  0
 18 17  1  0  0  0
 19 18  1  0  0  0
 19 20  2  0  0  0
 21 19  1  0  0  0
 22 21  4  0  0  0
 26 21  4  0  0  0
 23 22  4  0  0  0
 23 24  1  0  0  0
 28 23  4  0  0  0
 24 25  1  0  0  0
 27 26  4  0  0  0
 28 27  4  0  0  0
 29 28  1  0  0  0
 29 30  1  0  0  0
 31 32  1  0  0  0
 31 33  1  0  0  0
 33 34  4  0  0  0
 33 38  4  0  0  0
 34 35  4  0  0  0
 35 36  4  0  0  0
 36 37  4  0  0  0
 37 38  4  0  0  0
 38 39  1  0  0  0
 39 40  2  0  0  0
 39 41  1  0  0  0
 41 42  1  0  0  0
  3 43  1  0  0  0
  6 44  1  0  0  0
  6 45  1  0  0  0
  7 46  1  0  0  0
  7 47  1  0  0  0
  8 48  1  0  0  0
  9 49  1  0  0  0
  9 50  1  0  0  0
  9 51  1  0  0  0
 10 52  1  0  0  0
 10 53  1  0  0  0
 11 54  1  0  0  0
 11 55  1  0  0  0
 12 56  1  0  0  0
 13 57  1  0  0  0
 14 58  1  0  0  0
 14 59  1  0  0  0
 15 60  1  0  0  0
 15 61  1  0  0  0
 16 62  1  0  0  0
 16 63  1  0  0  0
 17 64  1  0  0  0
 17 65  1  0  0  0
 22 66  1  0  0  0
 25 67  1  0  0  0
 25 68  1  0  0  0
 25 69  1  0  0  0
 26 70  1  0  0  0
 27 71  1  0  0  0
 29 72  1  0  0  0
 32 73  1  0  0  0
 32 74  1  0  0  0
 32 75  1  0  0  0
 34 76  1  0  0  0
 35 77  1  0  0  0
 36 78  1  0  0  0
 37 79  1  0  0  0
 42 80  1  0  0  0
 42 81  1  0  0  0
 42 82  1  0  0  0
M  END
$$$$
