4d88_ligand
  -I-interpret- 

 72 74  0  0  0  0  0  0  0  0999 V2000
   29.0640   80.8110   18.1980 F   0  0  0  0  0
   28.5910   79.5940   17.8150 C   0  0  0  0  0
   27.3220   79.4180   18.2750 F   0  0  0  0  0
   28.5830   79.5160   16.4550 F   0  0  0  0  0
   29.5250   78.5160   18.4130 C   0  0  0  0  0
   30.8450   78.6240   17.8490 O   0  0  0  0  0
   29.6010   78.5940   19.9710 C   0  0  0  0  0
   30.2470   77.3110   20.5180 C   0  0  0  0  0
   31.5150   77.2620   21.1700 C   0  0  0  0  0
   32.0060   76.0090   21.6250 C   0  0  0  0  0
   31.2590   74.8210   21.4370 C   0  0  0  0  0
   30.0010   74.8730   20.7860 C   0  0  0  0  0
   29.5080   76.1180   20.3410 C   0  0  0  0  0
   29.1650   73.6040   20.5330 C   0  0  0  0  0
   29.7450   72.7480   19.3490 C   0  0  0  0  0
   28.8260   71.5860   18.8540 C   0  0  0  0  0
   29.5570   70.6590   17.8250 C   0  0  0  0  0
   30.0630   71.3840   16.5420 C   0  0  0  0  0
   31.1990   72.6990   17.0110 S   0  0  0  0  0
   30.1480   73.6390   18.1190 C   0  0  0  0  0
   32.3190   72.1540   17.7510 O   0  0  0  0  0
   31.5050   73.5140   15.8490 O   0  0  0  0  0
   28.7500   69.4540   17.4970 N   0  3  0  0  0
   29.3550   68.2500   16.8560 C   0  0  0  0  0
   30.5030   67.7500   17.7520 C   0  0  0  0  0
   30.2190   67.1640   19.0090 C   0  0  0  0  0
   31.2380   66.6850   19.8890 C   0  0  0  0  0
   32.5820   66.8300   19.4260 C   0  0  0  0  0
   32.8900   67.4110   18.1720 C   0  0  0  0  0
   31.8490   67.8720   17.3320 C   0  0  0  0  0
   30.8540   66.0460   21.2790 C   0  0  0  0  0
   32.0500   65.2740   21.9210 C   0  0  0  0  0
   30.4080   67.1460   22.2980 C   0  0  0  0  0
   29.6560   65.0400   21.1850 C   0  0  0  0  0
   28.4280   70.6980   19.9140 O   0  0  0  0  0
   33.1890   75.9430   22.2350 F   0  0  0  0  0
   32.2850   78.3620   21.3780 N   0  0  0  0  0
   29.0984   77.5468   18.1546 H   0  0  0  0  0
   30.7878   78.5750   16.8920 H   0  0  0  0  0
   28.5954   78.6966   20.3789 H   0  0  0  0  0
   30.2015   79.4557   20.2625 H   0  0  0  0  0
   31.6507   73.8679   21.7923 H   0  0  0  0  0
   28.5359   76.1614   19.8498 H   0  0  0  0  0
   28.1517   73.9083   20.2710 H   0  0  0  0  0
   29.1846   72.9954   21.4370 H   0  0  0  0  0
   30.6292   72.2841   19.7861 H   0  0  0  0  0
   27.9686   72.0982   18.4174 H   0  0  0  0  0
   30.4624   70.3326   18.3366 H   0  0  0  0  0
   29.2152   71.8086   16.0044 H   0  0  0  0  0
   30.5768   70.6702   15.8981 H   0  0  0  0  0
   30.6882   74.5179   18.4709 H   0  0  0  0  0
   29.2485   73.9495   17.5874 H   0  0  0  0  0
   28.0877   69.7911   16.7984 H   0  0  0  0  0
   28.4452   69.1133   18.4088 H   0  0  0  0  0
   29.7365   68.5050   15.8673 H   0  0  0  0  0
   28.6027   67.4695   16.7422 H   0  0  0  0  0
   29.1779   67.0743   19.3191 H   0  0  0  0  0
   33.3977   66.4816   20.0595 H   0  0  0  0  0
   33.9285   67.5030   17.8540 H   0  0  0  0  0
   32.0826   68.3191   16.3658 H   0  0  0  0  0
   32.3636   64.4719   21.2529 H   0  0  0  0  0
   32.8808   65.9614   22.0805 H   0  0  0  0  0
   31.7375   64.8518   22.8761 H   0  0  0  0  0
   31.2253   67.8509   22.4506 H   0  0  0  0  0
   29.5398   67.6741   21.9037 H   0  0  0  0  0
   30.1492   66.6767   23.2472 H   0  0  0  0  0
   28.7759   65.5595   20.8059 H   0  0  0  0  0
   29.9186   64.2264   20.5088 H   0  0  0  0  0
   29.4432   64.6369   22.1751 H   0  0  0  0  0
   27.8672   70.0057   19.5564 H   0  0  0  0  0
   31.9631   79.2770   21.0624 H   0  0  0  0  0
   33.1849   78.2728   21.8498 H   0  0  0  0  0
  1  2  1  0  0  0
  2  3  1  0  0  0
  2  4  1  0  0  0
  2  5  1  0  0  0
  5  6  1  0  0  0
  5  7  1  0  0  0
  7  8  1  0  0  0
  8  9  4  0  0  0
  8 13  4  0  0  0
  9 10  4  0  0  0
  9 37  1  0  0  0
 10 11  4  0  0  0
 10 36  1  0  0  0
 11 12  4  0  0  0
 12 13  4  0  0  0
 12 14  1  0  0  0
 14 15  1  0  0  0
 15 16  1  0  0  0
 15 20  1  0  0  0
 16 17  1  0  0  0
 16 35  1  0  0  0
 17 18  1  0  0  0
 17 23  1  0  0  0
 18 19  1  0  0  0
 19 20  1  0  0  0
 19 21  2  0  0  0
 19 22  2  0  0  0
 23 24  1  0  0  0
 24 25  1  0  0  0
 25 26  4  0  0  0
 25 30  4  0  0  0
 26 27  4  0  0  0
 27 28  4  0  0  0
 27 31  1  0  0  0
 28 29  4  0  0  0
 29 30  4  0  0  0
 31 32  1  0  0  0
 31 33  1  0  0  0
 31 34  1  0  0  0
  5 38  1  0  0  0
  6 39  1  0  0  0
  7 40  1  0  0  0
  7 41  1  0  0  0
 11 42  1  0  0  0
 13 43  1  0  0  0
 14 44  1  0  0  0
 14 45  1  0  0  0
 15 46  1  0  0  0
 16 47  1  0  0  0
 17 48  1  0  0  0
 18 49  1  0  0  0
 18 50  1  0  0  0
 20 51  1  0  0  0
 20 52  1  0  0  0
 23 53  1  0  0  0
 23 54  1  0  0  0
 24 55  1  0  0  0
 24 56  1  0  0  0
 26 57  1  0  0  0
 28 58  1  0  0  0
 29 59  1  0  0  0
 30 60  1  0  0  0
 32 61  1  0  0  0
 32 62  1  0  0  0
 32 63  1  0  0  0
 33 64  1  0  0  0
 33 65  1  0  0  0
 33 66  1  0  0  0
 34 67  1  0  0  0
 34 68  1  0  0  0
 34 69  1  0  0  0
 35 70  1  0  0  0
 37 71  1  0  0  0
 37 72  1  0  0  0
M  END
$$$$
