5vfm_ligand
  -I-interpret- 

 20 20  0  0  0  0  0  0  0  0999 V2000
  -13.0750    6.7900  113.9200 C   0  0  0  0  0
  -11.9790    6.3640  113.4880 O   0  0  0  0  0
  -13.1710    7.7220  114.7630 O   0  0  0  0  0
  -14.3740    6.2060  113.4780 C   0  0  0  0  0
  -14.6770    5.3090  112.5360 C   0  0  0  0  0
  -16.1600    4.9760  112.4140 C   0  0  0  0  0
  -17.1280    5.8860  112.8620 C   0  0  0  0  0
  -18.4610    5.5680  112.7400 C   0  0  0  0  0
  -18.7870    4.3600  112.1650 C   0  0  0  0  0
  -17.8560    3.4200  111.7040 C   0  0  0  0  0
  -16.5070    3.7450  111.8380 C   0  0  0  0  0
  -20.1280    4.0400  112.0470 O   0  0  0  0  0
  -14.0977    7.8866  114.9522 H   0  0  0  0  0
  -15.2379    6.5815  114.0264 H   0  0  0  0  0
  -13.9199    4.8488  111.9011 H   0  0  0  0  0
  -16.8273    6.8365  113.3028 H   0  0  0  0  0
  -19.2355    6.2515  113.0879 H   0  0  0  0  0
  -18.1725    2.4761  111.2601 H   0  0  0  0  0
  -15.7345    3.0539  111.5007 H   0  0  0  0  0
  -20.2150    3.1783  111.6329 H   0  0  0  0  0
  1  2  2  0  0  0
  1  3  1  0  0  0
  1  4  1  0  0  0
  4  5  2  0  0  0
  5  6  1  0  0  0
  6  7  4  0  0  0
  6 11  4  0  0  0
  7  8  4  0  0  0
  8  9  4  0  0  0
  9 10  4  0  0  0
  9 12  1  0  0  0
 10 11  4  0  0  0
  3 13  1  0  0  0
  4 14  1  0  0  0
  5 15  1  0  0  0
  7 16  1  0  0  0
  8 17  1  0  0  0
 10 18  1  0  0  0
 11 19  1  0  0  0
 12 20  1  0  0  0
M  END
$$$$
