### 
### Created by X-TOOL on Mon Sep 10 21:13:33 2018
### 

@<TRIPOS>MOLECULE
5sve_ligand
  110   111     1     0     0
SMALL
GAST_HUCK


@<TRIPOS>ATOM
      1 N          15.9870  -14.8380   29.2330 N.4       1 ASP         0.2377
      2 CA         15.7450  -16.2760   29.1940 C.3       1 ASP         0.0621
      3 C          15.7750  -16.8790   30.5970 C.2       1 ASP         0.2264
      4 O          16.1790  -18.0290   30.7840 O.2       1 ASP        -0.3907
      5 CB         16.7740  -16.9700   28.2990 C.3       1 ASP        -0.0040
      6 N          15.3460  -16.0940   31.5800 N.am      1 GLN        -0.2609
      7 CA         15.2970  -16.5460   32.9660 C.3       1 GLN         0.1331
      8 C          13.9270  -17.1200   33.3120 C.2       1 GLN         0.2042
      9 O          13.8200  -18.1140   34.0320 O.2       1 GLN        -0.3944
     10 CB         15.6380  -15.3960   33.9160 C.3       1 GLN         0.0045
     11 CG         15.3530  -15.6960   35.3780 C.3       1 GLN         0.0412
     12 CD         15.5580  -14.4900   36.2730 C.2       1 GLN         0.1737
     13 OE1        16.1880  -13.5090   35.8770 O.2       1 GLN        -0.3973
     14 NE2        15.0210  -14.5540   37.4860 N.am      1 GLN        -0.3009
     15 N          12.8800  -16.4840   32.7950 N.am      1 TYR        -0.2621
     16 CA         11.5120  -16.9140   33.0580 C.3       1 TYR         0.1390
     17 C          10.9100  -17.6320   31.8520 C.2       1 TYR         0.2057
     18 O          11.4350  -17.5440   30.7420 O.2       1 TYR        -0.3942
     19 CB         10.6440  -15.7160   33.4470 C.3       1 TYR         0.0163
     20 CG         11.0960  -15.0180   34.7090 C.ar      1 TYR        -0.0493
     21 CD1        10.7730  -15.5280   35.9610 C.ar      1 TYR        -0.0685
     22 CD2        11.8420  -13.8480   34.6510 C.ar      1 TYR        -0.0685
     23 CE1        11.1830  -14.8940   37.1210 C.ar      1 TYR        -0.0398
     24 CE2        12.2570  -13.2060   35.8050 C.ar      1 TYR        -0.0398
     25 CZ         11.9240  -13.7330   37.0370 C.ar      1 TYR         0.0805
     26 OH         12.3330  -13.1000   38.1890 O.3       1 TYR        -0.3376
     27 N           9.8120  -18.3460   32.0810 N.am      1 LEU        -0.2636
     28 CA          9.1200  -19.0670   31.0170 C.3       1 LEU         0.1312
     29 C           8.4680  -18.0950   30.0400 C.2       1 LEU         0.2039
     30 O           7.7010  -17.2220   30.4430 O.2       1 LEU        -0.3944
     31 CB          8.0690  -20.0130   31.6030 C.3       1 LEU        -0.0101
     32 CG          7.1330  -20.7090   30.6110 C.3       1 LEU        -0.0425
     33 CD1         7.9150  -21.5810   29.6430 C.3       1 LEU        -0.0625
     34 CD2         6.0830  -21.5260   31.3450 C.3       1 LEU        -0.0625
     35 N           8.7780  -18.2490   28.7570 N.am      1 ALA        -0.2640
     36 CA          8.2980  -17.3190   27.7410 C.3       1 ALA         0.1282
     37 C           7.0910  -17.8610   26.9840 C.2       1 ALA         0.2036
     38 O           6.9830  -19.0630   26.7380 O.2       1 ALA        -0.3944
     39 CB          9.4170  -16.9820   26.7680 C.3       1 ALA        -0.0244
     40 N           6.1830  -16.9620   26.6190 N.am      1 VAL        -0.2635
     41 CA          5.0270  -17.3220   25.8100 C.3       1 VAL         0.1334
     42 C           5.4630  -17.5980   24.3750 C.2       1 VAL         0.2061
     43 O           6.1140  -16.7600   23.7520 O.2       1 VAL        -0.3942
     44 CB          3.9640  -16.2080   25.8230 C.3       1 VAL        -0.0062
     45 CG1         2.7740  -16.5910   24.9580 C.3       1 VAL        -0.0584
     46 CG2         3.5230  -15.9140   27.2500 C.3       1 VAL        -0.0584
     47 N           5.1120  -18.7800   23.8450 N.am      1 PRO        -0.2556
     48 CA          5.5010  -19.1260   22.4740 C.3       1 PRO         0.0972
     49 C           4.5690  -18.5150   21.4350 C.2       1 PRO         0.0603
     50 O           5.0040  -17.6140   20.7190 O.co2     1 PRO        -0.5666
     51 CB          5.4120  -20.6550   22.4580 C.3       1 PRO        -0.0159
     52 CG          4.4740  -21.0170   23.5830 C.3       1 PRO        -0.0288
     53 CD          4.2430  -19.8040   24.4490 C.3       1 PRO         0.0362
     54 OXT         3.4200  -18.9480   21.3550 O.co2     1 PRO        -0.5666
     55 H1         15.9616  -14.4675   28.2959 H         1 ASP         0.2015
     56 H2         16.8919  -14.6604   29.6401 H         1 ASP         0.2015
     57 H3         15.2747  -14.3924   29.7899 H         1 ASP         0.2015
     58 H4         14.7450  -16.4444   28.7678 H         1 ASP         0.1095
     59 H5         16.5752  -18.0518   28.2824 H         1 ASP         0.0310
     60 H6         17.7847  -16.7889   28.6936 H         1 ASP         0.0310
     61 H7         16.7018  -16.5683   27.2775 H         1 ASP         0.0310
     62 H8         15.0476  -15.1646   31.3627 H         1 GLN         0.1885
     63 H9         16.0474  -17.3397   33.0960 H         1 GLN         0.0801
     64 H10        15.0457  -14.5171   33.6216 H         1 GLN         0.0337
     65 H11        16.7091  -15.1679   33.8123 H         1 GLN         0.0337
     66 H12        16.0268  -16.4995   35.7103 H         1 GLN         0.0504
     67 H13        14.3093  -16.0305   35.4717 H         1 GLN         0.0504
     68 H14        15.1243  -13.7873   38.1196 H         1 GLN         0.1814
     69 H15        14.5133  -15.3689   37.7657 H         1 GLN         0.1814
     70 H16        13.0353  -15.6884   32.2094 H         1 TYR         0.1885
     71 H17        11.5305  -17.6183   33.9027 H         1 TYR         0.0821
     72 H18         9.6130  -16.0690   33.5965 H         1 TYR         0.0453
     73 H19        10.6667  -14.9890   32.6218 H         1 TYR         0.0453
     74 H20        10.1894  -16.4389   36.0302 H         1 TYR         0.0530
     75 H21        12.1038  -13.4304   33.6855 H         1 TYR         0.0530
     76 H22        10.9237  -15.3068   38.0892 H         1 TYR         0.0525
     77 H23        12.8402  -12.2945   35.7418 H         1 TYR         0.0525
     78 H24        12.0238  -13.5873   38.9436 H         1 TYR         0.2458
     79 H25         9.4487  -18.3905   33.0116 H         1 LEU         0.1883
     80 H26         9.8603  -19.6671   30.4677 H         1 LEU         0.0800
     81 H27         7.4447  -19.4285   32.2947 H         1 LEU         0.0315
     82 H28         8.6018  -20.7960   32.1624 H         1 LEU         0.0315
     83 H29         6.6158  -19.9325   30.0283 H         1 LEU         0.0298
     84 H30         7.2192  -22.0676   28.9437 H         1 LEU         0.0232
     85 H31         8.4668  -22.3489   30.2049 H         1 LEU         0.0232
     86 H32         8.6250  -20.9578   29.0796 H         1 LEU         0.0232
     87 H33         5.5307  -20.8749   32.0386 H         1 LEU         0.0232
     88 H34         6.5744  -22.3313   31.9107 H         1 LEU         0.0232
     89 H35         5.3837  -21.9631   30.6171 H         1 LEU         0.0232
     90 H36         9.3531  -19.0195   28.4820 H         1 ALA         0.1883
     91 H37         7.9907  -16.3929   28.2488 H         1 ALA         0.0797
     92 H38         9.0428  -16.2807   26.0076 H         1 ALA         0.0277
     93 H39         9.7661  -17.9026   26.2775 H         1 ALA         0.0277
     94 H40        10.2514  -16.5188   27.3150 H         1 ALA         0.0277
     95 H41         6.2968  -16.0115   26.9080 H         1 VAL         0.1883
     96 H42         4.5803  -18.2364   26.2274 H         1 VAL         0.0803
     97 H43         4.4139  -15.2953   25.4053 H         1 VAL         0.0343
     98 H44         2.0283  -15.7827   24.9816 H         1 VAL         0.0234
     99 H45         2.3231  -17.5171   25.3439 H         1 VAL         0.0234
    100 H46         3.1094  -16.7502   23.9226 H         1 VAL         0.0234
    101 H47         4.3995  -15.6398   27.8555 H         1 VAL         0.0234
    102 H48         3.0468  -16.8083   27.6783 H         1 VAL         0.0234
    103 H49         2.8041  -15.0814   27.2475 H         1 VAL         0.0234
    104 H50         6.5296  -18.7934   22.2708 H         1 PRO         0.0728
    105 H51         6.4039  -21.0995   22.6268 H         1 PRO         0.0306
    106 H52         5.0115  -21.0066   21.4957 H         1 PRO         0.0306
    107 H53         4.9186  -21.8210   24.1879 H         1 PRO         0.0286
    108 H54         3.5151  -21.3590   23.1664 H         1 PRO         0.0286
    109 H55         3.1883  -19.4932   24.4171 H         1 PRO         0.0524
    110 H56         4.5353  -20.0031   25.4906 H         1 PRO         0.0524
@<TRIPOS>BOND
     1    1    2 1  
     2    2    3 1  
     3    2    5 1  
     4    3    4 2  
     5    3    6 am 
     6    6    7 1  
     7    7    8 1  
     8    7   10 1  
     9    8    9 2  
    10    8   15 am 
    11   10   11 1  
    12   11   12 1  
    13   12   13 2  
    14   12   14 am 
    15   15   16 1  
    16   16   17 1  
    17   16   19 1  
    18   17   18 2  
    19   17   27 am 
    20   19   20 1  
    21   20   21 ar 
    22   20   22 ar 
    23   21   23 ar 
    24   22   24 ar 
    25   23   25 ar 
    26   24   25 ar 
    27   25   26 1  
    28   27   28 1  
    29   28   29 1  
    30   28   31 1  
    31   29   30 2  
    32   29   35 am 
    33   31   32 1  
    34   32   33 1  
    35   32   34 1  
    36   35   36 1  
    37   36   37 1  
    38   36   39 1  
    39   37   38 2  
    40   37   40 am 
    41   40   41 1  
    42   41   42 1  
    43   41   44 1  
    44   42   43 2  
    45   42   47 am 
    46   44   45 1  
    47   44   46 1  
    48   47   48 1  
    49   47   53 1  
    50   48   49 1  
    51   48   51 1  
    52   49   50 ar 
    53   49   54 ar 
    54   51   52 1  
    55   52   53 1  
    56    1   55 1  
    57    1   56 1  
    58    1   57 1  
    59    2   58 1  
    60    5   59 1  
    61    5   60 1  
    62    5   61 1  
    63    6   62 1  
    64    7   63 1  
    65   10   64 1  
    66   10   65 1  
    67   11   66 1  
    68   11   67 1  
    69   14   68 1  
    70   14   69 1  
    71   15   70 1  
    72   16   71 1  
    73   19   72 1  
    74   19   73 1  
    75   21   74 1  
    76   22   75 1  
    77   23   76 1  
    78   24   77 1  
    79   26   78 1  
    80   27   79 1  
    81   28   80 1  
    82   31   81 1  
    83   31   82 1  
    84   32   83 1  
    85   33   84 1  
    86   33   85 1  
    87   33   86 1  
    88   34   87 1  
    89   34   88 1  
    90   34   89 1  
    91   35   90 1  
    92   36   91 1  
    93   39   92 1  
    94   39   93 1  
    95   39   94 1  
    96   40   95 1  
    97   41   96 1  
    98   44   97 1  
    99   45   98 1  
   100   45   99 1  
   101   45  100 1  
   102   46  101 1  
   103   46  102 1  
   104   46  103 1  
   105   48  104 1  
   106   51  105 1  
   107   51  106 1  
   108   52  107 1  
   109   52  108 1  
   110   53  109 1  
   111   53  110 1  
@<TRIPOS>SUBSTRUCTURE
     1 ASP         1

