5sve_ligand
  -I-interpret- 

111112  0  0  0  0  0  0  0  0999 V2000
   15.9870  -14.8380   29.2330 N   0  3  0  0  0
   15.7450  -16.2760   29.1940 C   0  0  0  0  0
   15.7750  -16.8790   30.5970 C   0  0  0  0  0
   16.1790  -18.0290   30.7840 O   0  0  0  0  0
   16.7740  -16.9700   28.2990 C   0  0  0  0  0
   15.3460  -16.0940   31.5800 N   0  0  0  0  0
   15.2970  -16.5460   32.9660 C   0  0  0  0  0
   13.9270  -17.1200   33.3120 C   0  0  0  0  0
   13.8200  -18.1140   34.0320 O   0  0  0  0  0
   15.6380  -15.3960   33.9160 C   0  0  0  0  0
   15.3530  -15.6960   35.3780 C   0  0  0  0  0
   15.5580  -14.4900   36.2730 C   0  0  0  0  0
   16.1880  -13.5090   35.8770 O   0  0  0  0  0
   15.0210  -14.5540   37.4860 N   0  0  0  0  0
   12.8800  -16.4840   32.7950 N   0  0  0  0  0
   11.5120  -16.9140   33.0580 C   0  0  0  0  0
   10.9100  -17.6320   31.8520 C   0  0  0  0  0
   11.4350  -17.5440   30.7420 O   0  0  0  0  0
   10.6440  -15.7160   33.4470 C   0  0  0  0  0
   11.0960  -15.0180   34.7090 C   0  0  0  0  0
   10.7730  -15.5280   35.9610 C   0  0  0  0  0
   11.8420  -13.8480   34.6510 C   0  0  0  0  0
   11.1830  -14.8940   37.1210 C   0  0  0  0  0
   12.2570  -13.2060   35.8050 C   0  0  0  0  0
   11.9240  -13.7330   37.0370 C   0  0  0  0  0
   12.3330  -13.1000   38.1890 O   0  0  0  0  0
    9.8120  -18.3460   32.0810 N   0  0  0  0  0
    9.1200  -19.0670   31.0170 C   0  0  0  0  0
    8.4680  -18.0950   30.0400 C   0  0  0  0  0
    7.7010  -17.2220   30.4430 O   0  0  0  0  0
    8.0690  -20.0130   31.6030 C   0  0  0  0  0
    7.1330  -20.7090   30.6110 C   0  0  0  0  0
    7.9150  -21.5810   29.6430 C   0  0  0  0  0
    6.0830  -21.5260   31.3450 C   0  0  0  0  0
    8.7780  -18.2490   28.7570 N   0  0  0  0  0
    8.2980  -17.3190   27.7410 C   0  0  0  0  0
    7.0910  -17.8610   26.9840 C   0  0  0  0  0
    6.9830  -19.0630   26.7380 O   0  0  0  0  0
    9.4170  -16.9820   26.7680 C   0  0  0  0  0
    6.1830  -16.9620   26.6190 N   0  0  0  0  0
    5.0270  -17.3220   25.8100 C   0  0  0  0  0
    5.4630  -17.5980   24.3750 C   0  0  0  0  0
    6.1140  -16.7600   23.7520 O   0  0  0  0  0
    3.9640  -16.2080   25.8230 C   0  0  0  0  0
    2.7740  -16.5910   24.9580 C   0  0  0  0  0
    3.5230  -15.9140   27.2500 C   0  0  0  0  0
    5.1120  -18.7800   23.8450 N   0  0  0  0  0
    5.5010  -19.1260   22.4740 C   0  0  0  0  0
    4.5690  -18.5150   21.4350 C   0  0  0  0  0
    5.0040  -17.6140   20.7190 O   0  0  0  0  0
    5.4120  -20.6550   22.4580 C   0  0  0  0  0
    4.4740  -21.0170   23.5830 C   0  0  0  0  0
    4.2430  -19.8040   24.4490 C   0  0  0  0  0
    3.4200  -18.9480   21.3550 O   0  0  0  0  0
   15.2924  -14.3937   29.8334 H   0  0  0  0  0
   16.9209  -14.6615   29.6032 H   0  0  0  0  0
   15.9163  -14.4568   28.2895 H   0  0  0  0  0
   14.7508  -16.4353   28.7764 H   0  0  0  0  0
   17.7695  -16.8393   28.7232 H   0  0  0  0  0
   16.5410  -18.0330   28.2364 H   0  0  0  0  0
   16.7418  -16.5304   27.3021 H   0  0  0  0  0
   15.0416  -15.1461   31.3583 H   0  0  0  0  0
   16.0378  -17.3368   33.0843 H   0  0  0  0  0
   15.0150  -14.5475   33.6329 H   0  0  0  0  0
   16.7083  -15.2100   33.8270 H   0  0  0  0  0
   16.0446  -16.4741   35.7011 H   0  0  0  0  0
   14.3096  -16.0004   35.4601 H   0  0  0  0  0
   15.1228  -13.7703   38.1308 H   0  0  0  0  0
   14.5068  -15.3869   37.7728 H   0  0  0  0  0
   13.0384  -15.6725   32.1977 H   0  0  0  0  0
   11.5390  -17.6194   33.8885 H   0  0  0  0  0
    9.6360  -16.0900   33.6261 H   0  0  0  0  0
   10.7075  -14.9917   32.6349 H   0  0  0  0  0
   10.1861  -16.4439   36.0306 H   0  0  0  0  0
   12.1052  -13.4281   33.6802 H   0  0  0  0  0
   10.9223  -15.3091   38.0945 H   0  0  0  0  0
   12.8435  -12.2894   35.7415 H   0  0  0  0  0
   12.8341  -12.3138   37.9601 H   0  0  0  0  0
    9.4415  -18.3914   33.0302 H   0  0  0  0  0
    9.8575  -19.6585   30.4745 H   0  0  0  0  0
    7.4295  -19.3949   32.2332 H   0  0  0  0  0
    8.6263  -20.8093   32.0963 H   0  0  0  0  0
    6.6232  -19.9389   30.0321 H   0  0  0  0  0
    8.6182  -20.9623   29.0854 H   0  0  0  0  0
    8.4613  -22.3414   30.2010 H   0  0  0  0  0
    7.2245  -22.0625   28.9506 H   0  0  0  0  0
    6.5750  -22.2827   31.9560 H   0  0  0  0  0
    5.4937  -20.8681   31.9838 H   0  0  0  0  0
    5.4297  -22.0112   30.6198 H   0  0  0  0  0
    9.3646  -19.0349   28.4765 H   0  0  0  0  0
    7.9776  -16.4139   28.2570 H   0  0  0  0  0
   10.2432  -16.5232   27.3112 H   0  0  0  0  0
    9.7621  -17.8950   26.2828 H   0  0  0  0  0
    9.0451  -16.2871   26.0151 H   0  0  0  0  0
    6.2991  -15.9925   26.9138 H   0  0  0  0  0
    4.5838  -18.2207   26.2390 H   0  0  0  0  0
    4.4062  -15.3029   25.4065 H   0  0  0  0  0
    3.1077  -16.7485   23.9324 H   0  0  0  0  0
    2.3282  -17.5088   25.3414 H   0  0  0  0  0
    2.0359  -15.7893   24.9822 H   0  0  0  0  0
    3.0989  -16.8161   27.6910 H   0  0  0  0  0
    4.3838  -15.5917   27.8358 H   0  0  0  0  0
    2.7716  -15.1244   27.2413 H   0  0  0  0  0
    6.4892  -18.7441   22.2177 H   0  0  0  0  0
    6.3919  -21.1132   22.5924 H   0  0  0  0  0
    5.0464  -21.0234   21.4995 H   0  0  0  0  0
    4.9132  -21.8147   24.1820 H   0  0  0  0  0
    3.5241  -21.3574   23.1709 H   0  0  0  0  0
    3.1961  -19.5017   24.4739 H   0  0  0  0  0
    4.4798  -19.9876   25.4970 H   0  0  0  0  0
    3.2958  -19.6444   22.0040 H   0  0  0  0  0
  1  2  1  0  0  0
  2  3  1  0  0  0
  2  5  1  0  0  0
  3  4  2  0  0  0
  3  6  1  0  0  0
  6  7  1  0  0  0
  7  8  1  0  0  0
  7 10  1  0  0  0
  8  9  2  0  0  0
  8 15  1  0  0  0
 10 11  1  0  0  0
 11 12  1  0  0  0
 12 13  2  0  0  0
 12 14  1  0  0  0
 15 16  1  0  0  0
 16 17  1  0  0  0
 16 19  1  0  0  0
 17 18  2  0  0  0
 17 27  1  0  0  0
 19 20  1  0  0  0
 20 21  4  0  0  0
 20 22  4  0  0  0
 21 23  4  0  0  0
 22 24  4  0  0  0
 23 25  4  0  0  0
 24 25  4  0  0  0
 25 26  1  0  0  0
 27 28  1  0  0  0
 28 29  1  0  0  0
 28 31  1  0  0  0
 29 30  2  0  0  0
 29 35  1  0  0  0
 31 32  1  0  0  0
 32 33  1  0  0  0
 32 34  1  0  0  0
 35 36  1  0  0  0
 36 37  1  0  0  0
 36 39  1  0  0  0
 37 38  2  0  0  0
 37 40  1  0  0  0
 40 41  1  0  0  0
 41 42  1  0  0  0
 41 44  1  0  0  0
 42 43  2  0  0  0
 42 47  1  0  0  0
 44 45  1  0  0  0
 44 46  1  0  0  0
 47 48  1  0  0  0
 47 53  1  0  0  0
 48 49  1  0  0  0
 48 51  1  0  0  0
 49 50  2  0  0  0
 49 54  1  0  0  0
 51 52  1  0  0  0
 52 53  1  0  0  0
  1 55  1  0  0  0
  1 56  1  0  0  0
  1 57  1  0  0  0
  2 58  1  0  0  0
  5 59  1  0  0  0
  5 60  1  0  0  0
  5 61  1  0  0  0
  6 62  1  0  0  0
  7 63  1  0  0  0
 10 64  1  0  0  0
 10 65  1  0  0  0
 11 66  1  0  0  0
 11 67  1  0  0  0
 14 68  1  0  0  0
 14 69  1  0  0  0
 15 70  1  0  0  0
 16 71  1  0  0  0
 19 72  1  0  0  0
 19 73  1  0  0  0
 21 74  1  0  0  0
 22 75  1  0  0  0
 23 76  1  0  0  0
 24 77  1  0  0  0
 26 78  1  0  0  0
 27 79  1  0  0  0
 28 80  1  0  0  0
 31 81  1  0  0  0
 31 82  1  0  0  0
 32 83  1  0  0  0
 33 84  1  0  0  0
 33 85  1  0  0  0
 33 86  1  0  0  0
 34 87  1  0  0  0
 34 88  1  0  0  0
 34 89  1  0  0  0
 35 90  1  0  0  0
 36 91  1  0  0  0
 39 92  1  0  0  0
 39 93  1  0  0  0
 39 94  1  0  0  0
 40 95  1  0  0  0
 41 96  1  0  0  0
 44 97  1  0  0  0
 45 98  1  0  0  0
 45 99  1  0  0  0
 45100  1  0  0  0
 46101  1  0  0  0
 46102  1  0  0  0
 46103  1  0  0  0
 48104  1  0  0  0
 51105  1  0  0  0
 51106  1  0  0  0
 52107  1  0  0  0
 52108  1  0  0  0
 53109  1  0  0  0
 53110  1  0  0  0
 54111  1  0  0  0
M  END
$$$$
