### 
### Created by X-TOOL on Mon Sep 10 21:12:51 2018
### 

@<TRIPOS>MOLECULE
1o4e_ligand
   27    27     1     0     0
SMALL
GAST_HUCK


@<TRIPOS>ATOM
      1 C1         18.0910   26.2990   20.8470 C.ar      1 299        -0.0326
      2 C2         18.1810   24.9590   20.3710 C.ar      1 299        -0.0300
      3 C3         17.3160   24.6000   19.2970 C.ar      1 299        -0.0326
      4 C4         16.4710   25.5390   18.6490 C.ar      1 299         0.0524
      5 C5         16.4000   26.8770   19.1250 C.ar      1 299         0.1866
      6 C6         17.1870   27.2590   20.2550 C.ar      1 299         0.0524
      7 C7         19.1210   24.0220   21.0240 C.3       1 299        -0.0201
      8 C11        15.6650   25.0640   17.5480 C.3       1 299         0.0885
      9 C12        17.0630   28.5660   20.9380 C.3       1 299         0.0885
     10 O13        15.4610   27.8200   18.6210 O.3       1 299        -0.2064
     11 P14        15.7630   28.7100   17.4240 P.3       1 299         0.1326
     12 O15        14.4500   29.4170   17.2260 O.co2     1 299        -0.6656
     13 O16        16.0550   27.8960   16.1760 O.co2     1 299        -0.6656
     14 O17        16.7910   29.6950   17.7040 O.co2     1 299        -0.6656
     15 O20        15.8190   25.2190   16.1940 O.3       1 299        -0.3802
     16 O22        16.7070   28.6830   22.1060 O.3       1 299        -0.3802
     17 H1         18.7178   26.6070   21.6760 H         1 299         0.0549
     18 H2         17.3026   23.5693   18.9615 H         1 299         0.0549
     19 H3         19.6690   24.5476   21.8199 H         1 299         0.0470
     20 H4         19.8341   23.6393   20.2790 H         1 299         0.0470
     21 H5         18.5590   23.1823   21.4588 H         1 299         0.0470
     22 H6         14.6677   25.4816   17.7505 H         1 299         0.0752
     23 H7         15.6412   23.9733   17.6885 H         1 299         0.0752
     24 H8         16.3452   29.1504   20.3437 H         1 299         0.0752
     25 H9         18.0566   29.0341   20.8769 H         1 299         0.0752
     26 H10        15.8070   26.1442   15.9789 H         1 299         0.2132
     27 H11        16.6960   29.6032   22.3419 H         1 299         0.2132
@<TRIPOS>BOND
     1    1    2 ar 
     2    1    6 ar 
     3    2    3 ar 
     4    2    7 1  
     5    3    4 ar 
     6    4    5 ar 
     7    4    8 1  
     8    5    6 ar 
     9    5   10 1  
    10    6    9 1  
    11    8   15 1  
    12    9   16 1  
    13   10   11 1  
    14   11   12 ar 
    15   11   13 ar 
    16   11   14 ar 
    17    1   17 1  
    18    3   18 1  
    19    7   19 1  
    20    7   20 1  
    21    7   21 1  
    22    8   22 1  
    23    8   23 1  
    24    9   24 1  
    25    9   25 1  
    26   15   26 1  
    27   16   27 1  
@<TRIPOS>SUBSTRUCTURE
     1 299         1

