1o4e_ligand
  -I-interpret- 

 29 29  0  0  0  0  0  0  0  0999 V2000
   18.0910   26.2990   20.8470 C   0  0  0  0  0
   18.1810   24.9590   20.3710 C   0  0  0  0  0
   17.3160   24.6000   19.2970 C   0  0  0  0  0
   16.4710   25.5390   18.6490 C   0  0  0  0  0
   16.4000   26.8770   19.1250 C   0  0  0  0  0
   17.1870   27.2590   20.2550 C   0  0  0  0  0
   19.1210   24.0220   21.0240 C   0  0  0  0  0
   15.6650   25.0640   17.5480 C   0  0  0  0  0
   17.0630   28.5660   20.9380 C   0  0  0  0  0
   15.4610   27.8200   18.6210 O   0  0  0  0  0
   15.7630   28.7100   17.4240 P   0  0  0  0  0
   14.4500   29.4170   17.2260 O   0  0  0  0  0
   16.0550   27.8960   16.1760 O   0  0  0  0  0
   16.7910   29.6950   17.7040 O   0  0  0  0  0
   15.8190   25.2190   16.1940 O   0  0  0  0  0
   16.7070   28.6830   22.1060 O   0  0  0  0  0
   18.7213   26.6087   21.6806 H   0  0  0  0  0
   17.3026   23.5636   18.9597 H   0  0  0  0  0
   20.1362   24.4095   20.9387 H   0  0  0  0  0
   18.8572   23.9193   22.0766 H   0  0  0  0  0
   19.0598   23.0492   20.5362 H   0  0  0  0  0
   14.7628   25.6552   17.7049 H   0  0  0  0  0
   15.8367   23.9913   17.6366 H   0  0  0  0  0
   16.2619   29.0574   20.3859 H   0  0  0  0  0
   18.0891   28.9333   20.9553 H   0  0  0  0  0
   13.7647   28.7708   17.0402 H   0  0  0  0  0
   15.3479   27.2619   16.0362 H   0  0  0  0  0
   15.1006   24.7741   15.7384 H   0  0  0  0  0
   16.6959   29.6129   22.3444 H   0  0  0  0  0
  1  2  4  0  0  0
  1  6  4  0  0  0
  2  3  4  0  0  0
  2  7  1  0  0  0
  3  4  4  0  0  0
  4  5  4  0  0  0
  4  8  1  0  0  0
  5  6  4  0  0  0
  5 10  1  0  0  0
  6  9  1  0  0  0
  8 15  1  0  0  0
  9 16  1  0  0  0
 10 11  1  0  0  0
 11 12  1  0  0  0
 11 13  1  0  0  0
 11 14  2  0  0  0
  1 17  1  0  0  0
  3 18  1  0  0  0
  7 19  1  0  0  0
  7 20  1  0  0  0
  7 21  1  0  0  0
  8 22  1  0  0  0
  8 23  1  0  0  0
  9 24  1  0  0  0
  9 25  1  0  0  0
 12 26  1  0  0  0
 13 27  1  0  0  0
 15 28  1  0  0  0
 16 29  1  0  0  0
M  END
$$$$
