5aly_ligand
  -I-interpret- 

 33 35  0  0  0  0  0  0  0  0999 V2000
   21.9500    8.1610   12.6130 C   0  0  0  0  0
   16.8280    8.8800   10.3260 C   0  0  0  0  0
   16.1620    9.7720   12.4560 C   0  0  0  0  0
   20.6290    8.6910   12.5530 C   0  0  0  0  0
   17.1490    9.2460   11.6230 C   0  0  0  0  0
   15.5180    9.0530    9.8940 C   0  0  0  0  0
   19.5730    8.3110   11.7650 C   0  0  0  0  0
   14.5840    9.5820   10.7350 C   0  0  0  0  0
   14.8650    9.9400   12.0290 C   0  0  0  0  0
   18.5090    9.1770   12.1200 C   0  0  0  0  0
   13.4480    9.2290    8.7920 C   0  0  0  0  0
   14.8730    8.7450    8.5540 C   0  0  0  0  0
   19.5490    7.2140   10.7720 C   0  0  0  0  0
   14.8310    7.2270    8.3240 C   0  0  0  0  0
   15.5300    9.4770    7.4010 C   0  0  0  0  0
   23.0250    7.7410   12.6740 N   0  0  0  0  0
   18.9070   10.0500   13.0550 N   0  0  0  0  0
   20.1970    9.7480   13.3050 N   0  0  0  0  0
   13.3530    9.6750   10.1100 N   0  0  0  0  0
   12.5780    9.2300    7.9190 O   0  0  0  0  0
   13.8820   10.4660   12.8060 F   0  0  0  0  0
   17.5849    8.4660    9.6598 H   0  0  0  0  0
   16.4256   10.0581   13.4742 H   0  0  0  0  0
   20.3013    7.4024   10.0061 H   0  0  0  0  0
   19.7653    6.2693   11.2709 H   0  0  0  0  0
   18.5628    7.1651   10.3103 H   0  0  0  0  0
   14.4106    6.7391    9.2034 H   0  0  0  0  0
   14.2104    7.0096    7.4547 H   0  0  0  0  0
   15.8423    6.8589    8.1513 H   0  0  0  0  0
   14.9542    9.3096    6.4907 H   0  0  0  0  0
   15.5623   10.5441    7.6210 H   0  0  0  0  0
   16.5444    9.1019    7.2650 H   0  0  0  0  0
   12.4996   10.0198   10.5496 H   0  0  0  0  0
  4  1  1  0  0  0
  1 16  3  0  0  0
  5  2  4  0  0  0
  2  6  4  0  0  0
  5  3  4  0  0  0
  3  9  4  0  0  0
  7  4  4  0  0  0
  4 18  4  0  0  0
 10  5  1  0  0  0
  6  8  4  0  0  0
  6 12  1  0  0  0
  7 10  4  0  0  0
  7 13  1  0  0  0
  8  9  4  0  0  0
  8 19  1  0  0  0
  9 21  1  0  0  0
 10 17  4  0  0  0
 12 11  1  0  0  0
 11 19  1  0  0  0
 11 20  2  0  0  0
 12 14  1  0  0  0
 12 15  1  0  0  0
 17 18  4  0  0  0
  2 22  1  0  0  0
  3 23  1  0  0  0
 13 24  1  0  0  0
 13 25  1  0  0  0
 13 26  1  0  0  0
 14 27  1  0  0  0
 14 28  1  0  0  0
 14 29  1  0  0  0
 15 30  1  0  0  0
 15 31  1  0  0  0
 15 32  1  0  0  0
 19 33  1  0  0  0
M  END
$$$$
