5flo_ligand
  -I-interpret- 

 20 21  0  0  0  0  0  0  0  0999 V2000
   -5.0290    3.3550   14.5780 C   0  0  0  0  0
   -5.5660    4.5560   14.2630 C   0  0  0  0  0
   -6.0330    4.7680   13.0080 C   0  0  0  0  0
   -5.9540    3.7850   12.0640 C   0  0  0  0  0
   -5.4210    2.5820   12.4260 C   0  0  0  0  0
   -4.9490    2.3310   13.6780 C   0  0  0  0  0
   -4.3950    1.0560   13.9100 O   0  0  0  0  0
   -3.7350    0.9840   15.1700 C   0  0  0  0  0
   -4.7530    1.0660   16.1750 C   0  0  0  0  0
   -4.7830    1.7640   17.2700 N   0  0  0  0  0
   -5.9640    1.4610   17.8780 N   0  0  0  0  0
   -6.5920    0.5680   17.0990 N   0  0  0  0  0
   -5.8180    0.2960   15.9960 N   0  0  0  0  0
   -6.7870    6.2810   12.5530 Cl  0  0  0  0  0
   -4.6463    3.1990   15.5866 H   0  0  0  0  0
   -5.6227    5.3463   15.0116 H   0  0  0  0  0
   -6.3075    3.9566   11.0473 H   0  0  0  0  0
   -5.3711    1.7881   11.6808 H   0  0  0  0  0
   -3.0166    1.7965   15.2785 H   0  0  0  0  0
   -3.1739    0.0540   15.2613 H   0  0  0  0  0
  1  2  4  0  0  0
  1  6  4  0  0  0
  2  3  4  0  0  0
  3  4  4  0  0  0
  3 14  1  0  0  0
  4  5  4  0  0  0
  5  6  4  0  0  0
  6  7  1  0  0  0
  7  8  1  0  0  0
  8  9  1  0  0  0
  9 10  4  0  0  0
  9 13  4  0  0  0
 10 11  4  0  0  0
 11 12  4  0  0  0
 12 13  4  0  0  0
  1 15  1  0  0  0
  2 16  1  0  0  0
  4 17  1  0  0  0
  5 18  1  0  0  0
  8 19  1  0  0  0
  8 20  1  0  0  0
M  END
$$$$
