### 
### Created by X-TOOL on Wed Jan  1 15:39:38 2020
### 

@<TRIPOS>MOLECULE
6f55_ligand
  240   246     1     0     0
SMALL
GAST_HUCK


@<TRIPOS>ATOM
      1 N          -0.2470  -12.3840   10.4300 N.4       1 THR         0.2398
      2 CA         -0.7120  -11.7520    9.1880 C.3       1 THR         0.0910
      3 C          -1.1240  -12.8410    8.1880 C.2       1 THR         0.2293
      4 O          -1.0060  -14.0240    8.5080 O.2       1 THR        -0.3906
      5 CB          0.3750  -10.8050    8.6430 C.3       1 THR         0.1120
      6 OG1        -0.1600   -9.9350    7.6710 O.3       1 THR        -0.3840
      7 CG2         1.5670  -11.5600    8.0290 C.3       1 THR        -0.0314
      8 N          -1.6080  -12.4660    6.9930 N.am      1 LYS        -0.2609
      9 CA         -1.9940  -13.4340    5.9660 C.3       1 LYS         0.1311
     10 C          -0.7510  -14.2090    5.5350 C.2       1 LYS         0.2037
     11 O          -0.6710  -15.4040    5.8300 O.2       1 LYS        -0.3944
     12 CB         -2.7240  -12.7670    4.7820 C.3       1 LYS        -0.0122
     13 CG         -4.0920  -13.4130    4.5340 C.3       1 LYS        -0.0440
     14 CD         -5.0920  -13.0880    5.6440 C.3       1 LYS        -0.0124
     15 CE         -6.4070  -13.7950    5.3280 C.3       1 LYS        -0.0354
     16 NZ         -7.2730  -13.8940    6.5160 N.4       1 LYS         0.2185
     17 N           0.2210  -13.5240    4.9240 N.am      1 GLY        -0.2664
     18 CA          1.4750  -14.0950    4.4570 C.3       1 GLY         0.1203
     19 C           2.6530  -13.1680    4.7450 C.2       1 GLY         0.2032
     20 O           2.4420  -11.9660    4.9280 O.2       1 GLY        -0.3945
     21 N           3.8940  -13.6800    4.7580 N.am      1 PRO        -0.2501
     22 CA          5.0860  -12.8880    5.0300 C.3       1 PRO         0.1338
     23 C           5.3640  -11.9190    3.8800 C.2       1 PRO         0.2041
     24 O           5.8710  -12.3060    2.8270 O.2       1 PRO        -0.3944
     25 CB          6.2100  -13.9020    5.2430 C.3       1 PRO        -0.0104
     26 CG          5.7650  -15.1180    4.4370 C.3       1 PRO        -0.0281
     27 CD          4.2440  -15.0780    4.5540 C.3       1 PRO         0.0369
     28 N           5.0420  -10.6500    4.1230 N.am      1 ALA        -0.2640
     29 CA          5.1760   -9.4970    3.2450 C.3       1 ALA         0.1284
     30 C           6.5560   -9.3480    2.5710 C.2       1 ALA         0.2061
     31 O           7.5340   -9.9850    2.9720 O.2       1 ALA        -0.3942
     32 CB          4.8650   -8.2530    4.1000 C.3       1 ALA        -0.0244
     33 N           6.6680   -8.4490    1.5700 N.am      1 PRO        -0.2498
     34 CA          7.9320   -8.1850    0.8730 C.3       1 PRO         0.1338
     35 C           8.9180   -7.3840    1.7270 C.2       1 PRO         0.2042
     36 O          10.0790   -7.1780    1.3630 O.2       1 PRO        -0.3944
     37 CB          7.5310   -7.3810   -0.3480 C.3       1 PRO        -0.0104
     38 CG          6.2120   -6.7070   -0.0250 C.3       1 PRO        -0.0281
     39 CD          5.5840   -7.6340    1.0090 C.3       1 PRO         0.0369
     40 N           8.4000   -6.9150    2.8530 N.am      1 ASN        -0.2616
     41 CA          9.0370   -6.1300    3.9070 C.3       1 ASN         0.1478
     42 C          10.3720   -6.7650    4.3500 C.2       1 ASN         0.2088
     43 O          10.5230   -7.9890    4.2520 O.2       1 ASN        -0.3940
     44 CB          8.0980   -5.9920    5.1240 C.3       1 ASN         0.0773
     45 CG          8.1090   -7.2210    6.0290 C.2       1 ASN         0.1780
     46 OD1         7.5840   -8.2630    5.6620 O.2       1 ASN        -0.3970
     47 ND2         8.7010   -7.1480    7.2070 N.am      1 ASN        -0.3007
     48 N          11.3340   -5.9840    4.8790 N.am      1 PRO        -0.2497
     49 CA         11.2910   -4.5400    5.0930 C.3       1 PRO         0.1340
     50 C          11.2630   -3.7620    3.7590 C.2       1 PRO         0.2066
     51 O          11.4750   -4.3580    2.6980 O.2       1 PRO        -0.3942
     52 CB         12.5430   -4.2220    5.9300 C.3       1 PRO        -0.0104
     53 CG         13.5110   -5.3530    5.6080 C.3       1 PRO        -0.0281
     54 CD         12.5860   -6.5380    5.3640 C.3       1 PRO         0.0369
     55 N          10.9800   -2.4470    3.7640 N.am      1 PRO        -0.2498
     56 CA         10.9470   -1.6620    2.5360 C.3       1 PRO         0.1340
     57 C          12.3120   -1.6730    1.8230 C.2       1 PRO         0.2066
     58 O          13.3360   -1.9410    2.4580 O.2       1 PRO        -0.3942
     59 CB         10.4910   -0.2660    2.9430 C.3       1 PRO        -0.0104
     60 CG         10.8330   -0.1780    4.4260 C.3       1 PRO        -0.0281
     61 CD         10.7010   -1.6110    4.9220 C.3       1 PRO         0.0369
     62 N          12.3550   -1.3550    0.5160 N.am      1 PRO        -0.2498
     63 CA         13.5800   -1.3710   -0.2620 C.3       1 PRO         0.1338
     64 C          14.5080   -0.1830    0.0090 C.2       1 PRO         0.2041
     65 O          15.6420   -0.4020    0.4400 O.2       1 PRO        -0.3944
     66 CB         13.1190   -1.4610   -1.7200 C.3       1 PRO        -0.0104
     67 CG         11.7710   -0.7560   -1.7260 C.3       1 PRO        -0.0281
     68 CD         11.2190   -1.0160   -0.3260 C.3       1 PRO         0.0369
     69 N          14.0750    1.0550   -0.2490 N.am      1 ILE        -0.2635
     70 CA         14.8760    2.2660   -0.0650 C.3       1 ILE         0.1335
     71 C          13.9950    3.3890    0.5310 C.2       1 ILE         0.2042
     72 O          13.1740    3.1080    1.4050 O.2       1 ILE        -0.3944
     73 CB         15.6070    2.5990   -1.4070 C.3       1 ILE        -0.0037
     74 CG1        14.6480    2.8910   -2.5900 C.3       1 ILE        -0.0491
     75 CG2        16.6160    1.5040   -1.8000 C.3       1 ILE        -0.0582
     76 CD1        15.3520    3.4750   -3.8220 C.3       1 ILE        -0.0648
     77 N          14.2040    4.6400    0.0940 N.am      1 LEU        -0.2637
     78 CA         13.5190    5.8860    0.4530 C.3       1 LEU         0.1312
     79 C          13.1480    5.9890    1.9430 C.2       1 LEU         0.2039
     80 O          11.9870    5.8330    2.3260 O.2       1 LEU        -0.3944
     81 CB         12.3260    6.1250   -0.5080 C.3       1 LEU        -0.0101
     82 CG         12.6220    6.9450   -1.7830 C.3       1 LEU        -0.0425
     83 CD1        13.8210    6.4970   -2.6270 C.3       1 LEU        -0.0625
     84 CD2        11.3940    6.9190   -2.7010 C.3       1 LEU        -0.0625
     85 N          14.1440    6.2410    2.8010 N.am      1 LYS        -0.2637
     86 CA         13.9570    6.3880    4.2470 C.3       1 LYS         0.1310
     87 C          15.0590    7.2310    4.8900 C.2       1 LYS         0.2039
     88 O          14.8180    8.3730    5.2780 O.2       1 LYS        -0.3944
     89 CB         13.7760    5.0110    4.9330 C.3       1 LYS        -0.0122
     90 CG         14.9270    4.0040    4.7550 C.3       1 LYS        -0.0440
     91 CD         14.5880    2.5990    5.2380 C.3       1 LYS        -0.0124
     92 CE         15.9170    1.8610    5.3610 C.3       1 LYS        -0.0354
     93 NZ         15.7230    0.4190    5.6350 N.4       1 LYS         0.2185
     94 N          16.2710    6.6820    4.9650 N.am      1 VAL        -0.2635
     95 CA         17.4730    7.2490    5.5630 C.3       1 VAL         0.1332
     96 C          17.9040    8.5720    4.9520 C.2       1 VAL         0.2037
     97 O          18.4660    9.3980    5.6710 O.2       1 VAL        -0.3944
     98 CB         18.5850    6.1760    5.5280 C.3       1 VAL        -0.0063
     99 CG1        19.0380    5.7880    4.1130 C.3       1 VAL        -0.0584
    100 CG2        19.8190    6.5610    6.3480 C.3       1 VAL        -0.0584
    101 N          17.5620    8.7920    3.6830 N.am      1 TRP        -0.2684
    102 CA         17.9210   10.0060    2.9530 C.3       1 TRP         0.0986
    103 C          19.4340   10.1790    3.0400 C.2       1 TRP         0.0613
    104 O          20.1310    9.2390    2.6020 O.co2     1 TRP        -0.5665
    105 CB         17.1050   11.2060    3.4660 C.3       1 TRP        -0.0013
    106 CG         17.1490   12.4330    2.6110 C.2       1 TRP        -0.0424
    107 CD1        17.8650   13.5520    2.8610 C.2       1 TRP         0.0166
    108 CD2        16.4510   12.6800    1.3580 C.ar      1 TRP        -0.0214
    109 NE1        17.6250   14.4860    1.8710 N.pl3     1 TRP        -0.2891
    110 CE2        16.7340   14.0090    0.9310 C.ar      1 TRP         0.0603
    111 CE3        15.6120   11.9030    0.5370 C.ar      1 TRP        -0.0747
    112 CZ2        16.1760   14.5450   -0.2380 C.ar      1 TRP        -0.0443
    113 CZ3        15.0400   12.4320   -0.6340 C.ar      1 TRP        -0.0792
    114 CH2        15.3140   13.7560   -1.0160 C.ar      1 TRP        -0.0768
    115 OXT        19.8470   11.2460    3.5420 O.co2     1 TRP        -0.5665
    116 H1         -0.9622  -13.0016   10.7809 H         1 THR         0.2016
    117 H2         -0.0514  -11.6722   11.1164 H         1 THR         0.2016
    118 H3          0.5916  -12.9118   10.2449 H         1 THR         0.2016
    119 H4         -1.6021  -11.1468    9.4146 H         1 THR         0.1125
    120 H5          0.7476  -10.2025    9.4845 H         1 THR         0.0674
    121 H6          0.5256   -9.3614    7.3493 H         1 THR         0.2102
    122 H7          2.3078  -10.8362    7.6583 H         1 THR         0.0258
    123 H8          1.2151  -12.1844    7.1946 H         1 THR         0.0258
    124 H9          2.0303  -12.1990    8.7952 H         1 THR         0.0258
    125 H10        -1.7082  -11.4903    6.7980 H         1 LYS         0.1884
    126 H11        -2.6967  -14.1485    6.4195 H         1 LYS         0.0800
    127 H12        -2.1086  -12.8729    3.8764 H         1 LYS         0.0312
    128 H13        -2.8674  -11.6995    5.0052 H         1 LYS         0.0312
    129 H14        -3.9643  -14.5042    4.4802 H         1 LYS         0.0269
    130 H15        -4.4908  -13.0429    3.5780 H         1 LYS         0.0269
    131 H16        -5.2560  -12.0013    5.6901 H         1 LYS         0.0317
    132 H17        -4.7028  -13.4415    6.6102 H         1 LYS         0.0317
    133 H18        -6.1874  -14.8087    4.9618 H         1 LYS         0.0813
    134 H19        -6.9368  -13.2297    4.5471 H         1 LYS         0.0813
    135 H20        -8.1293  -14.3651    6.2693 H         1 LYS         0.1994
    136 H21        -7.4844  -12.9688    6.8557 H         1 LYS         0.1994
    137 H22        -6.7978  -14.4158    7.2357 H         1 LYS         0.1994
    138 H23         0.0752  -12.5457    4.7769 H         1 GLY         0.1881
    139 H24         1.4092  -14.2629    3.3719 H         1 GLY         0.0763
    140 H25         1.6426  -15.0550    4.9671 H         1 GLY         0.0763
    141 H26         4.9437  -12.3023    5.9501 H         1 PRO         0.0802
    142 H27         6.3121  -14.1549    6.3086 H         1 PRO         0.0313
    143 H28         7.1664  -13.5111    4.8656 H         1 PRO         0.0313
    144 H29         6.1692  -16.0459    4.8678 H         1 PRO         0.0287
    145 H30         6.0820  -15.0326    3.3871 H         1 PRO         0.0287
    146 H31         3.7797  -15.4577    3.6319 H         1 PRO         0.0524
    147 H32         3.9104  -15.6843    5.4091 H         1 PRO         0.0524
    148 H33         4.6577  -10.4649    5.0275 H         1 ALA         0.1883
    149 H34         4.4247   -9.5839    2.4463 H         1 ALA         0.0797
    150 H35         4.9532   -7.3496    3.4786 H         1 ALA         0.0277
    151 H36         5.5783   -8.1945    4.9353 H         1 ALA         0.0277
    152 H37         3.8415   -8.3269    4.4963 H         1 ALA         0.0277
    153 H38         8.4041   -9.1327    0.5748 H         1 PRO         0.0802
    154 H39         7.4119   -8.0466   -1.2156 H         1 PRO         0.0313
    155 H40         8.2974   -6.6236   -0.5693 H         1 PRO         0.0313
    156 H41         5.5790   -6.6313   -0.9214 H         1 PRO         0.0287
    157 H42         6.3754   -5.7033    0.3943 H         1 PRO         0.0287
    158 H43         5.1051   -7.0436    1.8040 H         1 PRO         0.0524
    159 H44         4.8341   -8.2808    0.5302 H         1 PRO         0.0524
    160 H45         7.4347   -7.1293    3.0024 H         1 ASN         0.1885
    161 H46         9.2450   -5.1255    3.5099 H         1 ASN         0.0826
    162 H47         7.0723   -5.8348    4.7591 H         1 ASN         0.0551
    163 H48         8.4151   -5.1195    5.7141 H         1 ASN         0.0551
    164 H49         8.7154   -7.9459    7.8096 H         1 ASN         0.1814
    165 H50         9.1349   -6.2948    7.4965 H         1 ASN         0.1814
    166 H51        10.3888   -4.2767    5.6645 H         1 PRO         0.0802
    167 H52        12.3013   -4.2102    7.0030 H         1 PRO         0.0313
    168 H53        12.9691   -3.2504    5.6394 H         1 PRO         0.0313
    169 H54        14.1872   -5.5472    6.4536 H         1 PRO         0.0287
    170 H55        14.1033   -5.1227    4.7102 H         1 PRO         0.0287
    171 H56        13.0211   -7.2123    4.6117 H         1 PRO         0.0524
    172 H57        12.4205   -7.0912    6.3003 H         1 PRO         0.0524
    173 H58        10.2043   -2.0934    1.8488 H         1 PRO         0.0802
    174 H59         9.4090   -0.1474    2.7846 H         1 PRO         0.0313
    175 H60        11.0317    0.5030    2.3718 H         1 PRO         0.0313
    176 H61        10.1281    0.4835    4.9509 H         1 PRO         0.0287
    177 H62        11.8590    0.1919    4.5691 H         1 PRO         0.0287
    178 H63        11.4273   -1.8092    5.7240 H         1 PRO         0.0524
    179 H64         9.6830   -1.7971    5.2949 H         1 PRO         0.0524
    180 H65        14.1431   -2.2822   -0.0119 H         1 PRO         0.0802
    181 H66        13.0124   -2.5104   -2.0320 H         1 PRO         0.0313
    182 H67        13.8297   -0.9507   -2.3867 H         1 PRO         0.0313
    183 H68        11.1089   -1.1825   -2.4939 H         1 PRO         0.0287
    184 H69        11.8933    0.3224   -1.9051 H         1 PRO         0.0287
    185 H70        10.7188   -0.1145    0.0575 H         1 PRO         0.0524
    186 H71        10.5028   -1.8506   -0.3501 H         1 PRO         0.0524
    187 H72        13.1411    1.1608   -0.5906 H         1 ILE         0.1883
    188 H73        15.6576    2.0500    0.6782 H         1 ILE         0.0803
    189 H74        16.1808    3.5203   -1.2285 H         1 ILE         0.0345
    190 H75        13.8868    3.6093   -2.2515 H         1 ILE         0.0267
    191 H76        14.1596    1.9497   -2.8823 H         1 ILE         0.0267
    192 H77        17.2901    1.3058   -0.9537 H         1 ILE         0.0235
    193 H78        17.2043    1.8412   -2.6661 H         1 ILE         0.0235
    194 H79        16.0744    0.5828   -2.0608 H         1 ILE         0.0235
    195 H80        14.6123    3.6552   -4.6159 H         1 ILE         0.0230
    196 H81        16.1106    2.7644   -4.1821 H         1 ILE         0.0230
    197 H82        15.8378    4.4241   -3.5513 H         1 ILE         0.0230
    198 H83        14.9379    4.7377   -0.5782 H         1 LEU         0.1883
    199 H84        14.2358    6.6997    0.2686 H         1 LEU         0.0800
    200 H85        11.5436    6.6543    0.0556 H         1 LEU         0.0315
    201 H86        11.9486    5.1411   -0.8235 H         1 LEU         0.0315
    202 H87        12.8096    7.9810   -1.4645 H         1 LEU         0.0298
    203 H88        13.9224    7.1585   -3.5000 H         1 LEU         0.0232
    204 H89        13.6641    5.4627   -2.9670 H         1 LEU         0.0232
    205 H90        14.7367    6.5485   -2.0196 H         1 LEU         0.0232
    206 H91        10.5058    7.2350   -2.1342 H         1 LEU         0.0232
    207 H92        11.2421    5.8981   -3.0814 H         1 LEU         0.0232
    208 H93        11.5531    7.6053   -3.5458 H         1 LEU         0.0232
    209 H94        15.0695    6.3344    2.4339 H         1 LYS         0.1883
    210 H95        13.0164    6.9396    4.3920 H         1 LYS         0.0800
    211 H96        12.8629    4.5515    4.5267 H         1 LYS         0.0312
    212 H97        13.6491    5.1878    6.0113 H         1 LYS         0.0312
    213 H98        15.7970    4.3663    5.3223 H         1 LYS         0.0269
    214 H99        15.1818    3.9523    3.6862 H         1 LYS         0.0269
    215 H100       13.9361    2.0925    4.5111 H         1 LYS         0.0317
    216 H101       14.0839    2.6425    6.2147 H         1 LYS         0.0317
    217 H102       16.4957    2.3049    6.1844 H         1 LYS         0.0813
    218 H103       16.4744    1.9724    4.4193 H         1 LYS         0.0813
    219 H104       16.6211   -0.0327    5.7093 H         1 LYS         0.1994
    220 H105       15.1982    0.0016    4.8824 H         1 LYS         0.1994
    221 H106       15.2177    0.3063    6.4999 H         1 LYS         0.1994
    222 H107       16.3672    5.7716    4.5626 H         1 VAL         0.1883
    223 H108       17.2461    7.4551    6.6194 H         1 VAL         0.0802
    224 H109       18.1556    5.2740    5.9884 H         1 VAL         0.0343
    225 H110       19.8267    5.0239    4.1771 H         1 VAL         0.0234
    226 H111       19.4298    6.6768    3.5968 H         1 VAL         0.0234
    227 H112       18.1821    5.3853    3.5515 H         1 VAL         0.0234
    228 H113       19.5100    6.8418    7.3657 H         1 VAL         0.0234
    229 H114       20.3255    7.4127    5.8705 H         1 VAL         0.0234
    230 H115       20.5082    5.7051    6.3972 H         1 VAL         0.0234
    231 H116       17.0326    8.0905    3.2058 H         1 TRP         0.1876
    232 H117       17.6615    9.8659    1.8933 H         1 TRP         0.0741
    233 H118       17.4876   11.4741    4.4619 H         1 TRP         0.0390
    234 H119       16.0548   10.8897    3.5496 H         1 TRP         0.0390
    235 H120       18.5291   13.6955    3.7120 H         1 TRP         0.0795
    236 H121       18.0568   15.4206    1.8387 H         1 TRP         0.2216
    237 H122       15.4025   10.8759    0.8130 H         1 TRP         0.0540
    238 H123       16.4082   15.5603   -0.5387 H         1 TRP         0.0541
    239 H124       14.3868   11.8173   -1.2427 H         1 TRP         0.0510
    240 H125       14.8604   14.1678   -1.9103 H         1 TRP         0.0530
@<TRIPOS>BOND
     1    1    2 1  
     2    2    3 1  
     3    2    5 1  
     4    3    4 2  
     5    3    8 am 
     6    5    6 1  
     7    5    7 1  
     8    8    9 1  
     9    9   10 1  
    10    9   12 1  
    11   10   11 2  
    12   10   17 am 
    13   12   13 1  
    14   13   14 1  
    15   14   15 1  
    16   15   16 1  
    17   17   18 1  
    18   18   19 1  
    19   19   20 2  
    20   19   21 am 
    21   21   22 1  
    22   21   27 1  
    23   22   23 1  
    24   22   25 1  
    25   23   24 2  
    26   23   28 am 
    27   25   26 1  
    28   26   27 1  
    29   28   29 1  
    30   29   30 1  
    31   29   32 1  
    32   30   31 2  
    33   30   33 am 
    34   33   34 1  
    35   33   39 1  
    36   34   35 1  
    37   34   37 1  
    38   35   36 2  
    39   35   40 am 
    40   37   38 1  
    41   38   39 1  
    42   40   41 1  
    43   41   42 1  
    44   41   44 1  
    45   42   43 2  
    46   42   48 am 
    47   44   45 1  
    48   45   46 2  
    49   45   47 am 
    50   48   49 1  
    51   48   54 1  
    52   49   50 1  
    53   49   52 1  
    54   50   51 2  
    55   50   55 am 
    56   52   53 1  
    57   53   54 1  
    58   55   56 1  
    59   55   61 1  
    60   56   57 1  
    61   56   59 1  
    62   57   58 2  
    63   57   62 am 
    64   59   60 1  
    65   60   61 1  
    66   62   63 1  
    67   62   68 1  
    68   63   64 1  
    69   63   66 1  
    70   64   65 2  
    71   64   69 am 
    72   66   67 1  
    73   67   68 1  
    74   69   70 1  
    75   70   71 1  
    76   70   73 1  
    77   71   72 2  
    78   71   77 am 
    79   73   74 1  
    80   73   75 1  
    81   74   76 1  
    82   77   78 1  
    83   78   79 1  
    84   78   81 1  
    85   79   80 2  
    86   79   85 am 
    87   81   82 1  
    88   82   83 1  
    89   82   84 1  
    90   85   86 1  
    91   86   87 1  
    92   86   89 1  
    93   87   88 2  
    94   87   94 am 
    95   89   90 1  
    96   90   91 1  
    97   91   92 1  
    98   92   93 1  
    99   94   95 1  
   100   95   96 1  
   101   95   98 1  
   102   96   97 2  
   103   96  101 am 
   104   98   99 1  
   105   98  100 1  
   106  101  102 1  
   107  102  103 1  
   108  102  105 1  
   109  103  104 ar 
   110  103  115 ar 
   111  105  106 1  
   112  106  107 2  
   113  106  108 1  
   114  107  109 1  
   115  108  110 ar 
   116  108  111 ar 
   117  109  110 1  
   118  110  112 ar 
   119  111  113 ar 
   120  112  114 ar 
   121  113  114 ar 
   122    1  116 1  
   123    1  117 1  
   124    1  118 1  
   125    2  119 1  
   126    5  120 1  
   127    6  121 1  
   128    7  122 1  
   129    7  123 1  
   130    7  124 1  
   131    8  125 1  
   132    9  126 1  
   133   12  127 1  
   134   12  128 1  
   135   13  129 1  
   136   13  130 1  
   137   14  131 1  
   138   14  132 1  
   139   15  133 1  
   140   15  134 1  
   141   16  135 1  
   142   16  136 1  
   143   16  137 1  
   144   17  138 1  
   145   18  139 1  
   146   18  140 1  
   147   22  141 1  
   148   25  142 1  
   149   25  143 1  
   150   26  144 1  
   151   26  145 1  
   152   27  146 1  
   153   27  147 1  
   154   28  148 1  
   155   29  149 1  
   156   32  150 1  
   157   32  151 1  
   158   32  152 1  
   159   34  153 1  
   160   37  154 1  
   161   37  155 1  
   162   38  156 1  
   163   38  157 1  
   164   39  158 1  
   165   39  159 1  
   166   40  160 1  
   167   41  161 1  
   168   44  162 1  
   169   44  163 1  
   170   47  164 1  
   171   47  165 1  
   172   49  166 1  
   173   52  167 1  
   174   52  168 1  
   175   53  169 1  
   176   53  170 1  
   177   54  171 1  
   178   54  172 1  
   179   56  173 1  
   180   59  174 1  
   181   59  175 1  
   182   60  176 1  
   183   60  177 1  
   184   61  178 1  
   185   61  179 1  
   186   63  180 1  
   187   66  181 1  
   188   66  182 1  
   189   67  183 1  
   190   67  184 1  
   191   68  185 1  
   192   68  186 1  
   193   69  187 1  
   194   70  188 1  
   195   73  189 1  
   196   74  190 1  
   197   74  191 1  
   198   75  192 1  
   199   75  193 1  
   200   75  194 1  
   201   76  195 1  
   202   76  196 1  
   203   76  197 1  
   204   77  198 1  
   205   78  199 1  
   206   81  200 1  
   207   81  201 1  
   208   82  202 1  
   209   83  203 1  
   210   83  204 1  
   211   83  205 1  
   212   84  206 1  
   213   84  207 1  
   214   84  208 1  
   215   85  209 1  
   216   86  210 1  
   217   89  211 1  
   218   89  212 1  
   219   90  213 1  
   220   90  214 1  
   221   91  215 1  
   222   91  216 1  
   223   92  217 1  
   224   92  218 1  
   225   93  219 1  
   226   93  220 1  
   227   93  221 1  
   228   94  222 1  
   229   95  223 1  
   230   98  224 1  
   231   99  225 1  
   232   99  226 1  
   233   99  227 1  
   234  100  228 1  
   235  100  229 1  
   236  100  230 1  
   237  101  231 1  
   238  102  232 1  
   239  105  233 1  
   240  105  234 1  
   241  107  235 1  
   242  109  236 1  
   243  111  237 1  
   244  112  238 1  
   245  113  239 1  
   246  114  240 1  
@<TRIPOS>SUBSTRUCTURE
     1 THR         1

