6f55_ligand
  -I-interpret- 

240246  0  0  0  0  0  0  0  0999 V2000
   -0.2470  -12.3840   10.4300 N   0  3  0  0  0
   -0.7120  -11.7520    9.1880 C   0  0  0  0  0
   -1.1240  -12.8410    8.1880 C   0  0  0  0  0
   -1.0060  -14.0240    8.5080 O   0  0  0  0  0
    0.3750  -10.8050    8.6430 C   0  0  0  0  0
   -0.1600   -9.9350    7.6710 O   0  0  0  0  0
    1.5670  -11.5600    8.0290 C   0  0  0  0  0
   -1.6080  -12.4660    6.9930 N   0  0  0  0  0
   -1.9940  -13.4340    5.9660 C   0  0  0  0  0
   -0.7510  -14.2090    5.5350 C   0  0  0  0  0
   -0.6710  -15.4040    5.8300 O   0  0  0  0  0
   -2.7240  -12.7670    4.7820 C   0  0  0  0  0
   -4.0920  -13.4130    4.5340 C   0  0  0  0  0
   -5.0920  -13.0880    5.6440 C   0  0  0  0  0
   -6.4070  -13.7950    5.3280 C   0  0  0  0  0
   -7.2730  -13.8940    6.5160 N   0  3  0  0  0
    0.2210  -13.5240    4.9240 N   0  0  0  0  0
    1.4750  -14.0950    4.4570 C   0  0  0  0  0
    2.6530  -13.1680    4.7450 C   0  0  0  0  0
    2.4420  -11.9660    4.9280 O   0  0  0  0  0
    3.8940  -13.6800    4.7580 N   0  0  0  0  0
    5.0860  -12.8880    5.0300 C   0  0  0  0  0
    5.3640  -11.9190    3.8800 C   0  0  0  0  0
    5.8710  -12.3060    2.8270 O   0  0  0  0  0
    6.2100  -13.9020    5.2430 C   0  0  0  0  0
    5.7650  -15.1180    4.4370 C   0  0  0  0  0
    4.2440  -15.0780    4.5540 C   0  0  0  0  0
    5.0420  -10.6500    4.1230 N   0  0  0  0  0
    5.1760   -9.4970    3.2450 C   0  0  0  0  0
    6.5560   -9.3480    2.5710 C   0  0  0  0  0
    7.5340   -9.9850    2.9720 O   0  0  0  0  0
    4.8650   -8.2530    4.1000 C   0  0  0  0  0
    6.6680   -8.4490    1.5700 N   0  0  0  0  0
    7.9320   -8.1850    0.8730 C   0  0  0  0  0
    8.9180   -7.3840    1.7270 C   0  0  0  0  0
   10.0790   -7.1780    1.3630 O   0  0  0  0  0
    7.5310   -7.3810   -0.3480 C   0  0  0  0  0
    6.2120   -6.7070   -0.0250 C   0  0  0  0  0
    5.5840   -7.6340    1.0090 C   0  0  0  0  0
    8.4000   -6.9150    2.8530 N   0  0  0  0  0
    9.0370   -6.1300    3.9070 C   0  0  0  0  0
   10.3720   -6.7650    4.3500 C   0  0  0  0  0
   10.5230   -7.9890    4.2520 O   0  0  0  0  0
    8.0980   -5.9920    5.1240 C   0  0  0  0  0
    8.1090   -7.2210    6.0290 C   0  0  0  0  0
    7.5840   -8.2630    5.6620 O   0  0  0  0  0
    8.7010   -7.1480    7.2070 N   0  0  0  0  0
   11.3340   -5.9840    4.8790 N   0  0  0  0  0
   11.2910   -4.5400    5.0930 C   0  0  0  0  0
   11.2630   -3.7620    3.7590 C   0  0  0  0  0
   11.4750   -4.3580    2.6980 O   0  0  0  0  0
   12.5430   -4.2220    5.9300 C   0  0  0  0  0
   13.5110   -5.3530    5.6080 C   0  0  0  0  0
   12.5860   -6.5380    5.3640 C   0  0  0  0  0
   10.9800   -2.4470    3.7640 N   0  0  0  0  0
   10.9470   -1.6620    2.5360 C   0  0  0  0  0
   12.3120   -1.6730    1.8230 C   0  0  0  0  0
   13.3360   -1.9410    2.4580 O   0  0  0  0  0
   10.4910   -0.2660    2.9430 C   0  0  0  0  0
   10.8330   -0.1780    4.4260 C   0  0  0  0  0
   10.7010   -1.6110    4.9220 C   0  0  0  0  0
   12.3550   -1.3550    0.5160 N   0  0  0  0  0
   13.5800   -1.3710   -0.2620 C   0  0  0  0  0
   14.5080   -0.1830    0.0090 C   0  0  0  0  0
   15.6420   -0.4020    0.4400 O   0  0  0  0  0
   13.1190   -1.4610   -1.7200 C   0  0  0  0  0
   11.7710   -0.7560   -1.7260 C   0  0  0  0  0
   11.2190   -1.0160   -0.3260 C   0  0  0  0  0
   14.0750    1.0550   -0.2490 N   0  0  0  0  0
   14.8760    2.2660   -0.0650 C   0  0  0  0  0
   13.9950    3.3890    0.5310 C   0  0  0  0  0
   13.1740    3.1080    1.4050 O   0  0  0  0  0
   15.6070    2.5990   -1.4070 C   0  0  0  0  0
   14.6480    2.8910   -2.5900 C   0  0  0  0  0
   16.6160    1.5040   -1.8000 C   0  0  0  0  0
   15.3520    3.4750   -3.8220 C   0  0  0  0  0
   14.2040    4.6400    0.0940 N   0  0  0  0  0
   13.5190    5.8860    0.4530 C   0  0  0  0  0
   13.1480    5.9890    1.9430 C   0  0  0  0  0
   11.9870    5.8330    2.3260 O   0  0  0  0  0
   12.3260    6.1250   -0.5080 C   0  0  0  0  0
   12.6220    6.9450   -1.7830 C   0  0  0  0  0
   13.8210    6.4970   -2.6270 C   0  0  0  0  0
   11.3940    6.9190   -2.7010 C   0  0  0  0  0
   14.1440    6.2410    2.8010 N   0  0  0  0  0
   13.9570    6.3880    4.2470 C   0  0  0  0  0
   15.0590    7.2310    4.8900 C   0  0  0  0  0
   14.8180    8.3730    5.2780 O   0  0  0  0  0
   13.7760    5.0110    4.9330 C   0  0  0  0  0
   14.9270    4.0040    4.7550 C   0  0  0  0  0
   14.5880    2.5990    5.2380 C   0  0  0  0  0
   15.9170    1.8610    5.3610 C   0  0  0  0  0
   15.7230    0.4190    5.6350 N   0  3  0  0  0
   16.2710    6.6820    4.9650 N   0  0  0  0  0
   17.4730    7.2490    5.5630 C   0  0  0  0  0
   17.9040    8.5720    4.9520 C   0  0  0  0  0
   18.4660    9.3980    5.6710 O   0  0  0  0  0
   18.5850    6.1760    5.5280 C   0  0  0  0  0
   19.0380    5.7880    4.1130 C   0  0  0  0  0
   19.8190    6.5610    6.3480 C   0  0  0  0  0
   17.5620    8.7920    3.6830 N   0  0  0  0  0
   17.9210   10.0060    2.9530 C   0  0  0  0  0
   19.4340   10.1790    3.0400 C   0  0  0  0  0
   20.1310    9.2390    2.6020 O   0  0  0  0  0
   17.1050   11.2060    3.4660 C   0  0  0  0  0
   17.1490   12.4330    2.6110 C   0  0  0  0  0
   17.8650   13.5520    2.8610 C   0  0  0  0  0
   16.4510   12.6800    1.3580 C   0  0  0  0  0
   17.6250   14.4860    1.8710 N   0  0  0  0  0
   16.7340   14.0090    0.9310 C   0  0  0  0  0
   15.6120   11.9030    0.5370 C   0  0  0  0  0
   16.1760   14.5450   -0.2380 C   0  0  0  0  0
   15.0400   12.4320   -0.6340 C   0  0  0  0  0
   15.3140   13.7560   -1.0160 C   0  0  0  0  0
   19.8470   11.2460    3.5420 O   0  0  0  0  0
   -0.9714  -13.0087   10.7841 H   0  0  0  0  0
    0.6015  -12.9177   10.2415 H   0  0  0  0  0
   -0.0494  -11.6628   11.1237 H   0  0  0  0  0
   -1.5929  -11.1378    9.3748 H   0  0  0  0  0
    0.7365  -10.2361    9.4996 H   0  0  0  0  0
   -0.9051   -9.4588    8.0448 H   0  0  0  0  0
    1.2271  -12.1328    7.1662 H   0  0  0  0  0
    2.3263  -10.8438    7.7150 H   0  0  0  0  0
    1.9890  -12.2363    8.7724 H   0  0  0  0  0
   -1.7102  -11.4708    6.7941 H   0  0  0  0  0
   -2.7172  -14.1354    6.3821 H   0  0  0  0  0
   -2.1153  -12.8897    3.8861 H   0  0  0  0  0
   -2.8758  -11.7136    5.0176 H   0  0  0  0  0
   -3.9568  -14.4942    4.5044 H   0  0  0  0  0
   -4.4869  -13.0228    3.5960 H   0  0  0  0  0
   -5.2510  -12.0111    5.6998 H   0  0  0  0  0
   -4.7067  -13.4282    6.6052 H   0  0  0  0  0
   -6.1799  -14.8041    4.9840 H   0  0  0  0  0
   -6.9327  -13.2177    4.5675 H   0  0  0  0  0
   -8.1391  -14.3709    6.2651 H   0  0  0  0  0
   -6.7911  -14.4221    7.2435 H   0  0  0  0  0
   -7.4862  -12.9573    6.8589 H   0  0  0  0  0
    0.0722  -12.5261    4.7740 H   0  0  0  0  0
    1.4071  -14.2426    3.3792 H   0  0  0  0  0
    1.6412  -15.0372    4.9793 H   0  0  0  0  0
    4.9771  -12.2559    5.9113 H   0  0  0  0  0
    6.3614  -14.1367    6.2966 H   0  0  0  0  0
    7.1780  -13.5213    4.9173 H   0  0  0  0  0
    6.1907  -16.0489    4.8116 H   0  0  0  0  0
    6.1077  -15.0847    3.4028 H   0  0  0  0  0
    3.7685  -15.4774    3.6582 H   0  0  0  0  0
    3.8952  -15.6970    5.3806 H   0  0  0  0  0
    4.6500  -10.4612    5.0455 H   0  0  0  0  0
    4.4834   -9.6256    2.4132 H   0  0  0  0  0
    3.8507   -8.3275    4.4921 H   0  0  0  0  0
    5.5724   -8.1962    4.9273 H   0  0  0  0  0
    4.9527   -7.3586    3.4832 H   0  0  0  0  0
    8.4452   -9.1156    0.6307 H   0  0  0  0  0
    7.4288   -8.0289   -1.2186 H   0  0  0  0  0
    8.2932   -6.6396   -0.5876 H   0  0  0  0  0
    5.5830   -6.5753   -0.9054 H   0  0  0  0  0
    6.3418   -5.6911    0.3481 H   0  0  0  0  0
    5.0891   -7.0593    1.7918 H   0  0  0  0  0
    4.8247   -8.2664    0.5490 H   0  0  0  0  0
    7.4154   -7.1336    3.0054 H   0  0  0  0  0
    9.2437   -5.1404    3.4995 H   0  0  0  0  0
    7.0829   -5.8664    4.7473 H   0  0  0  0  0
    8.4421   -5.1425    5.7139 H   0  0  0  0  0
    8.7228   -7.9642    7.8183 H   0  0  0  0  0
    9.1365   -6.2754    7.5057 H   0  0  0  0  0
   10.3807   -4.2327    5.6078 H   0  0  0  0  0
   12.3197   -4.1649    6.9954 H   0  0  0  0  0
   12.9601   -3.2445    5.6878 H   0  0  0  0  0
   14.2283   -5.5353    6.4083 H   0  0  0  0  0
   14.1485   -5.1320    4.7519 H   0  0  0  0  0
   13.0163   -7.2287    4.6389 H   0  0  0  0  0
   12.4332   -7.1111    6.2785 H   0  0  0  0  0
   10.2567   -2.0814    1.8041 H   0  0  0  0  0
    9.4286   -0.1097    2.7561 H   0  0  0  0  0
   10.9827    0.5132    2.3607 H   0  0  0  0  0
   10.1745    0.5060    4.9613 H   0  0  0  0  0
   11.8306    0.2270    4.5959 H   0  0  0  0  0
   11.3910   -1.8169    5.7403 H   0  0  0  0  0
    9.7075   -1.8051    5.3262 H   0  0  0  0  0
   14.2073   -2.2180    0.0159 H   0  0  0  0  0
   13.0469   -2.4918   -2.0669 H   0  0  0  0  0
   13.8289   -0.9994   -2.4063 H   0  0  0  0  0
   11.1106   -1.1290   -2.5088 H   0  0  0  0  0
   11.8595    0.3077   -1.9467 H   0  0  0  0  0
   10.7014   -0.1363    0.0565 H   0  0  0  0  0
   10.4911   -1.8272   -0.3405 H   0  0  0  0  0
   13.1225    1.1630   -0.5975 H   0  0  0  0  0
   15.6713    2.1295    0.6678 H   0  0  0  0  0
   16.1482    3.5235   -1.2058 H   0  0  0  0  0
   13.9224    3.6289   -2.2479 H   0  0  0  0  0
   14.1994    1.9435   -2.8885 H   0  0  0  0  0
   17.3678    1.4064   -1.0168 H   0  0  0  0  0
   16.0921    0.5561   -1.9227 H   0  0  0  0  0
   17.0998    1.7772   -2.7378 H   0  0  0  0  0
   15.8329    4.4153   -3.5524 H   0  0  0  0  0
   16.1034    2.7700   -4.1777 H   0  0  0  0  0
   14.6180    3.6531   -4.6079 H   0  0  0  0  0
   14.9526    4.7396   -0.5917 H   0  0  0  0  0
   14.2264    6.7042    0.3182 H   0  0  0  0  0
   11.5932    6.7004    0.0577 H   0  0  0  0  0
   12.0112    5.1389   -0.8495 H   0  0  0  0  0
   12.8701    7.9354   -1.4014 H   0  0  0  0  0
   14.7276    6.5484   -2.0241 H   0  0  0  0  0
   13.6644    5.4720   -2.9632 H   0  0  0  0  0
   13.9205    7.1531   -3.4917 H   0  0  0  0  0
   11.1681    5.8883   -2.9743 H   0  0  0  0  0
   10.5417    7.3527   -2.1779 H   0  0  0  0  0
   11.6024    7.4976   -3.6010 H   0  0  0  0  0
   15.0880    6.3362    2.4266 H   0  0  0  0  0
   13.0315    6.9422    4.4032 H   0  0  0  0  0
   12.8997    4.5551    4.4722 H   0  0  0  0  0
   13.7101    5.2109    6.0025 H   0  0  0  0  0
   15.7680    4.3602    5.3499 H   0  0  0  0  0
   15.1433    3.9398    3.6886 H   0  0  0  0  0
   13.9202    2.0935    4.5405 H   0  0  0  0  0
   14.0635    2.6270    6.1931 H   0  0  0  0  0
   16.4740    2.2952    6.1912 H   0  0  0  0  0
   16.4526    1.9610    4.4170 H   0  0  0  0  0
   16.6323   -0.0370    5.7099 H   0  0  0  0  0
   15.2116    0.3063    6.5103 H   0  0  0  0  0
   15.1919   -0.0022    4.8729 H   0  0  0  0  0
   16.3692    5.7534    4.5546 H   0  0  0  0  0
   17.2522    7.5124    6.5974 H   0  0  0  0  0
   18.1071    5.3083    5.9827 H   0  0  0  0  0
   18.1891    5.3892    3.5577 H   0  0  0  0  0
   19.4259    6.6695    3.6026 H   0  0  0  0  0
   19.8194    5.0309    4.1779 H   0  0  0  0  0
   20.2404    7.4863    5.9552 H   0  0  0  0  0
   19.5313    6.7046    7.3895 H   0  0  0  0  0
   20.5609    5.7652    6.2811 H   0  0  0  0  0
   17.0220    8.0765    3.1963 H   0  0  0  0  0
   17.6644    9.9320    1.8962 H   0  0  0  0  0
   19.5574    8.5429    2.2733 H   0  0  0  0  0
   17.5361   11.4841    4.4277 H   0  0  0  0  0
   16.0640   10.8838    3.4905 H   0  0  0  0  0
   18.5297   13.6956    3.7128 H   0  0  0  0  0
   15.4013   10.8702    0.8145 H   0  0  0  0  0
   16.4095   15.5659   -0.5404 H   0  0  0  0  0
   14.3832   11.8139   -1.2460 H   0  0  0  0  0
   14.8579   14.1700   -1.9152 H   0  0  0  0  0
  1  2  1  0  0  0
  2  3  1  0  0  0
  2  5  1  0  0  0
  3  4  2  0  0  0
  3  8  1  0  0  0
  5  6  1  0  0  0
  5  7  1  0  0  0
  8  9  1  0  0  0
  9 10  1  0  0  0
  9 12  1  0  0  0
 10 11  2  0  0  0
 10 17  1  0  0  0
 12 13  1  0  0  0
 13 14  1  0  0  0
 14 15  1  0  0  0
 15 16  1  0  0  0
 17 18  1  0  0  0
 18 19  1  0  0  0
 19 20  2  0  0  0
 19 21  1  0  0  0
 21 22  1  0  0  0
 21 27  1  0  0  0
 22 23  1  0  0  0
 22 25  1  0  0  0
 23 24  2  0  0  0
 23 28  1  0  0  0
 25 26  1  0  0  0
 26 27  1  0  0  0
 28 29  1  0  0  0
 29 30  1  0  0  0
 29 32  1  0  0  0
 30 31  2  0  0  0
 30 33  1  0  0  0
 33 34  1  0  0  0
 33 39  1  0  0  0
 34 35  1  0  0  0
 34 37  1  0  0  0
 35 36  2  0  0  0
 35 40  1  0  0  0
 37 38  1  0  0  0
 38 39  1  0  0  0
 40 41  1  0  0  0
 41 42  1  0  0  0
 41 44  1  0  0  0
 42 43  2  0  0  0
 42 48  1  0  0  0
 44 45  1  0  0  0
 45 46  2  0  0  0
 45 47  1  0  0  0
 48 49  1  0  0  0
 48 54  1  0  0  0
 49 50  1  0  0  0
 49 52  1  0  0  0
 50 51  2  0  0  0
 50 55  1  0  0  0
 52 53  1  0  0  0
 53 54  1  0  0  0
 55 56  1  0  0  0
 55 61  1  0  0  0
 56 57  1  0  0  0
 56 59  1  0  0  0
 57 58  2  0  0  0
 57 62  1  0  0  0
 59 60  1  0  0  0
 60 61  1  0  0  0
 62 63  1  0  0  0
 62 68  1  0  0  0
 63 64  1  0  0  0
 63 66  1  0  0  0
 64 65  2  0  0  0
 64 69  1  0  0  0
 66 67  1  0  0  0
 67 68  1  0  0  0
 69 70  1  0  0  0
 70 71  1  0  0  0
 70 73  1  0  0  0
 71 72  2  0  0  0
 71 77  1  0  0  0
 73 74  1  0  0  0
 73 75  1  0  0  0
 74 76  1  0  0  0
 77 78  1  0  0  0
 78 79  1  0  0  0
 78 81  1  0  0  0
 79 80  2  0  0  0
 79 85  1  0  0  0
 81 82  1  0  0  0
 82 83  1  0  0  0
 82 84  1  0  0  0
 85 86  1  0  0  0
 86 87  1  0  0  0
 86 89  1  0  0  0
 87 88  2  0  0  0
 87 94  1  0  0  0
 89 90  1  0  0  0
 90 91  1  0  0  0
 91 92  1  0  0  0
 92 93  1  0  0  0
 94 95  1  0  0  0
 95 96  1  0  0  0
 95 98  1  0  0  0
 96 97  2  0  0  0
 96101  1  0  0  0
 98 99  1  0  0  0
 98100  1  0  0  0
101102  1  0  0  0
102103  1  0  0  0
102105  1  0  0  0
103104  1  0  0  0
103115  2  0  0  0
105106  1  0  0  0
106107  4  0  0  0
106108  4  0  0  0
107109  4  0  0  0
108110  4  0  0  0
108111  4  0  0  0
109110  4  0  0  0
110112  4  0  0  0
111113  4  0  0  0
112114  4  0  0  0
113114  4  0  0  0
  1116  1  0  0  0
  1117  1  0  0  0
  1118  1  0  0  0
  2119  1  0  0  0
  5120  1  0  0  0
  6121  1  0  0  0
  7122  1  0  0  0
  7123  1  0  0  0
  7124  1  0  0  0
  8125  1  0  0  0
  9126  1  0  0  0
 12127  1  0  0  0
 12128  1  0  0  0
 13129  1  0  0  0
 13130  1  0  0  0
 14131  1  0  0  0
 14132  1  0  0  0
 15133  1  0  0  0
 15134  1  0  0  0
 16135  1  0  0  0
 16136  1  0  0  0
 16137  1  0  0  0
 17138  1  0  0  0
 18139  1  0  0  0
 18140  1  0  0  0
 22141  1  0  0  0
 25142  1  0  0  0
 25143  1  0  0  0
 26144  1  0  0  0
 26145  1  0  0  0
 27146  1  0  0  0
 27147  1  0  0  0
 28148  1  0  0  0
 29149  1  0  0  0
 32150  1  0  0  0
 32151  1  0  0  0
 32152  1  0  0  0
 34153  1  0  0  0
 37154  1  0  0  0
 37155  1  0  0  0
 38156  1  0  0  0
 38157  1  0  0  0
 39158  1  0  0  0
 39159  1  0  0  0
 40160  1  0  0  0
 41161  1  0  0  0
 44162  1  0  0  0
 44163  1  0  0  0
 47164  1  0  0  0
 47165  1  0  0  0
 49166  1  0  0  0
 52167  1  0  0  0
 52168  1  0  0  0
 53169  1  0  0  0
 53170  1  0  0  0
 54171  1  0  0  0
 54172  1  0  0  0
 56173  1  0  0  0
 59174  1  0  0  0
 59175  1  0  0  0
 60176  1  0  0  0
 60177  1  0  0  0
 61178  1  0  0  0
 61179  1  0  0  0
 63180  1  0  0  0
 66181  1  0  0  0
 66182  1  0  0  0
 67183  1  0  0  0
 67184  1  0  0  0
 68185  1  0  0  0
 68186  1  0  0  0
 69187  1  0  0  0
 70188  1  0  0  0
 73189  1  0  0  0
 74190  1  0  0  0
 74191  1  0  0  0
 75192  1  0  0  0
 75193  1  0  0  0
 75194  1  0  0  0
 76195  1  0  0  0
 76196  1  0  0  0
 76197  1  0  0  0
 77198  1  0  0  0
 78199  1  0  0  0
 81200  1  0  0  0
 81201  1  0  0  0
 82202  1  0  0  0
 83203  1  0  0  0
 83204  1  0  0  0
 83205  1  0  0  0
 84206  1  0  0  0
 84207  1  0  0  0
 84208  1  0  0  0
 85209  1  0  0  0
 86210  1  0  0  0
 89211  1  0  0  0
 89212  1  0  0  0
 90213  1  0  0  0
 90214  1  0  0  0
 91215  1  0  0  0
 91216  1  0  0  0
 92217  1  0  0  0
 92218  1  0  0  0
 93219  1  0  0  0
 93220  1  0  0  0
 93221  1  0  0  0
 94222  1  0  0  0
 95223  1  0  0  0
 98224  1  0  0  0
 99225  1  0  0  0
 99226  1  0  0  0
 99227  1  0  0  0
100228  1  0  0  0
100229  1  0  0  0
100230  1  0  0  0
101231  1  0  0  0
102232  1  0  0  0
104233  1  0  0  0
105234  1  0  0  0
105235  1  0  0  0
107236  1  0  0  0
111237  1  0  0  0
112238  1  0  0  0
113239  1  0  0  0
114240  1  0  0  0
M  END
$$$$
