2x4z_ligand
  -I-interpret- 

 65 69  0  0  0  0  0  0  0  0999 V2000
   20.0180   20.5030   61.2400 C   0  0  0  0  0
   20.2280   21.6480   61.9660 C   0  0  0  0  0
   19.5360   19.5890   62.2070 C   0  0  0  0  0
   20.2800   20.7060   59.8010 C   0  0  0  0  0
   20.7660   22.8160   61.1660 C   0  0  0  0  0
   19.9080   21.5110   63.2620 N   0  0  0  0  0
   19.2250   18.1860   61.9120 N   0  0  0  0  0
   19.4560   20.1800   63.4180 N   0  0  0  0  0
   20.6240   22.1890   59.7960 N   0  0  0  0  0
   19.8360   24.0230   61.4140 C   0  0  0  0  0
   22.1990   23.1730   61.6210 C   0  0  0  0  0
   19.7400   17.2830   61.0790 C   0  0  0  0  0
   20.7770   22.9180   58.6540 C   0  0  0  0  0
   19.2580   15.9660   61.1250 C   0  0  0  0  0
   20.7150   17.6560   60.2100 N   0  0  0  0  0
   20.6030   22.3130   57.4890 N   0  0  0  0  0
   21.0860   24.1070   58.7010 O   0  0  0  0  0
   19.8370   15.0270   60.2020 C   0  0  0  0  0
   18.0770   15.2020   62.0800 S   0  0  0  0  0
   21.2610   16.7660   59.3480 C   0  0  0  0  0
   20.7280   23.0740   56.2130 C   0  0  0  0  0
   20.8390   15.4860   59.3350 N   0  0  0  0  0
   19.2520   13.7280   60.3480 C   0  0  0  0  0
   18.2590   13.6800   61.3560 C   0  0  0  0  0
   22.3110   17.2210   58.4410 C   0  0  0  0  0
   22.0930   23.5160   55.7990 C   0  0  0  0  0
   20.0190   22.3250   55.0290 C   0  0  0  0  0
   22.2180   24.6040   54.8780 C   0  0  0  0  0
   23.2630   22.8590   56.3020 C   0  0  0  0  0
   18.5410   22.3240   55.0800 N   0  3  0  0  0
   23.5110   25.0320   54.4540 C   0  0  0  0  0
   24.5600   23.2830   55.8850 C   0  0  0  0  0
   24.6680   24.3690   54.9600 C   0  0  0  0  0
   17.8770   21.8210   56.2950 C   0  0  0  0  0
   18.0550   21.5200   53.9370 C   0  0  0  0  0
   19.4473   20.4366   59.1512 H   0  0  0  0  0
   21.0598   20.0634   59.3922 H   0  0  0  0  0
   18.4470   17.8240   62.4634 H   0  0  0  0  0
   20.0514   24.8023   60.6829 H   0  0  0  0  0
   18.7977   23.7065   61.3144 H   0  0  0  0  0
   20.0045   24.4094   62.4192 H   0  0  0  0  0
   22.8073   22.2688   61.6441 H   0  0  0  0  0
   22.6336   23.8871   60.9215 H   0  0  0  0  0
   22.1633   23.6140   62.6172 H   0  0  0  0  0
   20.3815   21.3176   57.4644 H   0  0  0  0  0
   20.2169   24.0072   56.4498 H   0  0  0  0  0
   19.5410   12.8665   59.7461 H   0  0  0  0  0
   17.6916   12.7900   61.6281 H   0  0  0  0  0
   21.9216   18.0174   57.8068 H   0  0  0  0  0
   23.1535   17.5964   59.0218 H   0  0  0  0  0
   22.6390   16.3876   57.8197 H   0  0  0  0  0
   20.3348   21.2832   55.0837 H   0  0  0  0  0
   20.3003   22.8476   54.1148 H   0  0  0  0  0
   21.3264   25.1050   54.5010 H   0  0  0  0  0
   23.1618   22.0326   57.0055 H   0  0  0  0  0
   18.2946   23.3136   55.0601 H   0  0  0  0  0
   23.6138   25.8578   53.7501 H   0  0  0  0  0
   25.4536   22.7877   56.2649 H   0  0  0  0  0
   25.6555   24.6967   54.6350 H   0  0  0  0  0
   18.1613   20.7816   56.4590 H   0  0  0  0  0
   18.1840   22.4223   57.1507 H   0  0  0  0  0
   16.7962   21.8882   56.1711 H   0  0  0  0  0
   18.4035   21.9668   53.0059 H   0  0  0  0  0
   18.4395   20.5034   54.0199 H   0  0  0  0  0
   16.9652   21.4995   53.9461 H   0  0  0  0  0
  1  2  4  0  0  0
  1  3  4  0  0  0
  1  4  1  0  0  0
  2  5  1  0  0  0
  2  6  4  0  0  0
  3  7  1  0  0  0
  3  8  4  0  0  0
  4  9  1  0  0  0
  5  9  1  0  0  0
  5 10  1  0  0  0
  5 11  1  0  0  0
  6  8  4  0  0  0
  7 12  1  0  0  0
  9 13  1  0  0  0
 12 14  4  0  0  0
 12 15  4  0  0  0
 13 16  1  0  0  0
 13 17  2  0  0  0
 14 18  4  0  0  0
 14 19  4  0  0  0
 15 20  4  0  0  0
 16 21  1  0  0  0
 18 22  4  0  0  0
 18 23  4  0  0  0
 19 24  4  0  0  0
 20 22  4  0  0  0
 20 25  1  0  0  0
 21 26  1  0  0  0
 21 27  1  0  0  0
 23 24  4  0  0  0
 26 28  4  0  0  0
 26 29  4  0  0  0
 27 30  1  0  0  0
 28 31  4  0  0  0
 29 32  4  0  0  0
 30 34  1  0  0  0
 30 35  1  0  0  0
 31 33  4  0  0  0
 32 33  4  0  0  0
  4 36  1  0  0  0
  4 37  1  0  0  0
  7 38  1  0  0  0
 10 39  1  0  0  0
 10 40  1  0  0  0
 10 41  1  0  0  0
 11 42  1  0  0  0
 11 43  1  0  0  0
 11 44  1  0  0  0
 16 45  1  0  0  0
 21 46  1  0  0  0
 23 47  1  0  0  0
 24 48  1  0  0  0
 25 49  1  0  0  0
 25 50  1  0  0  0
 25 51  1  0  0  0
 27 52  1  0  0  0
 27 53  1  0  0  0
 28 54  1  0  0  0
 29 55  1  0  0  0
 30 56  1  0  0  0
 31 57  1  0  0  0
 32 58  1  0  0  0
 33 59  1  0  0  0
 34 60  1  0  0  0
 34 61  1  0  0  0
 34 62  1  0  0  0
 35 63  1  0  0  0
 35 64  1  0  0  0
 35 65  1  0  0  0
M  END
$$$$
