4u44_ligand
  -I-interpret- 

 35 38  0  0  0  0  0  0  0  0999 V2000
  -13.5350   -1.0720   28.7190 C   0  0  0  0  0
  -14.0610   -0.6260   27.5070 C   0  0  0  0  0
  -13.5620    0.5380   26.9480 C   0  0  0  0  0
  -14.0210   -2.3250   29.3420 C   0  0  0  0  0
  -15.0300   -3.1870   28.8800 C   0  0  0  0  0
  -15.0940   -4.2250   29.7830 C   0  0  0  0  0
  -15.8840   -5.3960   29.8780 C   0  0  0  0  0
  -14.7530   -5.9840   31.8400 C   0  0  0  0  0
  -12.5010   -0.3570   29.3430 C   0  0  0  0  0
  -12.5460    1.2440   27.5730 C   0  0  0  0  0
  -12.0170    0.8040   28.7720 C   0  0  0  0  0
  -15.6670   -6.2130   30.9060 N   0  0  0  0  0
  -14.0070   -4.9220   31.8120 N   0  0  0  0  0
  -14.1420   -4.0020   30.7650 N   0  0  0  0  0
  -13.5050   -2.8580   30.4960 C   0  0  0  0  0
  -16.8390   -5.6480   28.8940 N   0  0  0  0  0
  -17.6730   -6.7780   28.7880 C   0  0  0  0  0
  -17.9610   -7.6500   29.8460 C   0  0  0  0  0
  -18.7960   -8.7270   29.6480 C   0  0  0  0  0
  -19.3430   -8.9470   28.4670 N   0  0  0  0  0
  -19.1140   -8.1490   27.4320 C   0  0  0  0  0
  -18.2820   -7.0500   27.5550 C   0  0  0  0  0
  -14.8524   -1.1850   27.0077 H   0  0  0  0  0
  -13.9723    0.9032   26.0065 H   0  0  0  0  0
  -15.6401   -3.0596   27.9857 H   0  0  0  0  0
  -14.6257   -6.7035   32.6488 H   0  0  0  0  0
  -12.0788   -0.7187   30.2805 H   0  0  0  0  0
  -12.1605    2.1548   27.1147 H   0  0  0  0  0
  -11.2243    1.3686   29.2629 H   0  0  0  0  0
  -12.7066   -2.4204   31.0953 H   0  0  0  0  0
  -16.9454   -4.9358   28.1716 H   0  0  0  0  0
  -17.5229   -7.4755   30.8287 H   0  0  0  0  0
  -19.0074   -9.4048   30.4750 H   0  0  0  0  0
  -19.5869   -8.3616   26.4732 H   0  0  0  0  0
  -18.1014   -6.4001   26.6988 H   0  0  0  0  0
  1  2  4  0  0  0
  1  4  1  0  0  0
  1  9  4  0  0  0
  2  3  4  0  0  0
  3 10  4  0  0  0
  4  5  4  0  0  0
  4 15  4  0  0  0
  5  6  4  0  0  0
  6  7  4  0  0  0
  6 14  4  0  0  0
  7 12  4  0  0  0
  7 16  1  0  0  0
 12  8  4  0  0  0
  8 13  4  0  0  0
  9 11  4  0  0  0
 10 11  4  0  0  0
 13 14  4  0  0  0
 14 15  4  0  0  0
 16 17  1  0  0  0
 17 18  4  0  0  0
 17 22  4  0  0  0
 18 19  4  0  0  0
 19 20  4  0  0  0
 20 21  4  0  0  0
 21 22  4  0  0  0
  2 23  1  0  0  0
  3 24  1  0  0  0
  5 25  1  0  0  0
  8 26  1  0  0  0
  9 27  1  0  0  0
 10 28  1  0  0  0
 11 29  1  0  0  0
 15 30  1  0  0  0
 16 31  1  0  0  0
 18 32  1  0  0  0
 19 33  1  0  0  0
 21 34  1  0  0  0
 22 35  1  0  0  0
M  END
$$$$
