4awi_ligand
  -I-interpret- 

 54 57  0  0  0  0  0  0  0  0999 V2000
   24.5540    7.4680   29.9190 C   0  0  0  0  0
   23.6040    6.4800   30.5670 C   0  0  0  0  0
   24.3420    5.4220   31.3590 C   0  0  0  0  0
   22.5710    7.1730   31.4350 C   0  0  0  0  0
   22.4840    8.4790   31.7360 C   0  0  0  0  0
   21.3360    8.6340   32.5910 C   0  0  0  0  0
   20.6710    9.6740   33.2670 C   0  0  0  0  0
   19.5360    9.3920   34.0290 C   0  0  0  0  0
   19.1030    8.0850   34.0990 C   0  0  0  0  0
   19.7060    7.0610   33.4780 N   0  0  0  0  0
   20.7960    7.3540   32.7470 C   0  0  0  0  0
   21.5620    6.4670   32.0380 N   0  0  0  0  0
   21.1230   11.1000   33.2080 C   0  0  0  0  0
   22.4750   11.4340   33.1340 C   0  0  0  0  0
   22.8900   12.7550   33.0920 C   0  0  0  0  0
   21.9450   13.7690   33.1400 C   0  0  0  0  0
   20.5990   13.4670   33.2380 C   0  0  0  0  0
   20.1990   12.1420   33.2740 C   0  0  0  0  0
   22.4590   15.4570   33.1110 S   0  0  0  0  0
   23.8790   15.4870   33.2930 O   0  0  0  0  0
   21.6180   16.1930   34.0050 O   0  0  0  0  0
   22.1540   16.0440   31.6400 N   0  0  0  0  0
   23.1410   16.0280   30.5520 C   0  0  0  0  0
   22.8200   14.8950   29.5940 C   0  0  0  0  0
   23.9010   14.7550   28.5320 C   0  0  0  0  0
   23.9210   16.2210   27.5520 S   0  0  0  0  0
   25.0470   16.1710   26.6600 O   0  0  0  0  0
   22.6150   16.4240   26.9860 O   0  0  0  0  0
   24.2120   17.4570   28.7750 C   0  0  0  0  0
   23.1240   17.3680   29.8390 C   0  0  0  0  0
   23.9878    8.1568   29.2921 H   0  0  0  0  0
   25.0786    8.0273   30.6937 H   0  0  0  0  0
   25.2762    6.9277   29.3070 H   0  0  0  0  0
   23.0767    5.9814   29.7537 H   0  0  0  0  0
   24.8466    5.8891   32.2048 H   0  0  0  0  0
   23.6309    4.6804   31.7229 H   0  0  0  0  0
   25.0781    4.9373   30.7176 H   0  0  0  0  0
   23.1538    9.2697   31.3979 H   0  0  0  0  0
   19.0053   10.1853   34.5555 H   0  0  0  0  0
   18.2163    7.8710   34.6956 H   0  0  0  0  0
   23.2205   10.6392   33.1087 H   0  0  0  0  0
   23.9508   12.9956   33.0218 H   0  0  0  0  0
   19.8589   14.2658   33.2865 H   0  0  0  0  0
   19.1375   11.9082   33.3558 H   0  0  0  0  0
   21.2340   16.4445   31.4568 H   0  0  0  0  0
   24.1405   15.8634   30.9545 H   0  0  0  0  0
   21.8722   15.1119   29.1014 H   0  0  0  0  0
   22.7631   13.9649   30.1594 H   0  0  0  0  0
   23.6922   13.8904   27.9019 H   0  0  0  0  0
   24.8717   14.6132   29.0072 H   0  0  0  0  0
   24.1937   18.4437   28.3121 H   0  0  0  0  0
   25.1882   17.2982   29.2332 H   0  0  0  0  0
   23.3012   18.1508   30.5765 H   0  0  0  0  0
   22.1566   17.4838   29.3503 H   0  0  0  0  0
  1  2  1  0  0  0
  2  3  1  0  0  0
  2  4  1  0  0  0
  4  5  4  0  0  0
  4 12  4  0  0  0
  5  6  4  0  0  0
  6  7  4  0  0  0
  6 11  4  0  0  0
  7  8  4  0  0  0
  7 13  1  0  0  0
  8  9  4  0  0  0
  9 10  4  0  0  0
 10 11  4  0  0  0
 11 12  4  0  0  0
 13 14  4  0  0  0
 13 18  4  0  0  0
 14 15  4  0  0  0
 15 16  4  0  0  0
 16 17  4  0  0  0
 16 19  1  0  0  0
 17 18  4  0  0  0
 19 20  2  0  0  0
 19 21  2  0  0  0
 19 22  1  0  0  0
 22 23  1  0  0  0
 23 24  1  0  0  0
 23 30  1  0  0  0
 24 25  1  0  0  0
 25 26  1  0  0  0
 26 27  2  0  0  0
 26 28  2  0  0  0
 26 29  1  0  0  0
 29 30  1  0  0  0
  1 31  1  0  0  0
  1 32  1  0  0  0
  1 33  1  0  0  0
  2 34  1  0  0  0
  3 35  1  0  0  0
  3 36  1  0  0  0
  3 37  1  0  0  0
  5 38  1  0  0  0
  8 39  1  0  0  0
  9 40  1  0  0  0
 14 41  1  0  0  0
 15 42  1  0  0  0
 17 43  1  0  0  0
 18 44  1  0  0  0
 22 45  1  0  0  0
 23 46  1  0  0  0
 24 47  1  0  0  0
 24 48  1  0  0  0
 25 49  1  0  0  0
 25 50  1  0  0  0
 29 51  1  0  0  0
 29 52  1  0  0  0
 30 53  1  0  0  0
 30 54  1  0  0  0
M  END
$$$$
