5g43_ligand
  -I-interpret- 

 25 26  0  0  0  0  0  0  0  0999 V2000
  -23.8920   12.4850  -14.9960 C   0  0  0  0  0
  -23.3750   11.5740  -14.1090 C   0  0  0  0  0
  -25.1700   10.3940  -14.7730 C   0  0  0  0  0
  -28.1290    7.3570  -14.7540 C   0  0  0  0  0
  -28.0210    8.3450  -15.9030 C   0  0  0  0  0
  -26.8300    7.1490  -13.9940 C   0  0  0  0  0
  -27.3750    9.6370  -15.4480 C   0  0  0  0  0
  -26.1350    8.4610  -13.6900 C   0  0  0  0  0
  -24.0950   10.4140  -13.9990 N   0  0  0  0  0
  -26.0760    9.3610  -14.8510 N   0  0  0  0  0
  -22.2570   11.7740  -13.3780 N   0  0  0  0  0
  -25.3120   11.8370  -15.7050 S   0  0  0  0  0
  -23.4672   13.4647  -15.2148 H   0  0  0  0  0
  -28.4118    6.3946  -15.1805 H   0  0  0  0  0
  -28.8556    7.7598  -14.0484 H   0  0  0  0  0
  -29.0233    8.5653  -16.2704 H   0  0  0  0  0
  -27.4062    7.9036  -16.6874 H   0  0  0  0  0
  -26.1654    6.5462  -14.6129 H   0  0  0  0  0
  -27.0625    6.6590  -13.0485 H   0  0  0  0  0
  -28.0152   10.1168  -14.7077 H   0  0  0  0  0
  -27.2423   10.2938  -16.3077 H   0  0  0  0  0
  -25.1111    8.2339  -13.3930 H   0  0  0  0  0
  -26.7028    8.9645  -12.9075 H   0  0  0  0  0
  -21.7391   12.6482  -13.4669 H   0  0  0  0  0
  -21.9306   11.0508  -12.7370 H   0  0  0  0  0
  1  2  4  0  0  0
 12  1  4  0  0  0
  9  2  4  0  0  0
  2 11  1  0  0  0
  3  9  4  0  0  0
 10  3  1  0  0  0
  3 12  4  0  0  0
  5  4  1  0  0  0
  4  6  1  0  0  0
  7  5  1  0  0  0
  6  8  1  0  0  0
  7 10  1  0  0  0
  8 10  1  0  0  0
  1 13  1  0  0  0
  4 14  1  0  0  0
  4 15  1  0  0  0
  5 16  1  0  0  0
  5 17  1  0  0  0
  6 18  1  0  0  0
  6 19  1  0  0  0
  7 20  1  0  0  0
  7 21  1  0  0  0
  8 22  1  0  0  0
  8 23  1  0  0  0
 11 24  1  0  0  0
 11 25  1  0  0  0
M  END
$$$$
