5hip_ligand
  -I-interpret- 

 24 25  0  0  0  0  0  0  0  0999 V2000
  -17.7570    2.4830   -9.2070 C   0  0  0  0  0
  -18.7610    1.6940   -6.7160 C   0  0  0  0  0
  -19.0180    1.9100   -9.0510 C   0  0  0  0  0
  -16.1700    4.5840  -11.8190 C   0  0  0  0  0
  -16.6750    4.1370  -10.6000 C   0  0  0  0  0
  -17.2730    2.8920  -10.4720 C   0  0  0  0  0
  -17.3650    2.1040  -11.6400 C   0  0  0  0  0
  -16.8750    2.5670  -12.8540 C   0  0  0  0  0
  -16.2610    3.8020  -12.9640 C   0  0  0  0  0
  -17.9400    0.7040  -11.5820 C   0  0  0  0  0
  -18.8140    0.2510  -12.3860 O   0  0  0  0  0
  -17.4530   -0.0430  -10.6480 O   0  0  0  0  0
  -17.0190    2.6840   -8.0250 C   0  0  0  0  0
  -17.5100    2.2800   -6.7940 C   0  0  0  0  0
  -19.4930    1.5300   -7.8450 N   0  0  0  0  0
  -19.1549    1.3667   -5.7538 H   0  0  0  0  0
  -19.6422    1.7635   -9.9325 H   0  0  0  0  0
  -15.6955    5.5637  -11.8755 H   0  0  0  0  0
  -16.5983    4.7819   -9.7246 H   0  0  0  0  0
  -16.9765    1.9425  -13.7416 H   0  0  0  0  0
  -15.8621    4.1498  -13.9169 H   0  0  0  0  0
  -16.8114    0.4590  -10.1402 H   0  0  0  0  0
  -16.0431    3.1665   -8.0793 H   0  0  0  0  0
  -16.9143    2.4229   -5.8924 H   0  0  0  0  0
  1  3  4  0  0  0
  6  1  1  0  0  0
  1 13  4  0  0  0
  2 14  4  0  0  0
 15  2  4  0  0  0
  3 15  4  0  0  0
  5  4  4  0  0  0
  4  9  4  0  0  0
  5  6  4  0  0  0
  6  7  4  0  0  0
  7  8  4  0  0  0
  7 10  1  0  0  0
  8  9  4  0  0  0
 10 11  2  0  0  0
 10 12  1  0  0  0
 13 14  4  0  0  0
  2 16  1  0  0  0
  3 17  1  0  0  0
  4 18  1  0  0  0
  5 19  1  0  0  0
  8 20  1  0  0  0
  9 21  1  0  0  0
 12 22  1  0  0  0
 13 23  1  0  0  0
 14 24  1  0  0  0
M  END
$$$$
