4gj2_ligand
  -I-interpret- 

 36 38  0  0  0  0  0  0  0  0999 V2000
   -5.2860   -3.8540  -16.2350 C   0  0  0  0  0
   -4.6470   -5.0880  -16.1850 C   0  0  0  0  0
   -5.3670   -6.2390  -15.8860 C   0  0  0  0  0
   -6.7470   -6.1600  -15.6230 C   0  0  0  0  0
   -7.3870   -4.9080  -15.6880 C   0  0  0  0  0
   -6.6500   -3.7700  -15.9880 C   0  0  0  0  0
   -9.0960   -4.7820  -15.3940 Cl  0  0  0  0  0
   -7.5530   -7.3530  -15.2770 C   0  0  0  0  0
   -7.8710   -7.5290  -14.1130 O   0  0  0  0  0
   -7.9380   -8.1720  -16.2750 N   0  0  0  0  0
   -8.7460   -9.3110  -16.2160 C   0  0  0  0  0
   -9.5510   -9.6970  -15.1270 C   0  0  0  0  0
  -10.3820  -10.8040  -15.2610 C   0  0  0  0  0
  -10.4170  -11.5000  -16.3940 N   0  0  0  0  0
   -9.6680  -11.1780  -17.4470 C   0  0  0  0  0
   -8.8550  -10.0450  -17.3930 C   0  0  0  0  0
   -9.7970  -11.9140  -18.6300 N   0  0  0  0  0
   -8.8640  -12.0620  -19.6070 C   0  0  0  0  0
   -7.7560  -11.5560  -19.5500 O   0  0  0  0  0
   -9.2720  -12.8790  -20.8070 C   0  0  0  0  0
   -8.4710  -12.7590  -22.1080 C   0  0  0  0  0
   -8.3730  -14.0260  -21.2580 C   0  0  0  0  0
   -7.1980  -14.2320  -20.5360 F   0  0  0  0  0
   -4.5540   -7.7650  -15.8680 Cl  0  0  0  0  0
   -4.7171   -2.9539  -16.4677 H   0  0  0  0  0
   -3.5768   -5.1531  -16.3811 H   0  0  0  0  0
   -7.1471   -2.8009  -16.0300 H   0  0  0  0  0
   -7.5917   -7.9268  -17.2026 H   0  0  0  0  0
   -9.5232   -9.1363  -14.1927 H   0  0  0  0  0
  -11.0138  -11.1057  -14.4256 H   0  0  0  0  0
   -8.3017   -9.7330  -18.2788 H   0  0  0  0  0
  -10.6871  -12.3907  -18.7747 H   0  0  0  0  0
  -10.3244  -12.7787  -20.5415 H   0  0  0  0  0
   -7.8062  -12.0478  -22.5982 H   0  0  0  0  0
   -8.6360  -12.4815  -23.1491 H   0  0  0  0  0
   -8.5135  -15.0899  -21.4492 H   0  0  0  0  0
  1  2  4  0  0  0
  1  6  4  0  0  0
  2  3  4  0  0  0
  3  4  4  0  0  0
  3 24  1  0  0  0
  4  5  4  0  0  0
  4  8  1  0  0  0
  5  6  4  0  0  0
  5  7  1  0  0  0
  8  9  2  0  0  0
  8 10  1  0  0  0
 10 11  1  0  0  0
 11 12  4  0  0  0
 11 16  4  0  0  0
 12 13  4  0  0  0
 13 14  4  0  0  0
 14 15  4  0  0  0
 15 16  4  0  0  0
 15 17  1  0  0  0
 17 18  1  0  0  0
 18 19  2  0  0  0
 18 20  1  0  0  0
 20 21  1  0  0  0
 20 22  1  0  0  0
 21 22  1  0  0  0
 22 23  1  0  0  0
  1 25  1  0  0  0
  2 26  1  0  0  0
  6 27  1  0  0  0
 10 28  1  0  0  0
 12 29  1  0  0  0
 13 30  1  0  0  0
 16 31  1  0  0  0
 17 32  1  0  0  0
 20 33  1  0  0  0
 21 34  1  0  0  0
 21 35  1  0  0  0
 22 36  1  0  0  0
M  END
$$$$
