4y8d_ligand
  -I-interpret- 

 42 45  0  0  0  0  0  0  0  0999 V2000
   31.2950   51.0850  -63.5480 C   0  0  0  0  0
   30.8220   52.0530  -64.4450 C   0  0  0  0  0
   29.9540   51.3070  -65.3050 O   0  0  0  0  0
   28.6350   51.0800  -64.7320 C   0  0  0  0  0
   28.7370   51.1300  -63.1840 C   0  0  0  0  0
   30.1060   50.7350  -62.7240 N   0  0  0  0  0
   30.3260   50.0260  -61.6220 C   0  0  0  0  0
   31.7180   49.8470  -61.0310 S   0  0  0  0  0
   31.3290   48.8820  -59.7870 N   0  0  0  0  0
   30.0070   48.6960  -59.8670 C   0  0  0  0  0
   29.2370   47.9870  -59.0350 C   0  0  0  0  0
   29.4410   49.3470  -60.9040 C   0  0  0  0  0
   28.1190   49.2670  -61.0930 N   0  0  0  0  0
   27.2980   48.5390  -60.2510 C   0  0  0  0  0
   27.8620   47.8940  -59.1760 C   0  0  0  0  0
   27.0710   47.1120  -58.3310 C   0  0  0  0  0
   27.6180   45.9840  -57.6830 C   0  0  0  0  0
   25.7190   47.4200  -58.1600 C   0  0  0  0  0
   24.9130   46.6340  -57.3410 C   0  0  0  0  0
   25.4600   45.5280  -56.7140 C   0  0  0  0  0
   24.7210   44.7560  -55.9220 N   0  0  0  0  0
   26.8060   45.1930  -56.8660 C   0  0  0  0  0
   27.2220   44.0670  -56.1840 O   0  0  0  0  0
   28.6570   43.8590  -56.0500 C   0  0  0  0  0
   32.1202   51.4568  -62.9406 H   0  0  0  0  0
   31.7084   50.2169  -64.0615 H   0  0  0  0  0
   31.6254   52.5507  -64.9882 H   0  0  0  0  0
   30.3118   52.8759  -63.9445 H   0  0  0  0  0
   28.2635   50.1037  -65.0432 H   0  0  0  0  0
   27.9473   51.8513  -65.0788 H   0  0  0  0  0
   28.0119   50.4336  -62.7629 H   0  0  0  0  0
   28.5371   52.1491  -62.8529 H   0  0  0  0  0
   29.7125   47.4585  -58.2088 H   0  0  0  0  0
   26.2256   48.4779  -60.4361 H   0  0  0  0  0
   28.6694   45.7309  -57.8192 H   0  0  0  0  0
   25.2919   48.2824  -58.6718 H   0  0  0  0  0
   23.8628   46.8868  -57.1952 H   0  0  0  0  0
   23.7367   44.9757  -55.7697 H   0  0  0  0  0
   25.1387   43.9443  -55.4670 H   0  0  0  0  0
   29.1056   43.7812  -57.0404 H   0  0  0  0  0
   29.0966   44.7013  -55.5158 H   0  0  0  0  0
   28.8392   42.9394  -55.4939 H   0  0  0  0  0
  1  2  1  0  0  0
  1  6  1  0  0  0
  2  3  1  0  0  0
  3  4  1  0  0  0
  4  5  1  0  0  0
  5  6  1  0  0  0
  6  7  1  0  0  0
  7  8  4  0  0  0
  7 12  4  0  0  0
  8  9  4  0  0  0
  9 10  4  0  0  0
 10 11  4  0  0  0
 10 12  4  0  0  0
 11 15  4  0  0  0
 12 13  4  0  0  0
 13 14  4  0  0  0
 14 15  4  0  0  0
 15 16  1  0  0  0
 16 17  4  0  0  0
 16 18  4  0  0  0
 17 22  4  0  0  0
 18 19  4  0  0  0
 19 20  4  0  0  0
 20 21  1  0  0  0
 20 22  4  0  0  0
 22 23  1  0  0  0
 23 24  1  0  0  0
  1 25  1  0  0  0
  1 26  1  0  0  0
  2 27  1  0  0  0
  2 28  1  0  0  0
  4 29  1  0  0  0
  4 30  1  0  0  0
  5 31  1  0  0  0
  5 32  1  0  0  0
 11 33  1  0  0  0
 14 34  1  0  0  0
 17 35  1  0  0  0
 18 36  1  0  0  0
 19 37  1  0  0  0
 21 38  1  0  0  0
 21 39  1  0  0  0
 24 40  1  0  0  0
 24 41  1  0  0  0
 24 42  1  0  0  0
M  END
$$$$
