3vtb_ligand
  -I-interpret- 

 88 93  0  0  0  0  0  0  0  0999 V2000
    9.7720   -1.0620   27.8090 C   0  0  0  0  0
    8.7920   -2.2970   27.5990 C   0  0  0  0  0
    7.3010   -1.7880   27.3790 C   0  0  0  0  0
    6.8400   -1.0030   28.6700 C   0  0  0  0  0
    7.7880    0.2660   28.9130 C   0  0  0  0  0
    9.2760   -0.2350   29.1370 C   0  0  0  0  0
    9.6700   -0.1050   26.5280 C   0  0  0  0  0
    7.2270   -0.8330   26.1030 C   0  0  0  0  0
    7.7290    1.2260   27.6380 C   0  0  0  0  0
    8.1900    0.4200   26.3300 C   0  0  0  0  0
   11.1890   -1.6950   27.9480 C   0  0  0  0  0
   12.1830   -0.6620   28.1470 C   0  0  0  0  0
   11.2480   -2.5810   29.0770 O   0  0  0  0  0
   12.9310    0.2400   28.2900 C   0  0  0  0  0
   13.7610    1.4000   28.4430 C   0  0  0  0  0
   13.0410    2.5410   27.6800 C   0  0  0  0  0
   11.9080    3.0980   28.6240 C   0  0  0  0  0
   14.1310    3.6060   27.2420 C   0  0  0  0  0
   13.6650    4.8330   26.3980 C   0  0  0  0  0
   15.1090    5.3820   26.0480 C   0  0  0  0  0
   15.8420    4.1320   25.4820 C   0  0  0  0  0
   15.3090    3.0080   26.3610 C   0  0  0  0  0
   12.9040    5.9720   27.2120 C   0  0  0  0  0
   12.7860    7.2870   26.3450 C   0  0  0  0  0
   14.2000    7.7590   25.9040 C   0  0  0  0  0
   14.8790    6.6100   25.0950 C   0  0  0  0  0
   12.7460    4.3610   25.1450 C   0  0  0  0  0
   15.2000    6.6250   23.7930 C   0  0  0  0  0
   14.9960    7.7190   22.8590 C   0  0  0  0  0
   14.6800    7.6570   21.5770 C   0  0  0  0  0
   14.5420    8.9940   20.8170 C   0  0  0  0  0
   15.1680    8.9610   19.3860 C   0  0  0  0  0
   14.6770    7.7290   18.5700 C   0  0  0  0  0
   15.0440    6.4000   19.2520 C   0  0  0  0  0
   14.4380    6.3890   20.7030 C   0  0  0  0  0
   13.9550    7.7990   17.4120 C   0  0  0  0  0
   14.4820    5.3100   18.4630 O   0  0  0  0  0
   16.6110    8.8940   19.4860 O   0  0  0  0  0
    8.8243   -2.9313   28.4848 H   0  0  0  0  0
    9.1098   -2.8578   26.7200 H   0  0  0  0  0
    6.6429   -2.6399   27.2078 H   0  0  0  0  0
    6.9030   -1.6662   29.5327 H   0  0  0  0  0
    5.8141   -0.6613   28.5328 H   0  0  0  0  0
    7.4515    0.8164   29.7916 H   0  0  0  0  0
    9.9300    0.6216   29.3001 H   0  0  0  0  0
    9.3153   -0.8867   30.0098 H   0  0  0  0  0
    9.9617   -0.6715   25.6437 H   0  0  0  0  0
   10.3281    0.7510   26.6772 H   0  0  0  0  0
    6.2028   -0.4871   25.9633 H   0  0  0  0  0
    7.5432   -1.3819   25.2160 H   0  0  0  0  0
    8.3968    2.0734   27.7934 H   0  0  0  0  0
    6.7077    1.5815   27.5012 H   0  0  0  0  0
    8.1419    1.0839   25.4668 H   0  0  0  0  0
   11.3887   -2.2484   27.0304 H   0  0  0  0  0
   10.5965   -3.2779   28.9699 H   0  0  0  0  0
   14.7606    1.2267   28.0444 H   0  0  0  0  0
   13.8984    1.6523   29.4945 H   0  0  0  0  0
   12.5527    2.2154   26.7615 H   0  0  0  0  0
   11.2086    2.2966   28.8620 H   0  0  0  0  0
   12.3558    3.4760   29.5431 H   0  0  0  0  0
   11.3790    3.9052   28.1174 H   0  0  0  0  0
   14.4286    3.9253   28.2408 H   0  0  0  0  0
   15.7357    5.7756   26.8483 H   0  0  0  0  0
   16.9277    4.2223   25.5173 H   0  0  0  0  0
   15.6513    3.9702   24.4211 H   0  0  0  0  0
   14.9445    2.1848   25.7466 H   0  0  0  0  0
   16.1007    2.6164   26.9997 H   0  0  0  0  0
   13.4663    6.1950   28.1187 H   0  0  0  0  0
   11.9025    5.6207   27.4604 H   0  0  0  0  0
   12.3155    8.0692   26.9407 H   0  0  0  0  0
   12.1836    7.0813   25.4602 H   0  0  0  0  0
   14.8007    8.0006   26.7809 H   0  0  0  0  0
   14.1165    8.6509   25.2830 H   0  0  0  0  0
   13.3224    3.6935   24.5044 H   0  0  0  0  0
   11.8657    3.8378   25.5185 H   0  0  0  0  0
   12.4352    5.2360   24.5741 H   0  0  0  0  0
   15.6622    5.7222   23.3938 H   0  0  0  0  0
   15.1196    8.7214   23.2688 H   0  0  0  0  0
   15.0723    9.7544   21.3904 H   0  0  0  0  0
   13.4776    9.2005   20.7055 H   0  0  0  0  0
   14.8555    9.8703   18.8725 H   0  0  0  0  0
   16.1256    6.2826   19.3181 H   0  0  0  0  0
   13.3580    6.3159   20.5752 H   0  0  0  0  0
   14.9287    5.5679   21.2255 H   0  0  0  0  0
   13.6832    8.7696   16.9971 H   0  0  0  0  0
   13.6509    6.8843   16.9032 H   0  0  0  0  0
   14.7021    4.4715   18.8753 H   0  0  0  0  0
   16.9911    8.8739   18.6047 H   0  0  0  0  0
  1  2  1  0  0  0
  1  6  1  0  0  0
  1  7  1  0  0  0
  1 11  1  0  0  0
  2  3  1  0  0  0
  3  4  1  0  0  0
  3  8  1  0  0  0
  4  5  1  0  0  0
  5  6  1  0  0  0
  5  9  1  0  0  0
  7 10  1  0  0  0
  8 10  1  0  0  0
  9 10  1  0  0  0
 11 12  1  0  0  0
 11 13  1  0  0  0
 12 14  3  0  0  0
 14 15  1  0  0  0
 15 16  1  0  0  0
 16 17  1  0  0  0
 16 18  1  0  0  0
 18 19  1  0  0  0
 18 22  1  0  0  0
 19 20  1  0  0  0
 19 23  1  0  0  0
 19 27  1  0  0  0
 20 21  1  0  0  0
 20 26  1  0  0  0
 21 22  1  0  0  0
 23 24  1  0  0  0
 24 25  1  0  0  0
 25 26  1  0  0  0
 26 28  2  0  0  0
 28 29  1  0  0  0
 29 30  2  0  0  0
 30 31  1  0  0  0
 30 35  1  0  0  0
 31 32  1  0  0  0
 32 33  1  0  0  0
 32 38  1  0  0  0
 33 34  1  0  0  0
 33 36  2  0  0  0
 34 35  1  0  0  0
 34 37  1  0  0  0
  2 39  1  0  0  0
  2 40  1  0  0  0
  3 41  1  0  0  0
  4 42  1  0  0  0
  4 43  1  0  0  0
  5 44  1  0  0  0
  6 45  1  0  0  0
  6 46  1  0  0  0
  7 47  1  0  0  0
  7 48  1  0  0  0
  8 49  1  0  0  0
  8 50  1  0  0  0
  9 51  1  0  0  0
  9 52  1  0  0  0
 10 53  1  0  0  0
 11 54  1  0  0  0
 13 55  1  0  0  0
 15 56  1  0  0  0
 15 57  1  0  0  0
 16 58  1  0  0  0
 17 59  1  0  0  0
 17 60  1  0  0  0
 17 61  1  0  0  0
 18 62  1  0  0  0
 20 63  1  0  0  0
 21 64  1  0  0  0
 21 65  1  0  0  0
 22 66  1  0  0  0
 22 67  1  0  0  0
 23 68  1  0  0  0
 23 69  1  0  0  0
 24 70  1  0  0  0
 24 71  1  0  0  0
 25 72  1  0  0  0
 25 73  1  0  0  0
 27 74  1  0  0  0
 27 75  1  0  0  0
 27 76  1  0  0  0
 28 77  1  0  0  0
 29 78  1  0  0  0
 31 79  1  0  0  0
 31 80  1  0  0  0
 32 81  1  0  0  0
 34 82  1  0  0  0
 35 83  1  0  0  0
 35 84  1  0  0  0
 36 85  1  0  0  0
 36 86  1  0  0  0
 37 87  1  0  0  0
 38 88  1  0  0  0
M  END
$$$$
