### 
### Created by X-TOOL on Wed Jan  1 15:39:35 2020
### 

@<TRIPOS>MOLECULE
5ocj_ligand
   36    35     1     0     0
SMALL
GAST_HUCK


@<TRIPOS>ATOM
      1 C10         0.4810  -23.6930  -24.2650 C.3       1 9SW        -0.0356
      2 C13        -0.0830  -21.1500  -25.4350 C.2       1 9SW         0.2581
      3 C15        -0.2680  -20.4510  -19.1630 C.3       1 9SW         0.0690
      4 C03         1.0020  -23.0150  -20.9750 C.2       1 9SW         0.0032
      5 C08         0.6670  -22.4820  -23.3350 C.3       1 9SW         0.0318
      6 C09         0.1300  -21.0750  -23.9250 C.3       1 9SW         0.1471
      7 C11         0.0630  -22.7940  -21.9590 C.2       1 9SW        -0.0505
      8 C12        -1.1590  -20.5720  -23.2700 C.2       1 9SW         0.1283
      9 C14        -1.1550  -19.3260  -22.4240 C.3       1 9SW         0.0124
     10 C16         0.2880  -19.7130  -27.2540 C.3       1 9SW         0.0659
     11 C18         0.8880  -25.0430  -23.6430 C.3       1 9SW        -0.0623
     12 O02         0.8200  -20.3750  -26.1170 O.3       1 9SW        -0.2779
     13 O04        -2.2200  -21.1530  -23.4270 O.2       1 9SW        -0.3878
     14 O05        -0.4770  -21.8320  -19.1200 O.3       1 9SW        -0.2888
     15 O06        -0.9540  -21.7910  -25.9710 O.2       1 9SW        -0.3662
     16 O07         2.0800  -22.1850  -18.6570 O.co2     1 9SW        -0.6262
     17 O17         0.5170  -24.2100  -18.6010 O.co2     1 9SW        -0.6262
     18 P01         0.7600  -22.7920  -19.2170 P.3       1 9SW         0.1191
     19 H1          1.0912  -23.5316  -25.1659 H         1 9SW         0.0298
     20 H2         -0.5808  -23.7504  -24.5467 H         1 9SW         0.0298
     21 H3         -1.2342  -19.9313  -19.0833 H         1 9SW         0.0583
     22 H4          0.2152  -20.1827  -20.1140 H         1 9SW         0.0583
     23 H5          0.3794  -20.1519  -18.3255 H         1 9SW         0.0583
     24 H6          1.9839  -23.3577  -21.2982 H         1 9SW         0.0510
     25 H7          1.7509  -22.3593  -23.1936 H         1 9SW         0.0567
     26 H8          0.9122  -20.3267  -23.7294 H         1 9SW         0.0815
     27 H9         -1.0098  -22.8368  -21.7769 H         1 9SW         0.0823
     28 H10        -2.1708  -19.1352  -22.0476 H         1 9SW         0.0460
     29 H11        -0.8226  -18.4714  -23.0315 H         1 9SW         0.0460
     30 H12        -0.4688  -19.4614  -21.5750 H         1 9SW         0.0460
     31 H13         1.0785  -19.1186  -27.7354 H         1 9SW         0.0577
     32 H14        -0.5313  -19.0488  -26.9416 H         1 9SW         0.0577
     33 H15        -0.0954  -20.4584  -27.9663 H         1 9SW         0.0577
     34 H16         0.7226  -25.8482  -24.3740 H         1 9SW         0.0232
     35 H17         0.2800  -25.2316  -22.7460 H         1 9SW         0.0232
     36 H18         1.9519  -25.0129  -23.3652 H         1 9SW         0.0232
@<TRIPOS>BOND
     1    5    1 1  
     2    1   11 1  
     3    6    2 1  
     4    2   12 1  
     5    2   15 2  
     6   14    3 1  
     7    4    7 2  
     8   18    4 1  
     9    5    6 1  
    10    7    5 1  
    11    6    8 1  
    12    8    9 1  
    13    8   13 2  
    14   12   10 1  
    15   14   18 1  
    16   18   16 ar 
    17   18   17 ar 
    18    1   19 1  
    19    1   20 1  
    20    3   21 1  
    21    3   22 1  
    22    3   23 1  
    23    4   24 1  
    24    5   25 1  
    25    6   26 1  
    26    7   27 1  
    27    9   28 1  
    28    9   29 1  
    29    9   30 1  
    30   10   31 1  
    31   10   32 1  
    32   10   33 1  
    33   11   34 1  
    34   11   35 1  
    35   11   36 1  
@<TRIPOS>SUBSTRUCTURE
     1 9SW         1

