5ocj_ligand
  -I-interpret- 

 37 36  0  0  0  0  0  0  0  0999 V2000
    0.4810  -23.6930  -24.2650 C   0  0  0  0  0
   -0.0830  -21.1500  -25.4350 C   0  0  0  0  0
   -0.2680  -20.4510  -19.1630 C   0  0  0  0  0
    1.0020  -23.0150  -20.9750 C   0  0  0  0  0
    0.6670  -22.4820  -23.3350 C   0  0  0  0  0
    0.1300  -21.0750  -23.9250 C   0  0  0  0  0
    0.0630  -22.7940  -21.9590 C   0  0  0  0  0
   -1.1590  -20.5720  -23.2700 C   0  0  0  0  0
   -1.1550  -19.3260  -22.4240 C   0  0  0  0  0
    0.2880  -19.7130  -27.2540 C   0  0  0  0  0
    0.8880  -25.0430  -23.6430 C   0  0  0  0  0
    0.8200  -20.3750  -26.1170 O   0  0  0  0  0
   -2.2200  -21.1530  -23.4270 O   0  0  0  0  0
   -0.4770  -21.8320  -19.1200 O   0  0  0  0  0
   -0.9540  -21.7910  -25.9710 O   0  0  0  0  0
    2.0800  -22.1850  -18.6570 O   0  0  0  0  0
    0.5170  -24.2100  -18.6010 O   0  0  0  0  0
    0.7600  -22.7920  -19.2170 P   0  0  0  0  0
    1.1241  -23.5331  -25.1304 H   0  0  0  0  0
   -0.5818  -23.7563  -24.4986 H   0  0  0  0  0
    0.3736  -20.1559  -18.3327 H   0  0  0  0  0
    0.2109  -20.1865  -20.1058 H   0  0  0  0  0
   -1.2260  -19.9372  -19.0839 H   0  0  0  0  0
    1.9848  -23.3580  -21.2985 H   0  0  0  0  0
    1.7422  -22.3287  -23.2425 H   0  0  0  0  0
    0.9171  -20.3595  -23.6870 H   0  0  0  0  0
   -1.0108  -22.8369  -21.7767 H   0  0  0  0  0
   -1.8218  -18.5859  -22.8664 H   0  0  0  0  0
   -1.4971  -19.5701  -21.4183 H   0  0  0  0  0
   -0.1432  -18.9234  -22.3772 H   0  0  0  0  0
   -0.0916  -20.4526  -27.9589 H   0  0  0  0  0
   -0.5237  -19.0553  -26.9432 H   0  0  0  0  0
    1.0722  -19.1244  -27.7301 H   0  0  0  0  0
    1.9423  -25.0118  -23.3681 H   0  0  0  0  0
    0.2849  -25.2287  -22.7543 H   0  0  0  0  0
    0.7237  -25.8400  -24.3682 H   0  0  0  0  0
   -0.2984  -24.5749  -18.9525 H   0  0  0  0  0
  5  1  1  0  0  0
  1 11  1  0  0  0
  6  2  1  0  0  0
  2 12  1  0  0  0
  2 15  2  0  0  0
 14  3  1  0  0  0
  4  7  2  0  0  0
 18  4  1  0  0  0
  5  6  1  0  0  0
  7  5  1  0  0  0
  6  8  1  0  0  0
  8  9  1  0  0  0
  8 13  2  0  0  0
 12 10  1  0  0  0
 14 18  1  0  0  0
 18 16  2  0  0  0
 18 17  1  0  0  0
  1 19  1  0  0  0
  1 20  1  0  0  0
  3 21  1  0  0  0
  3 22  1  0  0  0
  3 23  1  0  0  0
  4 24  1  0  0  0
  5 25  1  0  0  0
  6 26  1  0  0  0
  7 27  1  0  0  0
  9 28  1  0  0  0
  9 29  1  0  0  0
  9 30  1  0  0  0
 10 31  1  0  0  0
 10 32  1  0  0  0
 10 33  1  0  0  0
 11 34  1  0  0  0
 11 35  1  0  0  0
 11 36  1  0  0  0
 17 37  1  0  0  0
M  END
$$$$
