5f3c_ligand
  -I-interpret- 

 48 51  0  0  0  0  0  0  0  0999 V2000
   -6.4820    7.0650  -22.3520 C   0  0  0  0  0
   -1.5290    9.6990  -16.9850 N   0  0  0  0  0
   -7.7970    7.8510  -25.8090 C   0  0  0  0  0
   -7.6060    9.0050  -26.5510 C   0  0  0  0  0
   -8.4760    9.3530  -27.5680 C   0  0  0  0  0
   -9.5320    8.5280  -27.8240 C   0  0  0  0  0
   -9.7610    7.3790  -27.1250 C   0  0  0  0  0
   -6.8440    7.4800  -24.6980 C   0  0  0  0  0
   -8.8820    7.0440  -26.1110 C   0  0  0  0  0
   -7.1070    7.0050  -20.9680 C   0  0  0  0  0
   -4.6780    6.0470  -18.3850 N   0  0  0  0  0
   -6.1960    6.3690  -19.9480 C   0  0  0  0  0
   -5.3100    7.0080  -19.0910 C   0  0  0  0  0
   -5.1110    4.7990  -18.7230 N   0  0  0  0  0
   -6.0190    5.0030  -19.6600 C   0  0  0  0  0
   -3.6420    6.2070  -17.4350 C   0  0  0  0  0
   -2.6360    9.6480  -17.7600 C   0  0  0  0  0
   -2.9510    7.4320  -17.3180 C   0  0  0  0  0
   -1.0450    8.6240  -16.3130 C   0  0  0  0  0
   -3.3650    8.5760  -17.9670 N   0  0  0  0  0
   -1.8280    7.3970  -16.4820 C   0  0  0  0  0
   -1.4770    6.2280  -15.8100 C   0  0  0  0  0
   -0.0160    8.6770  -15.6480 O   0  0  0  0  0
   -2.2700    5.1130  -15.9900 C   0  0  0  0  0
   -3.3450    5.0770  -16.7860 N   0  0  0  0  0
   -7.4100    7.5800  -23.3620 N   0  3  0  0  0
   -7.7830    8.9620  -23.0610 C   0  0  0  0  0
  -10.3980    8.8690  -28.8140 F   0  0  0  0  0
   -6.1996    6.0520  -22.6387 H   0  0  0  0  0
   -5.6257    7.7379  -22.3065 H   0  0  0  0  0
   -1.0346   10.5873  -16.9016 H   0  0  0  0  0
   -6.7555    9.6497  -26.3295 H   0  0  0  0  0
   -8.3222   10.2620  -28.1495 H   0  0  0  0  0
  -10.6139    6.7420  -27.3594 H   0  0  0  0  0
   -6.0099    8.1801  -24.7451 H   0  0  0  0  0
   -6.5660    6.4371  -24.8502 H   0  0  0  0  0
   -9.0456    6.1300  -25.5400 H   0  0  0  0  0
   -8.0112    6.3999  -21.0340 H   0  0  0  0  0
   -7.3094    8.0267  -20.6465 H   0  0  0  0  0
   -5.1542    8.0833  -19.0047 H   0  0  0  0  0
   -6.5696    4.2030  -20.1548 H   0  0  0  0  0
   -2.9476   10.5696  -18.2516 H   0  0  0  0  0
   -0.6018    6.1951  -15.1612 H   0  0  0  0  0
   -2.0039    4.2045  -15.4498 H   0  0  0  0  0
   -8.2519    7.0047  -23.3363 H   0  0  0  0  0
   -6.8985    9.5964  -23.1181 H   0  0  0  0  0
   -8.5235    9.3029  -23.7846 H   0  0  0  0  0
   -8.2040    9.0129  -22.0569 H   0  0  0  0  0
 10  1  1  0  0  0
  1 26  1  0  0  0
 17  2  1  0  0  0
  2 19  1  0  0  0
  3  4  4  0  0  0
  8  3  1  0  0  0
  3  9  4  0  0  0
  4  5  4  0  0  0
  5  6  4  0  0  0
  7  6  4  0  0  0
  6 28  1  0  0  0
  9  7  4  0  0  0
 26  8  1  0  0  0
 12 10  1  0  0  0
 11 13  4  0  0  0
 11 14  4  0  0  0
 16 11  1  0  0  0
 13 12  4  0  0  0
 15 12  4  0  0  0
 14 15  4  0  0  0
 18 16  4  0  0  0
 16 25  4  0  0  0
 20 17  2  0  0  0
 18 20  1  0  0  0
 18 21  4  0  0  0
 19 21  1  0  0  0
 19 23  2  0  0  0
 21 22  4  0  0  0
 22 24  4  0  0  0
 24 25  4  0  0  0
 26 27  1  0  0  0
  1 29  1  0  0  0
  1 30  1  0  0  0
  2 31  1  0  0  0
  4 32  1  0  0  0
  5 33  1  0  0  0
  7 34  1  0  0  0
  8 35  1  0  0  0
  8 36  1  0  0  0
  9 37  1  0  0  0
 10 38  1  0  0  0
 10 39  1  0  0  0
 13 40  1  0  0  0
 15 41  1  0  0  0
 17 42  1  0  0  0
 22 43  1  0  0  0
 24 44  1  0  0  0
 26 45  1  0  0  0
 27 46  1  0  0  0
 27 47  1  0  0  0
 27 48  1  0  0  0
M  END
$$$$
