5zyk_ligand
  -I-interpret- 

 61 65  0  0  0  0  0  0  0  0999 V2000
  -37.2000    4.0250   -8.1470 C   0  0  0  0  0
  -29.0100    4.9310   -4.7560 C   0  0  0  0  0
  -25.2030    5.3720   -7.4200 C   0  0  0  0  0
  -25.4290    5.3010   -5.8750 C   0  0  0  0  0
  -28.3100    5.7690   -5.6060 C   0  0  0  0  0
  -32.2320    4.4210   -6.6100 C   0  0  0  0  0
  -33.0910    3.9230   -5.5990 C   0  0  0  0  0
  -35.2230    2.8750   -4.7080 C   0  0  0  0  0
  -34.3830    3.4100   -5.8410 C   0  0  0  0  0
  -32.6690    0.9110   -4.9610 N   0  0  0  0  0
  -38.3510    3.1870   -8.7810 C   0  0  0  0  0
  -34.8960    3.4510   -7.1760 C   0  0  0  0  0
  -34.0210    3.9300   -8.1990 C   0  0  0  0  0
  -30.9140    4.9030   -6.2530 C   0  0  0  0  0
  -26.5780    6.2220   -3.6600 O   0  0  0  0  0
  -26.7130    6.3690   -5.1590 S   0  0  0  0  0
  -26.5900    7.6090   -5.8370 O   0  0  0  0  0
  -26.2410    4.5860   -7.9680 O   0  0  0  0  0
  -28.8750    6.1710   -6.8590 C   0  0  0  0  0
  -30.1960    5.6800   -7.1260 C   0  0  0  0  0
  -30.2950    4.4740   -5.0450 C   0  0  0  0  0
  -32.7330    4.4650   -7.9560 C   0  0  0  0  0
  -36.3090    2.9540   -7.5070 C   0  0  0  0  0
  -36.3710    1.7420   -8.4890 C   0  0  0  0  0
  -37.8500    1.7780   -9.0040 C   0  0  0  0  0
  -34.6110    1.8850   -3.7130 C   0  0  0  0  0
  -35.7400    1.4590   -4.6250 C   0  0  0  0  0
  -33.1620    1.4090   -3.7920 C   0  0  0  0  0
  -32.2630    1.5810   -2.6950 C   0  0  0  0  0
  -30.9140    1.2090   -2.7760 C   0  0  0  0  0
  -30.3780    0.6940   -3.9920 C   0  0  0  0  0
  -31.3260    0.6240   -5.0290 C   0  0  0  0  0
  -37.5591    4.7616   -7.4283 H   0  0  0  0  0
  -36.6694    4.6359   -8.8773 H   0  0  0  0  0
  -28.5387    4.6162   -3.8249 H   0  0  0  0  0
  -24.2179    5.0028   -7.7053 H   0  0  0  0  0
  -25.2295    6.3972   -7.7892 H   0  0  0  0  0
  -24.4917    5.6318   -5.4277 H   0  0  0  0  0
  -25.7537    4.2800   -5.6744 H   0  0  0  0  0
  -32.7312    3.9371   -4.5702 H   0  0  0  0  0
  -35.7097    3.8496   -4.6713 H   0  0  0  0  0
  -38.6546    3.6290   -9.7300 H   0  0  0  0  0
  -39.2135    3.1747   -8.1147 H   0  0  0  0  0
  -34.3669    3.8804   -9.2315 H   0  0  0  0  0
  -26.1668    4.5822   -8.9251 H   0  0  0  0  0
  -28.3375    6.8071   -7.5623 H   0  0  0  0  0
  -30.6566    5.9397   -8.0792 H   0  0  0  0  0
  -30.8144    3.8029   -4.3609 H   0  0  0  0  0
  -32.1409    4.8961   -8.7633 H   0  0  0  0  0
  -36.6659    2.6613   -6.5195 H   0  0  0  0  0
  -36.1144    0.7974   -8.0095 H   0  0  0  0  0
  -35.6418    1.8154   -9.2958 H   0  0  0  0  0
  -37.9015    1.5090  -10.0590 H   0  0  0  0  0
  -38.4665    1.0563   -8.4681 H   0  0  0  0  0
  -34.4481    1.8411   -2.6361 H   0  0  0  0  0
  -35.9662    0.6379   -5.3052 H   0  0  0  0  0
  -36.7007    0.9508   -4.5421 H   0  0  0  0  0
  -32.6373    2.0144   -1.7675 H   0  0  0  0  0
  -30.2703    1.3144   -1.9027 H   0  0  0  0  0
  -29.3389    0.3856   -4.1069 H   0  0  0  0  0
  -30.9516    0.3044   -6.0015 H   0  0  0  0  0
  1 11  1  0  0  0
 23  1  1  0  0  0
  2  5  4  0  0  0
 21  2  4  0  0  0
  4  3  1  0  0  0
  3 18  1  0  0  0
 16  4  1  0  0  0
  5 16  1  0  0  0
 19  5  4  0  0  0
  7  6  4  0  0  0
  6 14  1  0  0  0
  6 22  4  0  0  0
  9  7  4  0  0  0
  8  9  1  0  0  0
 26  8  1  0  0  0
 27  8  1  0  0  0
  9 12  4  0  0  0
 28 10  4  0  0  0
 10 32  4  0  0  0
 25 11  1  0  0  0
 12 13  4  0  0  0
 12 23  1  0  0  0
 13 22  4  0  0  0
 14 20  4  0  0  0
 14 21  4  0  0  0
 16 15  2  0  0  0
 16 17  2  0  0  0
 20 19  4  0  0  0
 23 24  1  0  0  0
 24 25  1  0  0  0
 26 27  1  0  0  0
 26 28  1  0  0  0
 28 29  4  0  0  0
 29 30  4  0  0  0
 30 31  4  0  0  0
 31 32  4  0  0  0
  1 33  1  0  0  0
  1 34  1  0  0  0
  2 35  1  0  0  0
  3 36  1  0  0  0
  3 37  1  0  0  0
  4 38  1  0  0  0
  4 39  1  0  0  0
  7 40  1  0  0  0
  8 41  1  0  0  0
 11 42  1  0  0  0
 11 43  1  0  0  0
 13 44  1  0  0  0
 18 45  1  0  0  0
 19 46  1  0  0  0
 20 47  1  0  0  0
 21 48  1  0  0  0
 22 49  1  0  0  0
 23 50  1  0  0  0
 24 51  1  0  0  0
 24 52  1  0  0  0
 25 53  1  0  0  0
 25 54  1  0  0  0
 26 55  1  0  0  0
 27 56  1  0  0  0
 27 57  1  0  0  0
 29 58  1  0  0  0
 30 59  1  0  0  0
 31 60  1  0  0  0
 32 61  1  0  0  0
M  END
$$$$
