1c5t_ligand
  -I-interpret- 

 19 20  0  0  0  0  0  0  0  0999 V2000
   46.0350   18.3120   54.2970 C   0  0  0  0  0
   45.6910   19.3400   53.4410 C   0  0  0  0  0
   46.7870   18.6030   55.3100 N   0  0  0  0  0
   45.5950   17.1170   54.0300 N   0  0  0  0  0
   44.8720   18.9810   51.8860 S   0  0  0  0  0
   44.7830   20.6750   51.4060 C   0  0  0  0  0
   45.3740   21.3960   52.4370 C   0  0  0  0  0
   45.8550   20.7030   53.5260 C   0  0  0  0  0
   44.2810   21.1930   50.3030 N   0  0  0  0  0
   44.3460   22.5100   50.1950 C   0  0  0  0  0
   44.9170   23.3330   51.1690 C   0  0  0  0  0
   45.4390   22.7660   52.3180 C   0  0  0  0  0
   47.1026   19.5625   55.4519 H   0  0  0  0  0
   45.8398   16.3357   54.6383 H   0  0  0  0  0
   45.0052   16.9615   53.2124 H   0  0  0  0  0
   46.3242   21.1917   54.3799 H   0  0  0  0  0
   43.9331   22.9767   49.3007 H   0  0  0  0  0
   44.9509   24.4129   51.0248 H   0  0  0  0  0
   45.8850   23.3809   53.0997 H   0  0  0  0  0
  1  4  1  0  0  0
  1  3  2  0  0  0
  1  2  1  0  0  0
  2  8  4  0  0  0
  2  5  4  0  0  0
  5  6  4  0  0  0
  6  9  4  0  0  0
  6  7  4  0  0  0
  7 12  4  0  0  0
  7  8  4  0  0  0
 12 11  4  0  0  0
 11 10  4  0  0  0
 10  9  4  0  0  0
  3 13  1  0  0  0
  4 14  1  0  0  0
  4 15  1  0  0  0
  8 16  1  0  0  0
 10 17  1  0  0  0
 11 18  1  0  0  0
 12 19  1  0  0  0
M  END
$$$$
