2yiw_ligand
  -I-interpret- 

 72 76  0  0  0  0  0  0  0  0999 V2000
   -2.6770   -1.1470   25.0570 C   0  0  0  0  0
   -1.3830   -1.7130   24.5010 C   0  0  0  0  0
   -0.9370   -2.6450   25.6400 C   0  0  0  0  0
   -1.6540   -2.4960   23.2180 C   0  0  0  0  0
   -1.5330   -3.8040   23.0350 N   0  0  0  0  0
   -1.8140   -4.1260   21.8200 N   0  0  0  0  0
   -2.1250   -3.0540   21.1500 C   0  0  0  0  0
   -2.4840   -2.8420   19.8000 C   0  0  0  0  0
   -2.7370   -1.5210   19.3970 C   0  0  0  0  0
   -2.6330   -0.4500   20.2920 C   0  0  0  0  0
   -2.9340    1.2000   19.8170 S   0  0  0  0  0
   -4.0860    0.9890   18.4730 C   0  0  0  0  0
   -5.3060    0.2330   18.5950 C   0  0  0  0  0
   -6.1450    0.0570   17.5230 C   0  0  0  0  0
   -5.8020    0.6300   16.3000 C   0  0  0  0  0
   -4.6510    1.4270   16.1550 C   0  0  0  0  0
   -3.8050    1.5850   17.2370 C   0  0  0  0  0
   -2.5320    2.3300   17.0920 C   0  0  0  0  0
   -2.3170    3.1240   15.8490 N   0  0  0  0  0
   -1.2080    2.8960   15.1390 C   0  0  0  0  0
   -0.2930    2.0510   15.4610 O   0  0  0  0  0
   -0.9340    3.7040   14.1640 N   0  0  0  0  0
    0.1940    3.6330   13.3190 C   0  0  0  0  0
    1.0930    2.6260   13.0600 C   0  0  0  0  0
    2.0640    3.1380   12.1530 C   0  0  0  0  0
    1.7550    4.3570   11.9740 N   0  0  0  0  0
    0.5570    4.6740   12.5920 N   0  0  0  0  0
    0.0260    5.9980   12.6040 C   0  0  0  0  0
   -0.0110    6.7690   11.4050 C   0  0  0  0  0
   -0.5200    8.0700   11.4390 C   0  0  0  0  0
   -0.9460    8.6100   12.6350 C   0  0  0  0  0
   -0.9140    7.8790   13.8190 C   0  0  0  0  0
   -0.3960    6.5720   13.7820 C   0  0  0  0  0
    3.2540    2.4380   11.5470 C   0  0  0  0  0
    2.7650    1.4970   10.4460 C   0  0  0  0  0
    4.2970    3.4070   10.9790 C   0  0  0  0  0
    3.9230    1.5920   12.5560 C   0  0  0  0  0
   -2.2920   -0.6770   21.5810 C   0  0  0  0  0
   -2.0250   -1.9860   22.0160 N   0  0  0  0  0
   -3.1263   -0.4802   24.3210 H   0  0  0  0  0
   -3.3645   -1.9638   25.2767 H   0  0  0  0  0
   -2.4662   -0.5920   25.9711 H   0  0  0  0  0
   -0.6390   -0.9630   24.2326 H   0  0  0  0  0
   -1.7211   -3.3758   25.8379 H   0  0  0  0  0
   -0.0225   -3.1614   25.3482 H   0  0  0  0  0
   -0.7524   -2.0561   26.5384 H   0  0  0  0  0
   -2.5616   -3.6723   19.0981 H   0  0  0  0  0
   -3.0210   -1.3250   18.3631 H   0  0  0  0  0
   -5.5679   -0.2077   19.5569 H   0  0  0  0  0
   -7.0634   -0.5208   17.6266 H   0  0  0  0  0
   -6.4410    0.4567   15.4341 H   0  0  0  0  0
   -4.4300    1.9122   15.2043 H   0  0  0  0  0
   -1.7527    1.5680   17.0843 H   0  0  0  0  0
   -2.5323    3.0593   17.9021 H   0  0  0  0  0
   -2.9974    3.8220   15.5486 H   0  0  0  0  0
   -1.5948    4.4616   13.9912 H   0  0  0  0  0
    1.0673    1.6180   13.4740 H   0  0  0  0  0
    0.3550    6.3468   10.4691 H   0  0  0  0  0
   -0.5803    8.6569   10.5225 H   0  0  0  0  0
   -1.3169    9.6348   12.6531 H   0  0  0  0  0
   -1.2810    8.3085   14.7511 H   0  0  0  0  0
   -0.3271    6.0003   14.7075 H   0  0  0  0  0
    2.0826    0.7627   10.8740 H   0  0  0  0  0
    2.2462    2.0741    9.6805 H   0  0  0  0  0
    3.6187    0.9857   10.0012 H   0  0  0  0  0
    3.8390    4.0157   10.1993 H   0  0  0  0  0
    4.6640    4.0524   11.7770 H   0  0  0  0  0
    5.1271    2.8396   10.5581 H   0  0  0  0  0
    4.2608    2.2149   13.3842 H   0  0  0  0  0
    3.2207    0.8444   12.9248 H   0  0  0  0  0
    4.7795    1.0945   12.1010 H   0  0  0  0  0
   -2.2244    0.1550   22.2819 H   0  0  0  0  0
  1  2  1  0  0  0
  2  3  1  0  0  0
  2  4  1  0  0  0
  4  5  4  0  0  0
  4 39  4  0  0  0
  5  6  4  0  0  0
  6  7  4  0  0  0
  7  8  4  0  0  0
  7 39  4  0  0  0
  8  9  4  0  0  0
  9 10  4  0  0  0
 10 11  1  0  0  0
 10 38  4  0  0  0
 11 12  1  0  0  0
 12 13  4  0  0  0
 12 17  4  0  0  0
 13 14  4  0  0  0
 14 15  4  0  0  0
 15 16  4  0  0  0
 16 17  4  0  0  0
 17 18  1  0  0  0
 18 19  1  0  0  0
 19 20  1  0  0  0
 20 21  2  0  0  0
 20 22  1  0  0  0
 22 23  1  0  0  0
 23 24  4  0  0  0
 23 27  4  0  0  0
 24 25  4  0  0  0
 25 26  4  0  0  0
 25 34  1  0  0  0
 26 27  4  0  0  0
 27 28  1  0  0  0
 28 29  4  0  0  0
 28 33  4  0  0  0
 29 30  4  0  0  0
 30 31  4  0  0  0
 31 32  4  0  0  0
 32 33  4  0  0  0
 34 35  1  0  0  0
 34 36  1  0  0  0
 34 37  1  0  0  0
 38 39  4  0  0  0
  1 40  1  0  0  0
  1 41  1  0  0  0
  1 42  1  0  0  0
  2 43  1  0  0  0
  3 44  1  0  0  0
  3 45  1  0  0  0
  3 46  1  0  0  0
  8 47  1  0  0  0
  9 48  1  0  0  0
 13 49  1  0  0  0
 14 50  1  0  0  0
 15 51  1  0  0  0
 16 52  1  0  0  0
 18 53  1  0  0  0
 18 54  1  0  0  0
 19 55  1  0  0  0
 22 56  1  0  0  0
 24 57  1  0  0  0
 29 58  1  0  0  0
 30 59  1  0  0  0
 31 60  1  0  0  0
 32 61  1  0  0  0
 33 62  1  0  0  0
 35 63  1  0  0  0
 35 64  1  0  0  0
 35 65  1  0  0  0
 36 66  1  0  0  0
 36 67  1  0  0  0
 36 68  1  0  0  0
 37 69  1  0  0  0
 37 70  1  0  0  0
 37 71  1  0  0  0
 38 72  1  0  0  0
M  END
$$$$
