6mle_ligand
  -I-interpret- 

 27 26  0  0  0  0  0  0  0  0999 V2000
   -0.0710   -1.2430  -12.2200 N   0  3  0  0  0
    0.1670   -1.9980  -10.9830 C   0  0  0  0  0
   -0.2850   -1.1960   -9.7740 C   0  0  0  0  0
   -0.5390    0.0090   -9.8870 O   0  0  0  0  0
    1.6520   -2.3500  -10.8210 C   0  0  0  0  0
    2.5620   -1.1240  -10.8190 C   0  0  0  0  0
    3.9520   -1.4200  -10.2530 C   0  0  0  0  0
    4.9090   -0.3470  -10.5440 N   0  0  0  0  0
    6.1760   -0.3280  -10.1370 C   0  0  0  0  0
    6.6510   -1.3160   -9.3820 N   0  0  0  0  0
    6.9740    0.6880  -10.4760 N   0  0  0  0  0
   -0.3700   -1.7170   -8.6630 O   0  0  0  0  0
   -1.0644   -1.0250  -12.2981 H   0  0  0  0  0
    0.4676   -0.3771  -12.1974 H   0  0  0  0  0
    0.2191   -1.8044  -13.0207 H   0  0  0  0  0
   -0.4098   -2.9204  -11.0498 H   0  0  0  0  0
   -0.4311    0.2730  -10.8036 H   0  0  0  0  0
    1.9386   -2.9736  -11.6678 H   0  0  0  0  0
    1.7704   -2.8517   -9.8606 H   0  0  0  0  0
    2.0990   -0.3651  -10.1884 H   0  0  0  0  0
    2.6843   -0.7968  -11.8515 H   0  0  0  0  0
    4.3186   -2.3361  -10.7161 H   0  0  0  0  0
    3.8647   -1.5121   -9.1704 H   0  0  0  0  0
    4.5791    0.4426  -11.0991 H   0  0  0  0  0
    6.0435   -2.0903   -9.1139 H   0  0  0  0  0
    7.9425    0.7043  -10.1565 H   0  0  0  0  0
    6.6149    1.4475  -11.0544 H   0  0  0  0  0
  1  2  1  0  0  0
  2  3  1  0  0  0
  2  5  1  0  0  0
  3  4  1  0  0  0
  3 12  2  0  0  0
  5  6  1  0  0  0
  6  7  1  0  0  0
  7  8  1  0  0  0
  8  9  1  0  0  0
  9 10  2  0  0  0
  9 11  1  0  0  0
  1 13  1  0  0  0
  1 14  1  0  0  0
  1 15  1  0  0  0
  2 16  1  0  0  0
  4 17  1  0  0  0
  5 18  1  0  0  0
  5 19  1  0  0  0
  6 20  1  0  0  0
  6 21  1  0  0  0
  7 22  1  0  0  0
  7 23  1  0  0  0
  8 24  1  0  0  0
 10 25  1  0  0  0
 11 26  1  0  0  0
 11 27  1  0  0  0
M  END
$$$$
