3qlm_ligand
  -I-interpret- 

 50 49  0  0  0  0  0  0  0  0999 V2000
  -30.8270   17.1690  -12.8580 C   0  0  0  0  0
  -30.8180   15.9720  -13.2610 O   0  0  0  0  0
  -29.8330   17.9370  -12.7330 O   0  0  0  0  0
  -32.1850   17.7510  -12.4930 C   0  0  0  0  0
  -32.5680   17.3070  -11.1040 C   0  0  0  0  0
  -33.0890   18.5130  -10.3500 C   0  0  0  0  0
  -32.2670   18.7500   -9.0620 C   0  0  0  0  0
  -32.6850   17.7560   -7.9530 C   0  0  0  0  0
  -33.9560   18.2000   -7.2040 C   0  0  0  0  0
  -35.1320   17.1750   -7.2810 C   0  0  0  0  0
  -36.0860   17.2120   -8.5370 C   0  0  0  0  0
  -36.7300   18.5670   -8.8890 C   0  0  0  0  0
  -38.2380   18.4120   -8.9770 C   0  0  0  0  0
  -38.8060   17.6600   -7.7780 C   0  0  0  0  0
  -38.0720   17.9210   -6.4440 C   0  0  0  0  0
  -37.1820   19.1790   -6.4310 C   0  0  0  0  0
  -35.9150   18.9940   -5.6210 C   0  0  0  0  0
  -36.1760   18.2440   -4.3320 C   0  0  0  0  0
  -31.7140   15.6274  -13.2570 H   0  0  0  0  0
  -32.9326   17.4005  -13.2046 H   0  0  0  0  0
  -32.1331   18.8393  -12.5242 H   0  0  0  0  0
  -31.7015   16.8895  -10.5912 H   0  0  0  0  0
  -33.3365   16.5357  -11.1552 H   0  0  0  0  0
  -34.1289   18.3349  -10.0763 H   0  0  0  0  0
  -33.0034   19.3918  -10.9891 H   0  0  0  0  0
  -32.4492   19.7656   -8.7106 H   0  0  0  0  0
  -31.2108   18.6019   -9.2869 H   0  0  0  0  0
  -31.8720   17.7014   -7.2290 H   0  0  0  0  0
  -32.8933   16.7960   -8.4254 H   0  0  0  0  0
  -34.3006   19.1222   -7.6719 H   0  0  0  0  0
  -33.6899   18.3073   -6.1524 H   0  0  0  0  0
  -35.7720   17.4129   -6.4313 H   0  0  0  0  0
  -34.6536   16.1962   -7.3166 H   0  0  0  0  0
  -36.9132   16.5424   -8.3014 H   0  0  0  0  0
  -35.4624   16.9487   -9.3914 H   0  0  0  0  0
  -36.3461   18.9098   -9.8498 H   0  0  0  0  0
  -36.4869   19.2939   -8.1140 H   0  0  0  0  0
  -38.4702   17.8431   -9.8773 H   0  0  0  0  0
  -38.6823   19.4071   -8.9968 H   0  0  0  0  0
  -38.7032   16.5964   -7.9934 H   0  0  0  0  0
  -39.8327   18.0019   -7.6469 H   0  0  0  0  0
  -37.4161   17.0677   -6.2717 H   0  0  0  0  0
  -38.8395   18.0687   -5.6843 H   0  0  0  0  0
  -37.7539   19.9876   -5.9759 H   0  0  0  0  0
  -36.8921   19.3933   -7.4597 H   0  0  0  0  0
  -35.5217   19.9792   -5.3704 H   0  0  0  0  0
  -35.2089   18.4157   -6.2169 H   0  0  0  0  0
  -36.8912   18.8015   -3.7272 H   0  0  0  0  0
  -36.5826   17.2592   -4.5621 H   0  0  0  0  0
  -35.2415   18.1332   -3.7820 H   0  0  0  0  0
  1  2  1  0  0  0
  1  3  2  0  0  0
  1  4  1  0  0  0
  4  5  1  0  0  0
  5  6  1  0  0  0
  6  7  1  0  0  0
  7  8  1  0  0  0
  8  9  1  0  0  0
  9 10  1  0  0  0
 10 11  1  0  0  0
 11 12  1  0  0  0
 12 13  1  0  0  0
 13 14  1  0  0  0
 14 15  1  0  0  0
 15 16  1  0  0  0
 16 17  1  0  0  0
 17 18  1  0  0  0
  2 19  1  0  0  0
  4 20  1  0  0  0
  4 21  1  0  0  0
  5 22  1  0  0  0
  5 23  1  0  0  0
  6 24  1  0  0  0
  6 25  1  0  0  0
  7 26  1  0  0  0
  7 27  1  0  0  0
  8 28  1  0  0  0
  8 29  1  0  0  0
  9 30  1  0  0  0
  9 31  1  0  0  0
 10 32  1  0  0  0
 10 33  1  0  0  0
 11 34  1  0  0  0
 11 35  1  0  0  0
 12 36  1  0  0  0
 12 37  1  0  0  0
 13 38  1  0  0  0
 13 39  1  0  0  0
 14 40  1  0  0  0
 14 41  1  0  0  0
 15 42  1  0  0  0
 15 43  1  0  0  0
 16 44  1  0  0  0
 16 45  1  0  0  0
 17 46  1  0  0  0
 17 47  1  0  0  0
 18 48  1  0  0  0
 18 49  1  0  0  0
 18 50  1  0  0  0
M  END
$$$$
