3gm0_ligand
  -I-interpret- 

 30 31  0  0  0  0  0  0  0  0999 V2000
   -7.8340   -5.8670   16.5420 O   0  0  0  0  0
   -7.0540   -7.9350   17.1210 O   0  0  0  0  0
   -2.6600   -1.9010   15.5060 N   0  3  0  0  0
   -3.1790   -3.2790   15.6260 C   0  0  0  0  0
   -2.1360   -4.2640   15.0710 C   0  0  0  0  0
   -3.4810   -3.6020   17.1060 C   0  0  0  0  0
   -4.4120   -4.7920   17.2630 C   0  0  0  0  0
   -5.8100   -4.6140   17.1060 C   0  0  0  0  0
   -3.9020   -6.0760   17.5790 C   0  0  0  0  0
   -6.6830   -5.7120   17.2670 C   0  0  0  0  0
   -4.7880   -7.1710   17.7310 C   0  0  0  0  0
   -6.1800   -6.9710   17.5770 C   0  0  0  0  0
   -3.7650   -0.9510   15.3770 C   0  0  0  0  0
   -8.2840   -7.2220   16.8230 C   0  0  0  0  0
   -2.0693   -1.8389   14.6768 H   0  0  0  0  0
   -2.1220   -1.6741   16.3423 H   0  0  0  0  0
   -4.1025   -3.3712   15.0544 H   0  0  0  0  0
   -1.2163   -4.1818   15.6502 H   0  0  0  0  0
   -2.5231   -5.2803   15.1438 H   0  0  0  0  0
   -1.9321   -4.0254   14.0272 H   0  0  0  0  0
   -3.9686   -2.7328   17.5473 H   0  0  0  0  0
   -2.5384   -3.8453   17.5964 H   0  0  0  0  0
   -6.2104   -3.6302   16.8612 H   0  0  0  0  0
   -2.8290   -6.2209   17.7050 H   0  0  0  0  0
   -4.3993   -8.1620   17.9653 H   0  0  0  0  0
   -4.3470   -1.1912   14.4872 H   0  0  0  0  0
   -4.4030   -1.0158   16.2584 H   0  0  0  0  0
   -3.3655    0.0594   15.2896 H   0  0  0  0  0
   -8.8292   -7.6620   15.9880 H   0  0  0  0  0
   -8.9988   -7.2620   17.6449 H   0  0  0  0  0
 10  1  1  0  0  0
  1 14  1  0  0  0
  2 12  1  0  0  0
 14  2  1  0  0  0
  4  3  1  0  0  0
  3 13  1  0  0  0
  4  5  1  0  0  0
  6  4  1  0  0  0
  7  6  1  0  0  0
  8  7  4  0  0  0
  7  9  4  0  0  0
  8 10  4  0  0  0
  9 11  4  0  0  0
 10 12  4  0  0  0
 11 12  4  0  0  0
  3 15  1  0  0  0
  3 16  1  0  0  0
  4 17  1  0  0  0
  5 18  1  0  0  0
  5 19  1  0  0  0
  5 20  1  0  0  0
  6 21  1  0  0  0
  6 22  1  0  0  0
  8 23  1  0  0  0
  9 24  1  0  0  0
 11 25  1  0  0  0
 13 26  1  0  0  0
 13 27  1  0  0  0
 13 28  1  0  0  0
 14 29  1  0  0  0
 14 30  1  0  0  0
M  END
$$$$
