3b92_ligand
  -I-interpret- 

 34 34  0  0  0  0  0  0  0  0999 V2000
   -0.3850   60.4140   86.2240 C   0  0  0  0  0
   -0.6390   59.1310   85.7370 C   0  0  0  0  0
    1.2060   59.3620   84.1460 C   0  0  0  0  0
    1.4570   60.6490   84.6430 C   0  0  0  0  0
    0.6600   61.1780   85.6780 C   0  0  0  0  0
    0.8750   62.5030   86.0710 O   0  0  0  0  0
   -0.2580   63.2200   86.5630 C   0  0  0  0  0
   -3.0410   64.8880   83.7500 C   0  0  0  0  0
   -2.0160   64.2960   84.7230 C   0  0  0  0  0
   -1.2300   63.8330   85.4910 C   0  0  0  0  0
    0.1540   58.6160   84.7000 C   0  0  0  0  0
   -1.6420   56.8910   83.9960 O   0  0  0  0  0
    0.5820   56.8300   82.8780 O   0  0  0  0  0
   -0.2180   57.0230   84.0700 S   0  0  0  0  0
    0.3050   55.9790   85.4240 C   0  0  0  0  0
    1.6920   56.3580   85.9060 C   0  0  0  0  0
    2.7660   55.7160   85.0470 C   0  0  0  0  0
    4.3340   56.5520   85.3070 S   0  0  0  0  0
   -0.9972   60.8232   87.0277 H   0  0  0  0  0
   -1.4472   58.5335   86.1589 H   0  0  0  0  0
    1.8170   58.9483   83.3437 H   0  0  0  0  0
    2.2714   61.2424   84.2274 H   0  0  0  0  0
    0.1430   64.0659   87.1214 H   0  0  0  0  0
   -0.8495   62.4961   87.1236 H   0  0  0  0  0
   -3.8057   64.1425   83.5318 H   0  0  0  0  0
   -3.5049   65.7647   84.2020 H   0  0  0  0  0
   -2.5390   65.1764   82.8265 H   0  0  0  0  0
    0.3278   54.9458   85.0775 H   0  0  0  0  0
   -0.3958   56.1033   86.2495 H   0  0  0  0  0
    1.8116   56.0084   86.9315 H   0  0  0  0  0
    1.7980   57.4410   85.8439 H   0  0  0  0  0
    2.4841   55.7973   83.9972 H   0  0  0  0  0
    2.8675   54.6662   85.3220 H   0  0  0  0  0
    5.2686   55.9832   84.5508 H   0  0  0  0  0
  1  2  4  0  0  0
  5  1  4  0  0  0
  2 11  4  0  0  0
  4  3  4  0  0  0
  3 11  4  0  0  0
  5  4  4  0  0  0
  6  5  1  0  0  0
  7  6  1  0  0  0
 10  7  1  0  0  0
  9  8  1  0  0  0
  9 10  3  0  0  0
 11 14  1  0  0  0
 14 12  2  0  0  0
 14 13  2  0  0  0
 14 15  1  0  0  0
 15 16  1  0  0  0
 16 17  1  0  0  0
 17 18  1  0  0  0
  1 19  1  0  0  0
  2 20  1  0  0  0
  3 21  1  0  0  0
  4 22  1  0  0  0
  7 23  1  0  0  0
  7 24  1  0  0  0
  8 25  1  0  0  0
  8 26  1  0  0  0
  8 27  1  0  0  0
 15 28  1  0  0  0
 15 29  1  0  0  0
 16 30  1  0  0  0
 16 31  1  0  0  0
 17 32  1  0  0  0
 17 33  1  0  0  0
 18 34  1  0  0  0
M  END
$$$$
