5n3v_ligand
  -I-interpret- 

 54 54  0  0  0  0  0  0  0  0999 V2000
   13.8800   40.1420  -11.4850 C   0  0  0  0  0
   15.3740   40.3830  -11.5530 C   0  0  0  0  0
   16.0130   41.1740  -10.6130 C   0  0  0  0  0
   17.3710   41.3960  -10.6910 C   0  0  0  0  0
   18.1170   40.8330  -11.7080 C   0  0  0  0  0
   17.5050   40.0270  -12.6360 C   0  0  0  0  0
   16.1390   39.7990  -12.5690 C   0  0  0  0  0
   10.1270   38.1670   -6.5960 O   0  0  0  0  0
   11.4740   38.5570   -6.0250 P   0  0  0  0  0
   11.2080   39.1480   -4.4890 N   0  0  0  0  0
   10.1000   38.6240   -3.6870 C   0  0  0  0  0
   10.4850   38.7000   -2.2050 C   0  0  0  0  0
    9.4330   38.1540   -1.2500 C   0  0  0  0  0
    9.3080   36.6370   -1.3700 C   0  0  0  0  0
    9.7540   38.5440    0.1830 C   0  0  0  0  0
    8.8390   39.4500   -3.8800 C   0  0  0  0  0
    7.7350   38.9960   -3.8330 O   0  0  0  0  0
   12.4400   37.4080   -6.0970 O   0  0  0  0  0
   12.1770   39.9820   -6.9470 C   0  0  0  0  0
   12.8110   39.5040   -8.1350 N   0  0  0  0  0
   12.9090   40.2410   -9.3180 C   0  0  0  0  0
   13.5450   39.4950  -10.2910 O   0  0  0  0  0
   12.5040   41.3550   -9.4290 O   0  0  0  0  0
    9.0580   40.8330   -4.0400 N   0  0  0  0  0
    7.9910   41.8080   -4.1500 C   0  0  0  0  0
    7.5160   42.1660   -2.8670 N   0  3  0  0  0
   13.5828   39.5140  -12.3249 H   0  0  0  0  0
   13.3632   41.1008  -11.5266 H   0  0  0  0  0
   15.4372   41.6248   -9.8047 H   0  0  0  0  0
   17.8603   42.0210   -9.9440 H   0  0  0  0  0
   19.1874   41.0278  -11.7736 H   0  0  0  0  0
   18.0948   39.5650  -13.4277 H   0  0  0  0  0
   15.6585   39.1617  -13.3114 H   0  0  0  0  0
    9.5280   38.9150   -6.5394 H   0  0  0  0  0
   11.8158   39.8733   -4.1084 H   0  0  0  0  0
    9.9082   37.5983   -4.0021 H   0  0  0  0  0
   10.6177   39.7547   -1.9638 H   0  0  0  0  0
   11.3794   38.0904   -2.0764 H   0  0  0  0  0
    8.4755   38.5953   -1.5267 H   0  0  0  0  0
    9.0206   36.3769   -2.3887 H   0  0  0  0  0
   10.2661   36.1748   -1.1322 H   0  0  0  0  0
    8.5484   36.2802   -0.6744 H   0  0  0  0  0
   10.7267   38.1373    0.4597 H   0  0  0  0  0
    9.7761   39.6306    0.2662 H   0  0  0  0  0
    8.9887   38.1429    0.8475 H   0  0  0  0  0
   12.9077   40.4973   -6.3236 H   0  0  0  0  0
   11.3798   40.6768   -7.2112 H   0  0  0  0  0
   13.2165   38.5682   -8.1184 H   0  0  0  0  0
   10.0211   41.1665   -4.0807 H   0  0  0  0  0
    7.1718   41.3745   -4.7236 H   0  0  0  0  0
    8.3740   42.6987   -4.6480 H   0  0  0  0  0
    6.7668   42.8516   -2.9622 H   0  0  0  0  0
    7.1603   41.3355   -2.3935 H   0  0  0  0  0
    8.2795   42.5682   -2.3231 H   0  0  0  0  0
  1  2  1  0  0  0
 22  1  1  0  0  0
  2  3  4  0  0  0
  2  7  4  0  0  0
  3  4  4  0  0  0
  4  5  4  0  0  0
  6  5  4  0  0  0
  7  6  4  0  0  0
  9  8  1  0  0  0
  9 10  1  0  0  0
  9 18  2  0  0  0
 19  9  1  0  0  0
 10 11  1  0  0  0
 11 12  1  0  0  0
 11 16  1  0  0  0
 12 13  1  0  0  0
 13 14  1  0  0  0
 13 15  1  0  0  0
 16 17  2  0  0  0
 16 24  1  0  0  0
 20 19  1  0  0  0
 21 20  1  0  0  0
 21 22  1  0  0  0
 21 23  2  0  0  0
 24 25  1  0  0  0
 25 26  1  0  0  0
  1 27  1  0  0  0
  1 28  1  0  0  0
  3 29  1  0  0  0
  4 30  1  0  0  0
  5 31  1  0  0  0
  6 32  1  0  0  0
  7 33  1  0  0  0
  8 34  1  0  0  0
 10 35  1  0  0  0
 11 36  1  0  0  0
 12 37  1  0  0  0
 12 38  1  0  0  0
 13 39  1  0  0  0
 14 40  1  0  0  0
 14 41  1  0  0  0
 14 42  1  0  0  0
 15 43  1  0  0  0
 15 44  1  0  0  0
 15 45  1  0  0  0
 19 46  1  0  0  0
 19 47  1  0  0  0
 20 48  1  0  0  0
 24 49  1  0  0  0
 25 50  1  0  0  0
 25 51  1  0  0  0
 26 52  1  0  0  0
 26 53  1  0  0  0
 26 54  1  0  0  0
M  END
$$$$
