### 
### Created by X-TOOL on Mon Sep 10 21:13:30 2018
### 

@<TRIPOS>MOLECULE
5n3v_ligand
   53    53     1     0     0
SMALL
GAST_HUCK


@<TRIPOS>ATOM
      1 C10        13.8800   40.1420  -11.4850 C.3       1 8L5         0.1113
      2 C11        15.3740   40.3830  -11.5530 C.ar      1 8L5        -0.0130
      3 C12        16.0130   41.1740  -10.6130 C.ar      1 8L5        -0.0578
      4 C13        17.3710   41.3960  -10.6910 C.ar      1 8L5        -0.0685
      5 C14        18.1170   40.8330  -11.7080 C.ar      1 8L5        -0.0687
      6 C15        17.5050   40.0270  -12.6360 C.ar      1 8L5        -0.0685
      7 C16        16.1390   39.7990  -12.5690 C.ar      1 8L5        -0.0578
      8 O01        10.1270   38.1670   -6.5960 O.co2     1 8L5        -0.6057
      9 P01        11.4740   38.5570   -6.0250 P.3       1 8L5         0.0870
     10 N01        11.2080   39.1480   -4.4890 N.am      1 8L5        -0.2736
     11 C01        10.1000   38.6240   -3.6870 C.3       1 8L5         0.1230
     12 C02        10.4850   38.7000   -2.2050 C.3       1 8L5        -0.0137
     13 C03         9.4330   38.1540   -1.2500 C.3       1 8L5        -0.0429
     14 C04         9.3080   36.6370   -1.3700 C.3       1 8L5        -0.0625
     15 C05         9.7540   38.5440    0.1830 C.3       1 8L5        -0.0625
     16 C06         8.8390   39.4500   -3.8800 C.2       1 8L5         0.2015
     17 O02         7.7350   38.9960   -3.8330 O.2       1 8L5        -0.3948
     18 O03        12.4400   37.4080   -6.0970 O.co2     1 8L5        -0.6057
     19 C08        12.1770   39.9820   -6.9470 C.3       1 8L5         0.1132
     20 N04        12.8110   39.5040   -8.1350 N.am      1 8L5        -0.2448
     21 C09        12.9090   40.2410   -9.3180 C.2       1 8L5         0.3229
     22 O04        13.5450   39.4950  -10.2910 O.3       1 8L5        -0.2506
     23 O05        12.5040   41.3550   -9.4290 O.2       1 8L5        -0.3774
     24 N02         9.0580   40.8330   -4.0400 N.am      1 8L5        -0.2469
     25 C07         7.9910   41.8080   -4.1500 C.3       1 8L5         0.0526
     26 N03         7.5160   42.1660   -2.8670 N.4       1 8L5         0.2359
     27 H1         13.5749   39.5145  -12.3353 H         1 8L5         0.0776
     28 H2         13.3544   41.1071  -11.5342 H         1 8L5         0.0776
     29 H3         15.4404   41.6223   -9.8091 H         1 8L5         0.0557
     30 H4         17.8576   42.0176   -9.9481 H         1 8L5         0.0599
     31 H5         19.1816   41.0267  -11.7733 H         1 8L5         0.0559
     32 H6         18.0916   39.5676  -13.4234 H         1 8L5         0.0599
     33 H7         15.6612   39.1652  -13.3073 H         1 8L5         0.0557
     34 H8         11.8039   39.8591   -4.1158 H         1 8L5         0.1669
     35 H9          9.9041   37.5802   -3.9735 H         1 8L5         0.0753
     36 H10        10.6652   39.7549   -1.9506 H         1 8L5         0.0311
     37 H11        11.4113   38.1246   -2.0608 H         1 8L5         0.0311
     38 H12         8.4641   38.5997   -1.5195 H         1 8L5         0.0298
     39 H13         8.5417   36.2756   -0.6685 H         1 8L5         0.0232
     40 H14        10.2743   36.1693   -1.1302 H         1 8L5         0.0232
     41 H15         9.0179   36.3731   -2.3977 H         1 8L5         0.0232
     42 H16         9.8410   39.6382    0.2544 H         1 8L5         0.0232
     43 H17        10.7045   38.0801    0.4851 H         1 8L5         0.0232
     44 H18         8.9488   38.1961    0.8468 H         1 8L5         0.0232
     45 H19        12.9162   40.4992   -6.3177 H         1 8L5         0.0743
     46 H20        11.3710   40.6807   -7.2154 H         1 8L5         0.0743
     47 H21        13.2086   38.5866   -8.1187 H         1 8L5         0.1884
     48 H22        10.0022   41.1599   -4.0799 H         1 8L5         0.1903
     49 H23         7.1651   41.3770   -4.7349 H         1 8L5         0.1101
     50 H24         8.3715   42.7058   -4.6591 H         1 8L5         0.1101
     51 H25         6.7755   42.8436   -2.9599 H         1 8L5         0.2015
     52 H26         8.2697   42.5636   -2.3286 H         1 8L5         0.2015
     53 H27         7.1642   41.3460   -2.3981 H         1 8L5         0.2015
@<TRIPOS>BOND
     1    1    2 1  
     2   22    1 1  
     3    2    3 ar 
     4    2    7 ar 
     5    3    4 ar 
     6    4    5 ar 
     7    6    5 ar 
     8    7    6 ar 
     9    9    8 ar 
    10    9   10 am 
    11    9   18 ar 
    12   19    9 1  
    13   10   11 1  
    14   11   12 1  
    15   11   16 1  
    16   12   13 1  
    17   13   14 1  
    18   13   15 1  
    19   16   17 2  
    20   16   24 am 
    21   20   19 1  
    22   21   20 am 
    23   21   22 1  
    24   21   23 2  
    25   24   25 1  
    26   25   26 1  
    27    1   27 1  
    28    1   28 1  
    29    3   29 1  
    30    4   30 1  
    31    5   31 1  
    32    6   32 1  
    33    7   33 1  
    34   10   34 1  
    35   11   35 1  
    36   12   36 1  
    37   12   37 1  
    38   13   38 1  
    39   14   39 1  
    40   14   40 1  
    41   14   41 1  
    42   15   42 1  
    43   15   43 1  
    44   15   44 1  
    45   19   45 1  
    46   19   46 1  
    47   20   47 1  
    48   24   48 1  
    49   25   49 1  
    50   25   50 1  
    51   26   51 1  
    52   26   52 1  
    53   26   53 1  
@<TRIPOS>SUBSTRUCTURE
     1 8L5         1

