### 
### Created by X-TOOL on Mon Sep 10 21:13:21 2018
### 

@<TRIPOS>MOLECULE
4z46_ligand
   23    24     1     0     0
SMALL
GAST_HUCK


@<TRIPOS>ATOM
      1 PT        -35.1270  -10.5990  -22.1620 Pt        1 1PT         0.0000
      2 N1        -35.0450  -12.3900  -23.1640 N.4       1 1PT         0.3947
      3 N2        -36.5690  -11.5110  -21.0520 N.4       1 1PT         0.3947
      4 C1        -35.8450  -13.3850  -22.4230 C.3       1 1PT        -0.1247
      5 C2        -37.0440  -12.6990  -21.8040 C.3       1 1PT        -0.1247
      6 C3        -37.7810  -13.7020  -20.9130 C.3       1 1PT        -0.0714
      7 C4        -38.2040  -14.9550  -21.6790 C.3       1 1PT        -0.0548
      8 C5        -37.0560  -15.5540  -22.4740 C.3       1 1PT        -0.0548
      9 C6        -36.3350  -14.5080  -23.3170 C.3       1 1PT        -0.0714
     10 H1        -34.2452  -12.8429  -23.5780 H         1 1PT        -0.1243
     11 H3        -35.6102  -11.9773  -23.8894 H         1 1PT        -0.1243
     12 H4        -37.3565  -11.0418  -20.6327 H         1 1PT        -0.1243
     13 H6        -35.9292  -11.8039  -20.3303 H         1 1PT        -0.1243
     14 H7        -35.2202  -13.8151  -21.6264 H         1 1PT         0.0025
     15 H8        -37.7272  -12.3649  -22.5987 H         1 1PT         0.0025
     16 H9        -38.6795  -13.2177  -20.5029 H         1 1PT         0.0247
     17 H10       -37.1158  -13.9988  -20.0887 H         1 1PT         0.0247
     18 H11       -39.0153  -14.6896  -22.3728 H         1 1PT         0.0265
     19 H12       -38.5667  -15.7046  -20.9602 H         1 1PT         0.0265
     20 H13       -37.4545  -16.3332  -23.1403 H         1 1PT         0.0265
     21 H14       -36.3361  -16.0031  -21.7740 H         1 1PT         0.0265
     22 H15       -35.4769  -14.9739  -23.8235 H         1 1PT         0.0247
     23 H16       -37.0282  -14.1020  -24.0684 H         1 1PT         0.0247
@<TRIPOS>BOND
     1    4    2 1  
     2    5    3 1  
     3    4    5 1  
     4    9    4 1  
     5    5    6 1  
     6    6    7 1  
     7    7    8 1  
     8    8    9 1  
     9    2   10 1  
    10    3    1 du 
    11    2   11 1  
    12    3   12 1  
    13    2    1 du 
    14    3   13 1  
    15    4   14 1  
    16    5   15 1  
    17    6   16 1  
    18    6   17 1  
    19    7   18 1  
    20    7   19 1  
    21    8   20 1  
    22    8   21 1  
    23    9   22 1  
    24    9   23 1  
@<TRIPOS>SUBSTRUCTURE
     1 1PT         1

