4z46_ligand
  -I-interpret- 

 23 24  0  0  0  0  0  0  0  0999 V2000
  -35.1270  -10.5990  -22.1620 Pt  0  0  0  0  0
  -35.0450  -12.3900  -23.1640 N   0  3  0  0  0
  -36.5690  -11.5110  -21.0520 N   0  3  0  0  0
  -35.8450  -13.3850  -22.4230 C   0  0  0  0  0
  -37.0440  -12.6990  -21.8040 C   0  0  0  0  0
  -37.7810  -13.7020  -20.9130 C   0  0  0  0  0
  -38.2040  -14.9550  -21.6790 C   0  0  0  0  0
  -37.0560  -15.5540  -22.4740 C   0  0  0  0  0
  -36.3350  -14.5080  -23.3170 C   0  0  0  0  0
  -35.4193  -12.2771  -24.1061 H   0  0  0  0  0
  -34.0772  -12.7049  -23.2315 H   0  0  0  0  0
  -36.1913  -11.7942  -20.1478 H   0  0  0  0  0
  -37.3428  -10.8683  -20.8831 H   0  0  0  0  0
  -35.2019  -13.8190  -21.6573 H   0  0  0  0  0
  -37.7475  -12.3555  -22.5624 H   0  0  0  0  0
  -38.6804  -13.2188  -20.5313 H   0  0  0  0  0
  -37.1048  -14.0058  -20.1139 H   0  0  0  0  0
  -38.9924  -14.6761  -22.3780 H   0  0  0  0  0
  -38.5408  -15.6979  -20.9560 H   0  0  0  0  0
  -37.4649  -16.3089  -23.1455 H   0  0  0  0  0
  -36.3390  -15.9766  -21.7701 H   0  0  0  0  0
  -35.4843  -14.9698  -23.8181 H   0  0  0  0  0
  -37.0224  -14.1054  -24.0610 H   0  0  0  0  0
  4  2  1  0  0  0
  5  3  1  0  0  0
  4  5  1  0  0  0
  9  4  1  0  0  0
  5  6  1  0  0  0
  6  7  1  0  0  0
  7  8  1  0  0  0
  8  9  1  0  0  0
  3  1  1  0  0  0
  2  1  1  0  0  0
  2 10  1  0  0  0
  2 11  1  0  0  0
  3 12  1  0  0  0
  3 13  1  0  0  0
  4 14  1  0  0  0
  5 15  1  0  0  0
  6 16  1  0  0  0
  6 17  1  0  0  0
  7 18  1  0  0  0
  7 19  1  0  0  0
  8 20  1  0  0  0
  8 21  1  0  0  0
  9 22  1  0  0  0
  9 23  1  0  0  0
M  END
$$$$
