6gip_ligand
  -I-interpret- 

 40 43  0  0  0  0  0  0  0  0999 V2000
  -42.7620    7.1160  -12.4470 C   0  0  0  0  0
  -41.9440    5.8440  -12.4650 C   0  0  0  0  0
  -40.1000    6.9610  -11.2870 C   0  0  0  0  0
  -38.9790    7.5150  -11.8830 C   0  0  0  0  0
  -38.3820    8.6640  -11.3480 C   0  0  0  0  0
  -40.0370    8.7180   -9.6370 C   0  0  0  0  0
  -40.5520    9.3690   -8.4830 C   0  0  0  0  0
  -41.6730    8.8680   -7.8350 C   0  0  0  0  0
  -40.6350    7.5940  -10.1170 C   0  0  0  0  0
  -42.2890    7.7210   -8.3250 C   0  0  0  0  0
  -41.7820    7.0840   -9.4590 C   0  0  0  0  0
  -43.8540    0.9190  -14.9180 C   0  0  0  0  0
  -43.4290    2.2250  -14.3030 C   0  0  0  0  0
  -43.8410    4.5890  -13.7370 C   0  0  0  0  0
  -42.4740    4.6590  -13.0830 C   0  0  0  0  0
  -41.7050    3.5350  -13.0850 C   0  0  0  0  0
  -40.4170    3.5370  -12.4930 C   0  0  0  0  0
  -39.9020    4.6730  -11.9110 C   0  0  0  0  0
  -40.6590    5.8280  -11.8780 C   0  0  0  0  0
  -44.2680    3.3800  -14.3230 N   0  0  0  0  0
  -38.9110    9.2400  -10.2520 N   0  0  0  0  0
  -42.1500    2.2900  -13.6870 N   0  0  0  0  0
  -44.5770    5.5600  -13.7590 O   0  0  0  0  0
  -42.9752    7.4239  -13.4707 H   0  0  0  0  0
  -43.6979    6.9372  -11.9176 H   0  0  0  0  0
  -42.2004    7.9005  -11.9398 H   0  0  0  0  0
  -38.5578    7.0530  -12.7759 H   0  0  0  0  0
  -37.4943    9.0892  -11.8164 H   0  0  0  0  0
  -40.0638   10.2671   -8.1045 H   0  0  0  0  0
  -42.0668    9.3688   -6.9505 H   0  0  0  0  0
  -43.1689    7.3190   -7.8227 H   0  0  0  0  0
  -42.2716    6.1882   -9.8410 H   0  0  0  0  0
  -44.7635    0.5681  -14.4303 H   0  0  0  0  0
  -44.0434    1.0643  -15.9815 H   0  0  0  0  0
  -43.0619    0.1819  -14.7861 H   0  0  0  0  0
  -44.3768    2.6414  -14.6442 H   0  0  0  0  0
  -39.8238    2.6225  -12.4988 H   0  0  0  0  0
  -38.9017    4.6613  -11.4782 H   0  0  0  0  0
  -45.1855    3.3299  -14.7657 H   0  0  0  0  0
  -41.5477    1.4670  -13.6676 H   0  0  0  0  0
  2  1  1  0  0  0
 15  2  4  0  0  0
  2 19  4  0  0  0
  3  4  4  0  0  0
  3  9  4  0  0  0
 19  3  1  0  0  0
  4  5  4  0  0  0
  5 21  4  0  0  0
  6  7  4  0  0  0
  9  6  4  0  0  0
  6 21  4  0  0  0
  7  8  4  0  0  0
 10  8  4  0  0  0
  9 11  4  0  0  0
 11 10  4  0  0  0
 13 12  1  0  0  0
 20 13  1  0  0  0
 13 22  1  0  0  0
 14 15  1  0  0  0
 14 20  1  0  0  0
 14 23  2  0  0  0
 15 16  4  0  0  0
 16 17  4  0  0  0
 16 22  1  0  0  0
 17 18  4  0  0  0
 18 19  4  0  0  0
  1 24  1  0  0  0
  1 25  1  0  0  0
  1 26  1  0  0  0
  4 27  1  0  0  0
  5 28  1  0  0  0
  7 29  1  0  0  0
  8 30  1  0  0  0
 10 31  1  0  0  0
 11 32  1  0  0  0
 12 33  1  0  0  0
 12 34  1  0  0  0
 12 35  1  0  0  0
 13 36  1  0  0  0
 17 37  1  0  0  0
 18 38  1  0  0  0
 20 39  1  0  0  0
 22 40  1  0  0  0
M  END
$$$$
