### 
### Created by X-TOOL on Tue Oct 16 15:17:23 2018
### 

@<TRIPOS>MOLECULE
2a3i_ligand
  209   208     1     0     0
SMALL
GAST_HUCK


@<TRIPOS>ATOM
      1 N          43.6300   86.8240    0.2260 N.4       1 GLN         0.2380
      2 CA         43.3830   86.7960    1.6960 C.3       1 GLN         0.0671
      3 C          44.3480   85.8280    2.3600 C.2       1 GLN         0.2269
      4 O          45.1390   85.1710    1.6820 O.2       1 GLN        -0.3907
      5 CB         41.9110   86.4790    2.0200 C.3       1 GLN         0.0247
      6 CG         41.3840   86.1040    0.6350 C.3       1 GLN         0.0443
      7 CD         39.9120   86.1200    0.2940 C.2       1 GLN         0.1738
      8 OE1        39.1570   85.5150   -0.4490 O.2       1 GLN        -0.3973
      9 NE2        39.5750   87.2680    0.9150 N.am      1 GLN        -0.3009
     10 N          44.2800   85.7390    3.6850 N.am      1 GLN        -0.2609
     11 CA         45.1440   84.8320    4.4200 C.3       1 GLN         0.1331
     12 C          44.3560   84.0390    5.4520 C.2       1 GLN         0.2040
     13 O          43.6650   84.6070    6.2960 O.2       1 GLN        -0.3944
     14 CB         46.2700   85.6000    5.1130 C.3       1 GLN         0.0045
     15 CG         47.1710   84.6920    5.9430 C.3       1 GLN         0.0412
     16 CD         47.8930   83.6440    5.0990 C.2       1 GLN         0.1737
     17 OE1        47.4050   83.2310    4.0440 O.2       1 GLN        -0.3973
     18 NE2        49.0580   83.2010    5.5710 N.am      1 GLN        -0.3009
     19 N          44.4790   82.7190    5.3690 N.am      1 GLN        -0.2637
     20 CA         43.8030   81.7890    6.2680 C.3       1 GLN         0.1310
     21 C          42.3880   81.4860    5.7890 C.2       1 GLN         0.2040
     22 O          42.1820   81.1480    4.6230 O.2       1 GLN        -0.3944
     23 CB         43.7740   82.3340    7.7050 C.3       1 GLN        -0.0122
     24 CG         45.1400   82.7600    8.2460 C.3       1 GLN        -0.0440
     25 CD         45.1030   82.9540    9.7550 C.3       1 GLN        -0.0124
     26 CE         45.4160   81.6540   10.4870 C.3       1 GLN        -0.0354
     27 NZ         44.5750   80.5130   10.0220 N.4       1 GLN         0.2185
     28 N          41.4200   81.6210    6.6900 N.am      1 GLN        -0.2616
     29 CA         40.0170   81.3320    6.3990 C.3       1 GLN         0.1539
     30 C          39.8430   79.8270    6.2950 C.2       1 GLN         0.2062
     31 O          40.2620   79.1930    5.3250 O.2       1 GLN        -0.3943
     32 CB         39.5600   81.9910    5.1010 C.3       1 GLN         0.0843
     33 OG         38.2280   81.6090    4.7870 O.3       1 GLN        -0.3903
     34 N          39.2180   79.2630    7.3170 N.am      1 GLN        -0.2636
     35 CA         38.9890   77.8330    7.3910 C.3       1 GLN         0.1312
     36 C          38.2700   77.2810    6.1650 C.2       1 GLN         0.2039
     37 O          38.6230   76.2150    5.6660 O.2       1 GLN        -0.3944
     38 CB         38.2320   77.5060    8.6910 C.3       1 GLN        -0.0101
     39 CG         39.0600   78.2780    9.7210 C.3       1 GLN        -0.0425
     40 CD1        38.0410   78.2850   10.8610 C.3       1 GLN        -0.0625
     41 CD2        40.2030   77.3680   10.1730 C.3       1 GLN        -0.0625
     42 N          37.2670   78.0080    5.6820 N.am      1 GLN        -0.2637
     43 CA         36.5180   77.5830    4.5050 C.3       1 GLN         0.1312
     44 C          37.4530   77.4500    3.3090 C.2       1 GLN         0.2039
     45 O          37.4330   76.4400    2.6050 O.2       1 GLN        -0.3944
     46 CB         35.4110   78.5900    4.1880 C.3       1 GLN        -0.0101
     47 CG         33.9840   78.0390    4.2280 C.3       1 GLN        -0.0425
     48 CD1        33.7140   77.4300    5.5950 C.3       1 GLN        -0.0625
     49 CD2        32.9880   79.1510    3.9290 C.3       1 GLN        -0.0625
     50 N          38.2730   78.4720    3.0830 N.am      1 GLN        -0.2636
     51 CA         39.2210   78.4490    1.9740 C.3       1 GLN         0.1330
     52 C          40.2060   77.2910    2.0970 C.2       1 GLN         0.2040
     53 O          40.5000   76.6090    1.1120 O.2       1 GLN        -0.3944
     54 CB         40.0000   79.7630    1.9040 C.3       1 GLN         0.0045
     55 CG         39.1830   80.9500    1.4220 C.3       1 GLN         0.0412
     56 CD         39.9790   82.2390    1.4090 C.2       1 GLN         0.1737
     57 OE1        40.1710   82.8500    0.3590 O.2       1 GLN        -0.3973
     58 NE2        40.4480   82.6580    2.5760 N.am      1 GLN        -0.3009
     59 N          40.7190   77.0810    3.3070 N.am      1 GLN        -0.2636
     60 CA         41.6750   76.0110    3.5650 C.3       1 GLN         0.1330
     61 C          41.0690   74.6580    3.2250 C.2       1 GLN         0.2040
     62 O          41.6370   73.8910    2.4570 O.2       1 GLN        -0.3944
     63 CB         42.1010   76.0150    5.0380 C.3       1 GLN         0.0045
     64 CG         42.9280   77.2160    5.4650 C.3       1 GLN         0.0412
     65 CD         43.3070   77.1740    6.9410 C.2       1 GLN         0.1737
     66 OE1        43.9460   78.0950    7.4530 O.2       1 GLN        -0.3973
     67 NE2        42.9120   76.1080    7.6300 N.am      1 GLN        -0.3009
     68 N          39.9060   74.3780    3.8010 N.am      1 GLN        -0.2637
     69 CA         39.2070   73.1170    3.5800 C.3       1 GLN         0.1312
     70 C          38.8940   72.8180    2.1190 C.2       1 GLN         0.2039
     71 O          38.9130   71.6630    1.6980 O.2       1 GLN        -0.3944
     72 CB         37.9010   73.1030    4.3770 C.3       1 GLN        -0.0101
     73 CG         38.0200   73.0010    5.8980 C.3       1 GLN        -0.0425
     74 CD1        36.7010   73.3920    6.5620 C.3       1 GLN        -0.0625
     75 CD2        38.4140   71.5810    6.2670 C.3       1 GLN        -0.0625
     76 N          38.5930   73.8560    1.3490 N.am      1 GLN        -0.2637
     77 CA         38.2580   73.6780   -0.0630 C.3       1 GLN         0.1312
     78 C          39.4720   73.5100   -0.9630 C.2       1 GLN         0.2040
     79 O          39.3480   73.0730   -2.1070 O.2       1 GLN        -0.3944
     80 CB         37.4090   74.8560   -0.5510 C.3       1 GLN        -0.0101
     81 CG         35.9570   74.8410   -0.0560 C.3       1 GLN        -0.0425
     82 CD1        35.2980   76.1910   -0.3010 C.3       1 GLN        -0.0625
     83 CD2        35.2010   73.7210   -0.7590 C.3       1 GLN        -0.0625
     84 N          40.6500   73.8470   -0.4470 N.am      1 GLN        -0.2613
     85 CA         41.8700   73.7250   -1.2340 C.3       1 GLN         0.1564
     86 C          42.9180   72.8750   -0.5320 C.2       1 GLN         0.2059
     87 O          44.0110   72.6650   -1.0610 O.2       1 GLN        -0.3943
     88 CB         42.4760   75.1130   -1.5370 C.3       1 GLN         0.0924
     89 OG1        42.8900   75.7450   -0.3210 O.3       1 GLN        -0.3874
     90 CG2        41.4500   75.9870   -2.2170 C.3       1 GLN        -0.0346
     91 N          42.5670   72.3770    0.6500 N.am      1 GLN        -0.2693
     92 CA         43.4730   71.5620    1.4480 C.3       1 GLN         0.0959
     93 C          44.2660   70.6040    0.5730 C.2       1 GLN         0.0602
     94 O          43.6490   69.6780   -0.0020 O.co2     1 GLN        -0.5666
     95 CB         42.7050   70.7710    2.5140 C.3       1 GLN        -0.0064
     96 CG         43.4670   70.6810    3.8360 C.3       1 GLN         0.0038
     97 CD         43.3080   69.3440    4.5430 C.2       1 GLN         0.0350
     98 OE1        44.1380   69.0470    5.4340 O.co2     1 GLN        -0.5690
     99 OE2        42.3630   68.5920    4.2190 O.co2     1 GLN        -0.5690
    100 OXT        45.4990   70.8060    0.4620 O.co2     1 GLN        -0.5666
    101 H1         42.9880   87.4671   -0.2104 H         1 GLN         0.2015
    102 H2         43.4924   85.9012   -0.1555 H         1 GLN         0.2015
    103 H3         44.5765   87.1228    0.0499 H         1 GLN         0.2015
    104 H4         43.5945   87.8004    2.0914 H         1 GLN         0.1100
    105 H5         41.3885   87.3571    2.4273 H         1 GLN         0.0370
    106 H6         41.8240   85.6403    2.7264 H         1 GLN         0.0370
    107 H7         41.7305   85.0776    0.4441 H         1 GLN         0.0506
    108 H8         41.8688   86.7923   -0.0729 H         1 GLN         0.0506
    109 H9         38.6294   87.5923    0.8878 H         1 GLN         0.1814
    110 H10        40.2706   87.7954    1.4029 H         1 GLN         0.1814
    111 H11        43.6236   86.3055    4.1832 H         1 GLN         0.1885
    112 H12        45.5906   84.1259    3.7046 H         1 GLN         0.0801
    113 H13        45.8251   86.3568    5.7758 H         1 GLN         0.0337
    114 H14        46.8814   86.0981    4.3461 H         1 GLN         0.0337
    115 H15        46.5543   84.1752    6.6930 H         1 GLN         0.0504
    116 H16        47.9233   85.3129    6.4515 H         1 GLN         0.0504
    117 H17        49.5756   82.5142    5.0607 H         1 GLN         0.1814
    118 H18        49.4145   83.5554    6.4355 H         1 GLN         0.1814
    119 H19        45.0660   82.3424    4.6524 H         1 GLN         0.1883
    120 H20        44.3713   80.8472    6.2707 H         1 GLN         0.0800
    121 H21        43.3729   81.5490    8.3629 H         1 GLN         0.0312
    122 H22        43.1068   83.2082    7.7282 H         1 GLN         0.0312
    123 H23        45.4339   83.7073    7.7704 H         1 GLN         0.0269
    124 H24        45.8795   81.9828    8.0030 H         1 GLN         0.0269
    125 H25        44.1000   83.2978   10.0479 H         1 GLN         0.0317
    126 H26        45.8477   83.7127   10.0374 H         1 GLN         0.0317
    127 H27        45.2404   81.8049   11.5624 H         1 GLN         0.0813
    128 H28        46.4737   81.4022   10.3199 H         1 GLN         0.0813
    129 H29        44.8220   79.6821   10.5364 H         1 GLN         0.1994
    130 H30        44.7325   80.3584    9.0385 H         1 GLN         0.1994
    131 H31        43.6024   80.7274   10.1770 H         1 GLN         0.1994
    132 H32        41.6625   81.9344    7.6081 H         1 GLN         0.1884
    133 H33        39.3973   81.7131    7.2240 H         1 GLN         0.0823
    134 H34        40.2272   81.6802    4.2836 H         1 GLN         0.0606
    135 H35        39.6049   83.0841    5.2154 H         1 GLN         0.0606
    136 H36        37.9619   82.0286    3.9772 H         1 GLN         0.2097
    137 H37        38.8926   79.8432    8.0636 H         1 GLN         0.1883
    138 H38        39.9714   77.3406    7.4397 H         1 GLN         0.0800
    139 H39        38.2360   76.4258    8.8988 H         1 GLN         0.0315
    140 H40        37.1941   77.8686    8.6550 H         1 GLN         0.0315
    141 H41        39.3999   79.2708    9.3912 H         1 GLN         0.0298
    142 H42        38.4638   78.8146   11.7275 H         1 GLN         0.0232
    143 H43        37.8016   77.2497   11.1452 H         1 GLN         0.0232
    144 H44        37.1246   78.7958   10.5306 H         1 GLN         0.0232
    145 H45        40.9706   77.3252    9.3863 H         1 GLN         0.0232
    146 H46        39.8139   76.3564   10.3610 H         1 GLN         0.0232
    147 H47        40.6467   77.7678   11.0967 H         1 GLN         0.0232
    148 H48        37.0209   78.8646    6.1355 H         1 GLN         0.1883
    149 H49        36.0602   76.6041    4.7103 H         1 GLN         0.0800
    150 H50        35.5926   78.9857    3.1778 H         1 GLN         0.0315
    151 H51        35.4783   79.4083    4.9200 H         1 GLN         0.0315
    152 H52        33.8806   77.2558    3.4626 H         1 GLN         0.0298
    153 H53        32.6882   77.0339    5.6238 H         1 GLN         0.0232
    154 H54        33.8308   78.2019    6.3699 H         1 GLN         0.0232
    155 H55        34.4276   76.6136    5.7802 H         1 GLN         0.0232
    156 H56        33.2008   79.5770    2.9374 H         1 GLN         0.0232
    157 H57        33.0765   79.9377    4.6927 H         1 GLN         0.0232
    158 H58        31.9670   78.7418    3.9408 H         1 GLN         0.0232
    159 H59        38.2394   79.2707    3.6838 H         1 GLN         0.1883
    160 H60        38.6532   78.3257    1.0400 H         1 GLN         0.0801
    161 H61        40.8466   79.6252    1.2153 H         1 GLN         0.0337
    162 H62        40.3797   79.9923    2.9106 H         1 GLN         0.0337
    163 H63        38.3182   81.0769    2.0899 H         1 GLN         0.0504
    164 H64        38.8304   80.7435    0.4007 H         1 GLN         0.0504
    165 H65        40.9804   83.5030    2.6266 H         1 GLN         0.1814
    166 H66        40.2694   82.1291    3.4057 H         1 GLN         0.1814
    167 H67        40.4404   77.6749    4.0617 H         1 GLN         0.1883
    168 H68        42.5627   76.1728    2.9359 H         1 GLN         0.0801
    169 H69        42.6955   75.1083    5.2236 H         1 GLN         0.0337
    170 H70        41.1915   75.9901    5.6562 H         1 GLN         0.0337
    171 H71        42.3449   78.1296    5.2772 H         1 GLN         0.0504
    172 H72        43.8499   77.2397    4.8655 H         1 GLN         0.0504
    173 H73        43.1342   76.0303    8.6019 H         1 GLN         0.1814
    174 H74        42.3926   75.3838    7.1764 H         1 GLN         0.1814
    175 H75        39.4940   75.0568    4.4089 H         1 GLN         0.1883
    176 H76        39.8547   72.3105    3.9542 H         1 GLN         0.0800
    177 H77        37.3100   72.2420    4.0315 H         1 GLN         0.0315
    178 H78        37.3616   74.0338    4.1476 H         1 GLN         0.0315
    179 H79        38.8049   73.6899    6.2434 H         1 GLN         0.0298
    180 H80        36.8031   73.3135    7.6544 H         1 GLN         0.0232
    181 H81        35.9034   72.7167    6.2188 H         1 GLN         0.0232
    182 H82        36.4468   74.4273    6.2910 H         1 GLN         0.0232
    183 H83        39.3650   71.3253    5.7769 H         1 GLN         0.0232
    184 H84        37.6306   70.8846    5.9332 H         1 GLN         0.0232
    185 H85        38.5318   71.5049    7.3580 H         1 GLN         0.0232
    186 H86        38.5953   74.7758    1.7413 H         1 GLN         0.1883
    187 H87        37.6554   72.7615   -0.1463 H         1 GLN         0.0800
    188 H88        37.3973   74.8390   -1.6508 H         1 GLN         0.0315
    189 H89        37.8809   75.7869   -0.2037 H         1 GLN         0.0315
    190 H90        35.9526   74.6435    1.0261 H         1 GLN         0.0298
    191 H91        34.2591   76.1626    0.0593 H         1 GLN         0.0232
    192 H92        35.3065   76.4131   -1.3783 H         1 GLN         0.0232
    193 H93        35.8521   76.9729    0.2390 H         1 GLN         0.0232
    194 H94        35.7014   72.7613   -0.5626 H         1 GLN         0.0232
    195 H95        35.1865   73.9120   -1.8422 H         1 GLN         0.0232
    196 H96        34.1692   73.6808   -0.3799 H         1 GLN         0.0232
    197 H97        40.6992   74.1880    0.4918 H         1 GLN         0.1884
    198 H98        41.6115   73.2401   -2.1869 H         1 GLN         0.0826
    199 H99        43.3462   74.9898   -2.1984 H         1 GLN         0.0639
    200 H100       42.1392   75.8502    0.2515 H         1 GLN         0.2101
    201 H101       41.8904   76.9725   -2.4286 H         1 GLN         0.0257
    202 H102       40.5777   76.1091   -1.5581 H         1 GLN         0.0257
    203 H103       41.1344   75.5164   -3.1598 H         1 GLN         0.0257
    204 H104       41.6510   72.5683    1.0026 H         1 GLN         0.1875
    205 H105       44.1802   72.2341    1.9560 H         1 GLN         0.0727
    206 H106       42.5280   69.7523    2.1385 H         1 GLN         0.0323
    207 H107       41.7405   71.2677    2.6956 H         1 GLN         0.0323
    208 H108       43.0982   71.4732    4.5041 H         1 GLN         0.0432
    209 H109       44.5360   70.8412    3.6324 H         1 GLN         0.0432
@<TRIPOS>BOND
     1    1    2 1  
     2    2    3 1  
     3    2    5 1  
     4    3    4 2  
     5    3   10 am 
     6    5    6 1  
     7    6    7 1  
     8    7    8 2  
     9    7    9 am 
    10   10   11 1  
    11   11   12 1  
    12   11   14 1  
    13   12   13 2  
    14   12   19 am 
    15   14   15 1  
    16   15   16 1  
    17   16   17 2  
    18   16   18 am 
    19   19   20 1  
    20   20   21 1  
    21   20   23 1  
    22   21   22 2  
    23   21   28 am 
    24   23   24 1  
    25   24   25 1  
    26   25   26 1  
    27   26   27 1  
    28   28   29 1  
    29   29   30 1  
    30   29   32 1  
    31   30   31 2  
    32   30   34 am 
    33   32   33 1  
    34   34   35 1  
    35   35   36 1  
    36   35   38 1  
    37   36   37 2  
    38   36   42 am 
    39   38   39 1  
    40   39   40 1  
    41   39   41 1  
    42   42   43 1  
    43   43   44 1  
    44   43   46 1  
    45   44   45 2  
    46   44   50 am 
    47   46   47 1  
    48   47   48 1  
    49   47   49 1  
    50   50   51 1  
    51   51   52 1  
    52   51   54 1  
    53   52   53 2  
    54   52   59 am 
    55   54   55 1  
    56   55   56 1  
    57   56   57 2  
    58   56   58 am 
    59   59   60 1  
    60   60   61 1  
    61   60   63 1  
    62   61   62 2  
    63   61   68 am 
    64   63   64 1  
    65   64   65 1  
    66   65   66 2  
    67   65   67 am 
    68   68   69 1  
    69   69   70 1  
    70   69   72 1  
    71   70   71 2  
    72   70   76 am 
    73   72   73 1  
    74   73   74 1  
    75   73   75 1  
    76   76   77 1  
    77   77   78 1  
    78   77   80 1  
    79   78   79 2  
    80   78   84 am 
    81   80   81 1  
    82   81   82 1  
    83   81   83 1  
    84   84   85 1  
    85   85   86 1  
    86   85   88 1  
    87   86   87 2  
    88   86   91 am 
    89   88   89 1  
    90   88   90 1  
    91   91   92 1  
    92   92   93 1  
    93   92   95 1  
    94   93   94 ar 
    95   93  100 ar 
    96   95   96 1  
    97   96   97 1  
    98   97   98 ar 
    99   97   99 ar 
   100    1  101 1  
   101    1  102 1  
   102    1  103 1  
   103    2  104 1  
   104    5  105 1  
   105    5  106 1  
   106    6  107 1  
   107    6  108 1  
   108    9  109 1  
   109    9  110 1  
   110   10  111 1  
   111   11  112 1  
   112   14  113 1  
   113   14  114 1  
   114   15  115 1  
   115   15  116 1  
   116   18  117 1  
   117   18  118 1  
   118   19  119 1  
   119   20  120 1  
   120   23  121 1  
   121   23  122 1  
   122   24  123 1  
   123   24  124 1  
   124   25  125 1  
   125   25  126 1  
   126   26  127 1  
   127   26  128 1  
   128   27  129 1  
   129   27  130 1  
   130   27  131 1  
   131   28  132 1  
   132   29  133 1  
   133   32  134 1  
   134   32  135 1  
   135   33  136 1  
   136   34  137 1  
   137   35  138 1  
   138   38  139 1  
   139   38  140 1  
   140   39  141 1  
   141   40  142 1  
   142   40  143 1  
   143   40  144 1  
   144   41  145 1  
   145   41  146 1  
   146   41  147 1  
   147   42  148 1  
   148   43  149 1  
   149   46  150 1  
   150   46  151 1  
   151   47  152 1  
   152   48  153 1  
   153   48  154 1  
   154   48  155 1  
   155   49  156 1  
   156   49  157 1  
   157   49  158 1  
   158   50  159 1  
   159   51  160 1  
   160   54  161 1  
   161   54  162 1  
   162   55  163 1  
   163   55  164 1  
   164   58  165 1  
   165   58  166 1  
   166   59  167 1  
   167   60  168 1  
   168   63  169 1  
   169   63  170 1  
   170   64  171 1  
   171   64  172 1  
   172   67  173 1  
   173   67  174 1  
   174   68  175 1  
   175   69  176 1  
   176   72  177 1  
   177   72  178 1  
   178   73  179 1  
   179   74  180 1  
   180   74  181 1  
   181   74  182 1  
   182   75  183 1  
   183   75  184 1  
   184   75  185 1  
   185   76  186 1  
   186   77  187 1  
   187   80  188 1  
   188   80  189 1  
   189   81  190 1  
   190   82  191 1  
   191   82  192 1  
   192   82  193 1  
   193   83  194 1  
   194   83  195 1  
   195   83  196 1  
   196   84  197 1  
   197   85  198 1  
   198   88  199 1  
   199   89  200 1  
   200   90  201 1  
   201   90  202 1  
   202   90  203 1  
   203   91  204 1  
   204   92  205 1  
   205   95  206 1  
   206   95  207 1  
   207   96  208 1  
   208   96  209 1  
@<TRIPOS>SUBSTRUCTURE
     1 GLN         1

