2a3i_ligand
  -I-interpret- 

211210  0  0  0  0  0  0  0  0999 V2000
   43.6300   86.8240    0.2260 N   0  3  0  0  0
   43.3830   86.7960    1.6960 C   0  0  0  0  0
   44.3480   85.8280    2.3600 C   0  0  0  0  0
   45.1390   85.1710    1.6820 O   0  0  0  0  0
   41.9110   86.4790    2.0200 C   0  0  0  0  0
   41.3840   86.1040    0.6350 C   0  0  0  0  0
   39.9120   86.1200    0.2940 C   0  0  0  0  0
   39.1570   85.5150   -0.4490 O   0  0  0  0  0
   39.5750   87.2680    0.9150 N   0  0  0  0  0
   44.2800   85.7390    3.6850 N   0  0  0  0  0
   45.1440   84.8320    4.4200 C   0  0  0  0  0
   44.3560   84.0390    5.4520 C   0  0  0  0  0
   43.6650   84.6070    6.2960 O   0  0  0  0  0
   46.2700   85.6000    5.1130 C   0  0  0  0  0
   47.1710   84.6920    5.9430 C   0  0  0  0  0
   47.8930   83.6440    5.0990 C   0  0  0  0  0
   47.4050   83.2310    4.0440 O   0  0  0  0  0
   49.0580   83.2010    5.5710 N   0  0  0  0  0
   44.4790   82.7190    5.3690 N   0  0  0  0  0
   43.8030   81.7890    6.2680 C   0  0  0  0  0
   42.3880   81.4860    5.7890 C   0  0  0  0  0
   42.1820   81.1480    4.6230 O   0  0  0  0  0
   43.7740   82.3340    7.7050 C   0  0  0  0  0
   45.1400   82.7600    8.2460 C   0  0  0  0  0
   45.1030   82.9540    9.7550 C   0  0  0  0  0
   45.4160   81.6540   10.4870 C   0  0  0  0  0
   44.5750   80.5130   10.0220 N   0  3  0  0  0
   41.4200   81.6210    6.6900 N   0  0  0  0  0
   40.0170   81.3320    6.3990 C   0  0  0  0  0
   39.8430   79.8270    6.2950 C   0  0  0  0  0
   40.2620   79.1930    5.3250 O   0  0  0  0  0
   39.5600   81.9910    5.1010 C   0  0  0  0  0
   38.2280   81.6090    4.7870 O   0  0  0  0  0
   39.2180   79.2630    7.3170 N   0  0  0  0  0
   38.9890   77.8330    7.3910 C   0  0  0  0  0
   38.2700   77.2810    6.1650 C   0  0  0  0  0
   38.6230   76.2150    5.6660 O   0  0  0  0  0
   38.2320   77.5060    8.6910 C   0  0  0  0  0
   39.0600   78.2780    9.7210 C   0  0  0  0  0
   38.0410   78.2850   10.8610 C   0  0  0  0  0
   40.2030   77.3680   10.1730 C   0  0  0  0  0
   37.2670   78.0080    5.6820 N   0  0  0  0  0
   36.5180   77.5830    4.5050 C   0  0  0  0  0
   37.4530   77.4500    3.3090 C   0  0  0  0  0
   37.4330   76.4400    2.6050 O   0  0  0  0  0
   35.4110   78.5900    4.1880 C   0  0  0  0  0
   33.9840   78.0390    4.2280 C   0  0  0  0  0
   33.7140   77.4300    5.5950 C   0  0  0  0  0
   32.9880   79.1510    3.9290 C   0  0  0  0  0
   38.2730   78.4720    3.0830 N   0  0  0  0  0
   39.2210   78.4490    1.9740 C   0  0  0  0  0
   40.2060   77.2910    2.0970 C   0  0  0  0  0
   40.5000   76.6090    1.1120 O   0  0  0  0  0
   40.0000   79.7630    1.9040 C   0  0  0  0  0
   39.1830   80.9500    1.4220 C   0  0  0  0  0
   39.9790   82.2390    1.4090 C   0  0  0  0  0
   40.1710   82.8500    0.3590 O   0  0  0  0  0
   40.4480   82.6580    2.5760 N   0  0  0  0  0
   40.7190   77.0810    3.3070 N   0  0  0  0  0
   41.6750   76.0110    3.5650 C   0  0  0  0  0
   41.0690   74.6580    3.2250 C   0  0  0  0  0
   41.6370   73.8910    2.4570 O   0  0  0  0  0
   42.1010   76.0150    5.0380 C   0  0  0  0  0
   42.9280   77.2160    5.4650 C   0  0  0  0  0
   43.3070   77.1740    6.9410 C   0  0  0  0  0
   43.9460   78.0950    7.4530 O   0  0  0  0  0
   42.9120   76.1080    7.6300 N   0  0  0  0  0
   39.9060   74.3780    3.8010 N   0  0  0  0  0
   39.2070   73.1170    3.5800 C   0  0  0  0  0
   38.8940   72.8180    2.1190 C   0  0  0  0  0
   38.9130   71.6630    1.6980 O   0  0  0  0  0
   37.9010   73.1030    4.3770 C   0  0  0  0  0
   38.0200   73.0010    5.8980 C   0  0  0  0  0
   36.7010   73.3920    6.5620 C   0  0  0  0  0
   38.4140   71.5810    6.2670 C   0  0  0  0  0
   38.5930   73.8560    1.3490 N   0  0  0  0  0
   38.2580   73.6780   -0.0630 C   0  0  0  0  0
   39.4720   73.5100   -0.9630 C   0  0  0  0  0
   39.3480   73.0730   -2.1070 O   0  0  0  0  0
   37.4090   74.8560   -0.5510 C   0  0  0  0  0
   35.9570   74.8410   -0.0560 C   0  0  0  0  0
   35.2980   76.1910   -0.3010 C   0  0  0  0  0
   35.2010   73.7210   -0.7590 C   0  0  0  0  0
   40.6500   73.8470   -0.4470 N   0  0  0  0  0
   41.8700   73.7250   -1.2340 C   0  0  0  0  0
   42.9180   72.8750   -0.5320 C   0  0  0  0  0
   44.0110   72.6650   -1.0610 O   0  0  0  0  0
   42.4760   75.1130   -1.5370 C   0  0  0  0  0
   42.8900   75.7450   -0.3210 O   0  0  0  0  0
   41.4500   75.9870   -2.2170 C   0  0  0  0  0
   42.5670   72.3770    0.6500 N   0  0  0  0  0
   43.4730   71.5620    1.4480 C   0  0  0  0  0
   44.2660   70.6040    0.5730 C   0  0  0  0  0
   43.6490   69.6780   -0.0020 O   0  0  0  0  0
   42.7050   70.7710    2.5140 C   0  0  0  0  0
   43.4670   70.6810    3.8360 C   0  0  0  0  0
   43.3080   69.3440    4.5430 C   0  0  0  0  0
   44.1380   69.0470    5.4340 O   0  0  0  0  0
   42.3630   68.5920    4.2190 O   0  0  0  0  0
   45.4990   70.8060    0.4620 O   0  0  0  0  0
   44.6123   87.0363    0.0515 H   0  0  0  0  0
   43.4015   85.9137   -0.1734 H   0  0  0  0  0
   43.0446   87.5411   -0.2023 H   0  0  0  0  0
   43.5698   87.7893    2.1042 H   0  0  0  0  0
   41.3742   87.3039    2.4885 H   0  0  0  0  0
   41.7819   85.6972    2.7684 H   0  0  0  0  0
   41.6534   85.0522    0.5392 H   0  0  0  0  0
   41.8006   86.8769   -0.0109 H   0  0  0  0  0
   38.6490   87.6716    0.7734 H   0  0  0  0  0
   40.2460   87.7330    1.5265 H   0  0  0  0  0
   43.6105   86.3168    4.1932 H   0  0  0  0  0
   45.5766   84.1361    3.7012 H   0  0  0  0  0
   45.8163   86.3288    5.7847 H   0  0  0  0  0
   46.8823   86.0678    4.3420 H   0  0  0  0  0
   46.5435   84.1666    6.6629 H   0  0  0  0  0
   47.9272   85.3164    6.4188 H   0  0  0  0  0
   49.5815   82.4937    5.0552 H   0  0  0  0  0
   49.4261   83.5693    6.4481 H   0  0  0  0  0
   45.0778   82.3349    4.6380 H   0  0  0  0  0
   44.3708   80.8586    6.2626 H   0  0  0  0  0
   43.4128   81.5293    8.3454 H   0  0  0  0  0
   43.1414   83.2216    7.6981 H   0  0  0  0  0
   45.4165   83.7066    7.7818 H   0  0  0  0  0
   45.8633   81.9780    8.0149 H   0  0  0  0  0
   44.1025   83.2805   10.0389 H   0  0  0  0  0
   45.8531   83.6960   10.0284 H   0  0  0  0  0
   45.2120   81.8095   11.5464 H   0  0  0  0  0
   46.4583   81.4026   10.2908 H   0  0  0  0  0
   44.8257   79.6728   10.5432 H   0  0  0  0  0
   43.5911   80.7311   10.1793 H   0  0  0  0  0
   44.7352   80.3576    9.0267 H   0  0  0  0  0
   41.6674   81.9406    7.6265 H   0  0  0  0  0
   39.4057   81.7368    7.2056 H   0  0  0  0  0
   40.2182   81.6723    4.2928 H   0  0  0  0  0
   39.5971   83.0735    5.2228 H   0  0  0  0  0
   37.9592   82.0330    3.9687 H   0  0  0  0  0
   38.8861   79.8548    8.0786 H   0  0  0  0  0
   39.9595   77.3369    7.4039 H   0  0  0  0  0
   38.1579   76.4386    8.8988 H   0  0  0  0  0
   37.1804   77.7921    8.6701 H   0  0  0  0  0
   39.4633   79.2378    9.3983 H   0  0  0  0  0
   37.1335   78.7914   10.5323 H   0  0  0  0  0
   37.8046   77.2586   11.1416 H   0  0  0  0  0
   38.4611   78.8100   11.7189 H   0  0  0  0  0
   39.7905   76.4626   10.6183 H   0  0  0  0  0
   40.8174   77.1037    9.3123 H   0  0  0  0  0
   40.8129   77.8913   10.9094 H   0  0  0  0  0
   37.0160   78.8817    6.1446 H   0  0  0  0  0
   36.0646   76.6138    4.7129 H   0  0  0  0  0
   35.5836   78.9280    3.1662 H   0  0  0  0  0
   35.4661   79.3621    4.9554 H   0  0  0  0  0
   33.8709   77.2648    3.4691 H   0  0  0  0  0
   34.4217   76.6213    5.7773 H   0  0  0  0  0
   33.8301   78.1958    6.3619 H   0  0  0  0  0
   32.6973   77.0379    5.6223 H   0  0  0  0  0
   33.0900   79.9388    4.6754 H   0  0  0  0  0
   33.1878   79.5593    2.9383 H   0  0  0  0  0
   31.9756   78.7483    3.9600 H   0  0  0  0  0
   38.2387   79.2867    3.6958 H   0  0  0  0  0
   38.6404   78.3160    1.0611 H   0  0  0  0  0
   40.8087   79.6184    1.1876 H   0  0  0  0  0
   40.3327   79.9927    2.9163 H   0  0  0  0  0
   38.3450   81.0804    2.1067 H   0  0  0  0  0
   38.8623   80.7437    0.4009 H   0  0  0  0  0
   40.9923   83.5191    2.6274 H   0  0  0  0  0
   40.2645   82.1193    3.4225 H   0  0  0  0  0
   40.4348   77.6868    4.0768 H   0  0  0  0  0
   42.5479   76.1830    2.9352 H   0  0  0  0  0
   42.7256   75.1342    5.1870 H   0  0  0  0  0
   41.1859   76.0370    5.6298 H   0  0  0  0  0
   42.3290   78.1113    5.2985 H   0  0  0  0  0
   43.8493   77.2123    4.8825 H   0  0  0  0  0
   43.1363   76.0301    8.6220 H   0  0  0  0  0
   42.3846   75.3680    7.1667 H   0  0  0  0  0
   39.4858   75.0704    4.4210 H   0  0  0  0  0
   39.8914   72.3389    3.9181 H   0  0  0  0  0
   37.3667   72.2078    4.0587 H   0  0  0  0  0
   37.4201   74.0609    4.1788 H   0  0  0  0  0
   38.7866   73.6890    6.2545 H   0  0  0  0  0
   36.4502   74.4180    6.2927 H   0  0  0  0  0
   35.9115   72.7222    6.2211 H   0  0  0  0  0
   36.8034   73.3138    7.6444 H   0  0  0  0  0
   37.6514   70.8891    5.9094 H   0  0  0  0  0
   39.3712   71.3392    5.8050 H   0  0  0  0  0
   38.5011   71.4994    7.3504 H   0  0  0  0  0
   38.5954   74.7942    1.7491 H   0  0  0  0  0
   37.6937   72.7478   -0.1289 H   0  0  0  0  0
   37.3760   74.7967   -1.6389 H   0  0  0  0  0
   37.8695   75.7642   -0.1620 H   0  0  0  0  0
   35.9375   74.6575    1.0183 H   0  0  0  0  0
   35.8480   76.9649    0.2345 H   0  0  0  0  0
   35.3071   76.4099   -1.3688 H   0  0  0  0  0
   34.2687   76.1616    0.0564 H   0  0  0  0  0
   35.2199   73.8915   -1.8354 H   0  0  0  0  0
   35.6756   72.7662   -0.5327 H   0  0  0  0  0
   34.1684   73.7066   -0.4102 H   0  0  0  0  0
   40.7002   74.1948    0.5105 H   0  0  0  0  0
   41.5878   73.2350   -2.1659 H   0  0  0  0  0
   43.3371   74.9791   -2.1917 H   0  0  0  0  0
   43.2647   76.6060   -0.5207 H   0  0  0  0  0
   41.1381   75.5195   -3.1510 H   0  0  0  0  0
   40.5862   76.1071   -1.5631 H   0  0  0  0  0
   41.8875   76.9632   -2.4262 H   0  0  0  0  0
   41.6327   72.5721    1.0097 H   0  0  0  0  0
   44.1682   72.2400    1.9431 H   0  0  0  0  0
   42.5576   69.7577    2.1405 H   0  0  0  0  0
   41.7632   71.2863    2.7025 H   0  0  0  0  0
   43.0653   71.4491    4.4969 H   0  0  0  0  0
   44.5261   70.8070    3.6111 H   0  0  0  0  0
   44.7767   69.7580    5.5246 H   0  0  0  0  0
   45.7462   71.5679    0.9912 H   0  0  0  0  0
  1  2  1  0  0  0
  2  3  1  0  0  0
  2  5  1  0  0  0
  3  4  2  0  0  0
  3 10  1  0  0  0
  5  6  1  0  0  0
  6  7  1  0  0  0
  7  8  2  0  0  0
  7  9  1  0  0  0
 10 11  1  0  0  0
 11 12  1  0  0  0
 11 14  1  0  0  0
 12 13  2  0  0  0
 12 19  1  0  0  0
 14 15  1  0  0  0
 15 16  1  0  0  0
 16 17  2  0  0  0
 16 18  1  0  0  0
 19 20  1  0  0  0
 20 21  1  0  0  0
 20 23  1  0  0  0
 21 22  2  0  0  0
 21 28  1  0  0  0
 23 24  1  0  0  0
 24 25  1  0  0  0
 25 26  1  0  0  0
 26 27  1  0  0  0
 28 29  1  0  0  0
 29 30  1  0  0  0
 29 32  1  0  0  0
 30 31  2  0  0  0
 30 34  1  0  0  0
 32 33  1  0  0  0
 34 35  1  0  0  0
 35 36  1  0  0  0
 35 38  1  0  0  0
 36 37  2  0  0  0
 36 42  1  0  0  0
 38 39  1  0  0  0
 39 40  1  0  0  0
 39 41  1  0  0  0
 42 43  1  0  0  0
 43 44  1  0  0  0
 43 46  1  0  0  0
 44 45  2  0  0  0
 44 50  1  0  0  0
 46 47  1  0  0  0
 47 48  1  0  0  0
 47 49  1  0  0  0
 50 51  1  0  0  0
 51 52  1  0  0  0
 51 54  1  0  0  0
 52 53  2  0  0  0
 52 59  1  0  0  0
 54 55  1  0  0  0
 55 56  1  0  0  0
 56 57  2  0  0  0
 56 58  1  0  0  0
 59 60  1  0  0  0
 60 61  1  0  0  0
 60 63  1  0  0  0
 61 62  2  0  0  0
 61 68  1  0  0  0
 63 64  1  0  0  0
 64 65  1  0  0  0
 65 66  2  0  0  0
 65 67  1  0  0  0
 68 69  1  0  0  0
 69 70  1  0  0  0
 69 72  1  0  0  0
 70 71  2  0  0  0
 70 76  1  0  0  0
 72 73  1  0  0  0
 73 74  1  0  0  0
 73 75  1  0  0  0
 76 77  1  0  0  0
 77 78  1  0  0  0
 77 80  1  0  0  0
 78 79  2  0  0  0
 78 84  1  0  0  0
 80 81  1  0  0  0
 81 82  1  0  0  0
 81 83  1  0  0  0
 84 85  1  0  0  0
 85 86  1  0  0  0
 85 88  1  0  0  0
 86 87  2  0  0  0
 86 91  1  0  0  0
 88 89  1  0  0  0
 88 90  1  0  0  0
 91 92  1  0  0  0
 92 93  1  0  0  0
 92 95  1  0  0  0
 93 94  2  0  0  0
 93100  1  0  0  0
 95 96  1  0  0  0
 96 97  1  0  0  0
 97 98  1  0  0  0
 97 99  2  0  0  0
  1101  1  0  0  0
  1102  1  0  0  0
  1103  1  0  0  0
  2104  1  0  0  0
  5105  1  0  0  0
  5106  1  0  0  0
  6107  1  0  0  0
  6108  1  0  0  0
  9109  1  0  0  0
  9110  1  0  0  0
 10111  1  0  0  0
 11112  1  0  0  0
 14113  1  0  0  0
 14114  1  0  0  0
 15115  1  0  0  0
 15116  1  0  0  0
 18117  1  0  0  0
 18118  1  0  0  0
 19119  1  0  0  0
 20120  1  0  0  0
 23121  1  0  0  0
 23122  1  0  0  0
 24123  1  0  0  0
 24124  1  0  0  0
 25125  1  0  0  0
 25126  1  0  0  0
 26127  1  0  0  0
 26128  1  0  0  0
 27129  1  0  0  0
 27130  1  0  0  0
 27131  1  0  0  0
 28132  1  0  0  0
 29133  1  0  0  0
 32134  1  0  0  0
 32135  1  0  0  0
 33136  1  0  0  0
 34137  1  0  0  0
 35138  1  0  0  0
 38139  1  0  0  0
 38140  1  0  0  0
 39141  1  0  0  0
 40142  1  0  0  0
 40143  1  0  0  0
 40144  1  0  0  0
 41145  1  0  0  0
 41146  1  0  0  0
 41147  1  0  0  0
 42148  1  0  0  0
 43149  1  0  0  0
 46150  1  0  0  0
 46151  1  0  0  0
 47152  1  0  0  0
 48153  1  0  0  0
 48154  1  0  0  0
 48155  1  0  0  0
 49156  1  0  0  0
 49157  1  0  0  0
 49158  1  0  0  0
 50159  1  0  0  0
 51160  1  0  0  0
 54161  1  0  0  0
 54162  1  0  0  0
 55163  1  0  0  0
 55164  1  0  0  0
 58165  1  0  0  0
 58166  1  0  0  0
 59167  1  0  0  0
 60168  1  0  0  0
 63169  1  0  0  0
 63170  1  0  0  0
 64171  1  0  0  0
 64172  1  0  0  0
 67173  1  0  0  0
 67174  1  0  0  0
 68175  1  0  0  0
 69176  1  0  0  0
 72177  1  0  0  0
 72178  1  0  0  0
 73179  1  0  0  0
 74180  1  0  0  0
 74181  1  0  0  0
 74182  1  0  0  0
 75183  1  0  0  0
 75184  1  0  0  0
 75185  1  0  0  0
 76186  1  0  0  0
 77187  1  0  0  0
 80188  1  0  0  0
 80189  1  0  0  0
 81190  1  0  0  0
 82191  1  0  0  0
 82192  1  0  0  0
 82193  1  0  0  0
 83194  1  0  0  0
 83195  1  0  0  0
 83196  1  0  0  0
 84197  1  0  0  0
 85198  1  0  0  0
 88199  1  0  0  0
 89200  1  0  0  0
 90201  1  0  0  0
 90202  1  0  0  0
 90203  1  0  0  0
 91204  1  0  0  0
 92205  1  0  0  0
 95206  1  0  0  0
 95207  1  0  0  0
 96208  1  0  0  0
 96209  1  0  0  0
 98210  1  0  0  0
100211  1  0  0  0
M  END
$$$$
