3hj0_ligand
  -I-interpret- 

 35 36  0  0  0  0  0  0  0  0999 V2000
   -0.5720   -0.6270   -0.3170 C   0  0  0  0  0
    0.4340   -0.2830    0.2950 O   0  0  0  0  0
   -1.0610    0.1990   -1.4830 C   0  0  0  0  0
   -1.9230    1.2100   -1.0880 C   0  0  0  0  0
   -2.4660    2.0610   -2.0210 C   0  0  0  0  0
   -2.1330    1.9090   -3.3580 C   0  0  0  0  0
   -1.2750    0.9120   -3.7990 C   0  0  0  0  0
   -0.7170    0.0420   -2.8510 C   0  0  0  0  0
   -1.0450    0.9010   -5.2840 C   0  0  0  0  0
   -0.4260   -0.0550   -5.9790 C   0  0  0  0  0
   -0.2840   -0.0130   -7.4720 C   0  0  0  0  0
    0.1110   -1.1630   -8.1650 C   0  0  0  0  0
    0.2300   -1.1780   -9.5660 C   0  0  0  0  0
    0.6480   -2.4220  -10.3170 C   0  0  0  0  0
   -0.0360    0.0050  -10.2590 C   0  0  0  0  0
    0.0700    0.0250  -11.6290 O   0  0  0  0  0
   -0.4130    1.1760   -9.5980 C   0  0  0  0  0
   -0.7140    2.4340  -10.3870 C   0  0  0  0  0
   -0.5320    1.1540   -8.2000 C   0  0  0  0  0
   -1.1115   -1.5264   -0.0201 H   0  0  0  0  0
   -2.1712    1.3307   -0.0335 H   0  0  0  0  0
   -3.1529    2.8489   -1.7120 H   0  0  0  0  0
   -2.5600    2.5966   -4.0881 H   0  0  0  0  0
   -0.0284   -0.7442   -3.1607 H   0  0  0  0  0
   -1.4197    1.7557   -5.8472 H   0  0  0  0  0
   -0.0053   -0.9031   -5.4388 H   0  0  0  0  0
    0.3322   -2.0709   -7.6039 H   0  0  0  0  0
    1.6383   -2.7312   -9.9826 H   0  0  0  0  0
   -0.0682   -3.2202  -10.1223 H   0  0  0  0  0
    0.6742   -2.2082  -11.3855 H   0  0  0  0  0
   -0.1430    0.9034  -11.9525 H   0  0  0  0  0
    0.1701    2.7261  -10.9537 H   0  0  0  0  0
   -1.5397    2.2427  -11.0724 H   0  0  0  0  0
   -0.9881    3.2350   -9.7005 H   0  0  0  0  0
   -0.8228    2.0626   -7.6728 H   0  0  0  0  0
  1  2  2  0  0  0
  1  3  1  0  0  0
  3  4  4  0  0  0
  3  8  4  0  0  0
  4  5  4  0  0  0
  5  6  4  0  0  0
  6  7  4  0  0  0
  7  8  4  0  0  0
  7  9  1  0  0  0
  9 10  2  0  0  0
 10 11  1  0  0  0
 11 12  4  0  0  0
 11 19  4  0  0  0
 12 13  4  0  0  0
 13 14  1  0  0  0
 13 15  4  0  0  0
 15 16  1  0  0  0
 15 17  4  0  0  0
 17 18  1  0  0  0
 17 19  4  0  0  0
  1 20  1  0  0  0
  4 21  1  0  0  0
  5 22  1  0  0  0
  6 23  1  0  0  0
  8 24  1  0  0  0
  9 25  1  0  0  0
 10 26  1  0  0  0
 12 27  1  0  0  0
 14 28  1  0  0  0
 14 29  1  0  0  0
 14 30  1  0  0  0
 16 31  1  0  0  0
 18 32  1  0  0  0
 18 33  1  0  0  0
 18 34  1  0  0  0
 19 35  1  0  0  0
M  END
$$$$
