4uzd_ligand
  -I-interpret- 

 57 62  0  0  0  0  0  0  0  0999 V2000
   58.2740  -10.1280   44.4100 C   0  0  0  0  0
   58.2770  -11.4630   41.8630 N   0  0  0  0  0
   57.4840  -11.9840   42.8500 C   0  0  0  0  0
   57.4960  -11.4070   44.1580 C   0  0  0  0  0
   56.6470  -12.1780   44.9210 C   0  0  0  0  0
   56.1330  -13.1600   44.1370 N   0  0  0  0  0
   56.6450  -13.0630   42.8680 C   0  0  0  0  0
   59.0910   -9.6710   43.2050 C   0  0  0  0  0
   59.1060  -10.3810   42.0390 C   0  0  0  0  0
   59.9350  -10.0000   40.8530 C   0  0  0  0  0
   60.4040   -8.5500   40.8280 C   0  0  0  0  0
   60.8030   -8.0300   42.1960 C   0  0  0  0  0
   59.8580   -8.4200   43.3030 C   0  0  0  0  0
   59.7800   -7.7060   44.2910 O   0  0  0  0  0
   56.2560  -14.0180   41.8430 C   0  0  0  0  0
   55.4370  -14.8980   42.0380 O   0  0  0  0  0
   56.8930  -13.7780   40.6740 O   0  0  0  0  0
   56.6850  -14.7260   39.5790 C   0  0  0  0  0
   55.6820  -14.2060   38.6450 C   0  0  0  0  0
   57.3420   -9.0420   44.9580 C   0  0  0  0  0
   56.9560   -9.0710   46.2930 C   0  0  0  0  0
   55.7600   -8.4810   46.6930 C   0  0  0  0  0
   54.9860   -7.7760   45.7900 C   0  0  0  0  0
   55.4310   -7.6440   44.4890 C   0  0  0  0  0
   56.6010   -8.2620   44.0790 C   0  0  0  0  0
   58.0480   -6.1040   52.4430 C   0  0  0  0  0
   58.9450   -5.7130   51.4420 C   0  0  0  0  0
   58.7780   -6.1400   50.1310 C   0  0  0  0  0
   56.9710   -6.9370   52.1590 C   0  0  0  0  0
   56.7830   -7.3500   50.8410 C   0  0  0  0  0
   57.6840   -6.9480   49.8490 C   0  0  0  0  0
   57.1670   -7.4150   48.6540 N   0  0  0  0  0
   56.0080   -8.0640   48.9890 C   0  0  0  0  0
   55.7250   -8.0590   50.2730 N   0  0  0  0  0
   55.2550   -8.6540   48.0100 O   0  0  0  0  0
   59.0218  -10.3397   45.1742 H   0  0  0  0  0
   58.2510  -11.9036   40.9434 H   0  0  0  0  0
   56.4251  -12.0253   45.9772 H   0  0  0  0  0
   59.3066  -10.1409   39.9736 H   0  0  0  0  0
   60.8319  -10.6185   40.8863 H   0  0  0  0  0
   59.5746   -7.9397   40.4707 H   0  0  0  0  0
   61.2821   -8.4970   40.1844 H   0  0  0  0  0
   60.8017   -6.9414   42.1398 H   0  0  0  0  0
   61.7746   -8.4628   42.4344 H   0  0  0  0  0
   56.3348  -15.6736   39.9883 H   0  0  0  0  0
   57.6260  -14.8713   39.0485 H   0  0  0  0  0
   54.7399  -14.0557   39.1722 H   0  0  0  0  0
   56.0264  -13.2563   38.2357 H   0  0  0  0  0
   55.5365  -14.9208   37.8350 H   0  0  0  0  0
   57.5932   -9.5584   47.0309 H   0  0  0  0  0
   54.0401   -7.3316   46.0996 H   0  0  0  0  0
   54.8568   -7.0486   43.7791 H   0  0  0  0  0
   56.9450   -8.1346   43.0526 H   0  0  0  0  0
   58.1962   -5.7494   53.4630 H   0  0  0  0  0
   59.7847   -5.0656   51.6945 H   0  0  0  0  0
   59.4814   -5.8509   49.3501 H   0  0  0  0  0
   56.2908   -7.2589   52.9475 H   0  0  0  0  0
  1  4  1  0  0  0
  1  8  1  0  0  0
 20  1  1  0  0  0
  3  2  1  0  0  0
  9  2  1  0  0  0
  4  3  4  0  0  0
  3  7  4  0  0  0
  4  5  4  0  0  0
  5  6  4  0  0  0
  6  7  4  0  0  0
  7 15  1  0  0  0
  8  9  2  0  0  0
  8 13  1  0  0  0
  9 10  1  0  0  0
 10 11  1  0  0  0
 12 11  1  0  0  0
 13 12  1  0  0  0
 13 14  2  0  0  0
 15 16  2  0  0  0
 15 17  1  0  0  0
 17 18  1  0  0  0
 18 19  1  0  0  0
 21 20  4  0  0  0
 20 25  4  0  0  0
 22 21  4  0  0  0
 22 23  4  0  0  0
 35 22  1  0  0  0
 23 24  4  0  0  0
 24 25  4  0  0  0
 26 27  4  0  0  0
 29 26  4  0  0  0
 28 27  4  0  0  0
 31 28  4  0  0  0
 30 29  4  0  0  0
 30 31  4  0  0  0
 34 30  4  0  0  0
 32 31  4  0  0  0
 33 32  4  0  0  0
 33 34  4  0  0  0
 33 35  1  0  0  0
  1 36  1  0  0  0
  2 37  1  0  0  0
  5 38  1  0  0  0
 10 39  1  0  0  0
 10 40  1  0  0  0
 11 41  1  0  0  0
 11 42  1  0  0  0
 12 43  1  0  0  0
 12 44  1  0  0  0
 18 45  1  0  0  0
 18 46  1  0  0  0
 19 47  1  0  0  0
 19 48  1  0  0  0
 19 49  1  0  0  0
 21 50  1  0  0  0
 23 51  1  0  0  0
 24 52  1  0  0  0
 25 53  1  0  0  0
 26 54  1  0  0  0
 27 55  1  0  0  0
 28 56  1  0  0  0
 29 57  1  0  0  0
M  END
$$$$
