5mft_ligand
  -I-interpret- 

 40 42  0  0  0  0  0  0  0  0999 V2000
  -63.5190   15.5730   -2.5640 C   0  0  0  0  0
  -63.2650   17.8810   -7.8970 O   0  0  0  0  0
  -63.5440   14.6390   -3.5560 C   0  0  0  0  0
  -64.3020   14.8530   -4.6930 C   0  0  0  0  0
  -65.5200   19.1270   -9.4320 C   0  0  0  0  0
  -66.7940   18.8780   -8.6260 C   0  0  0  0  0
  -65.0260   18.5570   -6.4070 C   0  0  0  0  0
  -62.9750   19.7600   -6.6940 O   0  0  0  0  0
  -63.9340   18.9800   -7.3740 C   0  0  0  0  0
  -64.4270   19.8200   -8.6200 C   0  0  0  0  0
  -67.5890   16.4920   -8.2310 C   0  0  0  0  0
  -67.5540   15.2850   -7.5560 C   0  0  0  0  0
  -66.7290   15.1370   -6.4660 C   0  0  0  0  0
  -65.9190   16.1970   -6.0490 C   0  0  0  0  0
  -65.9210   17.3930   -6.7840 C   0  0  0  0  0
  -66.7710   17.5610   -7.8840 C   0  0  0  0  0
  -65.0780   15.9950   -4.8320 C   0  0  0  0  0
  -65.1030   16.8960   -3.7760 C   0  0  0  0  0
  -64.3210   16.6840   -2.6550 C   0  0  0  0  0
  -63.2610   20.0150   -9.5190 N   0  3  0  0  0
  -62.8653   15.4388   -1.7021 H   0  0  0  0  0
  -63.8878   17.3237   -8.3694 H   0  0  0  0  0
  -62.9653   13.7211   -3.4532 H   0  0  0  0  0
  -64.2896   14.1126   -5.4928 H   0  0  0  0  0
  -65.7771   19.7783  -10.2673 H   0  0  0  0  0
  -65.1339   18.1589   -9.7510 H   0  0  0  0  0
  -67.6307   18.8528   -9.3242 H   0  0  0  0  0
  -66.8827   19.6751   -7.8878 H   0  0  0  0  0
  -65.6927   19.4166   -6.3388 H   0  0  0  0  0
  -64.4995   18.2307   -5.5101 H   0  0  0  0  0
  -62.2865   20.0256   -7.3080 H   0  0  0  0  0
  -64.8437   20.7523   -8.2388 H   0  0  0  0  0
  -68.2822   16.6089   -9.0640 H   0  0  0  0  0
  -68.1779   14.4547   -7.8869 H   0  0  0  0  0
  -66.7066   14.1906   -5.9257 H   0  0  0  0  0
  -65.7433   17.7764   -3.8307 H   0  0  0  0  0
  -64.3415   17.4045   -1.8373 H   0  0  0  0  0
  -63.5488   20.5555  -10.3347 H   0  0  0  0  0
  -62.5275   20.5170   -9.0185 H   0  0  0  0  0
  -62.9087   19.1060   -9.8190 H   0  0  0  0  0
  3  1  4  0  0  0
  1 19  4  0  0  0
  9  2  1  0  0  0
  4  3  4  0  0  0
 17  4  4  0  0  0
  5  6  1  0  0  0
 10  5  1  0  0  0
 16  6  1  0  0  0
  7  9  1  0  0  0
 15  7  1  0  0  0
  9  8  1  0  0  0
  9 10  1  0  0  0
 10 20  1  0  0  0
 12 11  4  0  0  0
 11 16  4  0  0  0
 13 12  4  0  0  0
 14 13  4  0  0  0
 14 15  4  0  0  0
 14 17  1  0  0  0
 15 16  4  0  0  0
 17 18  4  0  0  0
 18 19  4  0  0  0
  1 21  1  0  0  0
  2 22  1  0  0  0
  3 23  1  0  0  0
  4 24  1  0  0  0
  5 25  1  0  0  0
  5 26  1  0  0  0
  6 27  1  0  0  0
  6 28  1  0  0  0
  7 29  1  0  0  0
  7 30  1  0  0  0
  8 31  1  0  0  0
 10 32  1  0  0  0
 11 33  1  0  0  0
 12 34  1  0  0  0
 13 35  1  0  0  0
 18 36  1  0  0  0
 19 37  1  0  0  0
 20 38  1  0  0  0
 20 39  1  0  0  0
 20 40  1  0  0  0
M  END
$$$$
