5hfc_ligand
  -I-interpret- 

128129  0  0  0  0  0  0  0  0999 V2000
   36.2930   42.4640   22.9760 N   0  3  0  0  0
   36.2960   43.4880   24.0130 C   0  0  0  0  0
   37.2370   44.6300   23.6410 C   0  0  0  0  0
   37.8810   44.5960   22.5930 O   0  0  0  0  0
   36.7050   42.8840   25.3600 C   0  0  0  0  0
   38.1280   42.3580   25.3570 C   0  0  0  0  0
   38.7120   42.1150   24.3000 O   0  0  0  0  0
   38.6930   42.1740   26.5450 N   0  0  0  0  0
   37.2380   45.6570   24.4680 N   0  0  0  0  0
   38.1370   46.7680   24.2720 C   0  0  0  0  0
   37.4750   47.6560   23.2500 C   0  0  0  0  0
   37.6600   47.4500   22.0530 O   0  0  0  0  0
   39.4830   46.2820   23.7640 C   0  0  0  0  0
   40.5090   47.3660   23.6350 C   0  0  0  0  0
   40.7370   48.2550   24.6670 C   0  0  0  0  0
   41.2520   47.5000   22.4810 C   0  0  0  0  0
   41.6820   49.2510   24.5540 C   0  0  0  0  0
   42.1980   48.4920   22.3550 C   0  0  0  0  0
   42.4090   49.3620   23.3970 C   0  0  0  0  0
   43.3380   50.3480   23.2810 O   0  0  0  0  0
   37.8470   48.9070   23.3750 N   0  3  0  0  0
   37.7090   49.9290   22.3540 C   0  0  0  0  0
   38.3450   51.1870   22.9270 C   0  0  0  0  0
   38.2760   51.4180   24.1360 O   0  0  0  0  0
   36.2410   50.1760   21.9970 C   0  0  0  0  0
   35.4110   48.9130   21.7990 C   0  0  0  0  0
   33.9410   49.2350   21.5620 C   0  0  0  0  0
   33.7130   49.8900   20.2090 C   0  0  0  0  0
   32.2740   50.2030   19.9810 N   0  3  0  0  0
   38.9780   51.9920   22.0800 N   0  0  0  0  0
   39.5860   53.2330   22.5490 C   0  0  0  0  0
   39.2390   54.3900   21.6170 C   0  0  0  0  0
   39.4270   54.3050   20.4030 O   0  0  0  0  0
   41.1050   53.0670   22.6840 C   0  0  0  0  0
   41.8170   54.3100   23.2140 C   0  0  0  0  0
   43.1850   54.0430   23.8500 C   0  0  0  0  0
   43.8440   54.9780   24.3030 O   0  0  0  0  0
   43.6110   52.7810   23.8930 N   0  0  0  0  0
   38.7140   55.4620   22.2030 N   0  0  0  0  0
   38.2230   56.6060   21.4390 C   0  0  0  0  0
   38.9470   57.8870   21.8440 C   0  0  0  0  0
   39.2330   58.1010   23.0200 O   0  0  0  0  0
   36.7170   56.7890   21.6420 C   0  0  0  0  0
   35.8880   55.6470   21.1300 C   0  0  0  0  0
   35.5810   54.5750   21.9490 C   0  0  0  0  0
   35.4090   55.6490   19.8320 C   0  0  0  0  0
   34.8200   53.5240   21.4810 C   0  0  0  0  0
   34.6470   54.6000   19.3590 C   0  0  0  0  0
   34.3530   53.5370   20.1850 C   0  0  0  0  0
   39.2340   58.7370   20.8640 N   0  0  0  0  0
   39.7540   60.0730   21.1330 C   0  0  0  0  0
   38.5910   61.0480   21.2680 C   0  0  0  0  0
   37.7090   61.0870   20.4100 O   0  0  0  0  0
   40.7010   60.5260   20.0190 C   0  0  0  0  0
   41.7970   59.6420   19.8860 O   0  0  0  0  0
   38.5900   61.8330   22.3420 N   0  0  0  0  0
   37.5140   62.7880   22.5860 C   0  0  0  0  0
   38.0800   64.1930   22.7530 C   0  0  0  0  0
   37.3320   65.1720   22.7450 O   0  0  0  0  0
   36.6770   62.3840   23.8180 C   0  0  0  0  0
   36.0490   61.0150   23.6040 C   0  0  0  0  0
   37.5280   62.3930   25.0800 C   0  0  0  0  0
   39.2890   64.3890   22.8960 O   0  0  0  0  0
   36.0189   42.8827   22.0872 H   0  0  0  0  0
   37.2278   42.0649   22.8913 H   0  0  0  0  0
   35.6302   41.7303   23.2263 H   0  0  0  0  0
   35.2855   43.8874   24.1001 H   0  0  0  0  0
   36.0388   42.0467   25.5677 H   0  0  0  0  0
   36.6398   43.6695   26.1129 H   0  0  0  0  0
   39.6470   41.8184   26.6064 H   0  0  0  0  0
   38.1728   42.3883   27.3958 H   0  0  0  0  0
   36.5933   45.6660   25.2584 H   0  0  0  0  0
   38.3242   47.3007   25.2043 H   0  0  0  0  0
   36.4375   47.4217   23.4885 H   0  0  0  0  0
   37.1722   48.0975   21.5389 H   0  0  0  0  0
   39.3236   45.8658   22.7693 H   0  0  0  0  0
   39.8621   45.5607   24.4879 H   0  0  0  0  0
   40.1591   48.1670   25.5870 H   0  0  0  0  0
   41.0874   46.8086   21.6546 H   0  0  0  0  0
   41.8503   49.9450   25.3775 H   0  0  0  0  0
   42.7754   48.5865   21.4353 H   0  0  0  0  0
   43.7572   50.2914   22.4192 H   0  0  0  0  0
   38.8600   48.8229   23.4599 H   0  0  0  0  0
   37.2204   49.2460   24.1050 H   0  0  0  0  0
   38.1958   49.6191   21.4293 H   0  0  0  0  0
   36.2317   50.7131   21.0486 H   0  0  0  0  0
   35.7986   50.7180   22.8328 H   0  0  0  0  0
   35.4882   48.3067   22.7015 H   0  0  0  0  0
   35.7920   48.3857   20.9244 H   0  0  0  0  0
   33.6148   49.9293   22.3363 H   0  0  0  0  0
   33.3789   48.3015   21.5881 H   0  0  0  0  0
   34.0399   49.1972   19.4336 H   0  0  0  0  0
   34.2752   50.8234   20.1812 H   0  0  0  0  0
   32.1631   50.6397   19.0659 H   0  0  0  0  0
   31.7301   49.3408   20.0157 H   0  0  0  0  0
   31.9473   50.8419   20.7058 H   0  0  0  0  0
   39.0394   51.7403   21.0935 H   0  0  0  0  0
   39.1821   53.4666   23.5341 H   0  0  0  0  0
   41.4996   52.8666   21.6879 H   0  0  0  0  0
   41.2816   52.2624   23.3978 H   0  0  0  0  0
   41.1818   54.7309   23.9934 H   0  0  0  0  0
   41.9870   54.9661   22.3603 H   0  0  0  0  0
   44.5143   52.5617   24.3130 H   0  0  0  0  0
   43.0338   52.0344   23.5059 H   0  0  0  0  0
   38.6520   55.4863   23.2208 H   0  0  0  0  0
   38.4212   56.4051   20.3862 H   0  0  0  0  0
   36.4215   57.6780   21.0848 H   0  0  0  0  0
   36.5419   56.8595   22.7155 H   0  0  0  0  0
   35.9448   54.5608   22.9764 H   0  0  0  0  0
   35.6361   56.4888   19.1753 H   0  0  0  0  0
   34.5884   52.6841   22.1359 H   0  0  0  0  0
   34.2782   54.6124   18.3334 H   0  0  0  0  0
   33.7516   52.7073   19.8134 H   0  0  0  0  0
   39.0867   58.4474   19.8971 H   0  0  0  0  0
   40.3205   60.0504   22.0640 H   0  0  0  0  0
   41.0820   61.5163   20.2685 H   0  0  0  0  0
   40.1497   60.5395   19.0788 H   0  0  0  0  0
   42.3720   59.9507   19.1820 H   0  0  0  0  0
   39.3582   61.7659   23.0096 H   0  0  0  0  0
   36.8519   62.7813   21.7202 H   0  0  0  0  0
   35.8795   63.1161   23.9453 H   0  0  0  0  0
   35.4013   61.0468   22.7279 H   0  0  0  0  0
   36.8353   60.2761   23.4495 H   0  0  0  0  0
   35.4621   60.7447   24.4818 H   0  0  0  0  0
   38.3502   61.6863   24.9673 H   0  0  0  0  0
   37.9274   63.3945   25.2402 H   0  0  0  0  0
   36.9137   62.1047   25.9330 H   0  0  0  0  0
   39.7520   63.5481   22.8838 H   0  0  0  0  0
  1  2  1  0  0  0
  2  3  1  0  0  0
  2  5  1  0  0  0
  3  4  2  0  0  0
  3  9  1  0  0  0
  5  6  1  0  0  0
  6  7  2  0  0  0
  6  8  1  0  0  0
  9 10  1  0  0  0
 10 11  1  0  0  0
 10 13  1  0  0  0
 11 12  1  0  0  0
 11 21  1  0  0  0
 13 14  1  0  0  0
 14 15  4  0  0  0
 14 16  4  0  0  0
 15 17  4  0  0  0
 16 18  4  0  0  0
 17 19  4  0  0  0
 18 19  4  0  0  0
 19 20  1  0  0  0
 21 22  1  0  0  0
 22 23  1  0  0  0
 22 25  1  0  0  0
 23 24  2  0  0  0
 23 30  1  0  0  0
 25 26  1  0  0  0
 26 27  1  0  0  0
 27 28  1  0  0  0
 28 29  1  0  0  0
 30 31  1  0  0  0
 31 32  1  0  0  0
 31 34  1  0  0  0
 32 33  2  0  0  0
 32 39  1  0  0  0
 34 35  1  0  0  0
 35 36  1  0  0  0
 36 37  2  0  0  0
 36 38  1  0  0  0
 39 40  1  0  0  0
 40 41  1  0  0  0
 40 43  1  0  0  0
 41 42  2  0  0  0
 41 50  1  0  0  0
 43 44  1  0  0  0
 44 45  4  0  0  0
 44 46  4  0  0  0
 45 47  4  0  0  0
 46 48  4  0  0  0
 47 49  4  0  0  0
 48 49  4  0  0  0
 50 51  1  0  0  0
 51 52  1  0  0  0
 51 54  1  0  0  0
 52 53  2  0  0  0
 52 56  1  0  0  0
 54 55  1  0  0  0
 56 57  1  0  0  0
 57 58  1  0  0  0
 57 60  1  0  0  0
 58 59  2  0  0  0
 58 63  1  0  0  0
 60 61  1  0  0  0
 60 62  1  0  0  0
  1 64  1  0  0  0
  1 65  1  0  0  0
  1 66  1  0  0  0
  2 67  1  0  0  0
  5 68  1  0  0  0
  5 69  1  0  0  0
  8 70  1  0  0  0
  8 71  1  0  0  0
  9 72  1  0  0  0
 10 73  1  0  0  0
 11 74  1  0  0  0
 12 75  1  0  0  0
 13 76  1  0  0  0
 13 77  1  0  0  0
 15 78  1  0  0  0
 16 79  1  0  0  0
 17 80  1  0  0  0
 18 81  1  0  0  0
 20 82  1  0  0  0
 21 83  1  0  0  0
 21 84  1  0  0  0
 22 85  1  0  0  0
 25 86  1  0  0  0
 25 87  1  0  0  0
 26 88  1  0  0  0
 26 89  1  0  0  0
 27 90  1  0  0  0
 27 91  1  0  0  0
 28 92  1  0  0  0
 28 93  1  0  0  0
 29 94  1  0  0  0
 29 95  1  0  0  0
 29 96  1  0  0  0
 30 97  1  0  0  0
 31 98  1  0  0  0
 34 99  1  0  0  0
 34100  1  0  0  0
 35101  1  0  0  0
 35102  1  0  0  0
 38103  1  0  0  0
 38104  1  0  0  0
 39105  1  0  0  0
 40106  1  0  0  0
 43107  1  0  0  0
 43108  1  0  0  0
 45109  1  0  0  0
 46110  1  0  0  0
 47111  1  0  0  0
 48112  1  0  0  0
 49113  1  0  0  0
 50114  1  0  0  0
 51115  1  0  0  0
 54116  1  0  0  0
 54117  1  0  0  0
 55118  1  0  0  0
 56119  1  0  0  0
 57120  1  0  0  0
 60121  1  0  0  0
 61122  1  0  0  0
 61123  1  0  0  0
 61124  1  0  0  0
 62125  1  0  0  0
 62126  1  0  0  0
 62127  1  0  0  0
 63128  1  0  0  0
M  END
$$$$
