### 
### Created by X-TOOL on Mon Sep 10 21:13:28 2018
### 

@<TRIPOS>MOLECULE
5hfc_ligand
  127   128     1     0     0
SMALL
GAST_HUCK


@<TRIPOS>ATOM
      1 N          36.2930   42.4640   22.9760 N.4       1 ASN         0.2396
      2 CA         36.2960   43.4880   24.0130 C.3       1 ASN         0.0816
      3 C          37.2370   44.6300   23.6410 C.2       1 ASN         0.2275
      4 O          37.8810   44.5960   22.5930 O.2       1 ASN        -0.3907
      5 CB         36.7050   42.8840   25.3600 C.3       1 ASN         0.0972
      6 CG         38.1280   42.3580   25.3570 C.2       1 ASN         0.1813
      7 OD1        38.7120   42.1150   24.3000 O.2       1 ASN        -0.3969
      8 ND2        38.6930   42.1740   26.5450 N.am      1 ASN        -0.3006
      9 N          37.2380   45.6570   24.4680 N.am      1 TYR        -0.2694
     10 CA         38.1370   46.7680   24.2720 C.3       1 TYR         0.1186
     11 C          37.4750   47.6560   23.2500 C.3       1 TYR         0.1073
     12 O          37.6600   47.4500   22.0530 O.3       1 TYR        -0.3506
     13 CB         39.4830   46.2820   23.7640 C.3       1 TYR         0.0067
     14 CG         40.5090   47.3660   23.6350 C.ar      1 TYR        -0.0512
     15 CD1        40.7370   48.2550   24.6670 C.ar      1 TYR        -0.0687
     16 CD2        41.2520   47.5000   22.4810 C.ar      1 TYR        -0.0687
     17 CE1        41.6820   49.2510   24.5540 C.ar      1 TYR        -0.0398
     18 CE2        42.1980   48.4920   22.3550 C.ar      1 TYR        -0.0398
     19 CZ         42.4090   49.3620   23.3970 C.ar      1 TYR         0.0805
     20 OH         43.3380   50.3480   23.2810 O.3       1 TYR        -0.3376
     21 N          37.8470   48.9070   23.3750 N.4       1 LYS         0.2696
     22 CA         37.7090   49.9290   22.3540 C.3       1 LYS         0.0694
     23 C          38.3450   51.1870   22.9270 C.2       1 LYS         0.2269
     24 O          38.2760   51.4180   24.1360 O.2       1 LYS        -0.3907
     25 CB         36.2410   50.1760   21.9970 C.3       1 LYS         0.0082
     26 CG         35.4110   48.9130   21.7990 C.3       1 LYS        -0.0410
     27 CD         33.9410   49.2350   21.5620 C.3       1 LYS        -0.0123
     28 CE         33.7130   49.8900   20.2090 C.3       1 LYS        -0.0354
     29 NZ         32.2740   50.2030   19.9810 N.4       1 LYS         0.2185
     30 N          38.9780   51.9920   22.0800 N.am      1 GLN        -0.2609
     31 CA         39.5860   53.2330   22.5490 C.3       1 GLN         0.1331
     32 C          39.2390   54.3900   21.6170 C.2       1 GLN         0.2042
     33 O          39.4270   54.3050   20.4030 O.2       1 GLN        -0.3944
     34 CB         41.1050   53.0670   22.6840 C.3       1 GLN         0.0045
     35 CG         41.8170   54.3100   23.2140 C.3       1 GLN         0.0412
     36 CD         43.1850   54.0430   23.8500 C.2       1 GLN         0.1737
     37 OE1        43.8440   54.9780   24.3030 O.2       1 GLN        -0.3973
     38 NE2        43.6110   52.7810   23.8930 N.am      1 GLN        -0.3009
     39 N          38.7140   55.4620   22.2030 N.am      1 PHE        -0.2619
     40 CA         38.2230   56.6060   21.4390 C.3       1 PHE         0.1404
     41 C          38.9470   57.8870   21.8440 C.2       1 PHE         0.2060
     42 O          39.2330   58.1010   23.0200 O.2       1 PHE        -0.3942
     43 CB         36.7170   56.7890   21.6420 C.3       1 PHE         0.0214
     44 CG         35.8880   55.6470   21.1300 C.ar      1 PHE        -0.0386
     45 CD1        35.5810   54.5750   21.9490 C.ar      1 PHE        -0.0601
     46 CD2        35.4090   55.6490   19.8320 C.ar      1 PHE        -0.0601
     47 CE1        34.8200   53.5240   21.4810 C.ar      1 PHE        -0.0686
     48 CE2        34.6470   54.6000   19.3590 C.ar      1 PHE        -0.0686
     49 CZ         34.3530   53.5370   20.1850 C.ar      1 PHE        -0.0687
     50 N          39.2340   58.7370   20.8640 N.am      1 SER        -0.2614
     51 CA         39.7540   60.0730   21.1330 C.3       1 SER         0.1539
     52 C          38.5910   61.0480   21.2680 C.2       1 SER         0.2056
     53 O          37.7090   61.0870   20.4100 O.2       1 SER        -0.3943
     54 CB         40.7010   60.5260   20.0190 C.3       1 SER         0.0843
     55 OG         41.7970   59.6420   19.8860 O.3       1 SER        -0.3903
     56 N          38.5900   61.8330   22.3420 N.am      1 VAL        -0.2692
     57 CA         37.5140   62.7880   22.5860 C.3       1 VAL         0.0967
     58 C          38.0800   64.1930   22.7530 C.2       1 VAL         0.0603
     59 O          37.3320   65.1720   22.7450 O.co2     1 VAL        -0.5666
     60 CB         36.6770   62.3840   23.8180 C.3       1 VAL        -0.0118
     61 CG1        36.0490   61.0150   23.6040 C.3       1 VAL        -0.0590
     62 CG2        37.5280   62.3930   25.0800 C.3       1 VAL        -0.0590
     63 OXT        39.2890   64.3890   22.8960 O.co2     1 VAL        -0.5666
     64 H1         35.6664   41.7200   23.2404 H         1 ASN         0.2017
     65 H2         37.2246   42.0953   22.8652 H         1 ASN         0.2017
     66 H3         35.9859   42.8684   22.1053 H         1 ASN         0.2017
     67 H4         35.2771   43.8919   24.1059 H         1 ASN         0.1125
     68 H5         36.0232   42.0534   25.5950 H         1 ASN         0.0585
     69 H6         36.6182   43.6600   26.1347 H         1 ASN         0.0585
     70 H7         39.6297   41.8291   26.6051 H         1 ASN         0.1814
     71 H8         38.1817   42.3804   27.3792 H         1 ASN         0.1814
     72 H9         36.6059   45.6658   25.2429 H         1 TYR         0.1861
     73 H10        38.2797   47.3140   25.2162 H         1 TYR         0.0660
     74 H11        36.3942   47.5775   23.4390 H         1 TYR         0.1209
     75 H12        37.4185   46.5549   21.8458 H         1 TYR         0.2155
     76 H13        39.3355   45.8249   22.7744 H         1 TYR         0.0430
     77 H14        39.8650   45.5248   24.4645 H         1 TYR         0.0430
     78 H15        40.1623   48.1675   25.5820 H         1 TYR         0.0530
     79 H16        41.0883   46.8124   21.6591 H         1 TYR         0.0530
     80 H17        41.8493   49.9411   25.3730 H         1 TYR         0.0525
     81 H18        42.7722   48.5860   21.4404 H         1 TYR         0.0525
     82 H19        43.3595   50.8572   24.0827 H         1 TYR         0.2458
     83 H20        38.8317   48.8732   23.5880 H         1 LYS         0.2064
     84 H21        37.3422   49.2575   24.1740 H         1 LYS         0.2064
     85 H22        38.2464   49.6196   21.4455 H         1 LYS         0.1100
     86 H23        36.2087   50.7567   21.0633 H         1 LYS         0.0346
     87 H24        35.7850   50.7615   22.8089 H         1 LYS         0.0346
     88 H25        35.4977   48.2851   22.6980 H         1 LYS         0.0270
     89 H26        35.8001   48.3637   20.9291 H         1 LYS         0.0270
     90 H27        33.5956   49.9195   22.3507 H         1 LYS         0.0317
     91 H28        33.3611   48.3014   21.6069 H         1 LYS         0.0317
     92 H29        34.0579   49.2060   19.4196 H         1 LYS         0.0813
     93 H30        34.2920   50.8241   20.1635 H         1 LYS         0.0813
     94 H31        32.1632   50.6347   19.0769 H         1 LYS         0.1994
     95 H32        31.9500   50.8345   20.6968 H         1 LYS         0.1994
     96 H33        31.7354   49.3516   20.0151 H         1 LYS         0.1994
     97 H34        39.0382   51.7452   21.1128 H         1 GLN         0.1885
     98 H35        39.1769   53.4619   23.5441 H         1 GLN         0.0801
     99 H36        41.5171   52.8278   21.6926 H         1 GLN         0.0337
    100 H37        41.3027   52.2336   23.3741 H         1 GLN         0.0337
    101 H38        41.1719   54.7768   23.9728 H         1 GLN         0.0504
    102 H39        41.9596   55.0069   22.3750 H         1 GLN         0.0504
    103 H40        44.4988   52.5666   24.3003 H         1 GLN         0.1814
    104 H41        43.0429   52.0485   23.5180 H         1 GLN         0.1814
    105 H42        38.6533   55.4858   23.2009 H         1 PHE         0.1885
    106 H43        38.4139   56.4171   20.3723 H         1 PHE         0.0823
    107 H44        36.4061   57.7044   21.1173 H         1 PHE         0.0474
    108 H45        36.5243   56.9004   22.7192 H         1 PHE         0.0474
    109 H46        35.9428   54.5609   22.9707 H         1 PHE         0.0557
    110 H47        35.6348   56.4842   19.1789 H         1 PHE         0.0557
    111 H48        34.5897   52.6887   22.1323 H         1 PHE         0.0599
    112 H49        34.2803   54.6123   18.3390 H         1 PHE         0.0599
    113 H50        33.7549   52.7119   19.8155 H         1 PHE         0.0559
    114 H51        39.0896   58.4531   19.9161 H         1 SER         0.1884
    115 H52        40.3126   60.0514   22.0803 H         1 SER         0.0823
    116 H53        41.0784   61.5316   20.2562 H         1 SER         0.0606
    117 H54        40.1479   60.5566   19.0687 H         1 SER         0.0606
    118 H55        42.2812   59.6146   20.7028 H         1 SER         0.2097
    119 H56        39.3432   61.7672   22.9965 H         1 VAL         0.1875
    120 H57        36.8504   62.7871   21.7087 H         1 VAL         0.0729
    121 H58        35.8690   63.1199   23.9428 H         1 VAL         0.0336
    122 H59        35.4563   60.7411   24.4893 H         1 VAL         0.0234
    123 H60        36.8415   60.2683   23.4480 H         1 VAL         0.0234
    124 H61        35.3950   61.0457   22.7201 H         1 VAL         0.0234
    125 H62        37.9719   63.3902   25.2157 H         1 VAL         0.0234
    126 H63        38.3289   61.6447   24.9876 H         1 VAL         0.0234
    127 H64        36.8982   62.1507   25.9487 H         1 VAL         0.0234
@<TRIPOS>BOND
     1    1    2 1  
     2    2    3 1  
     3    2    5 1  
     4    3    4 2  
     5    3    9 am 
     6    5    6 1  
     7    6    7 2  
     8    6    8 am 
     9    9   10 1  
    10   10   11 1  
    11   10   13 1  
    12   11   12 1  
    13   11   21 1  
    14   13   14 1  
    15   14   15 ar 
    16   14   16 ar 
    17   15   17 ar 
    18   16   18 ar 
    19   17   19 ar 
    20   18   19 ar 
    21   19   20 1  
    22   21   22 1  
    23   22   23 1  
    24   22   25 1  
    25   23   24 2  
    26   23   30 am 
    27   25   26 1  
    28   26   27 1  
    29   27   28 1  
    30   28   29 1  
    31   30   31 1  
    32   31   32 1  
    33   31   34 1  
    34   32   33 2  
    35   32   39 am 
    36   34   35 1  
    37   35   36 1  
    38   36   37 2  
    39   36   38 am 
    40   39   40 1  
    41   40   41 1  
    42   40   43 1  
    43   41   42 2  
    44   41   50 am 
    45   43   44 1  
    46   44   45 ar 
    47   44   46 ar 
    48   45   47 ar 
    49   46   48 ar 
    50   47   49 ar 
    51   48   49 ar 
    52   50   51 1  
    53   51   52 1  
    54   51   54 1  
    55   52   53 2  
    56   52   56 am 
    57   54   55 1  
    58   56   57 1  
    59   57   58 1  
    60   57   60 1  
    61   58   59 ar 
    62   58   63 ar 
    63   60   61 1  
    64   60   62 1  
    65    1   64 1  
    66    1   65 1  
    67    1   66 1  
    68    2   67 1  
    69    5   68 1  
    70    5   69 1  
    71    8   70 1  
    72    8   71 1  
    73    9   72 1  
    74   10   73 1  
    75   11   74 1  
    76   12   75 1  
    77   13   76 1  
    78   13   77 1  
    79   15   78 1  
    80   16   79 1  
    81   17   80 1  
    82   18   81 1  
    83   20   82 1  
    84   21   83 1  
    85   21   84 1  
    86   22   85 1  
    87   25   86 1  
    88   25   87 1  
    89   26   88 1  
    90   26   89 1  
    91   27   90 1  
    92   27   91 1  
    93   28   92 1  
    94   28   93 1  
    95   29   94 1  
    96   29   95 1  
    97   29   96 1  
    98   30   97 1  
    99   31   98 1  
   100   34   99 1  
   101   34  100 1  
   102   35  101 1  
   103   35  102 1  
   104   38  103 1  
   105   38  104 1  
   106   39  105 1  
   107   40  106 1  
   108   43  107 1  
   109   43  108 1  
   110   45  109 1  
   111   46  110 1  
   112   47  111 1  
   113   48  112 1  
   114   49  113 1  
   115   50  114 1  
   116   51  115 1  
   117   54  116 1  
   118   54  117 1  
   119   55  118 1  
   120   56  119 1  
   121   57  120 1  
   122   60  121 1  
   123   61  122 1  
   124   61  123 1  
   125   61  124 1  
   126   62  125 1  
   127   62  126 1  
   128   62  127 1  
@<TRIPOS>SUBSTRUCTURE
     1 ASN         1

