### 
### Created by X-TOOL on Mon Sep 10 21:13:01 2018
### 

@<TRIPOS>MOLECULE
3h52_ligand
  224   223     1     0     0
SMALL
GAST_HUCK


@<TRIPOS>ATOM
      1 N         -36.9320   27.6710  -47.6900 N.4       1 ASN         0.2377
      2 CA        -36.1940   28.7460  -46.9630 C.3       1 ASN         0.0621
      3 C         -35.6930   28.3340  -45.5650 C.2       1 ASN         0.2264
      4 O         -34.9360   29.0800  -44.9360 O.2       1 ASN        -0.3907
      5 CB        -37.0620   30.0050  -46.8600 C.3       1 ASN        -0.0040
      6 N         -36.1080   27.1640  -45.0770 N.am      1 LEU        -0.2613
      7 CA        -35.6500   26.6680  -43.7690 C.3       1 LEU         0.1283
      8 C         -35.6570   25.1350  -43.7100 C.2       1 LEU         0.2034
      9 O         -36.7200   24.5000  -43.7720 O.2       1 LEU        -0.3944
     10 CB        -36.5100   27.2410  -42.6330 C.3       1 LEU        -0.0244
     11 N         -34.4650   24.5500  -43.5850 N.am      1 GLY        -0.2664
     12 CA        -34.3260   23.1030  -43.4440 C.3       1 GLY         0.1201
     13 C         -35.0170   22.6110  -42.1890 C.2       1 GLY         0.2007
     14 O         -35.3430   23.3990  -41.3050 O.2       1 GLY        -0.3947
     15 N         -35.2530   21.3080  -42.1060 N.am      1 LEU        -0.2640
     16 CA        -35.8950   20.7420  -40.9260 C.3       1 LEU         0.1312
     17 C         -35.0980   21.1280  -39.6890 C.2       1 LEU         0.2039
     18 O         -35.6260   21.7820  -38.7930 O.2       1 LEU        -0.3944
     19 CB        -36.0000   19.2200  -41.0330 C.3       1 LEU        -0.0101
     20 CG        -36.9020   18.5160  -40.0160 C.3       1 LEU        -0.0425
     21 CD1       -36.6500   17.0240  -40.0660 C.3       1 LEU        -0.0625
     22 CD2       -36.6810   19.0280  -38.6150 C.3       1 LEU        -0.0625
     23 N         -33.8180   20.7560  -39.6630 N.am      1 GLU        -0.2636
     24 CA        -32.9630   21.0260  -38.4980 C.3       1 GLU         0.1325
     25 C         -32.8800   22.5330  -38.2210 C.2       1 GLU         0.2041
     26 O         -32.5880   22.9450  -37.0970 O.2       1 GLU        -0.3944
     27 CB        -31.5570   20.4050  -38.6510 C.3       1 GLU        -0.0008
     28 CG        -30.4810   21.3460  -39.1910 C.3       1 GLU         0.0044
     29 CD        -29.0730   20.7610  -39.1210 C.2       1 GLU         0.0350
     30 OE1       -28.3610   20.8070  -40.1550 O.co2     1 GLU        -0.5690
     31 OE2       -28.6750   20.2690  -38.0370 O.co2     1 GLU        -0.5690
     32 N         -33.1380   23.3440  -39.2460 N.am      1 ASP        -0.2622
     33 CA        -33.2460   24.7900  -39.0730 C.3       1 ASP         0.1423
     34 C         -34.5180   25.1580  -38.2840 C.2       1 ASP         0.2056
     35 O         -34.4770   25.9970  -37.3920 O.2       1 ASP        -0.3943
     36 CB        -33.2310   25.4930  -40.4420 C.3       1 ASP         0.0406
     37 CG        -32.3560   26.7350  -40.4610 C.2       1 ASP         0.0393
     38 OD1       -32.0500   27.2930  -39.3770 O.co2     1 ASP        -0.5688
     39 OD2       -31.9690   27.1540  -41.5770 O.co2     1 ASP        -0.5688
     40 N         -35.6400   24.5200  -38.6090 N.am      1 ILE        -0.2634
     41 CA        -36.8990   24.7300  -37.8740 C.3       1 ILE         0.1335
     42 C         -36.7510   24.3280  -36.3990 C.2       1 ILE         0.2042
     43 O         -37.1340   25.0770  -35.4950 O.2       1 ILE        -0.3944
     44 CB        -38.0750   23.9260  -38.4910 C.3       1 ILE        -0.0037
     45 CG1       -38.4310   24.4500  -39.8880 C.3       1 ILE        -0.0491
     46 CG2       -39.3010   23.9910  -37.5880 C.3       1 ILE        -0.0582
     47 CD1       -39.4840   23.6210  -40.6060 C.3       1 ILE        -0.0648
     48 N         -36.1900   23.1440  -36.1730 N.am      1 ILE        -0.2635
     49 CA        -35.9430   22.6530  -34.8240 C.3       1 ILE         0.1335
     50 C         -35.0600   23.6460  -34.0630 C.2       1 ILE         0.2042
     51 O         -35.3690   24.0020  -32.9230 O.2       1 ILE        -0.3944
     52 CB        -35.2930   21.2450  -34.8430 C.3       1 ILE        -0.0037
     53 CG1       -36.2570   20.2190  -35.4180 C.3       1 ILE        -0.0491
     54 CG2       -34.8860   20.7940  -33.4560 C.3       1 ILE        -0.0582
     55 CD1       -35.6300   18.8450  -35.5450 C.3       1 ILE        -0.0648
     56 N         -33.9790   24.0980  -34.6980 N.am      1 ARG        -0.2637
     57 CA        -33.0630   25.0610  -34.0870 C.3       1 ARG         0.1311
     58 C         -33.7810   26.3560  -33.7500 C.2       1 ARG         0.2039
     59 O         -33.7650   26.8040  -32.6100 O.2       1 ARG        -0.3944
     60 CB        -31.9110   25.3600  -35.0430 C.3       1 ARG        -0.0092
     61 CG        -30.8130   26.2670  -34.4840 C.3       1 ARG        -0.0156
     62 CD        -30.1390   27.1250  -35.5890 C.3       1 ARG         0.0627
     63 NE        -30.1200   26.5010  -36.9190 N.pl3     1 ARG        -0.2723
     64 CZ        -29.4280   25.4050  -37.2500 C.cat     1 ARG         0.2882
     65 NH1       -28.6770   24.7560  -36.3560 N.pl3     1 ARG        -0.2849
     66 NH2       -29.4930   24.9410  -38.4960 N.pl3     1 ARG        -0.2849
     67 N         -34.4110   26.9500  -34.7570 N.am      1 LYS        -0.2637
     68 CA        -35.2060   28.1640  -34.5750 C.3       1 LYS         0.1310
     69 C         -36.2300   28.0240  -33.4420 C.2       1 LYS         0.2039
     70 O         -36.4020   28.9540  -32.6520 O.2       1 LYS        -0.3944
     71 CB        -35.9320   28.5560  -35.8790 C.3       1 LYS        -0.0122
     72 CG        -35.0870   29.3480  -36.8950 C.3       1 LYS        -0.0440
     73 CD        -35.9860   30.1390  -37.8550 C.3       1 LYS        -0.0124
     74 CE        -35.3100   30.4260  -39.1940 C.3       1 LYS        -0.0354
     75 NZ        -34.1710   31.3850  -39.0990 N.4       1 LYS         0.2185
     76 N         -36.9090   26.8770  -33.3680 N.am      1 ALA        -0.2640
     77 CA        -37.9370   26.6660  -32.3500 C.3       1 ALA         0.1282
     78 C         -37.2900   26.5940  -30.9890 C.2       1 ALA         0.2036
     79 O         -37.7720   27.2190  -30.0470 O.2       1 ALA        -0.3944
     80 CB        -38.7390   25.4070  -32.6220 C.3       1 ALA        -0.0244
     81 N         -36.1870   25.8530  -30.8860 N.am      1 LEU        -0.2637
     82 CA        -35.4750   25.7350  -29.6170 C.3       1 LEU         0.1312
     83 C         -35.0660   27.0920  -29.0470 C.2       1 LEU         0.2039
     84 O         -34.8630   27.1950  -27.8440 O.2       1 LEU        -0.3944
     85 CB        -34.2220   24.8620  -29.7390 C.3       1 LEU        -0.0101
     86 CG        -34.1730   23.4060  -29.2760 C.3       1 LEU        -0.0425
     87 CD1       -32.7180   23.0120  -29.0900 C.3       1 LEU        -0.0625
     88 CD2       -34.9250   23.1490  -27.9950 C.3       1 LEU        -0.0625
     89 N         -34.9330   28.1120  -29.9030 N.am      1 MET        -0.2637
     90 CA        -34.5390   29.4660  -29.4770 C.3       1 MET         0.1317
     91 C         -35.5810   30.5910  -29.7390 C.2       1 MET         0.2037
     92 O         -36.0870   31.2020  -28.7990 O.2       1 MET        -0.3944
     93 CB        -33.2110   29.8440  -30.1420 C.3       1 MET        -0.0034
     94 CG        -31.9540   29.4730  -29.3530 C.3       1 MET        -0.0024
     95 SD        -31.2900   27.8290  -29.7020 S.3       1 MET        -0.1639
     96 CE        -29.5920   28.0680  -29.1910 C.3       1 MET        -0.0181
     97 N         -35.8700   30.8850  -31.0080 N.am      1 GLY        -0.2664
     98 CA        -36.6880   32.0560  -31.3720 C.3       1 GLY         0.1201
     99 C         -36.8800   32.2030  -32.8810 C.2       1 GLY         0.2009
    100 O         -35.9400   32.5460  -33.6120 O.2       1 GLY        -0.3947
    101 N         -38.1110   31.9470  -33.3370 N.am      1 SER        -0.2630
    102 CA        -38.4390   31.9110  -34.7770 C.3       1 SER         0.1356
    103 C         -38.3180   33.2830  -35.4230 C.2       1 SER         0.1267
    104 O         -37.2830   33.5980  -36.0030 O.2       1 SER        -0.3724
    105 CB        -39.8500   31.3280  -35.0260 C.3       1 SER         0.0830
    106 OG        -39.8540   29.8980  -34.9790 O.3       1 SER        -0.3903
    107 H1        -37.2257   28.0152  -48.5908 H         1 ASN         0.2015
    108 H2        -37.7412   27.3978  -47.1546 H         1 ASN         0.2015
    109 H3        -36.3275   26.8742  -47.8156 H         1 ASN         0.2015
    110 H4        -35.3074   28.9940  -47.5649 H         1 ASN         0.1095
    111 H5        -36.5082   30.7892  -46.3230 H         1 ASN         0.0310
    112 H6        -37.9867   29.7691  -46.3130 H         1 ASN         0.0310
    113 H7        -37.3140   30.3603  -47.8701 H         1 ASN         0.0310
    114 H8        -36.7457   26.6105  -45.6127 H         1 LEU         0.1884
    115 H9        -34.6149   27.0100  -43.6221 H         1 LEU         0.0797
    116 H10       -36.1476   26.8556  -41.6686 H         1 LEU         0.0277
    117 H11       -37.5577   26.9390  -42.7781 H         1 LEU         0.0277
    118 H12       -36.4406   28.3388  -42.6385 H         1 LEU         0.0277
    119 H13       -33.6425   25.1187  -43.5879 H         1 GLY         0.1881
    120 H14       -33.2574   22.8478  -43.3898 H         1 GLY         0.0763
    121 H15       -34.7765   22.6114  -44.3189 H         1 GLY         0.0763
    122 H16       -34.9877   20.7080  -42.8607 H         1 LEU         0.1883
    123 H17       -36.9098   21.1580  -40.8413 H         1 LEU         0.0800
    124 H18       -34.9864   18.8079  -40.9198 H         1 LEU         0.0315
    125 H19       -36.3823   18.9828  -42.0368 H         1 LEU         0.0315
    126 H20       -37.9496   18.7073  -40.2915 H         1 LEU         0.0298
    127 H21       -37.2981   16.5180  -39.3353 H         1 LEU         0.0232
    128 H22       -35.5963   16.8217  -39.8234 H         1 LEU         0.0232
    129 H23       -36.8726   16.6481  -41.0755 H         1 LEU         0.0232
    130 H24       -36.8660   20.1120  -38.5873 H         1 LEU         0.0232
    131 H25       -35.6438   18.8252  -38.3098 H         1 LEU         0.0232
    132 H26       -37.3720   18.5204  -37.9258 H         1 LEU         0.0232
    133 H27       -33.4307   20.2825  -40.4541 H         1 GLU         0.1883
    134 H28       -33.4366   20.5531  -37.6251 H         1 GLU         0.0801
    135 H29       -31.6364   19.5500  -39.3385 H         1 GLU         0.0330
    136 H30       -31.2327   20.0509  -37.6614 H         1 GLU         0.0330
    137 H31       -30.5023   22.2746  -38.6018 H         1 GLU         0.0433
    138 H32       -30.7122   21.5733  -40.2421 H         1 GLU         0.0433
    139 H33       -33.2609   22.9522  -40.1578 H         1 ASP         0.1884
    140 H34       -32.3739   25.1346  -38.4980 H         1 ASP         0.0819
    141 H35       -34.2602   25.7852  -40.6975 H         1 ASP         0.0478
    142 H36       -32.8528   24.7861  -41.1951 H         1 ASP         0.0478
    143 H37       -35.6278   23.8783  -39.3759 H         1 ILE         0.1883
    144 H38       -37.1460   25.8008  -37.9234 H         1 ILE         0.0803
    145 H39       -37.7636   22.8750  -38.5827 H         1 ILE         0.0345
    146 H40       -37.5169   24.4543  -40.4999 H         1 ILE         0.0267
    147 H41       -38.8092   25.4779  -39.7866 H         1 ILE         0.0267
    148 H42       -39.0402   23.6142  -36.5880 H         1 ILE         0.0235
    149 H43       -40.1041   23.3723  -38.0149 H         1 ILE         0.0235
    150 H44       -39.6436   25.0333  -37.5092 H         1 ILE         0.0235
    151 H45       -39.6834   24.0587  -41.5953 H         1 ILE         0.0230
    152 H46       -40.4114   23.6141  -40.0145 H         1 ILE         0.0230
    153 H47       -39.1191   22.5905  -40.7278 H         1 ILE         0.0230
    154 H48       -35.9299   22.5737  -36.9521 H         1 ILE         0.1883
    155 H49       -36.9087   22.5764  -34.3028 H         1 ILE         0.0803
    156 H50       -34.3956   21.2876  -35.4778 H         1 ILE         0.0345
    157 H51       -36.5769   20.5549  -36.4154 H         1 ILE         0.0267
    158 H52       -37.1330   20.1478  -34.7566 H         1 ILE         0.0267
    159 H53       -34.1873   21.5250  -33.0230 H         1 ILE         0.0235
    160 H54       -34.3959   19.8113  -33.5190 H         1 ILE         0.0235
    161 H55       -35.7790   20.7181  -32.8183 H         1 ILE         0.0235
    162 H56       -36.3663   18.1433  -35.9640 H         1 ILE         0.0230
    163 H57       -35.3125   18.4936  -34.5522 H         1 ILE         0.0230
    164 H58       -34.7563   18.9008  -36.2110 H         1 ILE         0.0230
    165 H59       -33.7878   23.7680  -35.6224 H         1 ARG         0.1883
    166 H60       -32.6589   24.6264  -33.1609 H         1 ARG         0.0800
    167 H61       -32.3293   25.8451  -35.9373 H         1 ARG         0.0313
    168 H62       -31.4487   24.4032  -35.3272 H         1 ARG         0.0313
    169 H63       -30.0460   25.6404  -34.0054 H         1 ARG         0.0301
    170 H64       -31.2567   26.9396  -33.7352 H         1 ARG         0.0301
    171 H65       -29.0996   27.3200  -35.2863 H         1 ARG         0.0689
    172 H66       -30.6839   28.0776  -35.6644 H         1 ARG         0.0689
    173 H67       -30.6859   26.9437  -37.6571 H         1 ARG         0.2642
    174 H68       -28.1539   23.9143  -36.6369 H         1 ARG         0.2615
    175 H69       -28.6210   25.0973  -35.3858 H         1 ARG         0.2615
    176 H70       -30.0673   25.4291  -39.1980 H         1 ARG         0.2615
    177 H71       -28.9690   24.0939  -38.7581 H         1 ARG         0.2615
    178 H72       -34.3392   26.5531  -35.6721 H         1 LYS         0.1883
    179 H73       -34.5152   28.9777  -34.3091 H         1 LYS         0.0800
    180 H74       -36.8035   29.1711  -35.6102 H         1 LYS         0.0312
    181 H75       -36.2725   27.6317  -36.3686 H         1 LYS         0.0312
    182 H76       -34.4698   28.6462  -37.4752 H         1 LYS         0.0269
    183 H77       -34.4346   30.0483  -36.3529 H         1 LYS         0.0269
    184 H78       -36.2499   31.0963  -37.3817 H         1 LYS         0.0317
    185 H79       -36.9009   29.5571  -38.0403 H         1 LYS         0.0317
    186 H80       -36.0612   30.8462  -39.8790 H         1 LYS         0.0813
    187 H81       -34.9316   29.4772  -39.6021 H         1 LYS         0.0813
    188 H82       -33.7743   31.5272  -40.0147 H         1 LYS         0.1994
    189 H83       -33.4671   31.0106  -38.4823 H         1 LYS         0.1994
    190 H84       -34.5021   32.2651  -38.7360 H         1 LYS         0.1994
    191 H85       -36.7105   26.1472  -34.0222 H         1 ALA         0.1883
    192 H86       -38.6255   27.5237  -32.3676 H         1 ALA         0.0797
    193 H87       -39.5006   25.2810  -31.8383 H         1 ALA         0.0277
    194 H88       -38.0663   24.5367  -32.6228 H         1 ALA         0.0277
    195 H89       -39.2317   25.4906  -33.6019 H         1 ALA         0.0277
    196 H90       -35.8416   25.3702  -31.6907 H         1 LEU         0.1883
    197 H91       -36.1583   25.2558  -28.9004 H         1 LEU         0.0800
    198 H92       -33.4328   25.3847  -29.1788 H         1 LEU         0.0315
    199 H93       -33.9650   24.8486  -30.8085 H         1 LEU         0.0315
    200 H94       -34.6180   22.7799  -30.0634 H         1 LEU         0.0298
    201 H95       -32.6614   21.9654  -28.7563 H         1 LEU         0.0232
    202 H96       -32.2555   23.6634  -28.3339 H         1 LEU         0.0232
    203 H97       -32.1834   23.1217  -30.0451 H         1 LEU         0.0232
    204 H98       -35.9796   23.4332  -28.1256 H         1 LEU         0.0232
    205 H99       -34.4823   23.7457  -27.1839 H         1 LEU         0.0232
    206 H100      -34.8620   22.0806  -27.7408 H         1 LEU         0.0232
    207 H101      -35.1087   27.9480  -30.8737 H         1 MET         0.1883
    208 H102      -34.3792   29.4247  -28.3895 H         1 MET         0.0800
    209 H103      -33.2062   30.9332  -30.2957 H         1 MET         0.0320
    210 H104      -33.1625   29.3359  -31.1164 H         1 MET         0.0320
    211 H105      -32.1970   29.5223  -28.2813 H         1 MET         0.0378
    212 H106      -31.1739   30.2125  -29.5866 H         1 MET         0.0378
    213 H107      -29.0291   27.1350  -29.3413 H         1 MET         0.0340
    214 H108      -29.5649   28.3451  -28.1268 H         1 MET         0.0340
    215 H109      -29.1381   28.8707  -29.7907 H         1 MET         0.0340
    216 H110      -35.5210   30.2928  -31.7343 H         1 GLY         0.1881
    217 H111      -36.1929   32.9616  -30.9916 H         1 GLY         0.0763
    218 H112      -37.6767   31.9533  -30.9010 H         1 GLY         0.0763
    219 H113      -38.8402   31.7726  -32.6753 H         1 SER         0.1885
    220 H114      -37.7103   31.2464  -35.2641 H         1 SER         0.0813
    221 H115      -39.1489   33.9851  -35.3709 H         1 SER         0.1374
    222 H116      -40.1983   31.6518  -36.0178 H         1 SER         0.0607
    223 H117      -40.5339   31.7107  -34.2542 H         1 SER         0.0607
    224 H118      -40.7352   29.5796  -35.1360 H         1 SER         0.2097
@<TRIPOS>BOND
     1    1    2 1  
     2    2    3 1  
     3    2    5 1  
     4    3    4 2  
     5    3    6 am 
     6    6    7 1  
     7    7    8 1  
     8    7   10 1  
     9    8    9 2  
    10    8   11 am 
    11   11   12 1  
    12   12   13 1  
    13   13   14 2  
    14   13   15 am 
    15   15   16 1  
    16   16   17 1  
    17   16   19 1  
    18   17   18 2  
    19   17   23 am 
    20   19   20 1  
    21   20   21 1  
    22   20   22 1  
    23   23   24 1  
    24   24   25 1  
    25   24   27 1  
    26   25   26 2  
    27   25   32 am 
    28   27   28 1  
    29   28   29 1  
    30   29   30 ar 
    31   29   31 ar 
    32   32   33 1  
    33   33   34 1  
    34   33   36 1  
    35   34   35 2  
    36   34   40 am 
    37   36   37 1  
    38   37   38 ar 
    39   37   39 ar 
    40   40   41 1  
    41   41   42 1  
    42   41   44 1  
    43   42   43 2  
    44   42   48 am 
    45   44   45 1  
    46   44   46 1  
    47   45   47 1  
    48   48   49 1  
    49   49   50 1  
    50   49   52 1  
    51   50   51 2  
    52   50   56 am 
    53   52   53 1  
    54   52   54 1  
    55   53   55 1  
    56   56   57 1  
    57   57   58 1  
    58   57   60 1  
    59   58   59 2  
    60   58   67 am 
    61   60   61 1  
    62   61   62 1  
    63   62   63 1  
    64   63   64 ar 
    65   64   65 ar 
    66   64   66 ar 
    67   67   68 1  
    68   68   69 1  
    69   68   71 1  
    70   69   70 2  
    71   69   76 am 
    72   71   72 1  
    73   72   73 1  
    74   73   74 1  
    75   74   75 1  
    76   76   77 1  
    77   77   78 1  
    78   77   80 1  
    79   78   79 2  
    80   78   81 am 
    81   81   82 1  
    82   82   83 1  
    83   82   85 1  
    84   83   84 2  
    85   83   89 am 
    86   85   86 1  
    87   86   87 1  
    88   86   88 1  
    89   89   90 1  
    90   90   91 1  
    91   90   93 1  
    92   91   92 2  
    93   91   97 am 
    94   93   94 1  
    95   94   95 1  
    96   95   96 1  
    97   97   98 1  
    98   98   99 1  
    99   99  100 2  
   100   99  101 am 
   101  101  102 1  
   102  102  103 1  
   103  102  105 1  
   104  103  104 2  
   105  105  106 1  
   106    1  107 1  
   107    1  108 1  
   108    1  109 1  
   109    2  110 1  
   110    5  111 1  
   111    5  112 1  
   112    5  113 1  
   113    6  114 1  
   114    7  115 1  
   115   10  116 1  
   116   10  117 1  
   117   10  118 1  
   118   11  119 1  
   119   12  120 1  
   120   12  121 1  
   121   15  122 1  
   122   16  123 1  
   123   19  124 1  
   124   19  125 1  
   125   20  126 1  
   126   21  127 1  
   127   21  128 1  
   128   21  129 1  
   129   22  130 1  
   130   22  131 1  
   131   22  132 1  
   132   23  133 1  
   133   24  134 1  
   134   27  135 1  
   135   27  136 1  
   136   28  137 1  
   137   28  138 1  
   138   32  139 1  
   139   33  140 1  
   140   36  141 1  
   141   36  142 1  
   142   40  143 1  
   143   41  144 1  
   144   44  145 1  
   145   45  146 1  
   146   45  147 1  
   147   46  148 1  
   148   46  149 1  
   149   46  150 1  
   150   47  151 1  
   151   47  152 1  
   152   47  153 1  
   153   48  154 1  
   154   49  155 1  
   155   52  156 1  
   156   53  157 1  
   157   53  158 1  
   158   54  159 1  
   159   54  160 1  
   160   54  161 1  
   161   55  162 1  
   162   55  163 1  
   163   55  164 1  
   164   56  165 1  
   165   57  166 1  
   166   60  167 1  
   167   60  168 1  
   168   61  169 1  
   169   61  170 1  
   170   62  171 1  
   171   62  172 1  
   172   63  173 1  
   173   65  174 1  
   174   65  175 1  
   175   66  176 1  
   176   66  177 1  
   177   67  178 1  
   178   68  179 1  
   179   71  180 1  
   180   71  181 1  
   181   72  182 1  
   182   72  183 1  
   183   73  184 1  
   184   73  185 1  
   185   74  186 1  
   186   74  187 1  
   187   75  188 1  
   188   75  189 1  
   189   75  190 1  
   190   76  191 1  
   191   77  192 1  
   192   80  193 1  
   193   80  194 1  
   194   80  195 1  
   195   81  196 1  
   196   82  197 1  
   197   85  198 1  
   198   85  199 1  
   199   86  200 1  
   200   87  201 1  
   201   87  202 1  
   202   87  203 1  
   203   88  204 1  
   204   88  205 1  
   205   88  206 1  
   206   89  207 1  
   207   90  208 1  
   208   93  209 1  
   209   93  210 1  
   210   94  211 1  
   211   94  212 1  
   212   96  213 1  
   213   96  214 1  
   214   96  215 1  
   215   97  216 1  
   216   98  217 1  
   217   98  218 1  
   218  101  219 1  
   219  102  220 1  
   220  103  221 1  
   221  105  222 1  
   222  105  223 1  
   223  106  224 1  
@<TRIPOS>SUBSTRUCTURE
     1 ASN         1

