3h52_ligand
  -I-interpret- 

225224  0  0  0  0  0  0  0  0999 V2000
  -36.9320   27.6710  -47.6900 N   0  3  0  0  0
  -36.1940   28.7460  -46.9630 C   0  0  0  0  0
  -35.6930   28.3340  -45.5650 C   0  0  0  0  0
  -34.9360   29.0800  -44.9360 O   0  0  0  0  0
  -37.0620   30.0050  -46.8600 C   0  0  0  0  0
  -36.1080   27.1640  -45.0770 N   0  0  0  0  0
  -35.6500   26.6680  -43.7690 C   0  0  0  0  0
  -35.6570   25.1350  -43.7100 C   0  0  0  0  0
  -36.7200   24.5000  -43.7720 O   0  0  0  0  0
  -36.5100   27.2410  -42.6330 C   0  0  0  0  0
  -34.4650   24.5500  -43.5850 N   0  0  0  0  0
  -34.3260   23.1030  -43.4440 C   0  0  0  0  0
  -35.0170   22.6110  -42.1890 C   0  0  0  0  0
  -35.3430   23.3990  -41.3050 O   0  0  0  0  0
  -35.2530   21.3080  -42.1060 N   0  0  0  0  0
  -35.8950   20.7420  -40.9260 C   0  0  0  0  0
  -35.0980   21.1280  -39.6890 C   0  0  0  0  0
  -35.6260   21.7820  -38.7930 O   0  0  0  0  0
  -36.0000   19.2200  -41.0330 C   0  0  0  0  0
  -36.9020   18.5160  -40.0160 C   0  0  0  0  0
  -36.6500   17.0240  -40.0660 C   0  0  0  0  0
  -36.6810   19.0280  -38.6150 C   0  0  0  0  0
  -33.8180   20.7560  -39.6630 N   0  0  0  0  0
  -32.9630   21.0260  -38.4980 C   0  0  0  0  0
  -32.8800   22.5330  -38.2210 C   0  0  0  0  0
  -32.5880   22.9450  -37.0970 O   0  0  0  0  0
  -31.5570   20.4050  -38.6510 C   0  0  0  0  0
  -30.4810   21.3460  -39.1910 C   0  0  0  0  0
  -29.0730   20.7610  -39.1210 C   0  0  0  0  0
  -28.3610   20.8070  -40.1550 O   0  0  0  0  0
  -28.6750   20.2690  -38.0370 O   0  0  0  0  0
  -33.1380   23.3440  -39.2460 N   0  0  0  0  0
  -33.2460   24.7900  -39.0730 C   0  0  0  0  0
  -34.5180   25.1580  -38.2840 C   0  0  0  0  0
  -34.4770   25.9970  -37.3920 O   0  0  0  0  0
  -33.2310   25.4930  -40.4420 C   0  0  0  0  0
  -32.3560   26.7350  -40.4610 C   0  0  0  0  0
  -32.0500   27.2930  -39.3770 O   0  0  0  0  0
  -31.9690   27.1540  -41.5770 O   0  0  0  0  0
  -35.6400   24.5200  -38.6090 N   0  0  0  0  0
  -36.8990   24.7300  -37.8740 C   0  0  0  0  0
  -36.7510   24.3280  -36.3990 C   0  0  0  0  0
  -37.1340   25.0770  -35.4950 O   0  0  0  0  0
  -38.0750   23.9260  -38.4910 C   0  0  0  0  0
  -38.4310   24.4500  -39.8880 C   0  0  0  0  0
  -39.3010   23.9910  -37.5880 C   0  0  0  0  0
  -39.4840   23.6210  -40.6060 C   0  0  0  0  0
  -36.1900   23.1440  -36.1730 N   0  0  0  0  0
  -35.9430   22.6530  -34.8240 C   0  0  0  0  0
  -35.0600   23.6460  -34.0630 C   0  0  0  0  0
  -35.3690   24.0020  -32.9230 O   0  0  0  0  0
  -35.2930   21.2450  -34.8430 C   0  0  0  0  0
  -36.2570   20.2190  -35.4180 C   0  0  0  0  0
  -34.8860   20.7940  -33.4560 C   0  0  0  0  0
  -35.6300   18.8450  -35.5450 C   0  0  0  0  0
  -33.9790   24.0980  -34.6980 N   0  0  0  0  0
  -33.0630   25.0610  -34.0870 C   0  0  0  0  0
  -33.7810   26.3560  -33.7500 C   0  0  0  0  0
  -33.7650   26.8040  -32.6100 O   0  0  0  0  0
  -31.9110   25.3600  -35.0430 C   0  0  0  0  0
  -30.8130   26.2670  -34.4840 C   0  0  0  0  0
  -30.1390   27.1250  -35.5890 C   0  0  0  0  0
  -30.1200   26.5010  -36.9190 N   0  0  0  0  0
  -29.4280   25.4050  -37.2500 C   0  0  0  0  0
  -28.6770   24.7560  -36.3560 N   0  0  0  0  0
  -29.4930   24.9410  -38.4960 N   0  0  0  0  0
  -34.4110   26.9500  -34.7570 N   0  0  0  0  0
  -35.2060   28.1640  -34.5750 C   0  0  0  0  0
  -36.2300   28.0240  -33.4420 C   0  0  0  0  0
  -36.4020   28.9540  -32.6520 O   0  0  0  0  0
  -35.9320   28.5560  -35.8790 C   0  0  0  0  0
  -35.0870   29.3480  -36.8950 C   0  0  0  0  0
  -35.9860   30.1390  -37.8550 C   0  0  0  0  0
  -35.3100   30.4260  -39.1940 C   0  0  0  0  0
  -34.1710   31.3850  -39.0990 N   0  3  0  0  0
  -36.9090   26.8770  -33.3680 N   0  0  0  0  0
  -37.9370   26.6660  -32.3500 C   0  0  0  0  0
  -37.2900   26.5940  -30.9890 C   0  0  0  0  0
  -37.7720   27.2190  -30.0470 O   0  0  0  0  0
  -38.7390   25.4070  -32.6220 C   0  0  0  0  0
  -36.1870   25.8530  -30.8860 N   0  0  0  0  0
  -35.4750   25.7350  -29.6170 C   0  0  0  0  0
  -35.0660   27.0920  -29.0470 C   0  0  0  0  0
  -34.8630   27.1950  -27.8440 O   0  0  0  0  0
  -34.2220   24.8620  -29.7390 C   0  0  0  0  0
  -34.1730   23.4060  -29.2760 C   0  0  0  0  0
  -32.7180   23.0120  -29.0900 C   0  0  0  0  0
  -34.9250   23.1490  -27.9950 C   0  0  0  0  0
  -34.9330   28.1120  -29.9030 N   0  0  0  0  0
  -34.5390   29.4660  -29.4770 C   0  0  0  0  0
  -35.5810   30.5910  -29.7390 C   0  0  0  0  0
  -36.0870   31.2020  -28.7990 O   0  0  0  0  0
  -33.2110   29.8440  -30.1420 C   0  0  0  0  0
  -31.9540   29.4730  -29.3530 C   0  0  0  0  0
  -31.2900   27.8290  -29.7020 S   0  0  0  0  0
  -29.5920   28.0680  -29.1910 C   0  0  0  0  0
  -35.8700   30.8850  -31.0080 N   0  0  0  0  0
  -36.6880   32.0560  -31.3720 C   0  0  0  0  0
  -36.8800   32.2030  -32.8810 C   0  0  0  0  0
  -35.9400   32.5460  -33.6120 O   0  0  0  0  0
  -38.1110   31.9470  -33.3370 N   0  0  0  0  0
  -38.4390   31.9110  -34.7770 C   0  0  0  0  0
  -38.3180   33.2830  -35.4230 C   0  0  0  0  0
  -37.2830   33.5980  -36.0030 O   0  0  0  0  0
  -39.8500   31.3280  -35.0260 C   0  0  0  0  0
  -39.8540   29.8980  -34.9790 O   0  0  0  0  0
  -36.3448   26.8393  -47.7521 H   0  0  0  0  0
  -37.7889   27.4467  -47.1842 H   0  0  0  0  0
  -37.1648   27.9951  -48.6287 H   0  0  0  0  0
  -35.3010   28.9475  -47.5546 H   0  0  0  0  0
  -37.9186   29.8026  -46.2171 H   0  0  0  0  0
  -36.4721   30.8178  -46.4363 H   0  0  0  0  0
  -37.4104   30.2869  -47.8536 H   0  0  0  0  0
  -36.7584   26.5994  -45.6234 H   0  0  0  0  0
  -34.6223   27.0074  -43.6394 H   0  0  0  0  0
  -37.5339   26.8821  -42.7376 H   0  0  0  0  0
  -36.1060   26.9165  -41.6740 H   0  0  0  0  0
  -36.4983   28.3297  -42.6839 H   0  0  0  0  0
  -33.6260   25.1301  -43.5880 H   0  0  0  0  0
  -33.2659   22.8583  -43.3783 H   0  0  0  0  0
  -34.7852   22.6218  -44.3075 H   0  0  0  0  0
  -34.9824   20.6960  -42.8758 H   0  0  0  0  0
  -36.9066   21.1409  -40.8511 H   0  0  0  0  0
  -34.9947   18.8379  -40.8557 H   0  0  0  0  0
  -36.4379   19.0186  -42.0106 H   0  0  0  0  0
  -37.9373   18.7295  -40.2819 H   0  0  0  0  0
  -36.8708   16.6529  -41.0668 H   0  0  0  0  0
  -35.6057   16.8249  -39.8255 H   0  0  0  0  0
  -37.2927   16.5238  -39.3416 H   0  0  0  0  0
  -35.6438   18.8572  -38.3265 H   0  0  0  0  0
  -36.8977   20.0957  -38.5813 H   0  0  0  0  0
  -37.3422   18.4999  -37.9280 H   0  0  0  0  0
  -33.4229   20.2730  -40.4699 H   0  0  0  0  0
  -33.4268   20.5457  -37.6364 H   0  0  0  0  0
  -31.6517   19.5934  -39.3725 H   0  0  0  0  0
  -31.2377   20.1071  -37.6523 H   0  0  0  0  0
  -30.4935   22.2463  -38.5766 H   0  0  0  0  0
  -30.7064   21.5348  -40.2406 H   0  0  0  0  0
  -28.8568   21.2206  -40.8654 H   0  0  0  0  0
  -33.2634   22.9444  -40.1761 H   0  0  0  0  0
  -32.3858   25.1318  -38.4975 H   0  0  0  0  0
  -34.2515   25.8019  -40.6682 H   0  0  0  0  0
  -32.8276   24.7910  -41.1717 H   0  0  0  0  0
  -32.4487   26.8129  -38.6475 H   0  0  0  0  0
  -35.6276   23.8655  -39.3912 H   0  0  0  0  0
  -37.1225   25.7943  -37.9477 H   0  0  0  0  0
  -37.7541   22.8883  -38.5821 H   0  0  0  0  0
  -37.5229   24.4128  -40.4897 H   0  0  0  0  0
  -38.8372   25.4539  -39.7643 H   0  0  0  0  0
  -39.0559   23.5681  -36.6137 H   0  0  0  0  0
  -39.6074   25.0301  -37.4678 H   0  0  0  0  0
  -40.1134   23.4211  -38.0389 H   0  0  0  0  0
  -39.1213   22.6002  -40.7260 H   0  0  0  0  0
  -40.4023   23.6150  -40.0189 H   0  0  0  0  0
  -39.6807   24.0556  -41.5861 H   0  0  0  0  0
  -35.9247   22.5623  -36.9677 H   0  0  0  0  0
  -36.9011   22.5629  -34.3121 H   0  0  0  0  0
  -34.4027   21.3184  -35.4675 H   0  0  0  0  0
  -36.5475   20.5507  -36.4148 H   0  0  0  0  0
  -37.1084   20.1401  -34.7420 H   0  0  0  0  0
  -34.1643   21.4989  -33.0433 H   0  0  0  0  0
  -35.7665   20.7562  -32.8146 H   0  0  0  0  0
  -34.4352   19.8034  -33.5151 H   0  0  0  0  0
  -34.7644   18.9016  -36.2051 H   0  0  0  0  0
  -35.3158   18.4980  -34.5606 H   0  0  0  0  0
  -36.3604   18.1507  -35.9603 H   0  0  0  0  0
  -33.7840   23.7614  -35.6409 H   0  0  0  0  0
  -32.6772   24.6238  -33.1661 H   0  0  0  0  0
  -32.3425   25.8832  -35.8963 H   0  0  0  0  0
  -31.4392   24.4041  -35.2705 H   0  0  0  0  0
  -30.0484   25.6344  -34.0332 H   0  0  0  0  0
  -31.2685   26.9436  -33.7609 H   0  0  0  0  0
  -29.1009   27.2709  -35.2905 H   0  0  0  0  0
  -30.7181   28.0443  -35.6764 H   0  0  0  0  0
  -30.6804   26.9394  -37.6499 H   0  0  0  0  0
  -28.1645   23.9185  -36.6324 H   0  0  0  0  0
  -28.6160   25.0979  -35.3969 H   0  0  0  0  0
  -30.0671   25.4205  -39.1895 H   0  0  0  0  0
  -34.3378   26.5452  -35.6904 H   0  0  0  0  0
  -34.5039   28.9520  -34.3026 H   0  0  0  0  0
  -36.7598   29.2041  -35.5910 H   0  0  0  0  0
  -36.2149   27.6245  -36.3692 H   0  0  0  0  0
  -34.4864   28.6467  -37.4743 H   0  0  0  0  0
  -34.4512   30.0479  -36.3527 H   0  0  0  0  0
  -36.2176   31.0950  -37.3854 H   0  0  0  0  0
  -36.8753   29.5400  -38.0507 H   0  0  0  0  0
  -36.0589   30.8739  -39.8472 H   0  0  0  0  0
  -34.9108   29.4824  -39.5659 H   0  0  0  0  0
  -33.7704   31.5281  -40.0260 H   0  0  0  0  0
  -34.5073   32.2751  -38.7315 H   0  0  0  0  0
  -33.4594   31.0051  -38.4747 H   0  0  0  0  0
  -36.7065   26.1326  -34.0353 H   0  0  0  0  0
  -38.6294   27.5073  -32.3805 H   0  0  0  0  0
  -39.2266   25.4911  -33.5932 H   0  0  0  0  0
  -38.0713   24.5454  -32.6226 H   0  0  0  0  0
  -39.4932   25.2832  -31.8449 H   0  0  0  0  0
  -35.8347   25.3605  -31.7068 H   0  0  0  0  0
  -36.1825   25.2625  -28.9357 H   0  0  0  0  0
  -33.5099   25.3565  -29.0783 H   0  0  0  0  0
  -34.0776   24.7846  -30.8166 H   0  0  0  0  0
  -34.6627   22.8067  -30.0435 H   0  0  0  0  0
  -32.1894   23.1212  -30.0370 H   0  0  0  0  0
  -32.2609   23.6582  -28.3407 H   0  0  0  0  0
  -32.6632   21.9748  -28.7593 H   0  0  0  0  0
  -34.4993   23.7574  -27.1970 H   0  0  0  0  0
  -35.9743   23.4102  -28.1325 H   0  0  0  0  0
  -34.8432   22.0942  -27.7325 H   0  0  0  0  0
  -35.1122   27.9447  -30.8931 H   0  0  0  0  0
  -34.4529   29.4043  -28.3922 H   0  0  0  0  0
  -33.2090   30.9297  -30.2387 H   0  0  0  0  0
  -33.1642   29.2915  -31.0804 H   0  0  0  0  0
  -32.2301   29.4833  -28.2986 H   0  0  0  0  0
  -31.1828   30.1900  -29.6347 H   0  0  0  0  0
  -29.1434   28.8636  -29.7859 H   0  0  0  0  0
  -29.5665   28.3426  -28.1365 H   0  0  0  0  0
  -29.0353   27.1429  -29.3404 H   0  0  0  0  0
  -35.5140   30.2810  -31.7489 H   0  0  0  0  0
  -36.1714   32.9466  -31.0143 H   0  0  0  0  0
  -37.6726   31.9264  -30.9226 H   0  0  0  0  0
  -38.8547   31.7691  -32.6620 H   0  0  0  0  0
  -37.7067   31.2522  -35.2437 H   0  0  0  0  0
  -39.1496   33.9857  -35.3709 H   0  0  0  0  0
  -40.1768   31.6377  -36.0187 H   0  0  0  0  0
  -40.5144   31.6969  -34.2446 H   0  0  0  0  0
  -40.7444   29.5762  -35.1377 H   0  0  0  0  0
  1  2  1  0  0  0
  2  3  1  0  0  0
  2  5  1  0  0  0
  3  4  2  0  0  0
  3  6  1  0  0  0
  6  7  1  0  0  0
  7  8  1  0  0  0
  7 10  1  0  0  0
  8  9  2  0  0  0
  8 11  1  0  0  0
 11 12  1  0  0  0
 12 13  1  0  0  0
 13 14  2  0  0  0
 13 15  1  0  0  0
 15 16  1  0  0  0
 16 17  1  0  0  0
 16 19  1  0  0  0
 17 18  2  0  0  0
 17 23  1  0  0  0
 19 20  1  0  0  0
 20 21  1  0  0  0
 20 22  1  0  0  0
 23 24  1  0  0  0
 24 25  1  0  0  0
 24 27  1  0  0  0
 25 26  2  0  0  0
 25 32  1  0  0  0
 27 28  1  0  0  0
 28 29  1  0  0  0
 29 30  1  0  0  0
 29 31  2  0  0  0
 32 33  1  0  0  0
 33 34  1  0  0  0
 33 36  1  0  0  0
 34 35  2  0  0  0
 34 40  1  0  0  0
 36 37  1  0  0  0
 37 38  1  0  0  0
 37 39  2  0  0  0
 40 41  1  0  0  0
 41 42  1  0  0  0
 41 44  1  0  0  0
 42 43  2  0  0  0
 42 48  1  0  0  0
 44 45  1  0  0  0
 44 46  1  0  0  0
 45 47  1  0  0  0
 48 49  1  0  0  0
 49 50  1  0  0  0
 49 52  1  0  0  0
 50 51  2  0  0  0
 50 56  1  0  0  0
 52 53  1  0  0  0
 52 54  1  0  0  0
 53 55  1  0  0  0
 56 57  1  0  0  0
 57 58  1  0  0  0
 57 60  1  0  0  0
 58 59  2  0  0  0
 58 67  1  0  0  0
 60 61  1  0  0  0
 61 62  1  0  0  0
 62 63  1  0  0  0
 63 64  1  0  0  0
 64 65  1  0  0  0
 64 66  2  0  0  0
 67 68  1  0  0  0
 68 69  1  0  0  0
 68 71  1  0  0  0
 69 70  2  0  0  0
 69 76  1  0  0  0
 71 72  1  0  0  0
 72 73  1  0  0  0
 73 74  1  0  0  0
 74 75  1  0  0  0
 76 77  1  0  0  0
 77 78  1  0  0  0
 77 80  1  0  0  0
 78 79  2  0  0  0
 78 81  1  0  0  0
 81 82  1  0  0  0
 82 83  1  0  0  0
 82 85  1  0  0  0
 83 84  2  0  0  0
 83 89  1  0  0  0
 85 86  1  0  0  0
 86 87  1  0  0  0
 86 88  1  0  0  0
 89 90  1  0  0  0
 90 91  1  0  0  0
 90 93  1  0  0  0
 91 92  2  0  0  0
 91 97  1  0  0  0
 93 94  1  0  0  0
 94 95  1  0  0  0
 95 96  1  0  0  0
 97 98  1  0  0  0
 98 99  1  0  0  0
 99100  2  0  0  0
 99101  1  0  0  0
101102  1  0  0  0
102103  1  0  0  0
102105  1  0  0  0
103104  2  0  0  0
105106  1  0  0  0
  1107  1  0  0  0
  1108  1  0  0  0
  1109  1  0  0  0
  2110  1  0  0  0
  5111  1  0  0  0
  5112  1  0  0  0
  5113  1  0  0  0
  6114  1  0  0  0
  7115  1  0  0  0
 10116  1  0  0  0
 10117  1  0  0  0
 10118  1  0  0  0
 11119  1  0  0  0
 12120  1  0  0  0
 12121  1  0  0  0
 15122  1  0  0  0
 16123  1  0  0  0
 19124  1  0  0  0
 19125  1  0  0  0
 20126  1  0  0  0
 21127  1  0  0  0
 21128  1  0  0  0
 21129  1  0  0  0
 22130  1  0  0  0
 22131  1  0  0  0
 22132  1  0  0  0
 23133  1  0  0  0
 24134  1  0  0  0
 27135  1  0  0  0
 27136  1  0  0  0
 28137  1  0  0  0
 28138  1  0  0  0
 30139  1  0  0  0
 32140  1  0  0  0
 33141  1  0  0  0
 36142  1  0  0  0
 36143  1  0  0  0
 38144  1  0  0  0
 40145  1  0  0  0
 41146  1  0  0  0
 44147  1  0  0  0
 45148  1  0  0  0
 45149  1  0  0  0
 46150  1  0  0  0
 46151  1  0  0  0
 46152  1  0  0  0
 47153  1  0  0  0
 47154  1  0  0  0
 47155  1  0  0  0
 48156  1  0  0  0
 49157  1  0  0  0
 52158  1  0  0  0
 53159  1  0  0  0
 53160  1  0  0  0
 54161  1  0  0  0
 54162  1  0  0  0
 54163  1  0  0  0
 55164  1  0  0  0
 55165  1  0  0  0
 55166  1  0  0  0
 56167  1  0  0  0
 57168  1  0  0  0
 60169  1  0  0  0
 60170  1  0  0  0
 61171  1  0  0  0
 61172  1  0  0  0
 62173  1  0  0  0
 62174  1  0  0  0
 63175  1  0  0  0
 65176  1  0  0  0
 65177  1  0  0  0
 66178  1  0  0  0
 67179  1  0  0  0
 68180  1  0  0  0
 71181  1  0  0  0
 71182  1  0  0  0
 72183  1  0  0  0
 72184  1  0  0  0
 73185  1  0  0  0
 73186  1  0  0  0
 74187  1  0  0  0
 74188  1  0  0  0
 75189  1  0  0  0
 75190  1  0  0  0
 75191  1  0  0  0
 76192  1  0  0  0
 77193  1  0  0  0
 80194  1  0  0  0
 80195  1  0  0  0
 80196  1  0  0  0
 81197  1  0  0  0
 82198  1  0  0  0
 85199  1  0  0  0
 85200  1  0  0  0
 86201  1  0  0  0
 87202  1  0  0  0
 87203  1  0  0  0
 87204  1  0  0  0
 88205  1  0  0  0
 88206  1  0  0  0
 88207  1  0  0  0
 89208  1  0  0  0
 90209  1  0  0  0
 93210  1  0  0  0
 93211  1  0  0  0
 94212  1  0  0  0
 94213  1  0  0  0
 96214  1  0  0  0
 96215  1  0  0  0
 96216  1  0  0  0
 97217  1  0  0  0
 98218  1  0  0  0
 98219  1  0  0  0
101220  1  0  0  0
102221  1  0  0  0
103222  1  0  0  0
105223  1  0  0  0
105224  1  0  0  0
106225  1  0  0  0
M  END
$$$$
