1sri_ligand
  -I-interpret- 

 34 35  0  0  0  0  0  0  0  0999 V2000
   18.7390    4.7560   11.9850 C   0  0  0  0  0
   17.5190    5.1370   11.4530 C   0  0  0  0  0
   17.2730    5.0360   10.0610 C   0  0  0  0  0
   18.2830    4.5460    9.2380 C   0  0  0  0  0
   19.5110    4.1590    9.7820 C   0  0  0  0  0
   19.7490    4.2570   11.1420 C   0  0  0  0  0
   20.5890    4.0840   15.0770 C   0  0  0  0  0
   20.2280    4.8620   16.1810 C   0  0  0  0  0
   21.1340    5.0440   17.2360 C   0  0  0  0  0
   22.3960    4.4560   17.1770 C   0  0  0  0  0
   22.7640    3.6660   16.0850 C   0  0  0  0  0
   21.8520    3.4780   15.0380 C   0  0  0  0  0
   16.3980    5.7470   12.3030 C   0  0  0  0  0
   20.7660    5.9060   18.4480 C   0  0  0  0  0
   24.1600    3.0170   16.0630 C   0  0  0  0  0
   18.9980    4.8460   13.4470 N   0  0  0  0  0
   19.6300    3.8870   13.9750 N   0  0  0  0  0
   15.3260    6.3100   11.5340 O   0  0  0  0  0
   16.4080    5.8770   13.4910 O   0  0  0  0  0
   23.3190    4.6550   18.2530 O   0  0  0  0  0
   16.3120    5.3360    9.6432 H   0  0  0  0  0
   18.1155    4.4637    8.1641 H   0  0  0  0  0
   20.2921    3.7747    9.1261 H   0  0  0  0  0
   20.7096    3.9505   11.5560 H   0  0  0  0  0
   19.2430    5.3269   16.2218 H   0  0  0  0  0
   22.1270    2.8555   14.1865 H   0  0  0  0  0
   20.5509    6.9222   18.1176 H   0  0  0  0  0
   19.8859    5.4874   18.9362 H   0  0  0  0  0
   21.6003    5.9195   19.1494 H   0  0  0  0  0
   24.9219    3.7954   16.1043 H   0  0  0  0  0
   24.2660    2.3570   16.9240 H   0  0  0  0  0
   24.2769    2.4407   15.1452 H   0  0  0  0  0
   15.4660    6.1184   10.6038 H   0  0  0  0  0
   24.1362    4.1886   18.0625 H   0  0  0  0  0
  1 16  1  0  0  0
  1  6  4  0  0  0
  1  2  4  0  0  0
  2 13  1  0  0  0
  2  3  4  0  0  0
  3  4  4  0  0  0
  4  5  4  0  0  0
  5  6  4  0  0  0
 13 19  2  0  0  0
 13 18  1  0  0  0
 16 17  2  0  0  0
 17  7  1  0  0  0
  7 12  4  0  0  0
  7  8  4  0  0  0
  8  9  4  0  0  0
  9 14  1  0  0  0
  9 10  4  0  0  0
 10 20  1  0  0  0
 10 11  4  0  0  0
 11 15  1  0  0  0
 11 12  4  0  0  0
  3 21  1  0  0  0
  4 22  1  0  0  0
  5 23  1  0  0  0
  6 24  1  0  0  0
  8 25  1  0  0  0
 12 26  1  0  0  0
 14 27  1  0  0  0
 14 28  1  0  0  0
 14 29  1  0  0  0
 15 30  1  0  0  0
 15 31  1  0  0  0
 15 32  1  0  0  0
 18 33  1  0  0  0
 20 34  1  0  0  0
M  END
$$$$
