### 
### Created by X-TOOL on Mon Aug  2 16:11:43 2021
### 

@<TRIPOS>MOLECULE
6fzp_ligand
  163   162     1     0     0
SMALL
GAST_HUCK


@<TRIPOS>ATOM
      1 N          -0.0130  -17.1820   14.9400 N.4       1 SER         0.2396
      2 CA         -1.3310  -16.6420   15.2550 C.3       1 SER         0.0885
      3 C          -1.9850  -16.0120   14.0300 C.2       1 SER         0.2290
      4 O          -1.4660  -15.0550   13.4580 O.2       1 SER        -0.3906
      5 CB         -1.2330  -15.6110   16.3800 C.3       1 SER         0.1041
      6 OG         -2.5090  -15.0780   16.6920 O.3       1 SER        -0.3870
      7 N          -3.1410  -16.5500   13.6370 N.am      1 SER        -0.2609
      8 CA         -3.8360  -16.0280   12.4650 C.3       1 SER         0.1313
      9 C          -4.4440  -14.6570   12.7320 C.2       1 SER         0.2039
     10 O          -4.5190  -13.8270   11.8190 O.2       1 SER        -0.3944
     11 CB         -4.9160  -17.0120   12.0100 C.3       1 SER        -0.0101
     12 CG         -4.4620  -18.2100   11.1700 C.3       1 SER        -0.0425
     13 CD1        -3.6080  -19.1790   11.9870 C.3       1 SER        -0.0625
     14 CD2        -5.6620  -18.9220   10.5560 C.3       1 SER        -0.0625
     15 N          -4.8810  -14.3990   13.9680 N.am      1 SER        -0.2637
     16 CA         -5.4610  -13.0990   14.2900 C.3       1 SER         0.1312
     17 C          -4.4280  -11.9850   14.1750 C.2       1 SER         0.2039
     18 O          -4.7390  -10.8910   13.6920 O.2       1 SER        -0.3944
     19 CB         -6.0640  -13.1240   15.6950 C.3       1 SER        -0.0101
     20 CG         -7.4020  -13.8440   15.8680 C.3       1 SER        -0.0425
     21 CD1        -7.8090  -13.8470   17.3320 C.3       1 SER        -0.0625
     22 CD2        -8.4790  -13.1900   15.0140 C.3       1 SER        -0.0625
     23 N          -3.1930  -12.2430   14.6160 N.am      1 SER        -0.2637
     24 CA         -2.1410  -11.2360   14.5170 C.3       1 SER         0.1310
     25 C          -1.8680  -10.8400   13.0710 C.2       1 SER         0.2039
     26 O          -1.5480   -9.6780   12.7950 O.2       1 SER        -0.3944
     27 CB         -0.8580  -11.7500   15.1740 C.3       1 SER        -0.0122
     28 CG         -0.5240  -11.0920   16.5040 C.3       1 SER        -0.0440
     29 CD          0.7660  -11.6530   17.0870 C.3       1 SER        -0.0124
     30 CE          1.1050  -10.9990   18.4180 C.3       1 SER        -0.0354
     31 NZ          2.3290  -11.5790   19.0400 N.4       1 SER         0.2185
     32 N          -1.9860  -11.7880   12.1370 N.am      1 SER        -0.2637
     33 CA         -1.7680  -11.4680   10.7310 C.3       1 SER         0.1310
     34 C          -2.8770  -10.5830   10.1800 C.2       1 SER         0.2039
     35 O          -2.6220   -9.7380    9.3140 O.2       1 SER        -0.3944
     36 CB         -1.6480  -12.7560    9.9170 C.3       1 SER        -0.0122
     37 CG         -0.4700  -13.6250   10.3250 C.3       1 SER        -0.0440
     38 CD         -0.8190  -15.1020   10.2640 C.3       1 SER        -0.0124
     39 CE          0.2880  -15.9490   10.8710 C.3       1 SER        -0.0354
     40 NZ         -0.1610  -17.3390   11.1570 N.4       1 SER         0.2185
     41 N          -4.1090  -10.7560   10.6670 N.am      1 SER        -0.2637
     42 CA         -5.1990   -9.8950   10.2210 C.3       1 SER         0.1312
     43 C          -5.0950   -8.5010   10.8260 C.2       1 SER         0.2039
     44 O          -5.5490   -7.5270   10.2140 O.2       1 SER        -0.3944
     45 CB         -6.5460  -10.5310   10.5630 C.3       1 SER        -0.0101
     46 CG         -6.8460  -11.8730    9.8950 C.3       1 SER        -0.0425
     47 CD1        -8.1850  -12.4110   10.3630 C.3       1 SER        -0.0625
     48 CD2        -6.8170  -11.7420    8.3780 C.3       1 SER        -0.0625
     49 N          -4.5050   -8.3820   12.0190 N.am      1 SER        -0.2637
     50 CA         -4.3000   -7.0670   12.6160 C.3       1 SER         0.1312
     51 C          -3.1080   -6.3420   12.0050 C.2       1 SER         0.2039
     52 O          -3.1050   -5.1070   11.9460 O.2       1 SER        -0.3944
     53 CB         -4.1050   -7.1870   14.1300 C.3       1 SER        -0.0101
     54 CG         -5.3390   -7.1520   15.0390 C.3       1 SER        -0.0425
     55 CD1        -6.2320   -5.9620   14.7140 C.3       1 SER        -0.0625
     56 CD2        -6.1240   -8.4470   14.9650 C.3       1 SER        -0.0625
     57 N          -2.0960   -7.0800   11.5560 N.am      1 SER        -0.2637
     58 CA         -0.8970   -6.4870   10.9780 C.3       1 SER         0.1312
     59 C          -1.0190   -6.2280    9.4820 C.2       1 SER         0.2033
     60 O          -0.0810   -5.6880    8.8860 O.2       1 SER        -0.3944
     61 CB          0.3180   -7.3840   11.2420 C.3       1 SER        -0.0101
     62 CG          0.8750   -7.3890   12.6670 C.3       1 SER        -0.0425
     63 CD1         2.0550   -8.3430   12.7770 C.3       1 SER        -0.0625
     64 CD2         1.2800   -5.9850   13.0870 C.3       1 SER        -0.0625
     65 N          -2.1380   -6.5940    8.8660 N.am      1 SER        -0.2698
     66 CA         -2.3320   -6.3870    7.4350 C.3       1 SER         0.0916
     67 C          -2.4110   -4.9010    7.0980 C.2       1 SER         0.0598
     68 O          -2.8880   -4.0980    7.9000 O.co2     1 SER        -0.5666
     69 CB         -3.5870   -7.1050    6.9620 C.3       1 SER        -0.0300
     70 OXT        -1.9990   -4.4780    6.0180 O.co2     1 SER        -0.5666
     71 H1          0.3900  -17.5897   15.7691 H         1 SER         0.2016
     72 H2          0.5829  -16.4406   14.6064 H         1 SER         0.2016
     73 H3         -0.1011  -17.8889   14.2268 H         1 SER         0.2016
     74 H4         -1.9676  -17.4712   15.5973 H         1 SER         0.1122
     75 H5         -0.5694  -14.7933   16.0621 H         1 SER         0.0640
     76 H6         -0.8161  -16.0943   17.2758 H         1 SER         0.0640
     77 H7         -3.0848  -15.7803   16.9706 H         1 SER         0.2099
     78 H8         -3.5331  -17.3148   14.1482 H         1 SER         0.1884
     79 H9         -3.1016  -15.9215   11.6530 H         1 SER         0.0800
     80 H10        -5.6478  -16.4477   11.4133 H         1 SER         0.0315
     81 H11        -5.4053  -17.4070   12.9125 H         1 SER         0.0315
     82 H12        -3.8395  -17.8271   10.3479 H         1 SER         0.0298
     83 H13        -3.3021  -20.0233   11.3517 H         1 SER         0.0232
     84 H14        -4.1933  -19.5546   12.8392 H         1 SER         0.0232
     85 H15        -2.7139  -18.6566   12.3580 H         1 SER         0.0232
     86 H16        -6.2575  -18.2024    9.9750 H         1 SER         0.0232
     87 H17        -6.2832  -19.3503   11.3564 H         1 SER         0.0232
     88 H18        -5.3112  -19.7270    9.8935 H         1 SER         0.0232
     89 H19        -4.8102  -15.1009   14.6768 H         1 SER         0.1883
     90 H20        -6.2670  -12.8946   13.5699 H         1 SER         0.0800
     91 H21        -6.2061  -12.0806   16.0129 H         1 SER         0.0315
     92 H22        -5.3364  -13.6137   16.3589 H         1 SER         0.0315
     93 H23        -7.2823  -14.8862   15.5371 H         1 SER         0.0298
     94 H24        -8.7718  -14.3671   17.4438 H         1 SER         0.0232
     95 H25        -7.9087  -12.8107   17.6870 H         1 SER         0.0232
     96 H26        -7.0412  -14.3655   17.9250 H         1 SER         0.0232
     97 H27        -8.1658  -13.1978   13.9596 H         1 SER         0.0232
     98 H28        -8.6286  -12.1515   15.3444 H         1 SER         0.0232
     99 H29        -9.4209  -13.7481   15.1208 H         1 SER         0.0232
    100 H30        -2.9875  -13.1353   15.0180 H         1 SER         0.1883
    101 H31        -2.4744  -10.3391   15.0595 H         1 SER         0.0800
    102 H32        -0.0218  -11.5705   14.4822 H         1 SER         0.0312
    103 H33        -0.9680  -12.8313   15.3436 H         1 SER         0.0312
    104 H34        -1.3465  -11.2744   17.2112 H         1 SER         0.0269
    105 H35        -0.4068  -10.0093   16.3493 H         1 SER         0.0269
    106 H36         1.5878  -11.4702   16.3790 H         1 SER         0.0317
    107 H37         0.6481  -12.7359   17.2403 H         1 SER         0.0317
    108 H38         0.2585  -11.1392   19.1064 H         1 SER         0.0813
    109 H39         1.2685   -9.9240   18.2520 H         1 SER         0.0813
    110 H40         2.5125  -11.1155   19.9161 H         1 SER         0.1994
    111 H41         3.1139  -11.4500   18.4209 H         1 SER         0.1994
    112 H42         2.1884  -12.5636   19.2038 H         1 SER         0.1994
    113 H43        -2.2250  -12.7218   12.4034 H         1 SER         0.1883
    114 H44        -0.8199  -10.9165   10.6477 H         1 SER         0.0800
    115 H45        -1.5317  -12.4878    8.8566 H         1 SER         0.0312
    116 H46        -2.5719  -13.3382   10.0488 H         1 SER         0.0312
    117 H47        -0.1770  -13.3694   11.3540 H         1 SER         0.0269
    118 H48         0.3716  -13.4284    9.6445 H         1 SER         0.0269
    119 H49        -0.9610  -15.3950    9.2133 H         1 SER         0.0317
    120 H50        -1.7511  -15.2747   10.8220 H         1 SER         0.0317
    121 H51         0.6163  -15.4822   11.8114 H         1 SER         0.0813
    122 H52         1.1318  -15.9872   10.1664 H         1 SER         0.0813
    123 H53         0.6017  -17.8629   11.5569 H         1 SER         0.1994
    124 H54        -0.4581  -17.7791   10.3002 H         1 SER         0.1994
    125 H55        -0.9306  -17.3164   11.8076 H         1 SER         0.1994
    126 H56        -4.2842  -11.4765   11.3380 H         1 SER         0.1883
    127 H57        -5.1314   -9.7969    9.1275 H         1 SER         0.0800
    128 H58        -7.3357   -9.8247   10.2673 H         1 SER         0.0315
    129 H59        -6.5789  -10.6831   11.6519 H         1 SER         0.0315
    130 H60        -6.0646  -12.5878   10.1925 H         1 SER         0.0298
    131 H61        -8.3841  -13.3755    9.8730 H         1 SER         0.0232
    132 H62        -8.9791  -11.6961   10.1016 H         1 SER         0.0232
    133 H63        -8.1627  -12.5516   11.4537 H         1 SER         0.0232
    134 H64        -5.8385  -11.3509    8.0624 H         1 SER         0.0232
    135 H65        -7.6096  -11.0513    8.0544 H         1 SER         0.0232
    136 H66        -6.9819  -12.7291    7.9215 H         1 SER         0.0232
    137 H67        -4.2016   -9.2008   12.5063 H         1 SER         0.1883
    138 H68        -5.2011   -6.4648   12.4277 H         1 SER         0.0800
    139 H69        -3.4526   -6.3569   14.4387 H         1 SER         0.0315
    140 H70        -3.5941   -8.1434   14.3153 H         1 SER         0.0315
    141 H71        -4.9859   -7.0337   16.0741 H         1 SER         0.0298
    142 H72        -7.1059   -5.9661   15.3821 H         1 SER         0.0232
    143 H73        -6.5690   -6.0310   13.6692 H         1 SER         0.0232
    144 H74        -5.6663   -5.0294   14.8561 H         1 SER         0.0232
    145 H75        -5.4609   -9.2918   15.2028 H         1 SER         0.0232
    146 H76        -6.5287   -8.5730   13.9499 H         1 SER         0.0232
    147 H77        -6.9519   -8.4158   15.6886 H         1 SER         0.0232
    148 H78        -2.1605   -8.0760   11.6173 H         1 SER         0.1883
    149 H79        -0.7297   -5.5200   11.4749 H         1 SER         0.0800
    150 H80         1.1254   -7.0570   10.5703 H         1 SER         0.0315
    151 H81         0.0299   -8.4162   10.9937 H         1 SER         0.0315
    152 H82         0.0836   -7.7383   13.3465 H         1 SER         0.0298
    153 H83         2.4404   -8.3322   13.8072 H         1 SER         0.0232
    154 H84         2.8490   -8.0255   12.0851 H         1 SER         0.0232
    155 H85         1.7288   -9.3611   12.5183 H         1 SER         0.0232
    156 H86         0.4141   -5.3122   13.0002 H         1 SER         0.0232
    157 H87         2.0898   -5.6263   12.4346 H         1 SER         0.0232
    158 H88         1.6291   -6.0006   14.1300 H         1 SER         0.0232
    159 H89        -2.8676   -7.0234    9.3982 H         1 SER         0.1875
    160 H90        -1.4677   -6.8141    6.9054 H         1 SER         0.0723
    161 H91        -3.7193   -6.9396    5.8826 H         1 SER         0.0270
    162 H92        -4.4604   -6.7117    7.5029 H         1 SER         0.0270
    163 H93        -3.4889   -8.1829    7.1584 H         1 SER         0.0270
@<TRIPOS>BOND
     1    1    2 1  
     2    2    3 1  
     3    2    5 1  
     4    3    4 2  
     5    3    7 am 
     6    5    6 1  
     7    7    8 1  
     8    8    9 1  
     9    8   11 1  
    10    9   10 2  
    11    9   15 am 
    12   11   12 1  
    13   12   13 1  
    14   12   14 1  
    15   15   16 1  
    16   16   17 1  
    17   16   19 1  
    18   17   18 2  
    19   17   23 am 
    20   19   20 1  
    21   20   21 1  
    22   20   22 1  
    23   23   24 1  
    24   24   25 1  
    25   24   27 1  
    26   25   26 2  
    27   25   32 am 
    28   27   28 1  
    29   28   29 1  
    30   29   30 1  
    31   30   31 1  
    32   32   33 1  
    33   33   34 1  
    34   33   36 1  
    35   34   35 2  
    36   34   41 am 
    37   36   37 1  
    38   37   38 1  
    39   38   39 1  
    40   39   40 1  
    41   41   42 1  
    42   42   43 1  
    43   42   45 1  
    44   43   44 2  
    45   43   49 am 
    46   45   46 1  
    47   46   47 1  
    48   46   48 1  
    49   49   50 1  
    50   50   51 1  
    51   50   53 1  
    52   51   52 2  
    53   51   57 am 
    54   53   54 1  
    55   54   55 1  
    56   54   56 1  
    57   57   58 1  
    58   58   59 1  
    59   58   61 1  
    60   59   60 2  
    61   59   65 am 
    62   61   62 1  
    63   62   63 1  
    64   62   64 1  
    65   65   66 1  
    66   66   67 1  
    67   66   69 1  
    68   67   68 ar 
    69   67   70 ar 
    70    1   71 1  
    71    1   72 1  
    72    1   73 1  
    73    2   74 1  
    74    5   75 1  
    75    5   76 1  
    76    6   77 1  
    77    7   78 1  
    78    8   79 1  
    79   11   80 1  
    80   11   81 1  
    81   12   82 1  
    82   13   83 1  
    83   13   84 1  
    84   13   85 1  
    85   14   86 1  
    86   14   87 1  
    87   14   88 1  
    88   15   89 1  
    89   16   90 1  
    90   19   91 1  
    91   19   92 1  
    92   20   93 1  
    93   21   94 1  
    94   21   95 1  
    95   21   96 1  
    96   22   97 1  
    97   22   98 1  
    98   22   99 1  
    99   23  100 1  
   100   24  101 1  
   101   27  102 1  
   102   27  103 1  
   103   28  104 1  
   104   28  105 1  
   105   29  106 1  
   106   29  107 1  
   107   30  108 1  
   108   30  109 1  
   109   31  110 1  
   110   31  111 1  
   111   31  112 1  
   112   32  113 1  
   113   33  114 1  
   114   36  115 1  
   115   36  116 1  
   116   37  117 1  
   117   37  118 1  
   118   38  119 1  
   119   38  120 1  
   120   39  121 1  
   121   39  122 1  
   122   40  123 1  
   123   40  124 1  
   124   40  125 1  
   125   41  126 1  
   126   42  127 1  
   127   45  128 1  
   128   45  129 1  
   129   46  130 1  
   130   47  131 1  
   131   47  132 1  
   132   47  133 1  
   133   48  134 1  
   134   48  135 1  
   135   48  136 1  
   136   49  137 1  
   137   50  138 1  
   138   53  139 1  
   139   53  140 1  
   140   54  141 1  
   141   55  142 1  
   142   55  143 1  
   143   55  144 1  
   144   56  145 1  
   145   56  146 1  
   146   56  147 1  
   147   57  148 1  
   148   58  149 1  
   149   61  150 1  
   150   61  151 1  
   151   62  152 1  
   152   63  153 1  
   153   63  154 1  
   154   63  155 1  
   155   64  156 1  
   156   64  157 1  
   157   64  158 1  
   158   65  159 1  
   159   66  160 1  
   160   69  161 1  
   161   69  162 1  
   162   69  163 1  
@<TRIPOS>SUBSTRUCTURE
     1 SER         1

