6fzp_ligand
  -I-interpret- 

164163  0  0  0  0  0  0  0  0999 V2000
   -0.0130  -17.1820   14.9400 N   0  3  0  0  0
   -1.3310  -16.6420   15.2550 C   0  0  0  0  0
   -1.9850  -16.0120   14.0300 C   0  0  0  0  0
   -1.4660  -15.0550   13.4580 O   0  0  0  0  0
   -1.2330  -15.6110   16.3800 C   0  0  0  0  0
   -2.5090  -15.0780   16.6920 O   0  0  0  0  0
   -3.1410  -16.5500   13.6370 N   0  0  0  0  0
   -3.8360  -16.0280   12.4650 C   0  0  0  0  0
   -4.4440  -14.6570   12.7320 C   0  0  0  0  0
   -4.5190  -13.8270   11.8190 O   0  0  0  0  0
   -4.9160  -17.0120   12.0100 C   0  0  0  0  0
   -4.4620  -18.2100   11.1700 C   0  0  0  0  0
   -3.6080  -19.1790   11.9870 C   0  0  0  0  0
   -5.6620  -18.9220   10.5560 C   0  0  0  0  0
   -4.8810  -14.3990   13.9680 N   0  0  0  0  0
   -5.4610  -13.0990   14.2900 C   0  0  0  0  0
   -4.4280  -11.9850   14.1750 C   0  0  0  0  0
   -4.7390  -10.8910   13.6920 O   0  0  0  0  0
   -6.0640  -13.1240   15.6950 C   0  0  0  0  0
   -7.4020  -13.8440   15.8680 C   0  0  0  0  0
   -7.8090  -13.8470   17.3320 C   0  0  0  0  0
   -8.4790  -13.1900   15.0140 C   0  0  0  0  0
   -3.1930  -12.2430   14.6160 N   0  0  0  0  0
   -2.1410  -11.2360   14.5170 C   0  0  0  0  0
   -1.8680  -10.8400   13.0710 C   0  0  0  0  0
   -1.5480   -9.6780   12.7950 O   0  0  0  0  0
   -0.8580  -11.7500   15.1740 C   0  0  0  0  0
   -0.5240  -11.0920   16.5040 C   0  0  0  0  0
    0.7660  -11.6530   17.0870 C   0  0  0  0  0
    1.1050  -10.9990   18.4180 C   0  0  0  0  0
    2.3290  -11.5790   19.0400 N   0  3  0  0  0
   -1.9860  -11.7880   12.1370 N   0  0  0  0  0
   -1.7680  -11.4680   10.7310 C   0  0  0  0  0
   -2.8770  -10.5830   10.1800 C   0  0  0  0  0
   -2.6220   -9.7380    9.3140 O   0  0  0  0  0
   -1.6480  -12.7560    9.9170 C   0  0  0  0  0
   -0.4700  -13.6250   10.3250 C   0  0  0  0  0
   -0.8190  -15.1020   10.2640 C   0  0  0  0  0
    0.2880  -15.9490   10.8710 C   0  0  0  0  0
   -0.1610  -17.3390   11.1570 N   0  3  0  0  0
   -4.1090  -10.7560   10.6670 N   0  0  0  0  0
   -5.1990   -9.8950   10.2210 C   0  0  0  0  0
   -5.0950   -8.5010   10.8260 C   0  0  0  0  0
   -5.5490   -7.5270   10.2140 O   0  0  0  0  0
   -6.5460  -10.5310   10.5630 C   0  0  0  0  0
   -6.8460  -11.8730    9.8950 C   0  0  0  0  0
   -8.1850  -12.4110   10.3630 C   0  0  0  0  0
   -6.8170  -11.7420    8.3780 C   0  0  0  0  0
   -4.5050   -8.3820   12.0190 N   0  0  0  0  0
   -4.3000   -7.0670   12.6160 C   0  0  0  0  0
   -3.1080   -6.3420   12.0050 C   0  0  0  0  0
   -3.1050   -5.1070   11.9460 O   0  0  0  0  0
   -4.1050   -7.1870   14.1300 C   0  0  0  0  0
   -5.3390   -7.1520   15.0390 C   0  0  0  0  0
   -6.2320   -5.9620   14.7140 C   0  0  0  0  0
   -6.1240   -8.4470   14.9650 C   0  0  0  0  0
   -2.0960   -7.0800   11.5560 N   0  0  0  0  0
   -0.8970   -6.4870   10.9780 C   0  0  0  0  0
   -1.0190   -6.2280    9.4820 C   0  0  0  0  0
   -0.0810   -5.6880    8.8860 O   0  0  0  0  0
    0.3180   -7.3840   11.2420 C   0  0  0  0  0
    0.8750   -7.3890   12.6670 C   0  0  0  0  0
    2.0550   -8.3430   12.7770 C   0  0  0  0  0
    1.2800   -5.9850   13.0870 C   0  0  0  0  0
   -2.1380   -6.5940    8.8660 N   0  0  0  0  0
   -2.3320   -6.3870    7.4350 C   0  0  0  0  0
   -2.4110   -4.9010    7.0980 C   0  0  0  0  0
   -2.8880   -4.0980    7.9000 O   0  0  0  0  0
   -3.5870   -7.1050    6.9620 C   0  0  0  0  0
   -1.9990   -4.4780    6.0180 O   0  0  0  0  0
   -0.0981  -17.8667   14.1888 H   0  0  0  0  0
    0.6015  -16.4241   14.6428 H   0  0  0  0  0
    0.3760  -17.6314   15.7689 H   0  0  0  0  0
   -1.9552  -17.4730   15.5835 H   0  0  0  0  0
   -0.5842  -14.7980   16.0542 H   0  0  0  0  0
   -0.8308  -16.0989   17.2679 H   0  0  0  0  0
   -2.4216  -14.4347   17.3992 H   0  0  0  0  0
   -3.5409  -17.3301   14.1585 H   0  0  0  0  0
   -3.1011  -15.9102   11.6687 H   0  0  0  0  0
   -5.5877  -16.4395   11.3704 H   0  0  0  0  0
   -5.3366  -17.4331   12.9232 H   0  0  0  0  0
   -3.8378  -17.8305   10.3610 H   0  0  0  0  0
   -2.7225  -18.6601   12.3540 H   0  0  0  0  0
   -4.1890  -19.5504   12.8311 H   0  0  0  0  0
   -3.3055  -20.0151   11.3565 H   0  0  0  0  0
   -6.3184  -19.2763   11.3508 H   0  0  0  0  0
   -6.2064  -18.2277    9.9159 H   0  0  0  0  0
   -5.3162  -19.7693    9.9638 H   0  0  0  0  0
   -4.8088  -15.1149   14.6909 H   0  0  0  0  0
   -6.2512  -12.8949   13.5675 H   0  0  0  0  0
   -6.2525  -12.0824   15.9549 H   0  0  0  0  0
   -5.3517  -13.6703   16.3133 H   0  0  0  0  0
   -7.2867  -14.8757   15.5358 H   0  0  0  0  0
   -7.0474  -14.3610   17.9185 H   0  0  0  0  0
   -7.9074  -12.8196   17.6825 H   0  0  0  0  0
   -8.7631  -14.3625   17.4415 H   0  0  0  0  0
   -8.5969  -12.1489   15.3146 H   0  0  0  0  0
   -8.1866  -13.2357   13.9649 H   0  0  0  0  0
   -9.4220  -13.7187   15.1530 H   0  0  0  0  0
   -2.9834  -13.1531   15.0260 H   0  0  0  0  0
   -2.4861  -10.3454   15.0423 H   0  0  0  0  0
   -0.0380  -11.5255   14.4919 H   0  0  0  0  0
   -1.0036  -12.8121   15.3709 H   0  0  0  0  0
   -1.3365  -11.2888   17.2034 H   0  0  0  0  0
   -0.3955  -10.0220   16.3404 H   0  0  0  0  0
    1.5774  -11.4535   16.3870 H   0  0  0  0  0
    0.6351  -12.7227   17.2506 H   0  0  0  0  0
    0.2696  -11.1653   19.0982 H   0  0  0  0  0
    1.2881   -9.9399   18.2366 H   0  0  0  0  0
    2.5137  -11.1093   19.9264 H   0  0  0  0  0
    2.1855  -12.5753   19.2052 H   0  0  0  0  0
    3.1225  -11.4479   18.4126 H   0  0  0  0  0
   -2.2298  -12.7404   12.4087 H   0  0  0  0  0
   -0.8364  -10.9079   10.6500 H   0  0  0  0  0
   -1.4996  -12.4719    8.8752 H   0  0  0  0  0
   -2.5558  -13.3353   10.0856 H   0  0  0  0  0
   -0.1975  -13.3771   11.3509 H   0  0  0  0  0
    0.3529  -13.4363    9.6356 H   0  0  0  0  0
   -0.9459  -15.3885    9.2200 H   0  0  0  0  0
   -1.7362  -15.2682   10.8290 H   0  0  0  0  0
    0.5896  -15.4894   11.8122 H   0  0  0  0  0
    1.1089  -15.9980   10.1555 H   0  0  0  0  0
    0.6115  -17.8681   11.5616 H   0  0  0  0  0
   -0.9397  -17.3148   11.8154 H   0  0  0  0  0
   -0.4614  -17.7833   10.2894 H   0  0  0  0  0
   -4.2877  -11.4909   11.3514 H   0  0  0  0  0
   -5.1220   -9.7886    9.1389 H   0  0  0  0  0
   -7.3091   -9.8373   10.2101 H   0  0  0  0  0
   -6.5296  -10.7214   11.6361 H   0  0  0  0  0
   -6.0703  -12.5811   10.1864 H   0  0  0  0  0
   -8.1616  -12.5499   11.4439 H   0  0  0  0  0
   -8.9709  -11.7017   10.1034 H   0  0  0  0  0
   -8.3812  -13.3666    9.8768 H   0  0  0  0  0
   -7.5674  -11.0170    8.0628 H   0  0  0  0  0
   -5.8295  -11.4053    8.0625 H   0  0  0  0  0
   -7.0335  -12.7103    7.9268 H   0  0  0  0  0
   -4.1956   -9.2172   12.5161 H   0  0  0  0  0
   -5.1952   -6.4808   12.4085 H   0  0  0  0  0
   -3.5230   -6.3090   14.4102 H   0  0  0  0  0
   -3.6708   -8.1753   14.2813 H   0  0  0  0  0
   -4.9810   -7.0377   16.0622 H   0  0  0  0  0
   -5.6703   -5.0386   14.8551 H   0  0  0  0  0
   -6.5652   -6.0315   13.6785 H   0  0  0  0  0
   -7.0975   -5.9672   15.3766 H   0  0  0  0  0
   -6.4558   -8.6112   13.9398 H   0  0  0  0  0
   -5.4879   -9.2744   15.2793 H   0  0  0  0  0
   -6.9907   -8.3831   15.6229 H   0  0  0  0  0
   -2.1618   -8.0960   11.6186 H   0  0  0  0  0
   -0.7671   -5.5201   11.4642 H   0  0  0  0  0
    1.1176   -6.9986   10.6094 H   0  0  0  0  0
   -0.0146   -8.4035   11.0471 H   0  0  0  0  0
    0.0913   -7.7354   13.3408 H   0  0  0  0  0
    1.7304   -9.3514   12.5204 H   0  0  0  0  0
    2.8410   -8.0273   12.0910 H   0  0  0  0  0
    2.4360   -8.3314   13.7982 H   0  0  0  0  0
    2.0467   -5.6111   12.4084 H   0  0  0  0  0
    0.4092   -5.3305   13.0494 H   0  0  0  0  0
    1.6735   -6.0104   14.1032 H   0  0  0  0  0
   -2.8822   -7.0320    9.4089 H   0  0  0  0  0
   -1.4700   -6.8043    6.9145 H   0  0  0  0  0
   -3.1659   -4.5648    8.6915 H   0  0  0  0  0
   -3.4885   -8.1728    7.1572 H   0  0  0  0  0
   -4.4516   -6.7145    7.4987 H   0  0  0  0  0
   -3.7169   -6.9403    5.8924 H   0  0  0  0  0
  1  2  1  0  0  0
  2  3  1  0  0  0
  2  5  1  0  0  0
  3  4  2  0  0  0
  3  7  1  0  0  0
  5  6  1  0  0  0
  7  8  1  0  0  0
  8  9  1  0  0  0
  8 11  1  0  0  0
  9 10  2  0  0  0
  9 15  1  0  0  0
 11 12  1  0  0  0
 12 13  1  0  0  0
 12 14  1  0  0  0
 15 16  1  0  0  0
 16 17  1  0  0  0
 16 19  1  0  0  0
 17 18  2  0  0  0
 17 23  1  0  0  0
 19 20  1  0  0  0
 20 21  1  0  0  0
 20 22  1  0  0  0
 23 24  1  0  0  0
 24 25  1  0  0  0
 24 27  1  0  0  0
 25 26  2  0  0  0
 25 32  1  0  0  0
 27 28  1  0  0  0
 28 29  1  0  0  0
 29 30  1  0  0  0
 30 31  1  0  0  0
 32 33  1  0  0  0
 33 34  1  0  0  0
 33 36  1  0  0  0
 34 35  2  0  0  0
 34 41  1  0  0  0
 36 37  1  0  0  0
 37 38  1  0  0  0
 38 39  1  0  0  0
 39 40  1  0  0  0
 41 42  1  0  0  0
 42 43  1  0  0  0
 42 45  1  0  0  0
 43 44  2  0  0  0
 43 49  1  0  0  0
 45 46  1  0  0  0
 46 47  1  0  0  0
 46 48  1  0  0  0
 49 50  1  0  0  0
 50 51  1  0  0  0
 50 53  1  0  0  0
 51 52  2  0  0  0
 51 57  1  0  0  0
 53 54  1  0  0  0
 54 55  1  0  0  0
 54 56  1  0  0  0
 57 58  1  0  0  0
 58 59  1  0  0  0
 58 61  1  0  0  0
 59 60  2  0  0  0
 59 65  1  0  0  0
 61 62  1  0  0  0
 62 63  1  0  0  0
 62 64  1  0  0  0
 65 66  1  0  0  0
 66 67  1  0  0  0
 66 69  1  0  0  0
 67 68  1  0  0  0
 67 70  2  0  0  0
  1 71  1  0  0  0
  1 72  1  0  0  0
  1 73  1  0  0  0
  2 74  1  0  0  0
  5 75  1  0  0  0
  5 76  1  0  0  0
  6 77  1  0  0  0
  7 78  1  0  0  0
  8 79  1  0  0  0
 11 80  1  0  0  0
 11 81  1  0  0  0
 12 82  1  0  0  0
 13 83  1  0  0  0
 13 84  1  0  0  0
 13 85  1  0  0  0
 14 86  1  0  0  0
 14 87  1  0  0  0
 14 88  1  0  0  0
 15 89  1  0  0  0
 16 90  1  0  0  0
 19 91  1  0  0  0
 19 92  1  0  0  0
 20 93  1  0  0  0
 21 94  1  0  0  0
 21 95  1  0  0  0
 21 96  1  0  0  0
 22 97  1  0  0  0
 22 98  1  0  0  0
 22 99  1  0  0  0
 23100  1  0  0  0
 24101  1  0  0  0
 27102  1  0  0  0
 27103  1  0  0  0
 28104  1  0  0  0
 28105  1  0  0  0
 29106  1  0  0  0
 29107  1  0  0  0
 30108  1  0  0  0
 30109  1  0  0  0
 31110  1  0  0  0
 31111  1  0  0  0
 31112  1  0  0  0
 32113  1  0  0  0
 33114  1  0  0  0
 36115  1  0  0  0
 36116  1  0  0  0
 37117  1  0  0  0
 37118  1  0  0  0
 38119  1  0  0  0
 38120  1  0  0  0
 39121  1  0  0  0
 39122  1  0  0  0
 40123  1  0  0  0
 40124  1  0  0  0
 40125  1  0  0  0
 41126  1  0  0  0
 42127  1  0  0  0
 45128  1  0  0  0
 45129  1  0  0  0
 46130  1  0  0  0
 47131  1  0  0  0
 47132  1  0  0  0
 47133  1  0  0  0
 48134  1  0  0  0
 48135  1  0  0  0
 48136  1  0  0  0
 49137  1  0  0  0
 50138  1  0  0  0
 53139  1  0  0  0
 53140  1  0  0  0
 54141  1  0  0  0
 55142  1  0  0  0
 55143  1  0  0  0
 55144  1  0  0  0
 56145  1  0  0  0
 56146  1  0  0  0
 56147  1  0  0  0
 57148  1  0  0  0
 58149  1  0  0  0
 61150  1  0  0  0
 61151  1  0  0  0
 62152  1  0  0  0
 63153  1  0  0  0
 63154  1  0  0  0
 63155  1  0  0  0
 64156  1  0  0  0
 64157  1  0  0  0
 64158  1  0  0  0
 65159  1  0  0  0
 66160  1  0  0  0
 68161  1  0  0  0
 69162  1  0  0  0
 69163  1  0  0  0
 69164  1  0  0  0
M  END
$$$$
