4imq_ligand
  -I-interpret- 

 74 75  0  0  0  0  0  0  0  0999 V2000
  -34.8730  -38.4550   18.3140 C   0  0  0  0  0
  -35.3700  -39.5650   18.4620 O   0  0  0  0  0
  -33.7160  -38.3070   19.0280 O   0  0  0  0  0
  -33.3660  -37.0150   19.3930 C   0  0  0  0  0
  -34.0390  -36.8550   20.6140 C   0  0  0  0  0
  -34.9380  -37.8570   20.9370 C   0  0  0  0  0
  -35.6430  -37.8550   22.1280 C   0  0  0  0  0
  -35.4320  -36.8470   23.0540 C   0  0  0  0  0
  -34.5120  -35.8510   22.7660 C   0  0  0  0  0
  -33.8100  -35.8700   21.5660 C   0  0  0  0  0
  -35.6570  -37.4480   17.9150 N   0  0  0  0  0
  -36.9150  -37.6760   17.1300 C   0  0  0  0  0
  -36.8990  -37.4240   15.5890 C   0  0  0  0  0
  -36.5260  -36.3390   15.1150 O   0  0  0  0  0
  -38.0140  -36.6960   17.5910 C   0  0  0  0  0
  -38.3370  -36.7270   19.0950 C   0  0  0  0  0
  -39.4180  -35.6940   19.4550 C   0  0  0  0  0
  -38.8600  -38.1000   19.4810 C   0  0  0  0  0
  -37.5150  -38.3570   14.8380 N   0  0  0  0  0
  -37.5390  -38.1830   13.3530 C   0  0  0  0  0
  -38.4900  -36.9970   13.0120 C   0  0  0  0  0
  -39.5640  -36.7200   13.5650 O   0  0  0  0  0
  -37.9520  -39.4140   12.5070 C   0  0  0  0  0
  -37.0860  -40.6770   12.6870 C   0  0  0  0  0
  -35.8340  -40.7850   12.0830 C   0  0  0  0  0
  -37.5750  -41.7410   13.4360 C   0  0  0  0  0
  -35.0720  -41.9390   12.2460 C   0  0  0  0  0
  -36.8150  -42.8930   13.6000 C   0  0  0  0  0
  -35.5650  -42.9940   13.0050 C   0  0  0  0  0
  -39.1580  -35.3250   10.1080 C   0  0  0  0  0
  -37.0550  -32.3850   13.6200 C   0  0  0  0  0
  -37.9460  -36.2620   12.0960 N   0  0  0  0  0
  -36.2530  -31.7790   12.9330 O   0  0  0  0  0
  -38.5640  -35.0800   11.5480 C   0  0  0  0  0
  -37.5500  -33.9070   11.7940 C   0  0  0  0  0
  -37.1640  -32.0290   15.1210 C   0  0  0  0  0
  -37.6300  -33.5190   13.2090 N   0  0  0  0  0
  -40.2610  -35.8270    9.8420 O   0  0  0  0  0
  -33.6455  -36.2691   18.6489 H   0  0  0  0  0
  -32.2888  -36.8701   19.4755 H   0  0  0  0  0
  -35.0955  -38.6728   20.2315 H   0  0  0  0  0
  -36.3634  -38.6458   22.3369 H   0  0  0  0  0
  -35.9813  -36.8370   23.9954 H   0  0  0  0  0
  -34.3381  -35.0492   23.4836 H   0  0  0  0  0
  -33.0664  -35.0978   21.3688 H   0  0  0  0  0
  -35.3907  -36.4924   18.1524 H   0  0  0  0  0
  -37.0680  -38.7393   17.3148 H   0  0  0  0  0
  -38.9271  -36.9849   17.0705 H   0  0  0  0  0
  -37.6485  -35.6928   17.3717 H   0  0  0  0  0
  -37.4177  -36.4942   19.6323 H   0  0  0  0  0
  -39.0655  -34.6957   19.1956 H   0  0  0  0  0
  -40.3292  -35.9148   18.8991 H   0  0  0  0  0
  -39.6227  -35.7419   20.5245 H   0  0  0  0  0
  -39.7650  -38.3156   18.9130 H   0  0  0  0  0
  -38.1024  -38.8516   19.2589 H   0  0  0  0  0
  -39.0866  -38.1146   20.5471 H   0  0  0  0  0
  -37.9566  -39.1666   15.2738 H   0  0  0  0  0
  -36.4999  -38.0026   13.0774 H   0  0  0  0  0
  -37.8486  -39.1175   11.4632 H   0  0  0  0  0
  -38.9580  -39.6835   12.8285 H   0  0  0  0  0
  -35.4498  -39.9621   11.4803 H   0  0  0  0  0
  -38.5601  -41.6715   13.8973 H   0  0  0  0  0
  -34.0901  -42.0150   11.7790 H   0  0  0  0  0
  -37.2014  -43.7190   14.1972 H   0  0  0  0  0
  -34.9711  -43.8990   13.1327 H   0  0  0  0  0
  -38.5387  -35.0237    9.2632 H   0  0  0  0  0
  -37.0289  -36.5341   11.7420 H   0  0  0  0  0
  -39.4859  -34.7789   12.0454 H   0  0  0  0  0
  -37.7989  -33.0574   11.1582 H   0  0  0  0  0
  -36.5377  -34.2300   11.5510 H   0  0  0  0  0
  -36.2015  -32.1978   15.6039 H   0  0  0  0  0
  -37.4454  -30.9811   15.2251 H   0  0  0  0  0
  -37.9217  -32.6581   15.5882 H   0  0  0  0  0
  -38.1229  -34.1134   13.8754 H   0  0  0  0  0
  1  2  2  0  0  0
  1  3  1  0  0  0
 11  1  1  0  0  0
  3  4  1  0  0  0
  4  5  1  0  0  0
  5  6  4  0  0  0
  5 10  4  0  0  0
  6  7  4  0  0  0
  7  8  4  0  0  0
  9  8  4  0  0  0
 10  9  4  0  0  0
 12 11  1  0  0  0
 13 12  1  0  0  0
 12 15  1  0  0  0
 13 14  2  0  0  0
 19 13  1  0  0  0
 15 16  1  0  0  0
 16 17  1  0  0  0
 16 18  1  0  0  0
 20 19  1  0  0  0
 21 20  1  0  0  0
 20 23  1  0  0  0
 21 22  2  0  0  0
 32 21  1  0  0  0
 23 24  1  0  0  0
 24 25  4  0  0  0
 24 26  4  0  0  0
 25 27  4  0  0  0
 26 28  4  0  0  0
 27 29  4  0  0  0
 28 29  4  0  0  0
 34 30  1  0  0  0
 30 38  2  0  0  0
 31 33  2  0  0  0
 31 36  1  0  0  0
 37 31  1  0  0  0
 34 32  1  0  0  0
 35 34  1  0  0  0
 35 37  1  0  0  0
  4 39  1  0  0  0
  4 40  1  0  0  0
  6 41  1  0  0  0
  7 42  1  0  0  0
  8 43  1  0  0  0
  9 44  1  0  0  0
 10 45  1  0  0  0
 11 46  1  0  0  0
 12 47  1  0  0  0
 15 48  1  0  0  0
 15 49  1  0  0  0
 16 50  1  0  0  0
 17 51  1  0  0  0
 17 52  1  0  0  0
 17 53  1  0  0  0
 18 54  1  0  0  0
 18 55  1  0  0  0
 18 56  1  0  0  0
 19 57  1  0  0  0
 20 58  1  0  0  0
 23 59  1  0  0  0
 23 60  1  0  0  0
 25 61  1  0  0  0
 26 62  1  0  0  0
 27 63  1  0  0  0
 28 64  1  0  0  0
 29 65  1  0  0  0
 30 66  1  0  0  0
 32 67  1  0  0  0
 34 68  1  0  0  0
 35 69  1  0  0  0
 35 70  1  0  0  0
 36 71  1  0  0  0
 36 72  1  0  0  0
 36 73  1  0  0  0
 37 74  1  0  0  0
M  END
$$$$
