2lk1_ligand
  -I-interpret- 

 28 30  0  0  0  0  0  0  0  0999 V2000
    2.0180    1.5930    7.9320 C   0  0  0  0  0
    0.9010    1.9120    8.7100 C   0  0  0  0  0
   -0.4410    2.1610    8.0590 C   0  0  0  0  0
   -0.5390    2.1550    6.8430 O   0  0  0  0  0
   -1.6610    2.4250    8.9130 C   0  0  0  0  0
   -2.9090    2.6280    8.3190 C   0  0  0  0  0
   -4.0380    2.8450    9.1140 C   0  0  0  0  0
   -3.9170    2.8680   10.5060 C   0  0  0  0  0
   -2.6690    2.6790   11.1000 C   0  0  0  0  0
   -1.5420    2.4630   10.3050 C   0  0  0  0  0
   -0.1890    2.2720   10.9510 C   0  0  0  0  0
   -0.0820    2.3300   12.1660 O   0  0  0  0  0
    1.0320    2.0110   10.0970 C   0  0  0  0  0
    2.2900    1.8650   10.6870 C   0  0  0  0  0
    3.4180    1.6450    9.8930 C   0  0  0  0  0
    3.2870    1.5180    8.5100 C   0  0  0  0  0
    4.7330    1.3150    7.4940 S   0  0  0  0  0
    5.7560    0.6260    8.2560 O   0  0  0  0  0
    4.3120    0.7800    6.2220 O   0  0  0  0  0
    5.1740    2.7350    7.2840 O   0  0  0  0  0
    1.8974    1.4013    6.8658 H   0  0  0  0  0
   -3.0026    2.6171    7.2331 H   0  0  0  0  0
   -5.0120    2.9962    8.6486 H   0  0  0  0  0
   -4.7972    3.0335   11.1272 H   0  0  0  0  0
   -2.5738    2.7000   12.1856 H   0  0  0  0  0
    2.3916    1.9230   11.7707 H   0  0  0  0  0
    4.4026    1.5724   10.3550 H   0  0  0  0  0
    4.5058    3.2052    6.7800 H   0  0  0  0  0
  1  2  4  0  0  0
  1 16  4  0  0  0
  2  3  1  0  0  0
  2 13  4  0  0  0
  3  4  2  0  0  0
  3  5  1  0  0  0
  5  6  4  0  0  0
  5 10  4  0  0  0
  6  7  4  0  0  0
  7  8  4  0  0  0
  8  9  4  0  0  0
  9 10  4  0  0  0
 10 11  1  0  0  0
 11 12  2  0  0  0
 11 13  1  0  0  0
 13 14  4  0  0  0
 14 15  4  0  0  0
 15 16  4  0  0  0
 16 17  1  0  0  0
 17 18  2  0  0  0
 17 19  2  0  0  0
 17 20  1  0  0  0
  1 21  1  0  0  0
  6 22  1  0  0  0
  7 23  1  0  0  0
  8 24  1  0  0  0
  9 25  1  0  0  0
 14 26  1  0  0  0
 15 27  1  0  0  0
 20 28  1  0  0  0
M  END
$$$$
