3ff6_ligand
  -I-interpret- 

 72 77  0  0  0  0  0  0  0  0999 V2000
    8.6880   17.8500   26.0430 C   0  0  0  0  0
    9.6030   16.6560   25.9210 C   0  0  0  0  0
   10.9300   17.0780   25.6430 O   0  0  0  0  0
   10.9610   17.7800   24.4120 C   0  0  0  0  0
   10.3320   19.1160   24.6870 C   0  0  0  0  0
    8.9630   18.9020   25.0730 N   0  0  0  0  0
    7.9700   19.4900   24.3190 C   0  0  0  0  0
    8.1080   19.9000   23.1750 O   0  0  0  0  0
    6.6600   19.5680   25.0550 C   0  0  0  0  0
    6.2320   21.0160   25.2290 C   0  0  0  0  0
    5.6750   18.6960   24.3070 C   0  0  0  0  0
    5.1800   19.3860   23.0750 C   0  0  0  0  0
    4.6210   20.7170   23.4750 C   0  0  0  0  0
    5.7120   21.5880   23.9750 N   0  3  0  0  0
    5.2900   23.0170   24.0850 C   0  0  0  0  0
    3.8030   23.1890   24.2910 C   0  0  0  0  0
    3.4850   24.6230   24.0010 C   0  0  0  0  0
    5.9780   23.7670   25.1970 C   0  0  0  0  0
    5.5960   25.2280   25.1160 C   0  0  0  0  0
    4.1680   25.4260   24.9670 N   0  0  0  0  0
    3.4330   26.3330   25.6870 C   0  0  0  0  0
    2.2230   26.4980   25.6360 O   0  0  0  0  0
    4.2020   27.1700   26.6010 C   0  0  0  0  0
    4.3240   26.7770   27.9240 C   0  0  0  0  0
    3.7490   25.6200   28.4140 C   0  0  0  0  0
    3.8960   25.2700   29.7330 C   0  0  0  0  0
    4.6220   26.0730   30.5750 C   0  0  0  0  0
    5.1990   27.2240   30.0950 C   0  0  0  0  0
    5.0500   27.5760   28.7730 C   0  0  0  0  0
    5.6290   28.7320   28.2980 C   0  0  0  0  0
    5.4940   29.1050   26.9760 C   0  0  0  0  0
    4.7750   28.3230   26.1030 C   0  0  0  0  0
    4.6480   28.7120   24.7830 C   0  0  0  0  0
    5.2310   29.8750   24.3330 C   0  0  0  0  0
    5.9490   30.6510   25.2080 C   0  0  0  0  0
    6.0800   30.2660   26.5240 C   0  0  0  0  0
    8.8383   18.2751   27.0354 H   0  0  0  0  0
    7.6712   17.5003   25.8643 H   0  0  0  0  0
    9.2534   16.0217   25.1064 H   0  0  0  0  0
    9.5948   16.1040   26.8609 H   0  0  0  0  0
   10.4213   17.2402   23.6339 H   0  0  0  0  0
   11.9810   17.8902   24.0439 H   0  0  0  0  0
   10.3748   19.7395   23.7939 H   0  0  0  0  0
   10.8702   19.6242   25.4871 H   0  0  0  0  0
    6.7325   19.1874   26.0738 H   0  0  0  0  0
    7.1028   21.5960   25.5346 H   0  0  0  0  0
    5.4390   21.0512   25.9760 H   0  0  0  0  0
    4.8257   18.4885   24.9579 H   0  0  0  0  0
    6.1754   17.7728   24.0148 H   0  0  0  0  0
    4.4081   18.7851   22.5941 H   0  0  0  0  0
    5.9980   19.5210   22.3674 H   0  0  0  0  0
    3.8815   20.5760   24.2633 H   0  0  0  0  0
    4.1518   21.1863   22.6103 H   0  0  0  0  0
    6.4762   21.6101   23.2998 H   0  0  0  0  0
    5.5852   23.4324   23.1215 H   0  0  0  0  0
    3.5222   22.9301   25.3119 H   0  0  0  0  0
    3.2427   22.5280   23.6298 H   0  0  0  0  0
    2.4098   24.7918   24.0607 H   0  0  0  0  0
    3.8080   24.8861   22.9937 H   0  0  0  0  0
    7.0584   23.6636   25.0963 H   0  0  0  0  0
    5.6704   23.3597   26.1601 H   0  0  0  0  0
    6.0858   25.6537   24.2402 H   0  0  0  0  0
    5.9048   25.7064   26.0454 H   0  0  0  0  0
    3.1731   24.9790   27.7465 H   0  0  0  0  0
    3.4369   24.3562   30.1103 H   0  0  0  0  0
    4.7411   25.7987   31.6232 H   0  0  0  0  0
    5.7773   27.8610   30.7643 H   0  0  0  0  0
    6.2031   29.3624   28.9771 H   0  0  0  0  0
    4.0798   28.0910   24.0904 H   0  0  0  0  0
    5.1233   30.1768   23.2912 H   0  0  0  0  0
    6.4160   31.5728   24.8613 H   0  0  0  0  0
    6.6527   30.8860   27.2137 H   0  0  0  0  0
  1  2  1  0  0  0
  1  6  1  0  0  0
  2  3  1  0  0  0
  3  4  1  0  0  0
  4  5  1  0  0  0
  5  6  1  0  0  0
  6  7  1  0  0  0
  7  8  2  0  0  0
  7  9  1  0  0  0
  9 10  1  0  0  0
  9 11  1  0  0  0
 10 14  1  0  0  0
 11 12  1  0  0  0
 12 13  1  0  0  0
 13 14  1  0  0  0
 14 15  1  0  0  0
 15 16  1  0  0  0
 15 18  1  0  0  0
 16 17  1  0  0  0
 17 20  1  0  0  0
 18 19  1  0  0  0
 19 20  1  0  0  0
 20 21  1  0  0  0
 21 22  2  0  0  0
 21 23  1  0  0  0
 23 24  4  0  0  0
 23 32  4  0  0  0
 24 25  4  0  0  0
 24 29  4  0  0  0
 25 26  4  0  0  0
 26 27  4  0  0  0
 27 28  4  0  0  0
 28 29  4  0  0  0
 29 30  4  0  0  0
 30 31  4  0  0  0
 31 32  4  0  0  0
 31 36  4  0  0  0
 32 33  4  0  0  0
 33 34  4  0  0  0
 34 35  4  0  0  0
 35 36  4  0  0  0
  1 37  1  0  0  0
  1 38  1  0  0  0
  2 39  1  0  0  0
  2 40  1  0  0  0
  4 41  1  0  0  0
  4 42  1  0  0  0
  5 43  1  0  0  0
  5 44  1  0  0  0
  9 45  1  0  0  0
 10 46  1  0  0  0
 10 47  1  0  0  0
 11 48  1  0  0  0
 11 49  1  0  0  0
 12 50  1  0  0  0
 12 51  1  0  0  0
 13 52  1  0  0  0
 13 53  1  0  0  0
 14 54  1  0  0  0
 15 55  1  0  0  0
 16 56  1  0  0  0
 16 57  1  0  0  0
 17 58  1  0  0  0
 17 59  1  0  0  0
 18 60  1  0  0  0
 18 61  1  0  0  0
 19 62  1  0  0  0
 19 63  1  0  0  0
 25 64  1  0  0  0
 26 65  1  0  0  0
 27 66  1  0  0  0
 28 67  1  0  0  0
 30 68  1  0  0  0
 33 69  1  0  0  0
 34 70  1  0  0  0
 35 71  1  0  0  0
 36 72  1  0  0  0
M  END
$$$$
