2cm7_ligand
  -I-interpret- 

 60 62  0  0  0  0  0  0  0  0999 V2000
   16.7560   -1.4220   -0.4900 C   0  0  0  0  0
   17.4780   -1.9420    0.7130 C   0  0  0  0  0
   16.9200   -1.2760    1.9380 C   0  0  0  0  0
   15.7130   -0.7120    1.7690 N   0  0  0  0  0
   15.0880   -1.1180    0.1110 S   0  0  0  0  0
   14.3300    0.1280   -0.6880 O   0  0  0  0  0
   14.2690   -2.5450    0.0980 O   0  0  0  0  0
   17.4860   -1.2290    3.0250 O   0  0  0  0  0
   16.7540   -2.2920   -1.7380 C   0  0  0  0  0
   16.8020   -3.7550   -1.6280 C   0  0  0  0  0
   16.7910   -4.5710   -2.8470 C   0  0  0  0  0
   16.7210   -3.9070   -4.1690 C   0  0  0  0  0
   16.7080   -2.4540   -4.2630 C   0  0  0  0  0
   16.7190   -1.6480   -3.0550 C   0  0  0  0  0
   16.7000   -4.7240   -5.4230 C   0  0  0  0  0
   17.9020   -4.4400   -6.3270 C   0  0  0  0  0
   19.1440   -5.0350   -5.7140 C   0  0  0  0  0
   19.8780   -4.3810   -4.9910 O   0  0  0  0  0
   19.3790   -6.3290   -5.9240 N   0  0  0  0  0
   17.6330   -5.0260   -7.6450 N   0  0  0  0  0
   18.4700   -4.6570   -8.6110 C   0  0  0  0  0
   18.2690   -5.2610   -9.9800 C   0  0  0  0  0
   19.3690   -3.8640   -8.3870 O   0  0  0  0  0
   18.3060   -4.2250  -11.0260 N   0  0  0  0  0
   19.3730   -6.2750  -10.2500 C   0  0  0  0  0
   19.0120   -7.2610  -11.3200 C   0  0  0  0  0
   18.3320   -8.5130  -10.9580 C   0  0  0  0  0
   17.9810   -9.4780  -11.9960 C   0  0  0  0  0
   18.3050   -9.1930  -13.4040 C   0  0  0  0  0
   18.9900   -7.9430  -13.7700 C   0  0  0  0  0
   19.3470   -6.9780  -12.7290 C   0  0  0  0  0
   17.1950   -3.8710  -11.6780 C   0  0  0  0  0
   16.1030   -4.3900  -11.3950 O   0  0  0  0  0
   17.2840   -2.8710  -12.8180 C   0  0  0  0  0
   17.2794   -0.5415   -0.8628 H   0  0  0  0  0
   18.5427   -1.7249    0.6272 H   0  0  0  0  0
   17.3442   -3.0213    0.7861 H   0  0  0  0  0
   15.2240   -0.1451    2.4618 H   0  0  0  0  0
   16.8455   -4.2312   -0.6485 H   0  0  0  0  0
   16.8340   -5.6581   -2.7803 H   0  0  0  0  0
   16.6900   -1.9712   -5.2401 H   0  0  0  0  0
   16.7012   -0.5606   -3.1275 H   0  0  0  0  0
   15.7957   -4.4691   -5.9756 H   0  0  0  0  0
   16.7330   -5.7761   -5.1398 H   0  0  0  0  0
   18.0605   -3.3671   -6.4354 H   0  0  0  0  0
   20.1777   -6.7811   -5.4790 H   0  0  0  0  0
   18.7602   -6.8680   -6.5299 H   0  0  0  0  0
   16.8594   -5.6703   -7.8089 H   0  0  0  0  0
   17.2926   -5.7451  -10.0013 H   0  0  0  0  0
   19.1907   -3.7722  -11.2555 H   0  0  0  0  0
   19.5455   -6.8320   -9.3290 H   0  0  0  0  0
   20.2531   -5.7268  -10.5862 H   0  0  0  0  0
   18.0901   -8.7207   -9.9157 H   0  0  0  0  0
   17.4797  -10.4083  -11.7290 H   0  0  0  0  0
   18.0362   -9.9112  -14.1786 H   0  0  0  0  0
   19.2307   -7.7365  -14.8128 H   0  0  0  0  0
   19.8589   -6.0528  -12.9938 H   0  0  0  0  0
   16.9693   -3.3500  -13.7452 H   0  0  0  0  0
   16.6333   -2.0224  -12.6069 H   0  0  0  0  0
   18.3131   -2.5256  -12.9171 H   0  0  0  0  0
  1  2  1  0  0  0
  1  5  1  0  0  0
  1  9  1  0  0  0
  2  3  1  0  0  0
  3  4  1  0  0  0
  3  8  2  0  0  0
  4  5  1  0  0  0
  5  6  2  0  0  0
  5  7  2  0  0  0
  9 10  4  0  0  0
  9 14  4  0  0  0
 10 11  4  0  0  0
 11 12  4  0  0  0
 12 13  4  0  0  0
 12 15  1  0  0  0
 13 14  4  0  0  0
 15 16  1  0  0  0
 16 17  1  0  0  0
 16 20  1  0  0  0
 17 18  2  0  0  0
 17 19  1  0  0  0
 20 21  1  0  0  0
 21 22  1  0  0  0
 21 23  2  0  0  0
 22 24  1  0  0  0
 22 25  1  0  0  0
 24 32  1  0  0  0
 25 26  1  0  0  0
 26 27  4  0  0  0
 26 31  4  0  0  0
 27 28  4  0  0  0
 28 29  4  0  0  0
 29 30  4  0  0  0
 30 31  4  0  0  0
 32 33  2  0  0  0
 32 34  1  0  0  0
  1 35  1  0  0  0
  2 36  1  0  0  0
  2 37  1  0  0  0
  4 38  1  0  0  0
 10 39  1  0  0  0
 11 40  1  0  0  0
 13 41  1  0  0  0
 14 42  1  0  0  0
 15 43  1  0  0  0
 15 44  1  0  0  0
 16 45  1  0  0  0
 19 46  1  0  0  0
 19 47  1  0  0  0
 20 48  1  0  0  0
 22 49  1  0  0  0
 24 50  1  0  0  0
 25 51  1  0  0  0
 25 52  1  0  0  0
 27 53  1  0  0  0
 28 54  1  0  0  0
 29 55  1  0  0  0
 30 56  1  0  0  0
 31 57  1  0  0  0
 34 58  1  0  0  0
 34 59  1  0  0  0
 34 60  1  0  0  0
M  END
$$$$
