3uik_ligand
  -I-interpret- 

 73 72  0  0  0  0  0  0  0  0999 V2000
   35.6740  -14.2190    0.8460 N   0  3  0  0  0
   34.7670  -13.2020    0.3200 C   0  0  0  0  0
   35.5110  -12.1740   -0.5160 C   0  0  0  0  0
   36.7030  -11.9480   -0.3020 O   0  0  0  0  0
   34.0440  -12.5210    1.4480 C   0  0  0  0  0
   34.7970  -11.5400   -1.4490 N   0  0  0  0  0
   35.3870  -10.5590   -2.3660 C   0  0  0  0  0
   34.4990   -9.3200   -2.4960 C   0  0  0  0  0
   33.2860   -9.4090   -2.3380 O   0  0  0  0  0
   35.5890  -11.1820   -3.7580 C   0  0  0  0  0
   34.3310  -11.1810   -4.6340 C   0  0  0  0  0
   34.4650  -12.0440   -5.8810 C   0  0  0  0  0
   33.8970  -13.3780   -5.6870 N   0  0  0  0  0
   32.6520  -13.7160   -6.0080 C   0  0  0  0  0
   32.2230  -14.9560   -5.7960 N   0  0  0  0  0
   31.8390  -12.8110   -6.5430 N   0  0  0  0  0
   35.0950   -8.1720   -2.8130 N   0  0  0  0  0
   34.3220   -6.9650   -3.1110 C   0  0  0  0  0
   33.3500   -7.2490   -4.2530 C   0  0  0  0  0
   33.6260   -8.0850   -5.1000 O   0  0  0  0  0
   35.2360   -5.8240   -3.5850 C   0  0  0  0  0
   35.0870   -5.6600   -5.0010 O   0  0  0  0  0
   36.6860   -6.1220   -3.2660 C   0  0  0  0  0
   32.2140   -6.5610   -4.2750 N   0  0  0  0  0
   31.2110   -6.7770   -5.3170 C   0  0  0  0  0
   31.8330   -6.7990   -6.6920 C   0  0  0  0  0
   31.1300   -6.7010   -7.6910 O   0  0  0  0  0
   30.1350   -5.6990   -5.2590 C   0  0  0  0  0
   28.9090   -5.9430   -6.1420 C   0  0  0  0  0
   27.8730   -4.8510   -5.8750 C   0  0  0  0  0
   26.6020   -5.0270   -6.6890 C   0  0  0  0  0
   25.5560   -4.0180   -6.3330 N   0  3  0  0  0
   33.0460   -6.9150   -6.8210 O   0  0  0  0  0
   36.1585  -14.6738    0.0721 H   0  0  0  0  0
   36.3558  -13.7782    1.4635 H   0  0  0  0  0
   35.1389  -14.9127    1.3684 H   0  0  0  0  0
   34.0430  -13.7004   -0.3246 H   0  0  0  0  0
   34.7649  -11.9996    2.0777 H   0  0  0  0  0
   33.3305  -11.8047    1.0406 H   0  0  0  0  0
   33.5141  -13.2665    2.0409 H   0  0  0  0  0
   33.8011  -11.7461   -1.5273 H   0  0  0  0  0
   36.3506  -10.2603   -1.9533 H   0  0  0  0  0
   35.8752  -12.2228   -3.6066 H   0  0  0  0  0
   36.3404  -10.5833   -4.2728 H   0  0  0  0  0
   34.1574  -10.1555   -4.9601 H   0  0  0  0  0
   33.5141  -11.5879   -4.0379 H   0  0  0  0  0
   35.5256  -12.1544   -6.1070 H   0  0  0  0  0
   33.9236  -11.5574   -6.6923 H   0  0  0  0  0
   34.4955  -14.0960   -5.2786 H   0  0  0  0  0
   31.2680  -15.2147   -6.0440 H   0  0  0  0  0
   32.8487  -15.6489   -5.3853 H   0  0  0  0  0
   32.1709  -11.8604   -6.7062 H   0  0  0  0  0
   36.1136   -8.1328   -2.8490 H   0  0  0  0  0
   33.8016   -6.6778   -2.1973 H   0  0  0  0  0
   34.9491   -4.9098   -3.0653 H   0  0  0  0  0
   35.6565   -4.9479   -5.3012 H   0  0  0  0  0
   36.8029   -6.2397   -2.1887 H   0  0  0  0  0
   36.9855   -7.0420   -3.7680 H   0  0  0  0  0
   37.3097   -5.2980   -3.6125 H   0  0  0  0  0
   32.0373   -5.8666   -3.5490 H   0  0  0  0  0
   30.7569   -7.7503   -5.1312 H   0  0  0  0  0
   30.2107   -6.6179   -7.4271 H   0  0  0  0  0
   30.5975   -4.7794   -5.6176 H   0  0  0  0  0
   29.7762   -5.6739   -4.2301 H   0  0  0  0  0
   28.4804   -6.9184   -5.9119 H   0  0  0  0  0
   29.2031   -5.9199   -7.1913 H   0  0  0  0  0
   28.3173   -3.8959   -6.1552 H   0  0  0  0  0
   27.6017   -4.9012   -4.8205 H   0  0  0  0  0
   26.2007   -6.0186   -6.4797 H   0  0  0  0  0
   26.8535   -4.8967   -7.7415 H   0  0  0  0  0
   24.7251   -4.1758   -6.9032 H   0  0  0  0  0
   25.3157   -4.1128   -5.3462 H   0  0  0  0  0
   25.9166   -3.0800   -6.5078 H   0  0  0  0  0
  1  2  1  0  0  0
  2  3  1  0  0  0
  2  5  1  0  0  0
  3  4  2  0  0  0
  3  6  1  0  0  0
  6  7  1  0  0  0
  7  8  1  0  0  0
  7 10  1  0  0  0
  8  9  2  0  0  0
  8 17  1  0  0  0
 10 11  1  0  0  0
 11 12  1  0  0  0
 12 13  1  0  0  0
 13 14  1  0  0  0
 14 15  1  0  0  0
 14 16  2  0  0  0
 17 18  1  0  0  0
 18 19  1  0  0  0
 18 21  1  0  0  0
 19 20  2  0  0  0
 19 24  1  0  0  0
 21 22  1  0  0  0
 21 23  1  0  0  0
 24 25  1  0  0  0
 25 26  1  0  0  0
 25 28  1  0  0  0
 26 27  1  0  0  0
 26 33  2  0  0  0
 28 29  1  0  0  0
 29 30  1  0  0  0
 30 31  1  0  0  0
 31 32  1  0  0  0
  1 34  1  0  0  0
  1 35  1  0  0  0
  1 36  1  0  0  0
  2 37  1  0  0  0
  5 38  1  0  0  0
  5 39  1  0  0  0
  5 40  1  0  0  0
  6 41  1  0  0  0
  7 42  1  0  0  0
 10 43  1  0  0  0
 10 44  1  0  0  0
 11 45  1  0  0  0
 11 46  1  0  0  0
 12 47  1  0  0  0
 12 48  1  0  0  0
 13 49  1  0  0  0
 15 50  1  0  0  0
 15 51  1  0  0  0
 16 52  1  0  0  0
 17 53  1  0  0  0
 18 54  1  0  0  0
 21 55  1  0  0  0
 22 56  1  0  0  0
 23 57  1  0  0  0
 23 58  1  0  0  0
 23 59  1  0  0  0
 24 60  1  0  0  0
 25 61  1  0  0  0
 27 62  1  0  0  0
 28 63  1  0  0  0
 28 64  1  0  0  0
 29 65  1  0  0  0
 29 66  1  0  0  0
 30 67  1  0  0  0
 30 68  1  0  0  0
 31 69  1  0  0  0
 31 70  1  0  0  0
 32 71  1  0  0  0
 32 72  1  0  0  0
 32 73  1  0  0  0
M  END
$$$$
