3jzb_ligand
  -I-interpret- 

 42 43  0  0  0  0  0  0  0  0999 V2000
   25.2850   37.4200   34.4250 C   0  0  0  0  0
   27.8220   39.0230   30.3480 C   0  0  0  0  0
   25.8560   38.8320   34.4270 C   0  0  0  0  0
   28.1110   40.1440   29.3190 C   0  0  0  0  0
   26.6850   39.2400   33.2280 C   0  0  0  0  0
   29.4720   40.1500   28.7260 C   0  0  0  0  0
   26.9030   38.2820   32.0950 C   0  0  0  0  0
   30.5140   39.1780   29.0610 C   0  0  0  0  0
   26.3640   36.8310   32.1160 C   0  0  0  0  0
   30.1980   38.0660   30.1120 C   0  0  0  0  0
   25.5310   36.3950   33.3040 C   0  0  0  0  0
   28.8290   37.9970   30.7480 C   0  0  0  0  0
   25.0340   36.8900   35.8050 C   0  0  0  0  0
   23.6530   36.9530   36.2710 C   0  0  0  0  0
   26.8940   41.3110   32.9000 I   0  0  0  0  0
   30.0480   41.5810   27.3320 I   0  0  0  0  0
   25.9820   35.8530   30.3270 I   0  0  0  0  0
   22.9020   36.6920   35.3870 O   0  0  0  0  0
   26.5940   38.8780   30.9100 O   0  0  0  0  0
   31.7790   39.2920   28.4610 O   0  0  0  0  0
   23.5720   36.3750   37.5600 O   0  0  0  0  0
   24.3433   37.6572   33.9299 H   0  0  0  0  0
   28.3739   39.9354   30.1221 H   0  0  0  0  0
   26.5283   38.8798   35.2837 H   0  0  0  0  0
   24.9954   39.5009   34.4352 H   0  0  0  0  0
   27.3594   40.8848   29.0463 H   0  0  0  0  0
   27.6740   38.9970   33.6165 H   0  0  0  0  0
   27.9632   38.0773   32.2436 H   0  0  0  0  0
   30.8856   38.2614   28.6029 H   0  0  0  0  0
   27.3313   36.3845   32.3463 H   0  0  0  0  0
   30.8742   38.2738   30.9412 H   0  0  0  0  0
   30.2888   37.1321   29.5572 H   0  0  0  0  0
   24.5454   36.1658   32.8989 H   0  0  0  0  0
   26.0916   35.5845   33.7697 H   0  0  0  0  0
   28.4104   37.0411   30.4332 H   0  0  0  0  0
   28.9957   38.1537   31.8137 H   0  0  0  0  0
   25.6155   37.5140   36.4837 H   0  0  0  0  0
   25.3019   35.8337   35.7813 H   0  0  0  0  0
   23.2707   37.9486   36.4964 H   0  0  0  0  0
   21.9996   36.7383   35.7111 H   0  0  0  0  0
   31.7757   40.0307   27.8479 H   0  0  0  0  0
   22.6645   36.4144   37.8707 H   0  0  0  0  0
  3  1  1  0  0  0
  1 11  1  0  0  0
  1 13  1  0  0  0
  2  4  1  0  0  0
  2 12  1  0  0  0
 19  2  1  0  0  0
  5  3  1  0  0  0
  4  6  2  0  0  0
  7  5  1  0  0  0
  5 15  1  0  0  0
  6  8  1  0  0  0
  6 16  1  0  0  0
  7  9  1  0  0  0
  7 19  1  0  0  0
  8 10  1  0  0  0
  8 20  1  0  0  0
  9 11  1  0  0  0
  9 17  1  0  0  0
 10 12  1  0  0  0
 13 14  1  0  0  0
 14 18  1  0  0  0
 14 21  1  0  0  0
  1 22  1  0  0  0
  2 23  1  0  0  0
  3 24  1  0  0  0
  3 25  1  0  0  0
  4 26  1  0  0  0
  5 27  1  0  0  0
  7 28  1  0  0  0
  8 29  1  0  0  0
  9 30  1  0  0  0
 10 31  1  0  0  0
 10 32  1  0  0  0
 11 33  1  0  0  0
 11 34  1  0  0  0
 12 35  1  0  0  0
 12 36  1  0  0  0
 13 37  1  0  0  0
 13 38  1  0  0  0
 14 39  1  0  0  0
 18 40  1  0  0  0
 20 41  1  0  0  0
 21 42  1  0  0  0
M  END
$$$$
