3zhx_ligand
  -I-interpret- 

 41 42  0  0  0  0  0  0  0  0999 V2000
   22.2210   22.0200  -18.5350 C   0  0  0  0  0
   21.8680   22.7690  -19.6570 C   0  0  0  0  0
   23.0870   23.7950  -20.3410 Cl  0  0  0  0  0
   20.5620   22.6690  -20.1810 C   0  0  0  0  0
   20.0370   23.5660  -21.5660 Cl  0  0  0  0  0
   19.6240   21.8240  -19.5870 C   0  0  0  0  0
   19.9820   21.0820  -18.4660 C   0  0  0  0  0
   21.2790   21.1720  -17.9540 C   0  0  0  0  0
   21.6120   20.3670  -16.6960 C   0  0  0  0  0
   22.7770   18.9890  -17.0080 P   0  0  0  0  0
   23.0020   18.2500  -15.7050 O   0  0  0  0  0
   22.1500   18.0650  -18.0260 O   0  0  0  0  0
   24.1030   19.4950  -17.5150 O   0  0  0  0  0
   22.0840   21.3550  -15.6120 C   0  0  0  0  0
   20.9850   22.4240  -15.3110 C   0  0  0  0  0
   19.7230   21.7080  -15.0130 N   0  0  0  0  0
   19.8690   20.6270  -14.2200 O   0  0  0  0  0
   18.4790   21.9940  -15.4530 C   0  0  0  0  0
   17.5050   21.3130  -15.1470 O   0  0  0  0  0
   18.2190   23.2310  -16.3270 C   0  0  0  0  0
   18.6720   24.4930  -15.9150 C   0  0  0  0  0
   18.4120   25.6210  -16.6970 C   0  0  0  0  0
   17.6650   25.4880  -17.8710 C   0  0  0  0  0
   17.1910   24.2370  -18.2680 C   0  0  0  0  0
   17.4540   23.1090  -17.4900 C   0  0  0  0  0
   23.2243   22.0968  -18.1160 H   0  0  0  0  0
   18.6177   21.7458  -19.9984 H   0  0  0  0  0
   19.2509   20.4306  -17.9872 H   0  0  0  0  0
   20.7179   19.8554  -16.3396 H   0  0  0  0  0
   22.1619   17.9238  -15.3743 H   0  0  0  0  0
   21.3068   17.7490  -17.6931 H   0  0  0  0  0
   22.9787   21.8647  -15.9694 H   0  0  0  0  0
   22.2899   20.7985  -14.6977 H   0  0  0  0  0
   20.8523   23.0813  -16.1703 H   0  0  0  0  0
   21.2797   23.0394  -14.4610 H   0  0  0  0  0
   19.0117   20.2203  -14.0742 H   0  0  0  0  0
   19.2280   24.5937  -14.9829 H   0  0  0  0  0
   18.7889   26.5978  -16.3939 H   0  0  0  0  0
   17.4515   26.3665  -18.4799 H   0  0  0  0  0
   16.6141   24.1408  -19.1878 H   0  0  0  0  0
   17.0640   22.1359  -17.7884 H   0  0  0  0  0
  1  2  4  0  0  0
  1  8  4  0  0  0
  2  3  1  0  0  0
  2  4  4  0  0  0
  4  5  1  0  0  0
  4  6  4  0  0  0
  6  7  4  0  0  0
  7  8  4  0  0  0
  8  9  1  0  0  0
  9 10  1  0  0  0
  9 14  1  0  0  0
 10 11  1  0  0  0
 10 12  1  0  0  0
 10 13  2  0  0  0
 14 15  1  0  0  0
 15 16  1  0  0  0
 16 17  1  0  0  0
 16 18  1  0  0  0
 18 19  2  0  0  0
 18 20  1  0  0  0
 20 21  4  0  0  0
 20 25  4  0  0  0
 21 22  4  0  0  0
 22 23  4  0  0  0
 23 24  4  0  0  0
 24 25  4  0  0  0
  1 26  1  0  0  0
  6 27  1  0  0  0
  7 28  1  0  0  0
  9 29  1  0  0  0
 11 30  1  0  0  0
 12 31  1  0  0  0
 14 32  1  0  0  0
 14 33  1  0  0  0
 15 34  1  0  0  0
 15 35  1  0  0  0
 17 36  1  0  0  0
 21 37  1  0  0  0
 22 38  1  0  0  0
 23 39  1  0  0  0
 24 40  1  0  0  0
 25 41  1  0  0  0
M  END
$$$$
