3lhs_ligand
  -I-interpret- 

 57 56  0  0  0  0  0  0  0  0999 V2000
   10.1020   -6.6050    9.2670 C   0  0  0  0  0
    9.0240   -7.5650    8.7450 C   0  0  0  0  0
    7.5970   -7.5890    9.3460 C   0  0  0  0  0
    6.8800   -8.8100    8.8060 C   0  0  0  0  0
    5.6360   -9.1030    9.6170 C   0  0  0  0  0
    5.6140  -10.2720   10.2820 N   0  0  0  0  0
    4.5960  -10.7380   11.2230 C   0  0  0  0  0
    5.2440  -11.0330   12.5760 C   0  0  0  0  0
    6.1080   -9.8380   12.9490 C   0  0  0  0  0
    6.3540   -9.6740   14.4280 C   0  0  0  0  0
    7.0970   -8.4350   14.6420 N   0  0  0  0  0
    6.9960   -7.6530   15.7360 C   0  0  0  0  0
    7.8670   -6.3700   15.7900 C   0  0  0  0  0
    8.0370   -5.6920   14.4230 C   0  0  0  0  0
    8.8510   -4.4220   14.6310 C   0  0  0  0  0
    9.3130   -3.6580   13.3680 C   0  0  0  0  0
   11.1970   -6.6850    8.6870 O   0  0  0  0  0
    9.8660   -5.8450   10.2600 O   0  0  0  0  0
    7.6550   -7.6600   10.7980 O   0  0  0  0  0
    6.9690   -6.2410    8.9690 C   0  0  0  0  0
    6.4520   -6.1150    7.8420 O   0  0  0  0  0
    7.0090   -5.2510    9.7720 O   0  0  0  0  0
    4.7260   -8.2960    9.6300 O   0  0  0  0  0
    3.8920  -11.9790   10.7390 C   0  0  0  0  0
    2.8620  -12.3740   11.3360 O   0  0  0  0  0
    4.3570  -12.5880    9.7500 O   0  0  0  0  0
    6.2490   -7.9580   16.6520 O   0  0  0  0  0
    6.7000   -5.3100   13.8430 C   0  0  0  0  0
    8.7080   -6.5030   13.4740 O   0  0  0  0  0
    6.4980   -5.3810   12.6130 O   0  0  0  0  0
    5.8100   -5.0090   14.6240 O   0  0  0  0  0
    8.9490   -3.8700   12.2320 O   0  0  0  0  0
   10.0290   -2.6920   13.5090 O   0  0  0  0  0
    9.4208   -8.5526    8.9804 H   0  0  0  0  0
    8.8662   -7.2422    7.7159 H   0  0  0  0  0
    7.5501   -9.6675    8.8669 H   0  0  0  0  0
    6.5900   -8.6197    7.7727 H   0  0  0  0  0
    6.3954  -10.9048   10.1107 H   0  0  0  0  0
    3.8541   -9.9446   11.3136 H   0  0  0  0  0
    5.8525  -11.9353   12.5151 H   0  0  0  0  0
    4.4783  -11.1974   13.3342 H   0  0  0  0  0
    5.5770   -8.9465   12.6153 H   0  0  0  0  0
    7.0804   -9.9917   12.4811 H   0  0  0  0  0
    6.9277  -10.5207   14.8050 H   0  0  0  0  0
    5.4036   -9.6335   14.9601 H   0  0  0  0  0
    7.7410   -8.1388   13.9086 H   0  0  0  0  0
    8.8581   -6.6596   16.1391 H   0  0  0  0  0
    7.3670   -5.6604   16.4493 H   0  0  0  0  0
    9.7647   -4.7373   15.1348 H   0  0  0  0  0
    8.1944   -3.7360   15.1661 H   0  0  0  0  0
    8.9533   -5.9555   10.5363 H   0  0  0  0  0
    8.0453   -8.4967   11.0610 H   0  0  0  0  0
    7.4373   -5.5195   10.5881 H   0  0  0  0  0
    2.6663  -11.7780   12.0627 H   0  0  0  0  0
    8.7833   -6.0266   12.6439 H   0  0  0  0  0
    7.3125   -5.6296   12.1699 H   0  0  0  0  0
    8.3894   -4.6499   12.2168 H   0  0  0  0  0
  1  2  1  0  0  0
  1 17  2  0  0  0
  1 18  1  0  0  0
  2  3  1  0  0  0
  3  4  1  0  0  0
  3 19  1  0  0  0
  3 20  1  0  0  0
  4  5  1  0  0  0
  5  6  1  0  0  0
  5 23  2  0  0  0
  6  7  1  0  0  0
  7  8  1  0  0  0
  7 24  1  0  0  0
  8  9  1  0  0  0
  9 10  1  0  0  0
 10 11  1  0  0  0
 11 12  1  0  0  0
 12 13  1  0  0  0
 12 27  2  0  0  0
 13 14  1  0  0  0
 14 15  1  0  0  0
 14 28  1  0  0  0
 14 29  1  0  0  0
 15 16  1  0  0  0
 16 32  1  0  0  0
 16 33  2  0  0  0
 20 21  2  0  0  0
 20 22  1  0  0  0
 24 25  1  0  0  0
 24 26  2  0  0  0
 28 30  1  0  0  0
 28 31  2  0  0  0
  2 34  1  0  0  0
  2 35  1  0  0  0
  4 36  1  0  0  0
  4 37  1  0  0  0
  6 38  1  0  0  0
  7 39  1  0  0  0
  8 40  1  0  0  0
  8 41  1  0  0  0
  9 42  1  0  0  0
  9 43  1  0  0  0
 10 44  1  0  0  0
 10 45  1  0  0  0
 11 46  1  0  0  0
 13 47  1  0  0  0
 13 48  1  0  0  0
 15 49  1  0  0  0
 15 50  1  0  0  0
 18 51  1  0  0  0
 19 52  1  0  0  0
 22 53  1  0  0  0
 25 54  1  0  0  0
 29 55  1  0  0  0
 30 56  1  0  0  0
 32 57  1  0  0  0
M  END
$$$$
