5tri_ligand
  -I-interpret- 

 44 47  0  0  0  0  0  0  0  0999 V2000
   23.9510    7.8320   14.8110 C   0  0  0  0  0
   22.7090   10.8130   12.8610 C   0  0  0  0  0
   23.4570   10.6990   11.7140 C   0  0  0  0  0
   24.4510    9.7480   11.6010 C   0  0  0  0  0
   24.6800    8.8850   12.6590 C   0  0  0  0  0
   22.9500    9.9460   13.9090 C   0  0  0  0  0
   22.7220    5.6110   11.5320 C   0  0  0  0  0
   21.6800    5.5750   10.4540 C   0  0  0  0  0
   20.5200    4.9910   10.9370 C   0  0  0  0  0
   20.7400    4.5680   12.3370 C   0  0  0  0  0
   19.4910    5.2300    8.7870 C   0  0  0  0  0
   23.1090   11.7380   10.3630 Cl  0  0  0  0  0
   23.5620    2.7780   15.3150 C   0  0  0  0  0
   22.9120    3.1600   14.1400 C   0  0  0  0  0
   22.7900    4.5200   13.8140 C   0  0  0  0  0
   23.3520    5.4790   14.6670 C   0  0  0  0  0
   24.0150    5.0850   15.8290 C   0  0  0  0  0
   24.1160    3.7390   16.1450 C   0  0  0  0  0
   22.4110    2.0990   13.2120 C   0  0  0  0  0
   21.5030    1.3080   13.7130 O   0  0  0  0  0
   22.8060    2.0300   12.0490 O   0  0  0  0  0
   22.0590    4.9100   12.6370 N   0  0  0  0  0
   23.1330    6.7790   14.2840 O   0  0  0  0  0
   23.9090    8.9470   13.8100 C   0  0  0  0  0
   19.9750    4.0270   13.1030 O   0  0  0  0  0
   21.7360    6.0080    9.1370 C   0  0  0  0  0
   20.6400    5.8300    8.3070 C   0  0  0  0  0
   19.4130    4.8270   10.1070 C   0  0  0  0  0
   24.9734    7.4890   14.9697 H   0  0  0  0  0
   23.5810    8.1647   15.7808 H   0  0  0  0  0
   21.9360   11.5771   12.9428 H   0  0  0  0  0
   25.0474    9.6775   10.6914 H   0  0  0  0  0
   25.4779    8.1460   12.5863 H   0  0  0  0  0
   22.3768   10.0480   14.8305 H   0  0  0  0  0
   23.0323    6.6228   11.7928 H   0  0  0  0  0
   23.6617    5.1462   11.2337 H   0  0  0  0  0
   18.6421    5.0738    8.1213 H   0  0  0  0  0
   23.6337    1.7230   15.5795 H   0  0  0  0  0
   24.4533    5.8345   16.4880 H   0  0  0  0  0
   24.6354    3.4344   17.0536 H   0  0  0  0  0
   21.3502    1.5397   14.6320 H   0  0  0  0  0
   22.6384    6.4864    8.7564 H   0  0  0  0  0
   20.6845    6.1649    7.2707 H   0  0  0  0  0
   18.4949    4.3855   10.4945 H   0  0  0  0  0
 23  1  1  0  0  0
  1 24  1  0  0  0
  2  3  4  0  0  0
  6  2  4  0  0  0
  4  3  4  0  0  0
  3 12  1  0  0  0
  5  4  4  0  0  0
 24  5  4  0  0  0
 24  6  4  0  0  0
  7  8  1  0  0  0
 22  7  1  0  0  0
  9  8  4  0  0  0
  8 26  4  0  0  0
 10  9  1  0  0  0
  9 28  4  0  0  0
 22 10  1  0  0  0
 10 25  2  0  0  0
 11 27  4  0  0  0
 28 11  4  0  0  0
 14 13  4  0  0  0
 13 18  4  0  0  0
 15 14  4  0  0  0
 14 19  1  0  0  0
 16 15  4  0  0  0
 15 22  1  0  0  0
 16 17  4  0  0  0
 16 23  1  0  0  0
 17 18  4  0  0  0
 19 20  1  0  0  0
 19 21  2  0  0  0
 26 27  4  0  0  0
  1 29  1  0  0  0
  1 30  1  0  0  0
  2 31  1  0  0  0
  4 32  1  0  0  0
  5 33  1  0  0  0
  6 34  1  0  0  0
  7 35  1  0  0  0
  7 36  1  0  0  0
 11 37  1  0  0  0
 13 38  1  0  0  0
 17 39  1  0  0  0
 18 40  1  0  0  0
 20 41  1  0  0  0
 26 42  1  0  0  0
 27 43  1  0  0  0
 28 44  1  0  0  0
M  END
$$$$
