4u5t_ligand
  -I-interpret- 

 24 24  0  0  0  0  0  0  0  0999 V2000
  -24.7550   35.2210    2.9450 C   0  0  0  0  0
  -24.6670   34.1950    2.0480 C   0  0  0  0  0
  -23.4540   33.9540    1.4250 C   0  0  0  0  0
  -22.3580   34.7600    1.7160 C   0  0  0  0  0
  -23.6850   36.0260    3.2250 C   0  0  0  0  0
  -27.1290   33.9640    1.4930 C   0  0  0  0  0
  -25.9040   33.4000    1.7940 C   0  0  0  0  0
  -22.4580   35.8050    2.6230 C   0  0  0  0  0
  -25.5840   38.7000    3.8920 O   0  0  0  0  0
  -24.6730   36.7420    6.3010 O   0  0  0  0  0
  -22.5560   38.8140    4.7510 O   0  0  0  0  0
  -27.6100   35.2670    2.0700 C   0  0  0  0  0
  -28.0090   35.3240    3.2700 O   0  0  0  0  0
  -27.5890   36.3170    1.3650 O   0  0  0  0  0
  -24.0990   37.5780    4.6050 Sb  0  0  0  0  0
  -25.7029   35.4033    3.4512 H   0  0  0  0  0
  -23.3584   33.1368    0.7101 H   0  0  0  0  0
  -21.4050   34.5673    1.2233 H   0  0  0  0  0
  -27.8362   33.2416    1.9006 H   0  0  0  0  0
  -27.0395   34.1870    0.4298 H   0  0  0  0  0
  -26.0869   32.9215    2.7561 H   0  0  0  0  0
  -25.6584   32.8529    0.8838 H   0  0  0  0  0
  -21.5973   36.4325    2.8545 H   0  0  0  0  0
  -27.9637   34.4493    3.6630 H   0  0  0  0  0
  1  2  4  0  0  0
  1  5  4  0  0  0
  2  3  4  0  0  0
  2  7  1  0  0  0
  3  4  4  0  0  0
  4  8  4  0  0  0
  5  8  4  0  0  0
  7  6  1  0  0  0
  6 12  1  0  0  0
 12 13  1  0  0  0
 12 14  2  0  0  0
  5 15  1  0  0  0
 15  9  2  0  0  0
 15 10  2  0  0  0
 15 11  2  0  0  0
  1 16  1  0  0  0
  3 17  1  0  0  0
  4 18  1  0  0  0
  6 19  1  0  0  0
  6 20  1  0  0  0
  7 21  1  0  0  0
  7 22  1  0  0  0
  8 23  1  0  0  0
 13 24  1  0  0  0
M  END
$$$$
