### 
### Created by X-TOOL on Mon Sep 10 21:13:20 2018
### 

@<TRIPOS>MOLECULE
4u5t_ligand
   15    15     1     0     0
SMALL
GAST_HUCK


@<TRIPOS>ATOM
      1 C3        -24.7550   35.2210    2.9450 C.ar      1 3CG        -0.8519
      2 C2        -24.6670   34.1950    2.0480 C.ar      1 3CG        -0.9958
      3 C7        -23.4540   33.9540    1.4250 C.ar      1 3CG        -0.8519
      4 C6        -22.3580   34.7600    1.7160 C.ar      1 3CG        -0.8493
      5 C4        -23.6850   36.0260    3.2250 C.ar      1 3CG        -0.8493
      6 C14       -27.1290   33.9640    1.4930 C.3       1 3CG        -1.4094
      7 C1        -25.9040   33.4000    1.7940 C.3       1 3CG        -1.7241
      8 C5        -22.4580   35.8050    2.6230 C.ar      1 3CG        -0.8549
      9 O9        -25.5840   38.7000    3.8920 O.2       1 3CG        -1.0000
     10 O10       -24.6730   36.7420    6.3010 O.2       1 3CG        -1.0000
     11 O11       -22.5560   38.8140    4.7510 O.2       1 3CG        -1.0000
     12 C15       -27.6100   35.2670    2.0700 C.2       1 3CG        -0.3230
     13 O16       -28.0090   35.3240    3.2700 O.co2     1 3CG        -0.6452
     14 O17       -27.5890   36.3170    1.3650 O.co2     1 3CG        -0.6452
     15 SB        -24.0990   37.5780    4.6050 Sb        1 3CG         4.0000
@<TRIPOS>BOND
     1    1    2 ar 
     2    1    5 ar 
     3    2    3 ar 
     4    2    7 1  
     5    3    4 ar 
     6    4    8 ar 
     7    5    8 ar 
     8    7    6 1  
     9    6   12 1  
    10   12   13 ar 
    11   12   14 ar 
    12    5   15 1  
    13   15    9 2  
    14   15   10 2  
    15   15   11 2  
@<TRIPOS>SUBSTRUCTURE
     1 3CG         1

