5x4p_ligand
  -I-interpret- 

 27 29  0  0  0  0  0  0  0  0999 V2000
   37.6430   -8.8760  -10.1860 C   0  0  0  0  0
   39.6350   -7.8890  -10.4810 C   0  0  0  0  0
   41.1290   -8.6300  -16.2410 C   0  0  0  0  0
   41.5290   -7.3260  -16.1770 C   0  0  0  0  0
   39.5060   -8.2150  -14.5820 C   0  0  0  0  0
   38.5400   -8.5750  -12.3540 C   0  0  0  0  0
   40.9410   -6.4250  -15.3270 C   0  0  0  0  0
   39.9150   -6.8940  -14.5150 C   0  0  0  0  0
   40.1160   -9.1020  -15.4420 C   0  0  0  0  0
   37.5130   -9.0380  -11.5490 C   0  0  0  0  0
   42.9030   -8.2930  -17.7310 C   0  0  0  0  0
   41.9550   -9.3610  -17.2510 C   0  0  0  0  0
   38.7010   -8.2920   -9.6170 N   0  0  0  0  0
   39.6140   -8.0000  -11.8130 N   0  0  0  0  0
   42.5560   -7.1350  -17.0790 N   0  0  0  0  0
   38.4920   -8.6780  -13.7480 N   0  0  0  0  0
   43.8120   -8.4580  -18.5380 O   0  0  0  0  0
   36.0840   -9.8170  -12.1370 Cl  0  0  0  0  0
   36.8438   -9.2422   -9.5416 H   0  0  0  0  0
   40.5169   -7.4145  -10.0508 H   0  0  0  0  0
   41.2645   -5.3848  -15.2896 H   0  0  0  0  0
   39.4267   -6.2137  -13.8172 H   0  0  0  0  0
   39.8046  -10.1456  -15.4870 H   0  0  0  0  0
   41.3607   -9.7970  -18.0540 H   0  0  0  0  0
   42.4654  -10.2305  -16.8368 H   0  0  0  0  0
   43.0068   -6.2348  -17.2430 H   0  0  0  0  0
   37.6742   -9.1136  -14.1744 H   0  0  0  0  0
 10  1  4  0  0  0
  1 13  4  0  0  0
  2 13  4  0  0  0
 14  2  4  0  0  0
  3  4  4  0  0  0
  9  3  4  0  0  0
  3 12  1  0  0  0
  4  7  4  0  0  0
  4 15  1  0  0  0
  5  8  4  0  0  0
  5  9  4  0  0  0
 16  5  1  0  0  0
  6 10  4  0  0  0
  6 14  4  0  0  0
  6 16  1  0  0  0
  7  8  4  0  0  0
 10 18  1  0  0  0
 12 11  1  0  0  0
 11 15  1  0  0  0
 11 17  2  0  0  0
  1 19  1  0  0  0
  2 20  1  0  0  0
  7 21  1  0  0  0
  8 22  1  0  0  0
  9 23  1  0  0  0
 12 24  1  0  0  0
 12 25  1  0  0  0
 15 26  1  0  0  0
 16 27  1  0  0  0
M  END
$$$$
