3ucj_ligand
  -I-interpret- 

 19 19  0  0  0  0  0  0  0  0999 V2000
   76.0040   52.2290  107.0040 C   0  0  0  0  0
   76.2140   54.2610  108.2940 C   0  0  0  0  0
   75.0760   55.8660  109.6430 C   0  0  0  0  0
   75.0690   57.2850  110.1810 C   0  0  0  0  0
   75.9790   49.4690  106.7240 N   0  0  0  0  0
   77.4210   53.7310  107.9020 N   0  0  0  0  0
   77.3100   52.4820  107.0940 N   0  0  0  0  0
   76.2280   55.3720  109.1840 N   0  0  0  0  0
   75.5850   50.9650  104.7570 O   0  0  0  0  0
   74.0430   50.8130  106.6030 O   0  0  0  0  0
   74.0400   55.1500  109.5970 O   0  0  0  0  0
   75.4600   50.8310  106.1110 S   0  0  0  0  0
   74.8660   53.3890  107.7280 S   0  0  0  0  0
   74.3865   57.8937  109.5879 H   0  0  0  0  0
   74.7406   57.2765  111.2203 H   0  0  0  0  0
   76.0749   57.7004  110.1199 H   0  0  0  0  0
   76.3778   48.7547  106.1148 H   0  0  0  0  0
   75.9150   49.3047  107.7286 H   0  0  0  0  0
   77.1142   55.7886  109.4696 H   0  0  0  0  0
  1  7  4  0  0  0
  1 12  1  0  0  0
 13  1  4  0  0  0
  2  6  4  0  0  0
  8  2  1  0  0  0
  2 13  4  0  0  0
  3  4  1  0  0  0
  3  8  1  0  0  0
  3 11  2  0  0  0
 12  5  1  0  0  0
  6  7  4  0  0  0
 12  9  2  0  0  0
 12 10  2  0  0  0
  4 14  1  0  0  0
  4 15  1  0  0  0
  4 16  1  0  0  0
  5 17  1  0  0  0
  5 18  1  0  0  0
  8 19  1  0  0  0
M  END
$$$$
