3rz9_ligand
  -I-interpret- 

189189  0  0  0  0  0  0  0  0999 V2000
   37.7600   69.6320   46.8560 N   0  3  0  0  0
   37.8900   70.2390   48.1650 C   0  0  0  0  0
   38.1560   71.7160   47.9650 C   0  0  0  0  0
   39.1440   72.0730   47.3550 O   0  0  0  0  0
   39.0250   69.5770   48.9410 C   0  0  0  0  0
   37.2700   72.5800   48.4460 N   0  0  0  0  0
   36.2370   72.2580   49.4070 C   0  0  0  0  0
   35.7900   73.5350   50.0830 C   0  0  0  0  0
   35.9270   74.5930   49.5100 O   0  0  0  0  0
   35.2580   73.4460   51.2930 N   0  0  0  0  0
   34.9150   74.6170   52.0890 C   0  0  0  0  0
   36.0740   75.5890   52.2930 C   0  0  0  0  0
   37.1840   75.2600   51.9330 O   0  0  0  0  0
   34.8350   74.0380   53.4600 C   0  0  0  0  0
   35.7640   72.9780   53.4480 C   0  0  0  0  0
   35.9460   72.4550   52.1030 C   0  0  0  0  0
   35.8530   76.7810   52.8330 N   0  0  0  0  0
   36.8390   77.8450   52.6490 C   0  0  0  0  0
   37.9890   77.6450   53.5250 C   0  0  0  0  0
   37.8480   77.1820   54.6020 O   0  0  0  0  0
   36.3760   79.2290   53.0470 C   0  0  0  0  0
   35.2100   79.1410   53.8610 O   0  0  0  0  0
   36.1710   80.0860   51.8350 C   0  0  0  0  0
   39.1350   78.0410   53.0420 N   0  0  0  0  0
   40.3350   77.9010   53.7910 C   0  0  0  0  0
   40.4410   78.9600   54.8420 C   0  0  0  0  0
   40.9630   78.7260   55.8730 O   0  0  0  0  0
   41.4800   77.9600   52.8870 C   0  0  0  0  0
   39.9910   80.1460   54.5250 N   0  0  0  0  0
   40.1280   81.2520   55.4100 C   0  0  0  0  0
   38.8090   81.9140   55.6440 C   0  0  0  0  0
   37.9500   81.8810   54.8120 O   0  0  0  0  0
   41.1680   82.2200   54.9050 C   0  0  0  0  0
   42.4540   81.5810   54.6340 C   0  0  0  0  0
   43.4390   82.5440   54.2210 C   0  0  0  0  0
   44.6300   81.8810   53.6950 C   0  0  0  0  0
   45.5350   82.8070   53.0660 N   0  3  0  0  0
   38.6500   82.4710   56.8200 N   0  0  0  0  0
   37.4000   83.0520   57.2180 C   0  0  0  0  0
   37.6420   84.4200   57.7710 C   0  0  0  0  0
   38.4320   84.6080   58.6410 O   0  0  0  0  0
   36.7010   82.2020   58.2710 C   0  0  0  0  0
   35.9700   81.0090   57.7960 C   0  0  0  0  0
   35.5640   80.1620   58.9350 C   0  0  0  0  0
   34.9020   78.9130   58.4850 C   0  0  0  0  0
   34.2480   78.1460   59.5440 N   0  3  0  0  0
   36.9160   85.3760   57.2470 N   0  0  0  0  0
   36.9400   86.7080   57.8010 C   0  0  0  0  0
   35.9070   86.7930   58.9200 C   0  0  0  0  0
   34.7970   86.3530   58.7410 O   0  0  0  0  0
   36.6610   87.7180   56.7200 C   0  0  0  0  0
   36.8360   89.1610   57.1620 C   0  0  0  0  0
   38.1410   89.6990   56.7100 C   0  0  0  0  0
   35.6820   89.9480   56.5830 C   0  0  0  0  0
   36.2990   87.2970   60.0900 N   0  0  0  0  0
   35.3810   87.5230   61.1500 C   0  0  0  0  0
   34.7210   88.9060   61.0450 C   0  0  0  0  0
   35.3750   89.9470   61.0260 O   0  0  0  0  0
   36.0840   87.3480   62.4720 C   0  0  0  0  0
   35.1160   87.3470   63.5570 C   0  0  0  0  0
   35.7410   87.4920   64.8450 C   0  0  0  0  0
   34.6480   87.3380   65.8570 C   0  0  0  0  0
   35.3390   87.4210   67.0550 N   0  3  0  0  0
   33.4180   88.9040   60.9030 N   0  0  0  0  0
   32.6860   90.1370   60.6390 C   0  0  0  0  0
   31.9030   90.5600   61.8800 C   0  0  0  0  0
   31.5490   91.7030   62.0140 O   0  0  0  0  0
   31.7420   90.0130   59.4030 C   0  0  0  0  0
   30.8380   88.8950   59.5520 O   0  0  0  0  0
   32.5430   89.8280   58.1740 C   0  0  0  0  0
   31.6800   89.6340   62.8090 N   0  0  0  0  0
   30.8250   89.8730   63.9800 C   0  0  0  0  0
   31.4270   89.1770   65.1530 C   0  0  0  0  0
   32.1260   88.1930   64.9620 O   0  0  0  0  0
   29.4800   89.1770   63.8280 C   0  0  0  0  0
   28.7940   89.3080   62.5210 C   0  0  0  0  0
   27.3230   89.4630   62.7590 C   0  0  0  0  0
   26.6950   88.4260   63.1300 O   0  0  0  0  0
   26.8210   90.6200   62.6210 O   0  0  0  0  0
   31.0510   89.6220   66.3530 N   0  0  0  0  0
   31.5090   89.0440   67.6140 C   0  0  0  0  0
   30.9180   87.6750   67.9460 C   0  0  0  0  0
   30.1070   87.1180   67.1780 O   0  0  0  0  0
   31.2370   90.0370   68.7380 C   0  0  0  0  0
   32.0190   89.7280   70.0160 C   0  0  0  0  0
   32.5250   90.9840   70.7320 C   0  0  0  0  0
   32.5600   92.1000   70.1470 O   0  0  0  0  0
   32.9340   90.8110   72.0050 N   0  0  0  0  0
   31.2552   87.0979   69.0141 O   0  0  0  0  0
   36.9990   70.0825   46.3477 H   0  0  0  0  0
   38.6318   69.7497   46.3398 H   0  0  0  0  0
   37.5579   68.6379   46.9621 H   0  0  0  0  0
   36.9771   70.1040   48.7450 H   0  0  0  0  0
   39.9572   69.6924   48.3880 H   0  0  0  0  0
   39.1198   70.0504   49.9182 H   0  0  0  0  0
   38.8059   68.5170   49.0691 H   0  0  0  0  0
   37.3213   73.5428   48.1133 H   0  0  0  0  0
   36.6260   71.5618   50.1500 H   0  0  0  0  0
   35.3921   71.7913   48.9006 H   0  0  0  0  0
   34.0635   75.1195   51.6301 H   0  0  0  0  0
   34.2011   74.3613   54.2857 H   0  0  0  0  0
   36.2787   72.5997   54.3312 H   0  0  0  0  0
   36.9933   72.3278   51.8292 H   0  0  0  0  0
   35.5511   71.4469   51.9765 H   0  0  0  0  0
   35.0037   76.9532   53.3711 H   0  0  0  0  0
   37.0468   77.7907   51.5804 H   0  0  0  0  0
   37.1499   79.7116   53.6439 H   0  0  0  0  0
   34.9256   80.0242   54.1072 H   0  0  0  0  0
   37.1103   80.1710   51.2886 H   0  0  0  0  0
   35.4159   79.6314   51.1937 H   0  0  0  0  0
   35.8382   81.0768   52.1443 H   0  0  0  0  0
   39.1701   78.4578   52.1117 H   0  0  0  0  0
   40.3226   76.9354   54.2966 H   0  0  0  0  0
   41.4082   77.1523   52.1586 H   0  0  0  0  0
   41.4832   78.9190   52.3688 H   0  0  0  0  0
   42.4004   77.8527   53.4610 H   0  0  0  0  0
   39.5320   80.2814   53.6242 H   0  0  0  0  0
   40.4765   80.8812   56.3739 H   0  0  0  0  0
   41.3259   82.9726   55.6775 H   0  0  0  0  0
   40.8026   82.6438   53.9696 H   0  0  0  0  0
   42.3191   80.8563   53.8310 H   0  0  0  0  0
   42.8015   81.0992   55.5479 H   0  0  0  0  0
   43.7252   83.1443   55.0846 H   0  0  0  0  0
   43.0108   83.1683   53.4367 H   0  0  0  0  0
   44.3116   81.1562   52.9457 H   0  0  0  0  0
   45.1517   81.4100   54.5281 H   0  0  0  0  0
   46.3482   82.3008   52.7154 H   0  0  0  0  0
   45.0611   83.2702   52.2906 H   0  0  0  0  0
   45.8348   83.5039   53.7478 H   0  0  0  0  0
   39.4361   82.4919   57.4696 H   0  0  0  0  0
   36.7566   83.1059   56.3398 H   0  0  0  0  0
   35.9502   82.8492   58.7243 H   0  0  0  0  0
   37.4908   81.8266   58.9216 H   0  0  0  0  0
   36.6228   80.4318   57.1412 H   0  0  0  0  0
   35.0777   81.3315   57.2595 H   0  0  0  0  0
   34.8565   80.7241   59.5446 H   0  0  0  0  0
   36.4582   79.8923   59.4970 H   0  0  0  0  0
   35.6819   78.2750   58.0693 H   0  0  0  0  0
   34.1233   79.2052   57.7805 H   0  0  0  0  0
   33.8231   77.3096   59.1436 H   0  0  0  0  0
   34.9397   77.8759   60.2433 H   0  0  0  0  0
   33.5266   78.7192   59.9814 H   0  0  0  0  0
   36.3272   85.1766   56.4384 H   0  0  0  0  0
   37.9246   86.9282   58.2135 H   0  0  0  0  0
   35.6193   87.5948   56.4236 H   0  0  0  0  0
   37.3751   87.5372   55.9166 H   0  0  0  0  0
   36.8337   89.2347   58.2495 H   0  0  0  0  0
   38.9464   89.1014   57.1369 H   0  0  0  0  0
   38.1928   89.6568   55.6221 H   0  0  0  0  0
   38.2401   90.7332   57.0399 H   0  0  0  0  0
   35.7026   89.8739   55.4957 H   0  0  0  0  0
   34.7426   89.5423   56.9584 H   0  0  0  0  0
   35.7719   90.9932   56.8790 H   0  0  0  0  0
   37.2833   87.5262   60.2276 H   0  0  0  0  0
   34.5788   86.7887   61.0768 H   0  0  0  0  0
   36.7828   88.1718   62.6171 H   0  0  0  0  0
   36.6191   86.3984   62.4694 H   0  0  0  0  0
   34.5906   86.3921   63.5412 H   0  0  0  0  0
   34.4423   88.1913   63.4105 H   0  0  0  0  0
   36.2303   88.4615   64.9383 H   0  0  0  0  0
   36.5207   86.7444   64.9907 H   0  0  0  0  0
   34.0909   86.4075   65.7475 H   0  0  0  0  0
   33.8659   88.0911   65.7606 H   0  0  0  0  0
   34.6839   87.3274   67.8312 H   0  0  0  0  0
   36.0304   86.6724   67.0999 H   0  0  0  0  0
   35.8096   88.3241   67.1128 H   0  0  0  0  0
   32.9071   88.0244   60.9785 H   0  0  0  0  0
   33.4184   90.9079   60.3993 H   0  0  0  0  0
   31.1580   90.9305   59.3312 H   0  0  0  0  0
   30.2690   88.8400   58.7807 H   0  0  0  0  0
   33.2022   90.6855   58.0389 H   0  0  0  0  0
   33.1395   88.9202   58.2639 H   0  0  0  0  0
   31.8757   89.7424   57.3164 H   0  0  0  0  0
   32.1209   88.7202   62.7040 H   0  0  0  0  0
   30.7237   90.9528   64.0893 H   0  0  0  0  0
   28.8197   89.6463   64.5573 H   0  0  0  0  0
   29.6817   88.1129   63.9512 H   0  0  0  0  0
   28.9782   88.4193   61.9173 H   0  0  0  0  0
   29.1755   90.1802   61.9902 H   0  0  0  0  0
   27.5025   91.2308   62.3310 H   0  0  0  0  0
   30.4064   90.4115   66.3924 H   0  0  0  0  0
   32.5777   88.8604   67.5027 H   0  0  0  0  0
   30.1753   89.9817   68.9784 H   0  0  0  0  0
   31.5470   91.0226   68.3908 H   0  0  0  0  0
   32.8891   89.1344   69.7356 H   0  0  0  0  0
   31.3460   89.2077   70.6975 H   0  0  0  0  0
   33.2914   91.6038   72.5381 H   0  0  0  0  0
   32.8860   89.8873   72.4350 H   0  0  0  0  0
   31.8794   87.6496   69.4913 H   0  0  0  0  0
  1  2  1  0  0  0
  2  3  1  0  0  0
  2  5  1  0  0  0
  3  4  2  0  0  0
  3  6  1  0  0  0
  6  7  1  0  0  0
  7  8  1  0  0  0
  8  9  2  0  0  0
  8 10  1  0  0  0
 10 11  1  0  0  0
 10 16  1  0  0  0
 11 12  1  0  0  0
 11 14  1  0  0  0
 12 13  2  0  0  0
 12 17  1  0  0  0
 14 15  2  0  0  0
 15 16  1  0  0  0
 17 18  1  0  0  0
 18 19  1  0  0  0
 18 21  1  0  0  0
 19 20  2  0  0  0
 19 24  1  0  0  0
 21 22  1  0  0  0
 21 23  1  0  0  0
 24 25  1  0  0  0
 25 26  1  0  0  0
 25 28  1  0  0  0
 26 27  2  0  0  0
 26 29  1  0  0  0
 29 30  1  0  0  0
 30 31  1  0  0  0
 30 33  1  0  0  0
 31 32  2  0  0  0
 31 38  1  0  0  0
 33 34  1  0  0  0
 34 35  1  0  0  0
 35 36  1  0  0  0
 36 37  1  0  0  0
 38 39  1  0  0  0
 39 40  1  0  0  0
 39 42  1  0  0  0
 40 41  2  0  0  0
 40 47  1  0  0  0
 42 43  1  0  0  0
 43 44  1  0  0  0
 44 45  1  0  0  0
 45 46  1  0  0  0
 47 48  1  0  0  0
 48 49  1  0  0  0
 48 51  1  0  0  0
 49 50  2  0  0  0
 49 55  1  0  0  0
 51 52  1  0  0  0
 52 53  1  0  0  0
 52 54  1  0  0  0
 55 56  1  0  0  0
 56 57  1  0  0  0
 56 59  1  0  0  0
 57 58  2  0  0  0
 57 64  1  0  0  0
 59 60  1  0  0  0
 60 61  1  0  0  0
 61 62  1  0  0  0
 62 63  1  0  0  0
 64 65  1  0  0  0
 65 66  1  0  0  0
 65 68  1  0  0  0
 66 67  2  0  0  0
 66 71  1  0  0  0
 68 69  1  0  0  0
 68 70  1  0  0  0
 71 72  1  0  0  0
 72 73  1  0  0  0
 72 75  1  0  0  0
 73 74  2  0  0  0
 73 80  1  0  0  0
 75 76  1  0  0  0
 76 77  1  0  0  0
 77 78  2  0  0  0
 77 79  1  0  0  0
 80 81  1  0  0  0
 81 82  1  0  0  0
 81 84  1  0  0  0
 82 83  2  0  0  0
 84 85  1  0  0  0
 85 86  1  0  0  0
 86 87  2  0  0  0
 86 88  1  0  0  0
 82 89  1  0  0  0
  1 90  1  0  0  0
  1 91  1  0  0  0
  1 92  1  0  0  0
  2 93  1  0  0  0
  5 94  1  0  0  0
  5 95  1  0  0  0
  5 96  1  0  0  0
  6 97  1  0  0  0
  7 98  1  0  0  0
  7 99  1  0  0  0
 11100  1  0  0  0
 14101  1  0  0  0
 15102  1  0  0  0
 16103  1  0  0  0
 16104  1  0  0  0
 17105  1  0  0  0
 18106  1  0  0  0
 21107  1  0  0  0
 22108  1  0  0  0
 23109  1  0  0  0
 23110  1  0  0  0
 23111  1  0  0  0
 24112  1  0  0  0
 25113  1  0  0  0
 28114  1  0  0  0
 28115  1  0  0  0
 28116  1  0  0  0
 29117  1  0  0  0
 30118  1  0  0  0
 33119  1  0  0  0
 33120  1  0  0  0
 34121  1  0  0  0
 34122  1  0  0  0
 35123  1  0  0  0
 35124  1  0  0  0
 36125  1  0  0  0
 36126  1  0  0  0
 37127  1  0  0  0
 37128  1  0  0  0
 37129  1  0  0  0
 38130  1  0  0  0
 39131  1  0  0  0
 42132  1  0  0  0
 42133  1  0  0  0
 43134  1  0  0  0
 43135  1  0  0  0
 44136  1  0  0  0
 44137  1  0  0  0
 45138  1  0  0  0
 45139  1  0  0  0
 46140  1  0  0  0
 46141  1  0  0  0
 46142  1  0  0  0
 47143  1  0  0  0
 48144  1  0  0  0
 51145  1  0  0  0
 51146  1  0  0  0
 52147  1  0  0  0
 53148  1  0  0  0
 53149  1  0  0  0
 53150  1  0  0  0
 54151  1  0  0  0
 54152  1  0  0  0
 54153  1  0  0  0
 55154  1  0  0  0
 56155  1  0  0  0
 59156  1  0  0  0
 59157  1  0  0  0
 60158  1  0  0  0
 60159  1  0  0  0
 61160  1  0  0  0
 61161  1  0  0  0
 62162  1  0  0  0
 62163  1  0  0  0
 63164  1  0  0  0
 63165  1  0  0  0
 63166  1  0  0  0
 64167  1  0  0  0
 65168  1  0  0  0
 68169  1  0  0  0
 69170  1  0  0  0
 70171  1  0  0  0
 70172  1  0  0  0
 70173  1  0  0  0
 71174  1  0  0  0
 72175  1  0  0  0
 75176  1  0  0  0
 75177  1  0  0  0
 76178  1  0  0  0
 76179  1  0  0  0
 79180  1  0  0  0
 80181  1  0  0  0
 81182  1  0  0  0
 84183  1  0  0  0
 84184  1  0  0  0
 85185  1  0  0  0
 85186  1  0  0  0
 88187  1  0  0  0
 88188  1  0  0  0
 89189  1  0  0  0
M  END
$$$$
