### 
### Created by X-TOOL on Mon Sep 10 21:13:06 2018
### 

@<TRIPOS>MOLECULE
3rz9_ligand
  187   187     1     0     0
SMALL
GAST_HUCK


@<TRIPOS>ATOM
      1 N          37.7600   69.6320   46.8560 N.4       1 ASP         0.2377
      2 CA         37.8900   70.2390   48.1650 C.3       1 ASP         0.0621
      3 C          38.1560   71.7160   47.9650 C.2       1 ASP         0.2262
      4 O          39.1440   72.0730   47.3550 O.2       1 ASP        -0.3907
      5 CB         39.0250   69.5770   48.9410 C.3       1 ASP        -0.0040
      6 N          37.2700   72.5800   48.4460 N.am      1 GLY        -0.2637
      7 CA         36.2370   72.2580   49.4070 C.3       1 GLY         0.1207
      8 C          35.7900   73.5350   50.0830 C.2       1 GLY         0.2064
      9 O          35.9270   74.5930   49.5100 O.2       1 GLY        -0.3942
     10 N          35.2580   73.4460   51.2930 N.am      1 PRO        -0.2342
     11 CA         34.9150   74.6170   52.0890 C.3       1 PRO         0.1522
     12 C          36.0740   75.5890   52.2930 C.2       1 PRO         0.2124
     13 O          37.1840   75.2600   51.9330 O.2       1 PRO        -0.3919
     14 CB         34.8350   74.0380   53.4600 C.2       1 PRO        -0.0526
     15 CG         35.7640   72.9780   53.4480 C.2       1 PRO        -0.0712
     16 CD         35.9460   72.4550   52.1030 C.3       1 PRO         0.0563
     17 N          35.8530   76.7810   52.8330 N.am      1 THR        -0.2600
     18 CA         36.8390   77.8450   52.6490 C.3       1 THR         0.1566
     19 C          37.9890   77.6450   53.5250 C.2       1 THR         0.2065
     20 O          37.8480   77.1820   54.6020 O.2       1 THR        -0.3943
     21 CB         36.3760   79.2290   53.0470 C.3       1 THR         0.0924
     22 OG1        35.2100   79.1410   53.8610 O.3       1 THR        -0.3874
     23 CG2        36.1710   80.0860   51.8350 C.3       1 THR        -0.0346
     24 N          39.1350   78.0410   53.0420 N.am      1 ALA        -0.2639
     25 CA         40.3350   77.9010   53.7910 C.3       1 ALA         0.1282
     26 C          40.4410   78.9600   54.8420 C.2       1 ALA         0.2036
     27 O          40.9630   78.7260   55.8730 O.2       1 ALA        -0.3944
     28 CB         41.4800   77.9600   52.8870 C.3       1 ALA        -0.0244
     29 N          39.9910   80.1460   54.5250 N.am      1 LYS        -0.2637
     30 CA         40.1280   81.2520   55.4100 C.3       1 LYS         0.1310
     31 C          38.8090   81.9140   55.6440 C.2       1 LYS         0.2039
     32 O          37.9500   81.8810   54.8120 O.2       1 LYS        -0.3944
     33 CB         41.1680   82.2200   54.9050 C.3       1 LYS        -0.0122
     34 CG         42.4540   81.5810   54.6340 C.3       1 LYS        -0.0440
     35 CD         43.4390   82.5440   54.2210 C.3       1 LYS        -0.0124
     36 CE         44.6300   81.8810   53.6950 C.3       1 LYS        -0.0354
     37 NZ         45.5350   82.8070   53.0660 N.4       1 LYS         0.2185
     38 N          38.6500   82.4710   56.8200 N.am      1 LYS        -0.2637
     39 CA         37.4000   83.0520   57.2180 C.3       1 LYS         0.1310
     40 C          37.6420   84.4200   57.7710 C.2       1 LYS         0.2039
     41 O          38.4320   84.6080   58.6410 O.2       1 LYS        -0.3944
     42 CB         36.7010   82.2020   58.2710 C.3       1 LYS        -0.0122
     43 CG         35.9700   81.0090   57.7960 C.3       1 LYS        -0.0440
     44 CD         35.5640   80.1620   58.9350 C.3       1 LYS        -0.0124
     45 CE         34.9020   78.9130   58.4850 C.3       1 LYS        -0.0354
     46 NZ         34.2480   78.1460   59.5440 N.4       1 LYS         0.2185
     47 N          36.9160   85.3760   57.2470 N.am      1 LEU        -0.2637
     48 CA         36.9400   86.7080   57.8010 C.3       1 LEU         0.1312
     49 C          35.9070   86.7930   58.9200 C.2       1 LEU         0.2039
     50 O          34.7970   86.3530   58.7410 O.2       1 LEU        -0.3944
     51 CB         36.6610   87.7180   56.7200 C.3       1 LEU        -0.0101
     52 CG         36.8360   89.1610   57.1620 C.3       1 LEU        -0.0425
     53 CD1        38.1410   89.6990   56.7100 C.3       1 LEU        -0.0625
     54 CD2        35.6820   89.9480   56.5830 C.3       1 LEU        -0.0625
     55 N          36.2990   87.2970   60.0900 N.am      1 LYS        -0.2637
     56 CA         35.3810   87.5230   61.1500 C.3       1 LYS         0.1310
     57 C          34.7210   88.9060   61.0450 C.2       1 LYS         0.2040
     58 O          35.3750   89.9470   61.0260 O.2       1 LYS        -0.3944
     59 CB         36.0840   87.3480   62.4720 C.3       1 LYS        -0.0122
     60 CG         35.1160   87.3470   63.5570 C.3       1 LYS        -0.0440
     61 CD         35.7410   87.4920   64.8450 C.3       1 LYS        -0.0124
     62 CE         34.6480   87.3380   65.8570 C.3       1 LYS        -0.0354
     63 NZ         35.3390   87.4210   67.0550 N.4       1 LYS         0.2185
     64 N          33.4180   88.9040   60.9030 N.am      1 THR        -0.2613
     65 CA         32.6860   90.1370   60.6390 C.3       1 THR         0.1565
     66 C          31.9030   90.5600   61.8800 C.2       1 THR         0.2065
     67 O          31.5490   91.7030   62.0140 O.2       1 THR        -0.3943
     68 CB         31.7420   90.0130   59.4030 C.3       1 THR         0.0924
     69 OG1        30.8380   88.8950   59.5520 O.3       1 THR        -0.3874
     70 CG2        32.5430   89.8280   58.1740 C.3       1 THR        -0.0346
     71 N          31.6800   89.6340   62.8090 N.am      1 GLU        -0.2635
     72 CA         30.8250   89.8730   63.9800 C.3       1 GLU         0.1324
     73 C          31.4270   89.1770   65.1530 C.2       1 GLU         0.2035
     74 O          32.1260   88.1930   64.9620 O.2       1 GLU        -0.3944
     75 CB         29.4800   89.1770   63.8280 C.3       1 GLU        -0.0008
     76 CG         28.7940   89.3080   62.5210 C.3       1 GLU         0.0044
     77 CD         27.3230   89.4630   62.7590 C.2       1 GLU         0.0350
     78 OE1        26.6950   88.4260   63.1300 O.co2     1 GLU        -0.5690
     79 OE2        26.8210   90.6200   62.6210 O.co2     1 GLU        -0.5690
     80 N          31.0510   89.6220   66.3530 N.am      1 GLN        -0.2693
     81 CA         31.5090   89.0440   67.6140 C.3       1 GLN         0.0964
     82 C          30.9180   87.6750   67.9460 C.2       1 GLN         0.0602
     83 O          30.1070   87.1180   67.1780 O.co2     1 GLN        -0.5666
     84 CB         31.2370   90.0370   68.7380 C.3       1 GLN        -0.0010
     85 CG         32.0190   89.7280   70.0160 C.3       1 GLN         0.0407
     86 CD         32.5250   90.9840   70.7320 C.2       1 GLN         0.1737
     87 OE1        32.5600   92.1000   70.1470 O.2       1 GLN        -0.3973
     88 NE2        32.9340   90.8110   72.0050 N.am      1 GLN        -0.3009
     89 H          36.9990   70.0825   46.3477 H         1 ASP         0.2015
     90 H          38.6318   69.7497   46.3398 H         1 ASP         0.2015
     91 H          37.5579   68.6379   46.9621 H         1 ASP         0.2015
     92 H          36.9771   70.1040   48.7450 H         1 ASP         0.1095
     93 H          39.9572   69.6924   48.3880 H         1 ASP         0.0310
     94 H          39.1198   70.0504   49.9182 H         1 ASP         0.0310
     95 H          38.8059   68.5170   49.0691 H         1 ASP         0.0310
     96 H          37.3213   73.5428   48.1133 H         1 GLY         0.1882
     97 H          36.6260   71.5618   50.1500 H         1 GLY         0.0763
     98 H          35.3921   71.7913   48.9006 H         1 GLY         0.0763
     99 H          34.0635   75.1195   51.6301 H         1 PRO         0.0924
    100 H          34.2011   74.3613   54.2857 H         1 PRO         0.0494
    101 H          36.2787   72.5997   54.3312 H         1 PRO         0.0482
    102 H          36.9933   72.3278   51.8292 H         1 PRO         0.0653
    103 H          35.5511   71.4469   51.9765 H         1 PRO         0.0653
    104 H          35.0037   76.9532   53.3711 H         1 THR         0.1885
    105 H          37.0468   77.7907   51.5804 H         1 THR         0.0826
    106 H          37.1499   79.7116   53.6439 H         1 THR         0.0639
    107 H          34.9256   80.0242   54.1072 H         1 THR         0.2101
    108 H          37.1103   80.1710   51.2886 H         1 THR         0.0257
    109 H          35.4159   79.6314   51.1937 H         1 THR         0.0257
    110 H          35.8382   81.0768   52.1443 H         1 THR         0.0257
    111 H          39.1701   78.4578   52.1117 H         1 ALA         0.1883
    112 H          40.3226   76.9354   54.2966 H         1 ALA         0.0797
    113 H          41.4082   77.1523   52.1586 H         1 ALA         0.0277
    114 H          41.4832   78.9190   52.3688 H         1 ALA         0.0277
    115 H          42.4004   77.8527   53.4610 H         1 ALA         0.0277
    116 H          39.5320   80.2814   53.6242 H         1 LYS         0.1883
    117 H          40.4765   80.8812   56.3739 H         1 LYS         0.0800
    118 H          41.3259   82.9726   55.6775 H         1 LYS         0.0312
    119 H          40.8026   82.6438   53.9696 H         1 LYS         0.0312
    120 H          42.3191   80.8563   53.8310 H         1 LYS         0.0269
    121 H          42.8015   81.0992   55.5479 H         1 LYS         0.0269
    122 H          43.7252   83.1443   55.0846 H         1 LYS         0.0317
    123 H          43.0108   83.1683   53.4367 H         1 LYS         0.0317
    124 H          44.3116   81.1562   52.9457 H         1 LYS         0.0813
    125 H          45.1517   81.4100   54.5281 H         1 LYS         0.0813
    126 H          46.3482   82.3008   52.7154 H         1 LYS         0.1994
    127 H          45.0611   83.2702   52.2906 H         1 LYS         0.1994
    128 H          45.8348   83.5039   53.7478 H         1 LYS         0.1994
    129 H          39.4361   82.4919   57.4696 H         1 LYS         0.1883
    130 H          36.7566   83.1059   56.3398 H         1 LYS         0.0800
    131 H          35.9502   82.8492   58.7243 H         1 LYS         0.0312
    132 H          37.4908   81.8266   58.9216 H         1 LYS         0.0312
    133 H          36.6228   80.4318   57.1412 H         1 LYS         0.0269
    134 H          35.0777   81.3315   57.2595 H         1 LYS         0.0269
    135 H          34.8565   80.7241   59.5446 H         1 LYS         0.0317
    136 H          36.4582   79.8923   59.4970 H         1 LYS         0.0317
    137 H          35.6819   78.2750   58.0693 H         1 LYS         0.0813
    138 H          34.1233   79.2052   57.7805 H         1 LYS         0.0813
    139 H          33.8231   77.3096   59.1436 H         1 LYS         0.1994
    140 H          34.9397   77.8759   60.2433 H         1 LYS         0.1994
    141 H          33.5266   78.7192   59.9814 H         1 LYS         0.1994
    142 H          36.3272   85.1766   56.4384 H         1 LEU         0.1883
    143 H          37.9246   86.9282   58.2135 H         1 LEU         0.0800
    144 H          35.6193   87.5948   56.4236 H         1 LEU         0.0315
    145 H          37.3751   87.5372   55.9166 H         1 LEU         0.0315
    146 H          36.8337   89.2347   58.2495 H         1 LEU         0.0298
    147 H          38.9464   89.1014   57.1369 H         1 LEU         0.0232
    148 H          38.1928   89.6568   55.6221 H         1 LEU         0.0232
    149 H          38.2401   90.7332   57.0399 H         1 LEU         0.0232
    150 H          35.7026   89.8739   55.4957 H         1 LEU         0.0232
    151 H          34.7426   89.5423   56.9584 H         1 LEU         0.0232
    152 H          35.7719   90.9932   56.8790 H         1 LEU         0.0232
    153 H          37.2833   87.5262   60.2276 H         1 LYS         0.1883
    154 H          34.5788   86.7887   61.0768 H         1 LYS         0.0800
    155 H          36.7828   88.1718   62.6171 H         1 LYS         0.0312
    156 H          36.6191   86.3984   62.4694 H         1 LYS         0.0312
    157 H          34.5906   86.3921   63.5412 H         1 LYS         0.0269
    158 H          34.4423   88.1913   63.4105 H         1 LYS         0.0269
    159 H          36.2303   88.4615   64.9383 H         1 LYS         0.0317
    160 H          36.5207   86.7444   64.9907 H         1 LYS         0.0317
    161 H          34.0909   86.4075   65.7475 H         1 LYS         0.0813
    162 H          33.8659   88.0911   65.7606 H         1 LYS         0.0813
    163 H          34.6839   87.3274   67.8312 H         1 LYS         0.1994
    164 H          36.0304   86.6724   67.0999 H         1 LYS         0.1994
    165 H          35.8096   88.3241   67.1128 H         1 LYS         0.1994
    166 H          32.9071   88.0244   60.9785 H         1 THR         0.1884
    167 H          33.4184   90.9079   60.3993 H         1 THR         0.0826
    168 H          31.1580   90.9305   59.3312 H         1 THR         0.0639
    169 H          31.3449   88.0840   59.6356 H         1 THR         0.2101
    170 H          33.2022   90.6855   58.0389 H         1 THR         0.0257
    171 H          33.1395   88.9202   58.2639 H         1 THR         0.0257
    172 H          31.8757   89.7424   57.3164 H         1 THR         0.0257
    173 H          32.1209   88.7202   62.7040 H         1 GLU         0.1883
    174 H          30.7237   90.9528   64.0893 H         1 GLU         0.0801
    175 H          28.8197   89.6463   64.5573 H         1 GLU         0.0330
    176 H          29.6817   88.1129   63.9512 H         1 GLU         0.0330
    177 H          28.9782   88.4193   61.9173 H         1 GLU         0.0433
    178 H          29.1755   90.1802   61.9902 H         1 GLU         0.0433
    179 H          30.4064   90.4115   66.3924 H         1 GLN         0.1875
    180 H          32.5777   88.8604   67.5027 H         1 GLN         0.0727
    181 O          31.2552   87.0979   69.0141 O.co2     1 GLN        -0.5666
    182 H          30.1753   89.9817   68.9784 H         1 GLN         0.0330
    183 H          31.5470   91.0226   68.3908 H         1 GLN         0.0330
    184 H          32.8891   89.1344   69.7356 H         1 GLN         0.0504
    185 H          31.3460   89.2077   70.6975 H         1 GLN         0.0504
    186 H          33.2914   91.6038   72.5381 H         1 GLN         0.1814
    187 H          32.8860   89.8873   72.4350 H         1 GLN         0.1814
@<TRIPOS>BOND
     1    1    2 1  
     2    2    3 1  
     3    2    5 1  
     4    3    4 2  
     5    3    6 am 
     6    6    7 1  
     7    7    8 1  
     8    8    9 2  
     9    8   10 am 
    10   10   11 1  
    11   10   16 1  
    12   11   12 1  
    13   11   14 1  
    14   12   13 2  
    15   12   17 am 
    16   14   15 2  
    17   15   16 1  
    18   17   18 1  
    19   18   19 1  
    20   18   21 1  
    21   19   20 2  
    22   19   24 am 
    23   21   22 1  
    24   21   23 1  
    25   24   25 1  
    26   25   26 1  
    27   25   28 1  
    28   26   27 2  
    29   26   29 am 
    30   29   30 1  
    31   30   31 1  
    32   30   33 1  
    33   31   32 2  
    34   31   38 am 
    35   33   34 1  
    36   34   35 1  
    37   35   36 1  
    38   36   37 1  
    39   38   39 1  
    40   39   40 1  
    41   39   42 1  
    42   40   41 2  
    43   40   47 am 
    44   42   43 1  
    45   43   44 1  
    46   44   45 1  
    47   45   46 1  
    48   47   48 1  
    49   48   49 1  
    50   48   51 1  
    51   49   50 2  
    52   49   55 am 
    53   51   52 1  
    54   52   53 1  
    55   52   54 1  
    56   55   56 1  
    57   56   57 1  
    58   56   59 1  
    59   57   58 2  
    60   57   64 am 
    61   59   60 1  
    62   60   61 1  
    63   61   62 1  
    64   62   63 1  
    65   64   65 1  
    66   65   66 1  
    67   65   68 1  
    68   66   67 2  
    69   66   71 am 
    70   68   69 1  
    71   68   70 1  
    72   71   72 1  
    73   72   73 1  
    74   72   75 1  
    75   73   74 2  
    76   73   80 am 
    77   75   76 1  
    78   76   77 1  
    79   77   78 ar 
    80   77   79 ar 
    81   80   81 1  
    82   81   82 1  
    83   81   84 1  
    84   82   83 ar 
    85   84   85 1  
    86   85   86 1  
    87   86   87 2  
    88   86   88 am 
    89    1   89 1  
    90    1   90 1  
    91    1   91 1  
    92    2   92 1  
    93    5   93 1  
    94    5   94 1  
    95    5   95 1  
    96    6   96 1  
    97    7   97 1  
    98    7   98 1  
    99   11   99 1  
   100   14  100 1  
   101   15  101 1  
   102   16  102 1  
   103   16  103 1  
   104   17  104 1  
   105   18  105 1  
   106   21  106 1  
   107   22  107 1  
   108   23  108 1  
   109   23  109 1  
   110   23  110 1  
   111   24  111 1  
   112   25  112 1  
   113   28  113 1  
   114   28  114 1  
   115   28  115 1  
   116   29  116 1  
   117   30  117 1  
   118   33  118 1  
   119   33  119 1  
   120   34  120 1  
   121   34  121 1  
   122   35  122 1  
   123   35  123 1  
   124   36  124 1  
   125   36  125 1  
   126   37  126 1  
   127   37  127 1  
   128   37  128 1  
   129   38  129 1  
   130   39  130 1  
   131   42  131 1  
   132   42  132 1  
   133   43  133 1  
   134   43  134 1  
   135   44  135 1  
   136   44  136 1  
   137   45  137 1  
   138   45  138 1  
   139   46  139 1  
   140   46  140 1  
   141   46  141 1  
   142   47  142 1  
   143   48  143 1  
   144   51  144 1  
   145   51  145 1  
   146   52  146 1  
   147   53  147 1  
   148   53  148 1  
   149   53  149 1  
   150   54  150 1  
   151   54  151 1  
   152   54  152 1  
   153   55  153 1  
   154   56  154 1  
   155   59  155 1  
   156   59  156 1  
   157   60  157 1  
   158   60  158 1  
   159   61  159 1  
   160   61  160 1  
   161   62  161 1  
   162   62  162 1  
   163   63  163 1  
   164   63  164 1  
   165   63  165 1  
   166   64  166 1  
   167   65  167 1  
   168   68  168 1  
   169   69  169 1  
   170   70  170 1  
   171   70  171 1  
   172   70  172 1  
   173   71  173 1  
   174   72  174 1  
   175   75  175 1  
   176   75  176 1  
   177   76  177 1  
   178   76  178 1  
   179   80  179 1  
   180   81  180 1  
   181   82  181 ar 
   182   84  182 1  
   183   84  183 1  
   184   85  184 1  
   185   85  185 1  
   186   88  186 1  
   187   88  187 1  
@<TRIPOS>SUBSTRUCTURE
     1 ASP         1

