4g3g_ligand
  -I-interpret- 

 30 32  0  0  0  0  0  0  0  0999 V2000
   16.4670    9.3920    8.4170 C   0  0  0  0  0
   15.3410    9.4860    7.6060 C   0  0  0  0  0
   15.4260   10.0450    6.3380 C   0  0  0  0  0
   16.6460   10.5270    5.8690 C   0  0  0  0  0
   15.8470   11.6890    3.7900 C   0  0  0  0  0
   14.5270   12.8630    2.0040 C   0  0  0  0  0
   12.3950   12.5230    3.1820 C   0  0  0  0  0
   10.2660   12.9670    2.1910 C   0  0  0  0  0
   11.7400   12.2990    4.4040 C   0  0  0  0  0
   18.9700   10.8760    6.2300 O   0  0  0  0  0
   17.7760   10.4180    6.6870 C   0  0  0  0  0
   17.6870    9.8530    7.9550 C   0  0  0  0  0
   14.1530    9.0270    8.0570 F   0  0  0  0  0
   16.8150   11.1000    4.5940 N   0  0  0  0  0
   14.5740   11.7560    4.0030 N   0  0  0  0  0
   13.8540   12.3870    3.0710 C   0  0  0  0  0
   16.2120   12.4740    2.2550 S   0  0  0  0  0
   11.6390   12.8630    2.0530 C   0  0  0  0  0
    9.6830   12.7540    3.3610 N   0  0  0  0  0
   10.3630   12.4310    4.4560 C   0  0  0  0  0
   16.3886    8.9566    9.4132 H   0  0  0  0  0
   14.5378   10.1068    5.7092 H   0  0  0  0  0
   14.1018   13.3892    1.1493 H   0  0  0  0  0
    9.6565   13.2276    1.3257 H   0  0  0  0  0
   12.3055   12.0262    5.2950 H   0  0  0  0  0
   19.6437   10.7325    6.8987 H   0  0  0  0  0
   18.5749    9.7738    8.5822 H   0  0  0  0  0
   17.7618   11.0803    4.2151 H   0  0  0  0  0
   12.1195   13.0410    1.0910 H   0  0  0  0  0
    9.8359   12.2698    5.3963 H   0  0  0  0  0
  2  1  4  0  0  0
  1 12  4  0  0  0
  3  2  4  0  0  0
  2 13  1  0  0  0
  4  3  4  0  0  0
  4 11  4  0  0  0
 14  4  1  0  0  0
  5 14  1  0  0  0
  5 15  4  0  0  0
 17  5  4  0  0  0
 16  6  4  0  0  0
  6 17  4  0  0  0
  7  9  4  0  0  0
  7 16  1  0  0  0
  7 18  4  0  0  0
 18  8  4  0  0  0
  8 19  4  0  0  0
  9 20  4  0  0  0
 11 10  1  0  0  0
 11 12  4  0  0  0
 15 16  4  0  0  0
 19 20  4  0  0  0
  1 21  1  0  0  0
  3 22  1  0  0  0
  6 23  1  0  0  0
  8 24  1  0  0  0
  9 25  1  0  0  0
 10 26  1  0  0  0
 12 27  1  0  0  0
 14 28  1  0  0  0
 18 29  1  0  0  0
 20 30  1  0  0  0
M  END
$$$$
