5hka_ligand
  -I-interpret- 

 48 50  0  0  0  0  0  0  0  0999 V2000
  -22.2490   22.2850   26.3370 C   0  0  0  0  0
  -21.8610   23.0110   28.6140 C   0  0  0  0  0
  -22.0190   24.9900   30.1600 C   0  0  0  0  0
  -21.2170   23.9710   29.6070 C   0  0  0  0  0
  -23.1070   21.2710   26.7760 C   0  0  0  0  0
  -23.3440   21.1400   28.1480 C   0  0  0  0  0
  -22.7280   22.0060   29.0480 C   0  0  0  0  0
  -19.8940   23.9130   29.9970 C   0  0  0  0  0
  -19.4170   24.8700   30.9260 C   0  0  0  0  0
  -21.5590   25.9420   31.0980 C   0  0  0  0  0
  -24.4390   19.1580   26.2430 N   0  0  0  0  0
  -22.3440   27.7790   32.6280 C   0  0  0  0  0
  -23.8480   20.6090   24.5860 O   0  0  0  0  0
  -22.2970   28.1010   35.0510 C   0  0  0  0  0
  -22.3850   27.2710   33.9390 C   0  0  0  0  0
  -19.0510   22.9420   29.4950 O   0  0  0  0  0
  -22.0890   30.2920   36.1000 N   0  0  0  0  0
  -22.4170   32.1740   37.3890 O   0  0  0  0  0
  -22.4910   26.9000   31.5310 O   0  0  0  0  0
  -22.4230   33.4010   34.4360 C   0  0  0  0  0
  -22.1820   29.4740   34.9030 C   0  0  0  0  0
  -21.6340   23.1440   27.2470 C   0  0  0  0  0
  -23.7890   20.3480   25.7850 C   0  0  0  0  0
  -22.2480   29.1890   32.4780 C   0  0  0  0  0
  -23.2680   32.4550   35.2410 C   0  0  0  0  0
  -22.5760   31.6420   36.3090 C   0  0  0  0  0
  -22.1510   29.9860   33.6090 C   0  0  0  0  0
  -22.1900   30.1080   30.9850 Cl  0  0  0  0  0
  -22.5230   25.5900   34.2560 Cl  0  0  0  0  0
  -20.2270   25.8760   31.4810 C   0  0  0  0  0
  -22.0589   22.4050   25.2704 H   0  0  0  0  0
  -23.0606   25.0474   29.8440 H   0  0  0  0  0
  -24.0114   20.3594   28.5132 H   0  0  0  0  0
  -22.9269   21.8970   30.1141 H   0  0  0  0  0
  -18.3699   24.8241   31.2254 H   0  0  0  0  0
  -24.9306   18.5581   25.5805 H   0  0  0  0  0
  -24.4107   18.9098   27.2319 H   0  0  0  0  0
  -22.3187   27.6668   36.0505 H   0  0  0  0  0
  -18.1756   23.0531   29.8732 H   0  0  0  0  0
  -21.6204   29.8609   36.8968 H   0  0  0  0  0
  -21.9615   34.1303   35.1018 H   0  0  0  0  0
  -21.6468   32.8399   33.9156 H   0  0  0  0  0
  -23.0498   33.9168   33.7086 H   0  0  0  0  0
  -20.9687   23.9276   26.8843 H   0  0  0  0  0
  -23.6597   31.7303   34.5272 H   0  0  0  0  0
  -23.9888   33.0801   35.7680 H   0  0  0  0  0
  -22.0456   31.0630   33.4785 H   0  0  0  0  0
  -19.8175   26.5888   32.1968 H   0  0  0  0  0
  1  5  4  0  0  0
 22  1  4  0  0  0
  4  2  1  0  0  0
  2  7  4  0  0  0
  2 22  4  0  0  0
  3  4  4  0  0  0
 10  3  4  0  0  0
  4  8  4  0  0  0
  6  5  4  0  0  0
  5 23  1  0  0  0
  7  6  4  0  0  0
  9  8  4  0  0  0
  8 16  1  0  0  0
 30  9  4  0  0  0
 19 10  1  0  0  0
 10 30  4  0  0  0
 23 11  1  0  0  0
 15 12  4  0  0  0
 12 19  1  0  0  0
 24 12  4  0  0  0
 23 13  2  0  0  0
 14 15  4  0  0  0
 21 14  4  0  0  0
 15 29  1  0  0  0
 17 21  1  0  0  0
 26 17  1  0  0  0
 26 18  2  0  0  0
 25 20  1  0  0  0
 21 27  4  0  0  0
 27 24  4  0  0  0
 24 28  1  0  0  0
 25 26  1  0  0  0
  1 31  1  0  0  0
  3 32  1  0  0  0
  6 33  1  0  0  0
  7 34  1  0  0  0
  9 35  1  0  0  0
 11 36  1  0  0  0
 11 37  1  0  0  0
 14 38  1  0  0  0
 16 39  1  0  0  0
 17 40  1  0  0  0
 20 41  1  0  0  0
 20 42  1  0  0  0
 20 43  1  0  0  0
 22 44  1  0  0  0
 25 45  1  0  0  0
 25 46  1  0  0  0
 27 47  1  0  0  0
 30 48  1  0  0  0
M  END
$$$$
