6q9o_ligand
  -I-interpret- 

 68 72  0  0  0  0  0  0  0  0999 V2000
   10.8620    4.1560   15.1310 C   0  0  0  0  0
   10.4070    4.0050   13.8210 C   0  0  0  0  0
   13.9920    5.3730   10.5130 C   0  0  0  0  0
   13.3910    4.6140    9.5080 C   0  0  0  0  0
   12.0720    4.8730    9.1330 C   0  0  0  0  0
   11.3420    5.8920    9.7510 C   0  0  0  0  0
   13.9080    7.2000   12.2790 C   0  0  0  0  0
   15.3420    7.5510   12.0970 C   0  0  0  0  0
   16.8340    9.5130   11.7810 C   0  0  0  0  0
   16.5650   10.9870   11.3920 C   0  0  0  0  0
   10.5850    7.6010   12.5680 C   0  0  0  0  0
   10.9950    8.9130   10.9030 C   0  0  0  0  0
    9.9890    8.7960   12.8450 C   0  0  0  0  0
    9.1150    9.2660   13.9250 C   0  0  0  0  0
   11.5080    9.4100    9.5600 C   0  0  0  0  0
   10.8800   10.7800    9.1770 C   0  0  0  0  0
   11.3250   11.1670    7.7430 C   0  0  0  0  0
   12.8670   11.2330    7.6530 C   0  0  0  0  0
   10.9510    3.0720   15.9130 F   0  0  0  0  0
   10.2960    5.1120   12.9820 C   0  0  0  0  0
   10.6560    6.3750   13.4500 C   0  0  0  0  0
   11.1540    6.5080   14.7530 C   0  0  0  0  0
   11.2500    5.4030   15.6040 C   0  0  0  0  0
   11.2140    7.6830   11.3860 N   0  0  0  0  0
   10.3010    9.6040   11.7130 N   0  0  0  0  0
    8.5230    8.4600   14.7610 N   0  0  0  0  0
    7.7610    9.2340   15.5390 N   0  0  0  0  0
    7.8750   10.4930   15.1250 N   0  0  0  0  0
    8.7540   10.5000   14.0280 N   0  0  0  0  0
   13.4990    9.8840    8.0660 C   0  0  0  0  0
   13.0600    9.4850    9.4970 C   0  0  0  0  0
   11.9490    6.6640   10.7700 C   0  0  0  0  0
   13.2680    6.3930   11.1590 C   0  0  0  0  0
   11.3170    3.8750    7.9310 Cl  0  0  0  0  0
   16.2170    6.6910   12.1470 O   0  0  0  0  0
   15.5280    8.8580   11.8870 N   0  0  0  0  0
   17.4930    9.4950   13.1930 C   0  0  0  0  0
   17.7580    8.8710   10.7130 C   0  0  0  0  0
    9.9460    2.4330   13.2750 Cl  0  0  0  0  0
   15.0252    5.1755   10.7987 H   0  0  0  0  0
   13.9516    3.8191    9.0161 H   0  0  0  0  0
   10.3132    6.0906    9.4505 H   0  0  0  0  0
   13.3660    8.1447   12.3222 H   0  0  0  0  0
   13.8577    6.5762   13.1714 H   0  0  0  0  0
   16.0368   11.0194   10.4391 H   0  0  0  0  0
   15.9560   11.4595   12.1627 H   0  0  0  0  0
   17.5135   11.5164   11.3013 H   0  0  0  0  0
   11.1918    8.6684    8.8264 H   0  0  0  0  0
   11.2138   11.5430    9.8803 H   0  0  0  0  0
    9.7932   10.7053    9.2133 H   0  0  0  0  0
   10.9140   12.1461    7.4971 H   0  0  0  0  0
   10.9617   10.4134    7.0443 H   0  0  0  0  0
   13.2256   12.0104    8.3277 H   0  0  0  0  0
   13.1500   11.4533    6.6237 H   0  0  0  0  0
    9.9288    4.9909   11.9629 H   0  0  0  0  0
   11.4715    7.4882   15.1086 H   0  0  0  0  0
   11.6231    5.5181   16.6217 H   0  0  0  0  0
   14.5842    9.9841    8.0467 H   0  0  0  0  0
   13.1683    9.1135    7.3696 H   0  0  0  0  0
   13.4817    8.5119    9.7487 H   0  0  0  0  0
   13.4173   10.2299   10.2080 H   0  0  0  0  0
   14.6979    9.4434   11.7935 H   0  0  0  0  0
   18.4294   10.0521   13.1626 H   0  0  0  0  0
   16.8176    9.9561   13.9137 H   0  0  0  0  0
   17.6913    8.4643   13.4869 H   0  0  0  0  0
   17.2693    8.9122    9.7396 H   0  0  0  0  0
   18.6992    9.4192   10.6719 H   0  0  0  0  0
   17.9524    7.8322   10.9798 H   0  0  0  0  0
  2  1  4  0  0  0
  1 19  1  0  0  0
 23  1  4  0  0  0
 20  2  4  0  0  0
  2 39  1  0  0  0
  4  3  4  0  0  0
  3 33  4  0  0  0
  5  4  4  0  0  0
  6  5  4  0  0  0
  5 34  1  0  0  0
 32  6  4  0  0  0
  7  8  1  0  0  0
 33  7  1  0  0  0
  8 35  2  0  0  0
  8 36  1  0  0  0
  9 10  1  0  0  0
 36  9  1  0  0  0
  9 37  1  0  0  0
  9 38  1  0  0  0
 11 13  4  0  0  0
 11 21  1  0  0  0
 24 11  4  0  0  0
 12 15  1  0  0  0
 24 12  4  0  0  0
 12 25  4  0  0  0
 13 14  1  0  0  0
 25 13  4  0  0  0
 14 26  4  0  0  0
 14 29  4  0  0  0
 15 16  1  0  0  0
 15 31  1  0  0  0
 16 17  1  0  0  0
 17 18  1  0  0  0
 18 30  1  0  0  0
 21 20  4  0  0  0
 21 22  4  0  0  0
 22 23  4  0  0  0
 24 32  1  0  0  0
 26 27  4  0  0  0
 27 28  4  0  0  0
 28 29  4  0  0  0
 30 31  1  0  0  0
 32 33  4  0  0  0
  3 40  1  0  0  0
  4 41  1  0  0  0
  6 42  1  0  0  0
  7 43  1  0  0  0
  7 44  1  0  0  0
 10 45  1  0  0  0
 10 46  1  0  0  0
 10 47  1  0  0  0
 15 48  1  0  0  0
 16 49  1  0  0  0
 16 50  1  0  0  0
 17 51  1  0  0  0
 17 52  1  0  0  0
 18 53  1  0  0  0
 18 54  1  0  0  0
 20 55  1  0  0  0
 22 56  1  0  0  0
 23 57  1  0  0  0
 30 58  1  0  0  0
 30 59  1  0  0  0
 31 60  1  0  0  0
 31 61  1  0  0  0
 36 62  1  0  0  0
 37 63  1  0  0  0
 37 64  1  0  0  0
 37 65  1  0  0  0
 38 66  1  0  0  0
 38 67  1  0  0  0
 38 68  1  0  0  0
M  END
$$$$
