4qo9_ligand
  -I-interpret- 

 65 69  0  0  0  0  0  0  0  0999 V2000
  -10.1220    5.7430  -13.7150 N   0  0  0  0  0
  -12.5590    6.1570  -11.1790 N   0  0  0  0  0
  -10.5490    6.9970  -10.3700 C   0  0  0  0  0
  -11.9310    6.7280  -10.1520 N   0  0  0  0  0
   -9.8150    7.5130   -9.5050 N   0  0  0  0  0
   -8.4920    7.6820   -9.4990 C   0  0  0  0  0
   -7.7490    8.2690   -8.4570 C   0  0  0  0  0
   -7.7930    7.3050  -10.4670 O   0  0  0  0  0
   -8.3220    9.2570   -7.6190 C   0  0  0  0  0
   -7.5670    9.8460   -6.5830 C   0  0  0  0  0
   -5.6560    8.4680   -7.1920 C   0  0  0  0  0
   -6.4060    7.8840   -8.2260 C   0  0  0  0  0
  -11.7740    6.0190  -12.0410 C   0  0  0  0  0
  -10.3520    6.5990  -11.5170 C   0  0  0  0  0
   -9.4060    6.4540  -12.5310 C   0  0  0  0  0
  -11.6270    5.5430  -13.3730 C   0  0  0  0  0
   -5.5270   10.0640   -5.3110 N   0  0  0  0  0
   -4.4930    9.3700   -4.5740 C   0  0  0  0  0
   -5.0640    8.8540   -3.1960 C   0  0  0  0  0
   -5.7950    9.9420   -2.4390 N   0  3  0  0  0
   -6.8070   10.6280   -3.2930 C   0  0  0  0  0
   -6.1350   11.1730   -4.5880 C   0  0  0  0  0
   -6.4250    9.4470   -1.1510 C   0  0  0  0  0
   -6.2300    9.4700   -6.3420 C   0  0  0  0  0
   -9.4160    5.4060  -15.1720 C   0  0  0  0  0
  -10.1520    4.8740  -16.0450 O   0  0  0  0  0
   -7.2450    4.7680  -14.7270 C   0  0  0  0  0
   -6.3380    5.2210  -13.8440 C   0  0  0  0  0
   -7.3220    3.3240  -14.9570 C   0  0  0  0  0
   -5.4830    4.3210  -13.1570 C   0  0  0  0  0
   -6.4940    2.4560  -14.3010 C   0  0  0  0  0
   -8.1490    5.6690  -15.4410 C   0  0  0  0  0
   -5.5710    2.9290  -13.3900 C   0  0  0  0  0
   -6.6260    6.3340  -17.2680 C   0  0  0  0  0
   -7.8950    5.7010  -16.8620 O   0  0  0  0  0
  -10.2993    7.8583   -8.6763 H   0  0  0  0  0
   -9.3557    9.5650   -7.7761 H   0  0  0  0  0
   -8.0277   10.6086   -5.9551 H   0  0  0  0  0
   -4.6239    8.1554   -7.0336 H   0  0  0  0  0
   -5.9481    7.1241   -8.8592 H   0  0  0  0  0
   -9.0168    7.4242  -12.8397 H   0  0  0  0  0
   -8.5540    5.8686  -12.1854 H   0  0  0  0  0
  -11.9236    4.4979  -13.4612 H   0  0  0  0  0
  -12.2718    6.0832  -14.0662 H   0  0  0  0  0
   -3.6666   10.0552   -4.3851 H   0  0  0  0  0
   -4.1462    8.5184   -5.1593 H   0  0  0  0  0
   -4.2259    8.5190   -2.5849 H   0  0  0  0  0
   -5.7700    8.0492   -3.4006 H   0  0  0  0  0
   -5.0828   10.6241   -2.1783 H   0  0  0  0  0
   -7.2387   11.4602   -2.7370 H   0  0  0  0  0
   -7.5853    9.9157   -3.5669 H   0  0  0  0  0
   -6.8848   11.6538   -5.2163 H   0  0  0  0  0
   -5.3698   11.9034   -4.3251 H   0  0  0  0  0
   -7.1445    8.6605   -1.3788 H   0  0  0  0  0
   -5.6481    9.0520   -0.4964 H   0  0  0  0  0
   -6.9335   10.2740   -0.6555 H   0  0  0  0  0
   -6.2587    6.2913  -13.6538 H   0  0  0  0  0
   -8.0534    2.9336  -15.6647 H   0  0  0  0  0
   -4.7531    4.7053  -12.4445 H   0  0  0  0  0
   -6.5630    1.3862  -14.4982 H   0  0  0  0  0
   -7.9406    6.6728  -15.0708 H   0  0  0  0  0
   -4.9180    2.2380  -12.8568 H   0  0  0  0  0
   -6.6140    7.3703  -16.9302 H   0  0  0  0  0
   -5.7923    5.7944  -16.8188 H   0  0  0  0  0
   -6.5374    6.3035  -18.3540 H   0  0  0  0  0
  1 15  1  0  0  0
  1 16  1  0  0  0
 25  1  1  0  0  0
  2  4  4  0  0  0
 13  2  4  0  0  0
  3  4  4  0  0  0
  3  5  1  0  0  0
 14  3  4  0  0  0
  5  6  1  0  0  0
  6  7  1  0  0  0
  6  8  2  0  0  0
  7  9  4  0  0  0
  7 12  4  0  0  0
  9 10  4  0  0  0
 10 24  4  0  0  0
 12 11  4  0  0  0
 11 24  4  0  0  0
 13 14  4  0  0  0
 16 13  1  0  0  0
 15 14  1  0  0  0
 17 18  1  0  0  0
 17 22  1  0  0  0
 24 17  1  0  0  0
 18 19  1  0  0  0
 19 20  1  0  0  0
 21 20  1  0  0  0
 20 23  1  0  0  0
 22 21  1  0  0  0
 25 26  2  0  0  0
 32 25  1  0  0  0
 27 28  4  0  0  0
 27 29  4  0  0  0
 27 32  1  0  0  0
 28 30  4  0  0  0
 29 31  4  0  0  0
 30 33  4  0  0  0
 31 33  4  0  0  0
 32 35  1  0  0  0
 35 34  1  0  0  0
  5 36  1  0  0  0
  9 37  1  0  0  0
 10 38  1  0  0  0
 11 39  1  0  0  0
 12 40  1  0  0  0
 15 41  1  0  0  0
 15 42  1  0  0  0
 16 43  1  0  0  0
 16 44  1  0  0  0
 18 45  1  0  0  0
 18 46  1  0  0  0
 19 47  1  0  0  0
 19 48  1  0  0  0
 20 49  1  0  0  0
 21 50  1  0  0  0
 21 51  1  0  0  0
 22 52  1  0  0  0
 22 53  1  0  0  0
 23 54  1  0  0  0
 23 55  1  0  0  0
 23 56  1  0  0  0
 28 57  1  0  0  0
 29 58  1  0  0  0
 30 59  1  0  0  0
 31 60  1  0  0  0
 32 61  1  0  0  0
 33 62  1  0  0  0
 34 63  1  0  0  0
 34 64  1  0  0  0
 34 65  1  0  0  0
M  END
$$$$
