2wxn_ligand
  -I-interpret- 

 37 39  0  0  0  0  0  0  0  0999 V2000
    6.9700   -3.0320  -23.8510 C   0  0  0  0  0
    5.8570   -1.9700  -23.8410 C   0  0  0  0  0
    4.5950   -2.4140  -24.5800 C   0  0  0  0  0
    6.3940   -0.6710  -24.3200 N   0  0  0  0  0
    7.5340   -0.3280  -23.9720 N   0  0  0  0  0
    5.7880    0.3200  -25.0250 C   0  0  0  0  0
    4.5650    0.5180  -25.5790 N   0  0  0  0  0
    4.2970    1.6600  -26.2690 C   0  0  0  0  0
    5.1800    2.6850  -26.3400 N   0  0  0  0  0
    6.4050    2.5200  -25.7720 C   0  0  0  0  0
    7.3300    3.4240  -25.8510 N   0  0  0  0  0
    6.7170    1.3510  -25.1220 C   0  0  0  0  0
   10.0730    2.1020  -24.1050 C   0  0  0  0  0
   11.4180    2.5300  -24.0440 C   0  0  0  0  0
   12.1460    2.2050  -22.9390 C   0  0  0  0  0
   12.0050    3.1930  -25.1250 C   0  0  0  0  0
   13.3420    3.6060  -25.0980 C   0  0  0  0  0
   14.0580    3.3080  -23.9720 C   0  0  0  0  0
   13.4720    2.6040  -22.9060 C   0  0  0  0  0
   14.2300    2.2930  -21.7910 O   0  0  0  0  0
    7.8070    0.9000  -24.4410 C   0  0  0  0  0
    8.9980    1.6130  -24.2600 C   0  0  0  0  0
    7.3479   -3.1508  -24.8665 H   0  0  0  0  0
    7.7804   -2.7134  -23.1953 H   0  0  0  0  0
    6.5675   -3.9816  -23.4983 H   0  0  0  0  0
    5.5281   -1.8355  -22.8106 H   0  0  0  0  0
    3.8139   -1.6659  -24.4444 H   0  0  0  0  0
    4.8163   -2.5218  -25.6419 H   0  0  0  0  0
    4.2579   -3.3698  -24.1789 H   0  0  0  0  0
    3.3397    1.7531  -26.7818 H   0  0  0  0  0
    7.1511    4.2944  -26.3518 H   0  0  0  0  0
    8.2371    3.2652  -25.4123 H   0  0  0  0  0
   11.7014    1.6516  -22.1118 H   0  0  0  0  0
   11.4056    3.3939  -26.0130 H   0  0  0  0  0
   13.7913    4.1401  -25.9353 H   0  0  0  0  0
   15.0995    3.6213  -23.8999 H   0  0  0  0  0
   15.1215    2.6295  -21.9075 H   0  0  0  0  0
  2  1  1  0  0  0
  2  3  1  0  0  0
  4  2  1  0  0  0
  5  4  4  0  0  0
  6  4  4  0  0  0
 21  5  4  0  0  0
  6  7  4  0  0  0
 12  6  4  0  0  0
  7  8  4  0  0  0
  9  8  4  0  0  0
 10  9  4  0  0  0
 10 11  1  0  0  0
 12 10  4  0  0  0
 21 12  4  0  0  0
 13 14  1  0  0  0
 22 13  3  0  0  0
 14 15  4  0  0  0
 14 16  4  0  0  0
 15 19  4  0  0  0
 16 17  4  0  0  0
 17 18  4  0  0  0
 19 18  4  0  0  0
 19 20  1  0  0  0
 21 22  1  0  0  0
  1 23  1  0  0  0
  1 24  1  0  0  0
  1 25  1  0  0  0
  2 26  1  0  0  0
  3 27  1  0  0  0
  3 28  1  0  0  0
  3 29  1  0  0  0
  8 30  1  0  0  0
 11 31  1  0  0  0
 11 32  1  0  0  0
 15 33  1  0  0  0
 16 34  1  0  0  0
 17 35  1  0  0  0
 18 36  1  0  0  0
 20 37  1  0  0  0
M  END
$$$$
