5fum_ligand
  -I-interpret- 

 65 68  0  0  0  0  0  0  0  0999 V2000
   34.8190   23.2690    7.8100 O   0  0  0  0  0
   34.0220   22.9550    8.9830 C   0  0  0  0  0
   32.7000   22.1220    8.7530 C   0  0  0  0  0
   32.6990   21.3410    7.7660 O   0  0  0  0  0
   31.5600   22.1830    9.5750 N   0  0  0  0  0
   31.4520   23.0600   10.7760 C   0  0  0  0  0
   30.2280   22.9350   11.7330 C   0  0  0  0  0
   28.8940   22.5260   11.0890 C   0  0  0  0  0
   28.1190   21.4790   11.8810 N   0  3  0  0  0
   28.7180   20.1200   11.9040 C   0  0  0  0  0
   28.4690   19.1820   13.1080 C   0  0  0  0  0
   27.6680   19.7450   14.2730 N   0  3  0  0  0
   27.0670   21.0740   14.1890 C   0  0  0  0  0
   27.7530   21.9930   13.2330 C   0  0  0  0  0
   26.6360   18.7900   14.7970 C   0  0  0  0  0
   27.3090   18.0780   15.9570 C   0  0  0  0  0
   29.0480   22.0740    9.6260 C   0  0  0  0  0
   30.3700   21.3780    9.3120 C   0  0  0  0  0
   35.9530   24.1010    7.9170 C   0  0  0  0  0
   36.7800   24.3460    6.7970 C   0  0  0  0  0
   37.9390   25.1970    6.8790 C   0  0  0  0  0
   38.3220   25.8340    8.0690 C   0  0  0  0  0
   37.4750   25.5810    9.1770 C   0  0  0  0  0
   36.3200   24.7380    9.1190 C   0  0  0  0  0
   39.5330   26.7350    8.1400 C   0  0  0  0  0
   40.7350   26.3460    8.7720 C   0  0  0  0  0
   41.8620   27.2020    8.8400 C   0  0  0  0  0
   41.8020   28.4850    8.2670 C   0  0  0  0  0
   40.6140   28.8970    7.6340 C   0  0  0  0  0
   39.4980   28.0300    7.5770 C   0  0  0  0  0
   33.7013   23.9143    9.3892 H   0  0  0  0  0
   34.6570   22.3350    9.6158 H   0  0  0  0  0
   31.3745   24.0680   10.3684 H   0  0  0  0  0
   32.3065   22.7806   11.3923 H   0  0  0  0  0
   30.0692   23.9288   12.1517 H   0  0  0  0  0
   30.4771   22.1439   12.4403 H   0  0  0  0  0
   28.3041   23.4425   11.1045 H   0  0  0  0  0
   27.2553   21.3282   11.3598 H   0  0  0  0  0
   29.7934   20.2976   11.9162 H   0  0  0  0  0
   28.2577   19.6063   11.0600 H   0  0  0  0  0
   29.4546   18.9493   13.5111 H   0  0  0  0  0
   27.8816   18.3503   12.7191 H   0  0  0  0  0
   28.4473   19.8766   14.9177 H   0  0  0  0  0
   27.1403   21.5246   15.1788 H   0  0  0  0  0
   26.0445   20.9440   13.8345 H   0  0  0  0  0
   27.0371   22.7936   13.0470 H   0  0  0  0  0
   28.7024   22.2389   13.7087 H   0  0  0  0  0
   26.3086   18.0891   14.0291 H   0  0  0  0  0
   25.7306   19.3083   15.1128 H   0  0  0  0  0
   28.1945   17.5548   15.5960 H   0  0  0  0  0
   27.5997   18.8093   16.7111 H   0  0  0  0  0
   26.6142   17.3605   16.3936 H   0  0  0  0  0
   29.0068   22.9719    9.0095 H   0  0  0  0  0
   28.2544   21.3528    9.4305 H   0  0  0  0  0
   30.4295   20.5025    9.9586 H   0  0  0  0  0
   30.3663   21.1558    8.2449 H   0  0  0  0  0
   36.5335   23.8775    5.8442 H   0  0  0  0  0
   38.5408   25.3519    5.9835 H   0  0  0  0  0
   37.7173   26.0558   10.1278 H   0  0  0  0  0
   35.7175   24.5870   10.0147 H   0  0  0  0  0
   40.7975   25.3552    9.2219 H   0  0  0  0  0
   42.7734   26.8670    9.3352 H   0  0  0  0  0
   42.6635   29.1512    8.3124 H   0  0  0  0  0
   40.5539   29.8887    7.1857 H   0  0  0  0  0
   38.5865   28.3702    7.0855 H   0  0  0  0  0
  1  2  1  0  0  0
  1 19  1  0  0  0
  2  3  1  0  0  0
  3  4  2  0  0  0
  3  5  1  0  0  0
  5  6  1  0  0  0
  5 18  1  0  0  0
  6  7  1  0  0  0
  7  8  1  0  0  0
  8  9  1  0  0  0
  8 17  1  0  0  0
  9 10  1  0  0  0
  9 14  1  0  0  0
 10 11  1  0  0  0
 11 12  1  0  0  0
 12 13  1  0  0  0
 12 15  1  0  0  0
 13 14  1  0  0  0
 15 16  1  0  0  0
 17 18  1  0  0  0
 19 20  4  0  0  0
 19 24  4  0  0  0
 20 21  4  0  0  0
 21 22  4  0  0  0
 22 23  4  0  0  0
 22 25  1  0  0  0
 23 24  4  0  0  0
 25 26  4  0  0  0
 25 30  4  0  0  0
 26 27  4  0  0  0
 27 28  4  0  0  0
 28 29  4  0  0  0
 29 30  4  0  0  0
  2 31  1  0  0  0
  2 32  1  0  0  0
  6 33  1  0  0  0
  6 34  1  0  0  0
  7 35  1  0  0  0
  7 36  1  0  0  0
  8 37  1  0  0  0
  9 38  1  0  0  0
 10 39  1  0  0  0
 10 40  1  0  0  0
 11 41  1  0  0  0
 11 42  1  0  0  0
 12 43  1  0  0  0
 13 44  1  0  0  0
 13 45  1  0  0  0
 14 46  1  0  0  0
 14 47  1  0  0  0
 15 48  1  0  0  0
 15 49  1  0  0  0
 16 50  1  0  0  0
 16 51  1  0  0  0
 16 52  1  0  0  0
 17 53  1  0  0  0
 17 54  1  0  0  0
 18 55  1  0  0  0
 18 56  1  0  0  0
 20 57  1  0  0  0
 21 58  1  0  0  0
 23 59  1  0  0  0
 24 60  1  0  0  0
 26 61  1  0  0  0
 27 62  1  0  0  0
 28 63  1  0  0  0
 29 64  1  0  0  0
 30 65  1  0  0  0
M  END
$$$$
