3sl8_ligand
  -I-interpret- 

 57 60  0  0  0  0  0  0  0  0999 V2000
   72.0580   -9.3670   29.6650 C   0  0  0  0  0
   71.7730  -10.0400   28.2930 C   0  0  0  0  0
   72.0160   -9.1480   27.1720 N   0  0  0  0  0
   71.2150   -7.9180   27.0990 C   0  0  0  0  0
   71.3320   -7.1430   28.4070 C   0  0  0  0  0
   71.7610   -7.8480   29.6770 C   0  0  0  0  0
   71.1130   -5.5850   28.7230 S   0  0  0  0  0
   71.4400   -5.3840   30.3680 C   0  0  0  0  0
   71.8260   -6.7130   30.9490 C   0  0  0  0  0
   73.2510   -9.0580   26.4110 C   0  0  0  0  0
   73.5880   -7.9720   25.8530 O   0  0  0  0  0
   74.0860  -10.0170   26.5060 O   0  0  0  0  0
   75.2290  -10.1000   25.7260 C   0  0  0  0  0
   76.3030  -11.0340   26.1880 C   0  0  0  0  0
   72.2140   -6.9000   32.4040 C   0  0  0  0  0
   71.4180   -4.1500   31.1270 N   0  0  0  0  0
   71.4240   -2.8130   30.5780 C   0  0  0  0  0
   71.4890   -1.7000   31.5820 C   0  0  0  0  0
   71.7690   -2.1030   33.0110 C   0  0  0  0  0
   73.1950   -2.6440   33.6470 S   0  0  0  0  0
   72.9270   -2.9530   35.2140 C   0  0  0  0  0
   71.4600   -2.6310   35.5340 C   0  0  0  0  0
   70.7260   -2.0990   34.1610 C   0  0  0  0  0
   71.0760   -2.5890   29.4310 O   0  0  0  0  0
   72.0200   -7.9490   33.1080 O   0  0  0  0  0
   72.5510   -5.8680   33.0380 O   0  0  0  0  0
   71.8820   -9.2350   32.6060 C   0  0  0  0  0
   70.7440  -10.1180   33.1510 C   0  0  0  0  0
   71.3820  -11.4670   33.5570 C   0  0  0  0  0
   72.6660  -11.5620   32.7340 C   0  0  0  0  0
   73.1220  -10.1240   32.5270 C   0  0  0  0  0
   73.1185   -9.4965   29.8808 H   0  0  0  0  0
   71.4064   -9.8353   30.4027 H   0  0  0  0  0
   70.7216  -10.3266   28.2719 H   0  0  0  0  0
   72.4423  -10.8945   28.1930 H   0  0  0  0  0
   70.1706   -8.1791   26.9284 H   0  0  0  0  0
   71.5817   -7.2986   26.2805 H   0  0  0  0  0
   75.6733   -9.1048   25.7437 H   0  0  0  0  0
   74.9011  -10.4801   24.7585 H   0  0  0  0  0
   76.6452  -10.7311   27.1776 H   0  0  0  0  0
   75.9058  -12.0480   26.2341 H   0  0  0  0  0
   77.1376  -11.0009   25.4876 H   0  0  0  0  0
   71.3963   -4.2325   32.1434 H   0  0  0  0  0
   70.5027   -1.2361   31.5852 H   0  0  0  0  0
   72.3206   -1.0646   31.2773 H   0  0  0  0  0
   73.6651   -3.3272   35.9234 H   0  0  0  0  0
   70.9841   -2.7372   36.5088 H   0  0  0  0  0
   69.6829   -1.7949   34.0735 H   0  0  0  0  0
   71.6224   -8.8908   31.6049 H   0  0  0  0  0
   69.9720  -10.2657   32.3959 H   0  0  0  0  0
   70.2609   -9.6445   34.0057 H   0  0  0  0  0
   70.7135  -12.3051   33.3601 H   0  0  0  0  0
   71.5843  -11.5119   34.6271 H   0  0  0  0  0
   72.4955  -12.0682   31.7839 H   0  0  0  0  0
   73.4260  -12.1529   33.2453 H   0  0  0  0  0
   73.8454   -9.8391   33.2910 H   0  0  0  0  0
   73.6097  -10.0138   31.5585 H   0  0  0  0  0
  1  2  1  0  0  0
  1  6  1  0  0  0
  2  3  1  0  0  0
  3  4  1  0  0  0
  3 10  1  0  0  0
  4  5  1  0  0  0
  5  6  4  0  0  0
  5  7  4  0  0  0
  6  9  4  0  0  0
  7  8  4  0  0  0
  8  9  4  0  0  0
  8 16  1  0  0  0
  9 15  1  0  0  0
 10 11  2  0  0  0
 10 12  1  0  0  0
 12 13  1  0  0  0
 13 14  1  0  0  0
 15 25  1  0  0  0
 15 26  2  0  0  0
 16 17  1  0  0  0
 17 18  1  0  0  0
 17 24  2  0  0  0
 18 19  1  0  0  0
 19 20  4  0  0  0
 19 23  4  0  0  0
 20 21  4  0  0  0
 21 22  4  0  0  0
 22 23  4  0  0  0
 25 27  1  0  0  0
 27 28  1  0  0  0
 27 31  1  0  0  0
 28 29  1  0  0  0
 29 30  1  0  0  0
 30 31  1  0  0  0
  1 32  1  0  0  0
  1 33  1  0  0  0
  2 34  1  0  0  0
  2 35  1  0  0  0
  4 36  1  0  0  0
  4 37  1  0  0  0
 13 38  1  0  0  0
 13 39  1  0  0  0
 14 40  1  0  0  0
 14 41  1  0  0  0
 14 42  1  0  0  0
 16 43  1  0  0  0
 18 44  1  0  0  0
 18 45  1  0  0  0
 21 46  1  0  0  0
 22 47  1  0  0  0
 23 48  1  0  0  0
 27 49  1  0  0  0
 28 50  1  0  0  0
 28 51  1  0  0  0
 29 52  1  0  0  0
 29 53  1  0  0  0
 30 54  1  0  0  0
 30 55  1  0  0  0
 31 56  1  0  0  0
 31 57  1  0  0  0
M  END
$$$$
