5q18_ligand
  -I-interpret- 

 72 76  0  0  0  0  0  0  0  0999 V2000
   12.8800   24.4010    3.8780 N   0  0  0  0  0
   12.8220   25.9680    2.2420 N   0  0  0  0  0
   11.5620   24.9060    3.8340 C   0  0  0  0  0
   11.5660   25.8710    2.8290 C   0  0  0  0  0
   12.4750   22.0720    4.5920 C   0  0  0  0  0
   13.4120   23.3160    4.7570 C   0  0  0  0  0
   10.4270   24.6140    4.5820 C   0  0  0  0  0
   10.3990   26.5760    2.5410 C   0  0  0  0  0
    9.2770   26.2850    3.2790 C   0  0  0  0  0
   16.0240   25.2120    3.5900 C   0  0  0  0  0
   11.6920   20.4030    2.9300 C   0  0  0  0  0
   10.1150   18.8460    0.9440 C   0  0  0  0  0
   12.3840   19.6630    1.7930 C   0  0  0  0  0
   11.5580   18.4580    1.2910 C   0  0  0  0  0
   17.0480   24.3220    3.9360 C   0  0  0  0  0
   15.1090   23.0510    0.8990 C   0  0  0  0  0
   15.0790   23.3850    2.2840 O   0  0  0  0  0
   15.0130   24.8400    2.5390 C   0  0  0  0  0
   13.5670   25.0890    2.8770 C   0  0  0  0  0
    8.1260   26.9510    3.0290 F   0  0  0  0  0
    9.2880   25.3310    4.2750 C   0  0  0  0  0
    8.1500   25.0950    4.9600 F   0  0  0  0  0
   13.8840   23.7180    6.1970 C   0  0  0  0  0
   13.2900   25.0290    6.7050 C   0  0  0  0  0
   13.9640   25.4790    8.0130 C   0  0  0  0  0
   13.8430   24.4150    9.1100 C   0  0  0  0  0
   14.3470   23.0050    8.6220 C   0  0  0  0  0
   13.7260   22.6060    7.2390 C   0  0  0  0  0
   11.7980   21.6310    5.5150 O   0  0  0  0  0
   12.4760   21.5530    3.3510 N   0  0  0  0  0
    9.3340   17.6560    0.6900 O   0  0  0  0  0
    9.4570   19.6420    2.0850 C   0  0  0  0  0
   10.3110   20.8400    2.5000 C   0  0  0  0  0
   15.9680   26.4450    4.2330 C   0  0  0  0  0
   16.9070   26.7800    5.1990 C   0  0  0  0  0
   17.9130   25.8920    5.5360 C   0  0  0  0  0
   17.9850   24.6640    4.9050 C   0  0  0  0  0
   14.4064   23.0295    4.4147 H   0  0  0  0  0
   10.4360   23.8595    5.3686 H   0  0  0  0  0
   10.3769   27.3327    1.7568 H   0  0  0  0  0
   11.6010   19.7239    3.7777 H   0  0  0  0  0
   10.1454   19.4741    0.0537 H   0  0  0  0  0
   13.3381   19.2886    2.1639 H   0  0  0  0  0
   12.5080   20.3581    0.9626 H   0  0  0  0  0
   12.0323   18.0757    0.3871 H   0  0  0  0  0
   11.5262   17.7143    2.0873 H   0  0  0  0  0
   17.1113   23.3527    3.4416 H   0  0  0  0  0
   14.2068   23.4268    0.4163 H   0  0  0  0  0
   15.9858   23.5040    0.4362 H   0  0  0  0  0
   15.1572   21.9677    0.7888 H   0  0  0  0  0
   15.2860   25.4794    1.6995 H   0  0  0  0  0
   14.9537   23.8842    6.0696 H   0  0  0  0  0
   12.2278   24.8772    6.8966 H   0  0  0  0  0
   13.4506   25.7982    5.9496 H   0  0  0  0  0
   13.4692   26.3864    8.3593 H   0  0  0  0  0
   15.0223   25.6469    7.8133 H   0  0  0  0  0
   12.7917   24.3254    9.3836 H   0  0  0  0  0
   14.4594   24.7240    9.9542 H   0  0  0  0  0
   14.0444   22.2610    9.3589 H   0  0  0  0  0
   15.4302   23.0505    8.5089 H   0  0  0  0  0
   14.2466   21.7205    6.8743 H   0  0  0  0  0
   12.6612   22.4229    7.3835 H   0  0  0  0  0
   13.0711   21.9995    2.6532 H   0  0  0  0  0
    8.4328   17.9062    0.4737 H   0  0  0  0  0
    9.3466   18.9828    2.9460 H   0  0  0  0  0
    8.4924   20.0108    1.7362 H   0  0  0  0  0
   10.4081   21.5107    1.6463 H   0  0  0  0  0
    9.8266   21.3388    3.3394 H   0  0  0  0  0
   15.1805   27.1534    3.9760 H   0  0  0  0  0
   16.8514   27.7489    5.6952 H   0  0  0  0  0
   18.6465   26.1597    6.2966 H   0  0  0  0  0
   18.7773   23.9629    5.1674 H   0  0  0  0  0
  1  3  4  0  0  0
  1  6  1  0  0  0
 19  1  4  0  0  0
  2  4  4  0  0  0
 19  2  4  0  0  0
  4  3  4  0  0  0
  3  7  4  0  0  0
  4  8  4  0  0  0
  6  5  1  0  0  0
  5 29  2  0  0  0
  5 30  1  0  0  0
  6 23  1  0  0  0
  7 21  4  0  0  0
  8  9  4  0  0  0
  9 20  1  0  0  0
  9 21  4  0  0  0
 10 15  4  0  0  0
 18 10  1  0  0  0
 10 34  4  0  0  0
 11 13  1  0  0  0
 30 11  1  0  0  0
 11 33  1  0  0  0
 14 12  1  0  0  0
 12 31  1  0  0  0
 12 32  1  0  0  0
 13 14  1  0  0  0
 15 37  4  0  0  0
 17 16  1  0  0  0
 18 17  1  0  0  0
 18 19  1  0  0  0
 21 22  1  0  0  0
 23 24  1  0  0  0
 23 28  1  0  0  0
 24 25  1  0  0  0
 25 26  1  0  0  0
 26 27  1  0  0  0
 27 28  1  0  0  0
 32 33  1  0  0  0
 34 35  4  0  0  0
 35 36  4  0  0  0
 36 37  4  0  0  0
  6 38  1  0  0  0
  7 39  1  0  0  0
  8 40  1  0  0  0
 11 41  1  0  0  0
 12 42  1  0  0  0
 13 43  1  0  0  0
 13 44  1  0  0  0
 14 45  1  0  0  0
 14 46  1  0  0  0
 15 47  1  0  0  0
 16 48  1  0  0  0
 16 49  1  0  0  0
 16 50  1  0  0  0
 18 51  1  0  0  0
 23 52  1  0  0  0
 24 53  1  0  0  0
 24 54  1  0  0  0
 25 55  1  0  0  0
 25 56  1  0  0  0
 26 57  1  0  0  0
 26 58  1  0  0  0
 27 59  1  0  0  0
 27 60  1  0  0  0
 28 61  1  0  0  0
 28 62  1  0  0  0
 30 63  1  0  0  0
 31 64  1  0  0  0
 32 65  1  0  0  0
 32 66  1  0  0  0
 33 67  1  0  0  0
 33 68  1  0  0  0
 34 69  1  0  0  0
 35 70  1  0  0  0
 36 71  1  0  0  0
 37 72  1  0  0  0
M  END
$$$$
