4mf0_ligand
  -I-interpret- 

 56 60  0  0  0  0  0  0  0  0999 V2000
    0.7310   59.7420    6.9050 C   0  0  0  0  0
    0.3830   61.1520    7.1340 N   0  3  0  0  0
    0.6540   61.5150    8.5340 C   0  0  0  0  0
    1.1270   62.0260    6.2070 C   0  0  0  0  0
    0.2410   62.9330    5.3730 C   0  0  0  0  0
   -0.9390   63.4820    5.8840 C   0  0  0  0  0
   -1.7080   64.3420    5.1000 C   0  0  0  0  0
   -1.3200   64.6550    3.7960 C   0  0  0  0  0
   -0.1240   64.1300    3.3010 C   0  0  0  0  0
    0.6470   63.2700    4.0810 C   0  0  0  0  0
   -2.1920   65.6030    2.9870 C   0  0  0  0  0
   -1.7370   66.0440    1.5900 C   0  0  0  0  0
   -2.9140   65.0720    1.7410 C   0  0  0  0  0
   -4.3150   65.5320    1.3840 C   0  0  0  0  0
   -4.5960   66.7150    1.3680 O   0  0  0  0  0
   -5.2150   64.5810    1.0350 N   0  0  0  0  0
   -6.5500   64.7560    0.6790 C   0  0  0  0  0
   -7.3090   63.7740    0.3090 N   0  0  0  0  0
   -8.5970   64.0360    0.0250 C   0  0  0  0  0
   -9.5950   63.1400   -0.4250 C   0  0  0  0  0
  -10.8630   63.5970   -0.6590 C   0  0  0  0  0
  -11.2070   64.9600   -0.4860 C   0  0  0  0  0
  -10.2220   65.8650   -0.0670 C   0  0  0  0  0
   -8.9280   65.3990    0.1960 C   0  0  0  0  0
   -7.4810   66.2580    0.7290 S   0  0  0  0  0
  -12.6030   65.4240   -0.7570 C   0  0  0  0  0
  -13.2970   65.0010   -1.9130 C   0  0  0  0  0
  -14.5970   65.4510   -2.1540 C   0  0  0  0  0
  -15.1920   66.2980   -1.2220 C   0  0  0  0  0
  -14.5220   66.6860   -0.1380 N   0  0  0  0  0
  -13.2780   66.2870    0.1220 C   0  0  0  0  0
    0.4785   59.4685    5.8805 H   0  0  0  0  0
    1.7998   59.6020    7.0668 H   0  0  0  0  0
    0.1719   59.1138    7.5985 H   0  0  0  0  0
   -0.6126   61.2811    6.9539 H   0  0  0  0  0
    1.7203   61.4113    8.7350 H   0  0  0  0  0
    0.3493   62.5473    8.7058 H   0  0  0  0  0
    0.0925   60.8543    9.1945 H   0  0  0  0  0
    1.6701   61.3798    5.5174 H   0  0  0  0  0
    1.7699   62.6665    6.8107 H   0  0  0  0  0
   -1.2586   63.2375    6.8970 H   0  0  0  0  0
   -2.6211   64.7740    5.5096 H   0  0  0  0  0
    0.2087   64.3948    2.2974 H   0  0  0  0  0
    1.5728   62.8581    3.6794 H   0  0  0  0  0
   -2.4967   66.1230    3.8952 H   0  0  0  0  0
   -0.8117   66.1246    1.0195 H   0  0  0  0  0
   -1.5026   66.9675    1.0606 H   0  0  0  0  0
   -3.1579   64.0765    1.3700 H   0  0  0  0  0
   -4.8731   63.6200    1.0328 H   0  0  0  0  0
   -9.3544   62.0890   -0.5848 H   0  0  0  0  0
  -11.6285   62.8939   -0.9871 H   0  0  0  0  0
  -10.4611   66.9217    0.0530 H   0  0  0  0  0
  -12.8168   64.3223   -2.6179 H   0  0  0  0  0
  -15.1343   65.1460   -3.0520 H   0  0  0  0  0
  -16.2128   66.6457   -1.3807 H   0  0  0  0  0
  -12.7785   66.6339    1.0266 H   0  0  0  0  0
  1  2  1  0  0  0
  2  3  1  0  0  0
  2  4  1  0  0  0
  4  5  1  0  0  0
  5  6  4  0  0  0
  5 10  4  0  0  0
  6  7  4  0  0  0
  7  8  4  0  0  0
  8  9  4  0  0  0
  8 11  1  0  0  0
  9 10  4  0  0  0
 11 12  1  0  0  0
 11 13  1  0  0  0
 12 13  1  0  0  0
 13 14  1  0  0  0
 14 15  2  0  0  0
 14 16  1  0  0  0
 16 17  1  0  0  0
 17 18  4  0  0  0
 17 25  4  0  0  0
 18 19  4  0  0  0
 19 20  4  0  0  0
 19 24  4  0  0  0
 20 21  4  0  0  0
 21 22  4  0  0  0
 22 23  4  0  0  0
 22 26  1  0  0  0
 23 24  4  0  0  0
 24 25  4  0  0  0
 26 27  4  0  0  0
 26 31  4  0  0  0
 27 28  4  0  0  0
 28 29  4  0  0  0
 29 30  4  0  0  0
 30 31  4  0  0  0
  1 32  1  0  0  0
  1 33  1  0  0  0
  1 34  1  0  0  0
  2 35  1  0  0  0
  3 36  1  0  0  0
  3 37  1  0  0  0
  3 38  1  0  0  0
  4 39  1  0  0  0
  4 40  1  0  0  0
  6 41  1  0  0  0
  7 42  1  0  0  0
  9 43  1  0  0  0
 10 44  1  0  0  0
 11 45  1  0  0  0
 12 46  1  0  0  0
 12 47  1  0  0  0
 13 48  1  0  0  0
 16 49  1  0  0  0
 20 50  1  0  0  0
 21 51  1  0  0  0
 23 52  1  0  0  0
 27 53  1  0  0  0
 28 54  1  0  0  0
 29 55  1  0  0  0
 31 56  1  0  0  0
M  END
$$$$
