### 
### Created by X-TOOL on Mon Sep 10 21:13:30 2018
### 

@<TRIPOS>MOLECULE
5d6y_ligand
  160   159     1     0     0
SMALL
GAST_HUCK


@<TRIPOS>ATOM
      1 N          42.0140  -34.5730   -9.8920 N.4       1 GLN         0.2380
      2 CA         43.0190  -34.9970  -10.8620 C.3       1 GLN         0.0671
      3 C          42.4070  -35.3460  -12.2000 C.2       1 GLN         0.2269
      4 O          41.2430  -35.7230  -12.2740 O.2       1 GLN        -0.3907
      5 CB         43.7750  -36.2130  -10.3320 C.3       1 GLN         0.0247
      6 CG         44.7020  -35.9080   -9.1770 C.3       1 GLN         0.0443
      7 CD         44.0780  -36.2930   -7.8490 C.2       1 GLN         0.1738
      8 OE1        42.8500  -36.2750   -7.7080 O.2       1 GLN        -0.3973
      9 NE2        44.9130  -36.6700   -6.8750 N.am      1 GLN        -0.3009
     10 N          43.2190  -35.2750  -13.2450 N.am      1 LEU        -0.2610
     11 CA         42.7980  -35.6510  -14.5910 C.3       1 LEU         0.1313
     12 C          42.5440  -37.1640  -14.6930 C.2       1 LEU         0.2039
     13 O          43.0830  -37.9530  -13.9280 O.2       1 LEU        -0.3944
     14 CB         43.8620  -35.2350  -15.6350 C.3       1 LEU        -0.0101
     15 CG         44.3780  -33.7910  -15.7620 C.3       1 LEU        -0.0425
     16 CD1        45.8110  -33.8440  -16.2570 C.3       1 LEU        -0.0625
     17 CD2        43.5370  -32.9450  -16.7060 C.3       1 LEU        -0.0625
     18 N          41.7300  -37.5560  -15.6640 N.am      1 ALA        -0.2640
     19 CA         41.4890  -38.9670  -15.9480 C.3       1 ALA         0.1282
     20 C          42.7690  -39.6500  -16.4270 C.2       1 ALA         0.2037
     21 O          43.6330  -39.0190  -17.0540 O.2       1 ALA        -0.3944
     22 CB         40.3740  -39.1290  -16.9830 C.3       1 ALA        -0.0244
     23 N          42.8960  -40.9350  -16.0960 N.am      1 THR        -0.2613
     24 CA         44.0480  -41.7360  -16.5040 C.3       1 THR         0.1565
     25 C          43.5640  -43.0320  -17.1780 C.2       1 THR         0.2065
     26 O          42.4230  -43.4410  -16.9720 O.2       1 THR        -0.3943
     27 CB         44.9530  -42.0670  -15.2910 C.3       1 THR         0.0924
     28 OG1        44.1300  -42.6100  -14.2520 O.3       1 THR        -0.3874
     29 CG2        45.6540  -40.8060  -14.7490 C.3       1 THR        -0.0346
     30 N          44.4200  -43.6600  -17.9870 N.am      1 M3L        -0.2637
     31 CA         44.1020  -44.9470  -18.5370 C.3       1 M3L         0.1310
     32 CB         43.7130  -45.0370  -20.0210 C.3       1 M3L        -0.0122
     33 CG         44.6320  -44.3130  -20.9640 C.3       1 M3L        -0.0440
     34 CD         43.8230  -44.2160  -22.2410 C.3       1 M3L        -0.0123
     35 CE         44.7570  -43.8610  -23.3900 C.3       1 M3L        -0.0309
     36 NZ         44.0920  -43.4270  -24.6730 N.4       1 M3L         0.2369
     37 C          45.1540  -46.0060  -18.3170 C.2       1 M3L         0.2039
     38 O          46.2990  -45.7870  -17.9610 O.2       1 M3L        -0.3944
     39 CM1        43.5140  -44.5780  -25.4270 C.3       1 M3L        -0.0418
     40 CM2        45.0930  -42.7270  -25.5230 C.3       1 M3L        -0.0418
     41 CM3        42.9740  -42.4770  -24.3710 C.3       1 M3L        -0.0418
     42 N          44.7070  -47.2320  -18.5550 N.am      1 ALA        -0.2640
     43 CA         45.4770  -48.4270  -18.2510 C.3       1 ALA         0.1282
     44 C          44.8930  -49.5890  -19.0360 C.2       1 ALA         0.2036
     45 O          43.7540  -49.5110  -19.5170 O.2       1 ALA        -0.3944
     46 CB         45.4570  -48.7240  -16.7480 C.3       1 ALA        -0.0244
     47 N          45.6860  -50.6440  -19.2040 N.am      1 ALA        -0.2640
     48 CA         45.2070  -51.8630  -19.8240 C.3       1 ALA         0.1282
     49 C          44.3610  -52.6560  -18.8210 C.2       1 ALA         0.2036
     50 O          44.5930  -52.5900  -17.6070 O.2       1 ALA        -0.3944
     51 CB         46.3750  -52.7010  -20.3410 C.3       1 ALA        -0.0244
     52 N          43.3630  -53.3780  -19.3280 N.am      1 ARG        -0.2637
     53 CA         42.5030  -54.2290  -18.4940 C.3       1 ARG         0.1310
     54 C          42.9700  -55.6960  -18.5740 C.2       1 ARG         0.2033
     55 O          44.0450  -55.9770  -19.1250 O.2       1 ARG        -0.3944
     56 CB         41.0180  -54.0830  -18.8990 C.3       1 ARG        -0.0092
     57 CG         40.7740  -53.9220  -20.4010 C.3       1 ARG        -0.0156
     58 CD         39.4490  -53.2190  -20.7350 C.3       1 ARG         0.0627
     59 NE         39.2820  -53.1210  -22.1860 N.pl3     1 ARG        -0.2723
     60 CZ         38.3910  -53.8180  -22.8920 C.cat     1 ARG         0.2882
     61 NH1        37.5400  -54.6390  -22.2790 N.pl3     1 ARG        -0.2849
     62 NH2        38.3300  -53.6780  -24.2150 N.pl3     1 ARG        -0.2849
     63 N          42.1620  -56.6090  -18.0220 N.am      1 LYS        -0.2695
     64 CA         42.4580  -58.0500  -17.9210 C.3       1 LYS         0.0944
     65 C          43.7450  -58.3270  -17.1410 C.2       1 LYS         0.0601
     66 O          43.8550  -59.3390  -16.4340 O.co2     1 LYS        -0.5666
     67 CB         42.5420  -58.6960  -19.3140 C.3       1 LYS        -0.0177
     68 CG         43.0300  -60.1530  -19.3140 C.3       1 LYS        -0.0446
     69 CD         43.6630  -60.5380  -20.6400 C.3       1 LYS        -0.0125
     70 CE         44.8400  -59.6390  -20.9830 C.3       1 LYS        -0.0354
     71 NZ         45.9690  -59.7950  -20.0240 N.4       1 LYS         0.2185
     72 OXT        44.7050  -57.5450  -17.2000 O.co2     1 LYS        -0.5666
     73 H1         42.4637  -34.3508   -9.0176 H         1 GLN         0.2015
     74 H2         41.3501  -35.3178   -9.7486 H         1 GLN         0.2015
     75 H3         41.5343  -33.7576  -10.2398 H         1 GLN         0.2015
     76 H4         43.7296  -34.1700  -11.0076 H         1 GLN         0.1100
     77 H5         44.3736  -36.6329  -11.1538 H         1 GLN         0.0370
     78 H6         43.0388  -36.9583   -9.9966 H         1 GLN         0.0370
     79 H7         44.9220  -34.8303   -9.1698 H         1 GLN         0.0506
     80 H8         45.6369  -36.4722   -9.3099 H         1 GLN         0.0506
     81 H9         44.5515  -36.9336   -5.9807 H         1 GLN         0.1814
     82 H10        45.8990  -36.6884   -7.0409 H         1 GLN         0.1814
     83 H11        44.1551  -34.9518  -13.1061 H         1 LEU         0.1884
     84 H12        41.8596  -35.1238  -14.8179 H         1 LEU         0.0800
     85 H13        43.4437  -35.4970  -16.6180 H         1 LEU         0.0315
     86 H14        44.7460  -35.8583  -15.4347 H         1 LEU         0.0315
     87 H15        44.3562  -33.3221  -14.7672 H         1 LEU         0.0298
     88 H16        46.2028  -32.8209  -16.3560 H         1 LEU         0.0232
     89 H17        45.8426  -34.3450  -17.2358 H         1 LEU         0.0232
     90 H18        46.4268  -34.4044  -15.5382 H         1 LEU         0.0232
     91 H19        42.4996  -32.9105  -16.3418 H         1 LEU         0.0232
     92 H20        43.5576  -33.3882  -17.7125 H         1 LEU         0.0232
     93 H21        43.9455  -31.9245  -16.7463 H         1 LEU         0.0232
     94 H22        41.2675  -36.8639  -16.2181 H         1 ALA         0.1883
     95 H23        41.1669  -39.4546  -15.0161 H         1 ALA         0.0797
     96 H24        40.2101  -40.1986  -17.1810 H         1 ALA         0.0277
     97 H25        40.6636  -38.6236  -17.9161 H         1 ALA         0.0277
     98 H26        39.4467  -38.6814  -16.5961 H         1 ALA         0.0277
     99 H27        42.1779  -41.3658  -15.5494 H         1 THR         0.1884
    100 H28        44.6374  -41.1581  -17.2311 H         1 THR         0.0826
    101 H29        45.7120  -42.8038  -15.5927 H         1 THR         0.0639
    102 H30        44.6697  -42.8191  -13.4988 H         1 THR         0.2101
    103 H31        46.2862  -41.0781  -13.8909 H         1 THR         0.0257
    104 H32        44.8972  -40.0745  -14.4294 H         1 THR         0.0257
    105 H33        46.2790  -40.3654  -15.5397 H         1 THR         0.0257
    106 H34        45.2935  -43.2286  -18.2126 H         1 M3L         0.1883
    107 H35        43.2125  -45.2672  -17.9746 H         1 M3L         0.0800
    108 H36        42.7042  -44.6136  -20.1355 H         1 M3L         0.0312
    109 H37        43.6994  -46.0993  -20.3063 H         1 M3L         0.0312
    110 H38        45.5576  -44.8845  -21.1274 H         1 M3L         0.0269
    111 H39        44.8815  -43.3130  -20.5797 H         1 M3L         0.0269
    112 H40        43.0559  -43.4350  -22.1339 H         1 M3L         0.0317
    113 H41        43.3372  -45.1816  -22.4448 H         1 M3L         0.0317
    114 H42        45.3698  -44.7472  -23.6117 H         1 M3L         0.0815
    115 H43        45.4074  -43.0401  -23.0537 H         1 M3L         0.0815
    116 H44        43.0424  -44.2115  -26.3507 H         1 M3L         0.0778
    117 H45        42.7595  -45.0819  -24.8052 H         1 M3L         0.0778
    118 H46        44.3141  -45.2889  -25.6810 H         1 M3L         0.0778
    119 H47        45.5181  -41.8790  -24.9660 H         1 M3L         0.0778
    120 H48        44.6041  -42.3575  -26.4364 H         1 M3L         0.0778
    121 H49        45.8968  -43.4270  -25.7948 H         1 M3L         0.0778
    122 H50        42.2247  -42.9805  -23.7424 H         1 M3L         0.0778
    123 H51        42.5049  -42.1519  -25.3114 H         1 M3L         0.0778
    124 H52        43.3712  -41.6010  -23.8374 H         1 M3L         0.0778
    125 H53        43.7997  -47.3390  -18.9617 H         1 ALA         0.1883
    126 H54        46.5200  -48.2705  -18.5634 H         1 ALA         0.0797
    127 H55        46.0456  -49.6310  -16.5456 H         1 ALA         0.0277
    128 H56        44.4190  -48.8795  -16.4187 H         1 ALA         0.0277
    129 H57        45.8921  -47.8749  -16.2006 H         1 ALA         0.0277
    130 H58        46.6357  -50.5945  -18.8949 H         1 ALA         0.1883
    131 H59        44.5708  -51.5933  -20.6798 H         1 ALA         0.0797
    132 H60        45.9892  -53.6198  -20.8068 H         1 ALA         0.0277
    133 H61        47.0364  -52.9649  -19.5026 H         1 ALA         0.0277
    134 H62        46.9404  -52.1219  -21.0859 H         1 ALA         0.0277
    135 H63        43.1927  -53.3395  -20.3126 H         1 ARG         0.1883
    136 H64        42.6019  -53.8968  -17.4500 H         1 ARG         0.0800
    137 H65        40.6101  -53.1976  -18.3895 H         1 ARG         0.0313
    138 H66        40.4811  -54.9811  -18.5597 H         1 ARG         0.0313
    139 H67        40.7636  -54.9211  -20.8611 H         1 ARG         0.0301
    140 H68        41.5985  -53.3310  -20.8263 H         1 ARG         0.0301
    141 H69        39.4539  -52.2085  -20.3005 H         1 ARG         0.0689
    142 H70        38.6141  -53.7963  -20.3111 H         1 ARG         0.0689
    143 H71        39.8946  -52.4691  -22.6965 H         1 ARG         0.2642
    144 H72        36.8540  -55.1747  -22.8298 H         1 ARG         0.2615
    145 H73        37.5679  -54.7382  -21.2542 H         1 ARG         0.2615
    146 H74        38.9845  -53.0451  -24.6966 H         1 ARG         0.2615
    147 H75        37.6283  -54.2026  -24.7566 H         1 ARG         0.2615
    148 H76        41.2907  -56.2894  -17.6495 H         1 LYS         0.1875
    149 H77        41.6270  -58.5218  -17.3763 H         1 LYS         0.0726
    150 H78        43.2357  -58.1017  -19.9268 H         1 LYS         0.0305
    151 H79        41.5393  -58.6699  -19.7656 H         1 LYS         0.0305
    152 H80        42.1726  -60.8153  -19.1236 H         1 LYS         0.0269
    153 H81        43.7750  -60.2786  -18.5145 H         1 LYS         0.0269
    154 H82        42.9065  -60.4534  -21.4341 H         1 LYS         0.0317
    155 H83        44.0151  -61.5783  -20.5783 H         1 LYS         0.0317
    156 H84        44.5026  -58.5922  -20.9648 H         1 LYS         0.0813
    157 H85        45.1960  -59.8921  -21.9926 H         1 LYS         0.0813
    158 H86        46.7234  -59.1819  -20.2905 H         1 LYS         0.1994
    159 H87        46.2915  -60.7499  -20.0371 H         1 LYS         0.1994
    160 H88        45.6562  -59.5587  -19.0954 H         1 LYS         0.1994
@<TRIPOS>BOND
     1    1    2 1  
     2    2    3 1  
     3    2    5 1  
     4    3    4 2  
     5    3   10 am 
     6    5    6 1  
     7    6    7 1  
     8    7    8 2  
     9    7    9 am 
    10   10   11 1  
    11   11   12 1  
    12   11   14 1  
    13   12   13 2  
    14   12   18 am 
    15   14   15 1  
    16   15   16 1  
    17   15   17 1  
    18   18   19 1  
    19   19   20 1  
    20   19   22 1  
    21   20   21 2  
    22   20   23 am 
    23   23   24 1  
    24   24   25 1  
    25   24   27 1  
    26   25   26 2  
    27   25   30 am 
    28   27   28 1  
    29   27   29 1  
    30   30   31 1  
    31   31   32 1  
    32   31   37 1  
    33   32   33 1  
    34   33   34 1  
    35   34   35 1  
    36   35   36 1  
    37   36   39 1  
    38   36   40 1  
    39   36   41 1  
    40   37   38 2  
    41   37   42 am 
    42   42   43 1  
    43   43   44 1  
    44   43   46 1  
    45   44   45 2  
    46   44   47 am 
    47   47   48 1  
    48   48   49 1  
    49   48   51 1  
    50   49   50 2  
    51   49   52 am 
    52   52   53 1  
    53   53   54 1  
    54   53   56 1  
    55   54   55 2  
    56   54   63 am 
    57   56   57 1  
    58   57   58 1  
    59   58   59 1  
    60   59   60 ar 
    61   60   61 ar 
    62   60   62 ar 
    63   63   64 1  
    64   64   65 1  
    65   64   67 1  
    66   65   66 ar 
    67   65   72 ar 
    68   67   68 1  
    69   68   69 1  
    70   69   70 1  
    71   70   71 1  
    72    1   73 1  
    73    1   74 1  
    74    1   75 1  
    75    2   76 1  
    76    5   77 1  
    77    5   78 1  
    78    6   79 1  
    79    6   80 1  
    80    9   81 1  
    81    9   82 1  
    82   10   83 1  
    83   11   84 1  
    84   14   85 1  
    85   14   86 1  
    86   15   87 1  
    87   16   88 1  
    88   16   89 1  
    89   16   90 1  
    90   17   91 1  
    91   17   92 1  
    92   17   93 1  
    93   18   94 1  
    94   19   95 1  
    95   22   96 1  
    96   22   97 1  
    97   22   98 1  
    98   23   99 1  
    99   24  100 1  
   100   27  101 1  
   101   28  102 1  
   102   29  103 1  
   103   29  104 1  
   104   29  105 1  
   105   30  106 1  
   106   31  107 1  
   107   32  108 1  
   108   32  109 1  
   109   33  110 1  
   110   33  111 1  
   111   34  112 1  
   112   34  113 1  
   113   35  114 1  
   114   35  115 1  
   115   39  116 1  
   116   39  117 1  
   117   39  118 1  
   118   40  119 1  
   119   40  120 1  
   120   40  121 1  
   121   41  122 1  
   122   41  123 1  
   123   41  124 1  
   124   42  125 1  
   125   43  126 1  
   126   46  127 1  
   127   46  128 1  
   128   46  129 1  
   129   47  130 1  
   130   48  131 1  
   131   51  132 1  
   132   51  133 1  
   133   51  134 1  
   134   52  135 1  
   135   53  136 1  
   136   56  137 1  
   137   56  138 1  
   138   57  139 1  
   139   57  140 1  
   140   58  141 1  
   141   58  142 1  
   142   59  143 1  
   143   61  144 1  
   144   61  145 1  
   145   62  146 1  
   146   62  147 1  
   147   63  148 1  
   148   64  149 1  
   149   67  150 1  
   150   67  151 1  
   151   68  152 1  
   152   68  153 1  
   153   69  154 1  
   154   69  155 1  
   155   70  156 1  
   156   70  157 1  
   157   71  158 1  
   158   71  159 1  
   159   71  160 1  
@<TRIPOS>SUBSTRUCTURE
     1 GLN         1

