5d6y_ligand
  -I-interpret- 

160159  0  0  0  0  0  0  0  0999 V2000
   42.0140  -34.5730   -9.8920 N   0  3  0  0  0
   43.0190  -34.9970  -10.8620 C   0  0  0  0  0
   42.4070  -35.3460  -12.2000 C   0  0  0  0  0
   41.2430  -35.7230  -12.2740 O   0  0  0  0  0
   43.7750  -36.2130  -10.3320 C   0  0  0  0  0
   44.7020  -35.9080   -9.1770 C   0  0  0  0  0
   44.0780  -36.2930   -7.8490 C   0  0  0  0  0
   42.8500  -36.2750   -7.7080 O   0  0  0  0  0
   44.9130  -36.6700   -6.8750 N   0  0  0  0  0
   43.2190  -35.2750  -13.2450 N   0  0  0  0  0
   42.7980  -35.6510  -14.5910 C   0  0  0  0  0
   42.5440  -37.1640  -14.6930 C   0  0  0  0  0
   43.0830  -37.9530  -13.9280 O   0  0  0  0  0
   43.8620  -35.2350  -15.6350 C   0  0  0  0  0
   44.3780  -33.7910  -15.7620 C   0  0  0  0  0
   45.8110  -33.8440  -16.2570 C   0  0  0  0  0
   43.5370  -32.9450  -16.7060 C   0  0  0  0  0
   41.7300  -37.5560  -15.6640 N   0  0  0  0  0
   41.4890  -38.9670  -15.9480 C   0  0  0  0  0
   42.7690  -39.6500  -16.4270 C   0  0  0  0  0
   43.6330  -39.0190  -17.0540 O   0  0  0  0  0
   40.3740  -39.1290  -16.9830 C   0  0  0  0  0
   42.8960  -40.9350  -16.0960 N   0  0  0  0  0
   44.0480  -41.7360  -16.5040 C   0  0  0  0  0
   43.5640  -43.0320  -17.1780 C   0  0  0  0  0
   42.4230  -43.4410  -16.9720 O   0  0  0  0  0
   44.9530  -42.0670  -15.2910 C   0  0  0  0  0
   44.1300  -42.6100  -14.2520 O   0  0  0  0  0
   45.6540  -40.8060  -14.7490 C   0  0  0  0  0
   44.4200  -43.6600  -17.9870 N   0  0  0  0  0
   44.1020  -44.9470  -18.5370 C   0  0  0  0  0
   43.7130  -45.0370  -20.0210 C   0  0  0  0  0
   44.6320  -44.3130  -20.9640 C   0  0  0  0  0
   43.8230  -44.2160  -22.2410 C   0  0  0  0  0
   44.7570  -43.8610  -23.3900 C   0  0  0  0  0
   44.0920  -43.4270  -24.6730 N   0  3  0  0  0
   45.1540  -46.0060  -18.3170 C   0  0  0  0  0
   46.2990  -45.7870  -17.9610 O   0  0  0  0  0
   43.5140  -44.5780  -25.4270 C   0  0  0  0  0
   45.0930  -42.7270  -25.5230 C   0  0  0  0  0
   42.9740  -42.4770  -24.3710 C   0  0  0  0  0
   44.7070  -47.2320  -18.5550 N   0  0  0  0  0
   45.4770  -48.4270  -18.2510 C   0  0  0  0  0
   44.8930  -49.5890  -19.0360 C   0  0  0  0  0
   43.7540  -49.5110  -19.5170 O   0  0  0  0  0
   45.4570  -48.7240  -16.7480 C   0  0  0  0  0
   45.6860  -50.6440  -19.2040 N   0  0  0  0  0
   45.2070  -51.8630  -19.8240 C   0  0  0  0  0
   44.3610  -52.6560  -18.8210 C   0  0  0  0  0
   44.5930  -52.5900  -17.6070 O   0  0  0  0  0
   46.3750  -52.7010  -20.3410 C   0  0  0  0  0
   43.3630  -53.3780  -19.3280 N   0  0  0  0  0
   42.5030  -54.2290  -18.4940 C   0  0  0  0  0
   42.9700  -55.6960  -18.5740 C   0  0  0  0  0
   44.0450  -55.9770  -19.1250 O   0  0  0  0  0
   41.0180  -54.0830  -18.8990 C   0  0  0  0  0
   40.7740  -53.9220  -20.4010 C   0  0  0  0  0
   39.4490  -53.2190  -20.7350 C   0  0  0  0  0
   39.2820  -53.1210  -22.1860 N   0  0  0  0  0
   38.3910  -53.8180  -22.8920 C   0  0  0  0  0
   37.5400  -54.6390  -22.2790 N   0  0  0  0  0
   38.3300  -53.6780  -24.2150 N   0  0  0  0  0
   42.1620  -56.6090  -18.0220 N   0  0  0  0  0
   42.4580  -58.0500  -17.9210 C   0  0  0  0  0
   43.7450  -58.3270  -17.1410 C   0  0  0  0  0
   43.8550  -59.3390  -16.4340 O   0  0  0  0  0
   42.5420  -58.6960  -19.3140 C   0  0  0  0  0
   43.0300  -60.1530  -19.3140 C   0  0  0  0  0
   43.6630  -60.5380  -20.6400 C   0  0  0  0  0
   44.8400  -59.6390  -20.9830 C   0  0  0  0  0
   45.9690  -59.7950  -20.0240 N   0  3  0  0  0
   44.7050  -57.5450  -17.2000 O   0  0  0  0  0
   41.5146  -33.7609  -10.2546 H   0  0  0  0  0
   41.3552  -35.3350   -9.7316 H   0  0  0  0  0
   42.4724  -34.3279   -9.0144 H   0  0  0  0  0
   43.6999  -34.1582  -11.0064 H   0  0  0  0  0
   44.3903  -36.5913  -11.1483 H   0  0  0  0  0
   43.0311  -36.9227   -9.9699 H   0  0  0  0  0
   44.9019  -34.8365   -9.1676 H   0  0  0  0  0
   45.6187  -36.4830   -9.3081 H   0  0  0  0  0
   44.5430  -36.9588   -5.9694 H   0  0  0  0  0
   45.9200  -36.6687   -7.0376 H   0  0  0  0  0
   44.1738  -34.9453  -13.1034 H   0  0  0  0  0
   41.8663  -35.1251  -14.7993 H   0  0  0  0  0
   43.3608  -35.4077  -16.5874 H   0  0  0  0  0
   44.7470  -35.7923  -15.3279 H   0  0  0  0  0
   44.3140  -33.3179  -14.7821 H   0  0  0  0  0
   46.4201  -34.3996  -15.5439 H   0  0  0  0  0
   45.8409  -34.3406  -17.2268 H   0  0  0  0  0
   46.1981  -32.8297  -16.3547 H   0  0  0  0  0
   43.5485  -33.3919  -17.7001 H   0  0  0  0  0
   42.5121  -32.9017  -16.3375 H   0  0  0  0  0
   43.9500  -31.9374  -16.7544 H   0  0  0  0  0
   41.2583  -36.8500  -16.2292 H   0  0  0  0  0
   41.1703  -39.4482  -15.0234 H   0  0  0  0  0
   39.4558  -38.6851  -16.5984 H   0  0  0  0  0
   40.6621  -38.6278  -17.9070 H   0  0  0  0  0
   40.2125  -40.1891  -17.1783 H   0  0  0  0  0
   42.1635  -41.3744  -15.5385 H   0  0  0  0  0
   44.6386  -41.1580  -17.2148 H   0  0  0  0  0
   45.7172  -42.7757  -15.6102 H   0  0  0  0  0
   44.6754  -42.8214  -13.4908 H   0  0  0  0  0
   46.2729  -40.3704  -15.5334 H   0  0  0  0  0
   44.9031  -40.0820  -14.4327 H   0  0  0  0  0
   46.2801  -41.0769  -13.8989 H   0  0  0  0  0
   45.3109  -43.2199  -18.2171 H   0  0  0  0  0
   43.2037  -45.1309  -17.9477 H   0  0  0  0  0
   42.7324  -44.5711  -20.1179 H   0  0  0  0  0
   43.7511  -46.0919  -20.2927 H   0  0  0  0  0
   45.5785  -44.8341  -21.1075 H   0  0  0  0  0
   44.9342  -43.3365  -20.5856 H   0  0  0  0  0
   43.0587  -43.4460  -22.1357 H   0  0  0  0  0
   43.3365  -45.1703  -22.4427 H   0  0  0  0  0
   45.3122  -44.7691  -23.6250 H   0  0  0  0  0
   45.3508  -43.0123  -23.0507 H   0  0  0  0  0
   44.3077  -45.2816  -25.6780 H   0  0  0  0  0
   42.7666  -45.0765  -24.8098 H   0  0  0  0  0
   43.0470  -44.2136  -26.3420 H   0  0  0  0  0
   45.4728  -41.8547  -24.9911 H   0  0  0  0  0
   45.9166  -43.4054  -25.7457 H   0  0  0  0  0
   44.6202  -42.4100  -26.4526 H   0  0  0  0  0
   42.2405  -42.9717  -23.7344 H   0  0  0  0  0
   43.3715  -41.6017  -23.8571 H   0  0  0  0  0
   42.4993  -42.1686  -25.3025 H   0  0  0  0  0
   43.7816  -47.3412  -18.9699 H   0  0  0  0  0
   46.5175  -48.2735  -18.5372 H   0  0  0  0  0
   45.8883  -47.8819  -16.2068 H   0  0  0  0  0
   44.4280  -48.8778  -16.4230 H   0  0  0  0  0
   46.0405  -49.6228  -16.5488 H   0  0  0  0  0
   46.6547  -50.5935  -18.8887 H   0  0  0  0  0
   44.5823  -51.6048  -20.6791 H   0  0  0  0  0
   46.9344  -52.1260  -21.0789 H   0  0  0  0  0
   47.0296  -52.9617  -19.5094 H   0  0  0  0  0
   45.9914  -53.6110  -20.8023 H   0  0  0  0  0
   43.1893  -53.3387  -20.3323 H   0  0  0  0  0
   42.5880  -53.9021  -17.4577 H   0  0  0  0  0
   40.6474  -53.1769  -18.4197 H   0  0  0  0  0
   40.5155  -55.0009  -18.5938 H   0  0  0  0  0
   40.7333  -54.9210  -20.8352 H   0  0  0  0  0
   41.5807  -53.3070  -20.7998 H   0  0  0  0  0
   39.4591  -52.2162  -20.3080 H   0  0  0  0  0
   38.6234  -53.7961  -20.3185 H   0  0  0  0  0
   39.8887  -52.4754  -22.6916 H   0  0  0  0  0
   36.8481  -55.1550  -22.8225 H   0  0  0  0  0
   37.5802  -54.7518  -21.2661 H   0  0  0  0  0
   38.9655  -53.0368  -24.6898 H   0  0  0  0  0
   41.2733  -56.2831  -17.6420 H   0  0  0  0  0
   41.6316  -58.4973  -17.3686 H   0  0  0  0  0
   43.2647  -58.1181  -19.8900 H   0  0  0  0  0
   41.5326  -58.6982  -19.7254 H   0  0  0  0  0
   42.1704  -60.8014  -19.1444 H   0  0  0  0  0
   43.7815  -60.2618  -18.5320 H   0  0  0  0  0
   42.9115  -60.4336  -21.4226 H   0  0  0  0  0
   44.0249  -61.5633  -20.5630 H   0  0  0  0  0
   44.4994  -58.6045  -20.9389 H   0  0  0  0  0
   45.1983  -59.9148  -21.9748 H   0  0  0  0  0
   46.7317  -59.1742  -20.2947 H   0  0  0  0  0
   45.6512  -59.5557  -19.0848 H   0  0  0  0  0
   46.2945  -60.7616  -20.0382 H   0  0  0  0  0
   44.4837  -56.8115  -17.7785 H   0  0  0  0  0
  1  2  1  0  0  0
  2  3  1  0  0  0
  2  5  1  0  0  0
  3  4  2  0  0  0
  3 10  1  0  0  0
  5  6  1  0  0  0
  6  7  1  0  0  0
  7  8  2  0  0  0
  7  9  1  0  0  0
 10 11  1  0  0  0
 11 12  1  0  0  0
 11 14  1  0  0  0
 12 13  2  0  0  0
 12 18  1  0  0  0
 14 15  1  0  0  0
 15 16  1  0  0  0
 15 17  1  0  0  0
 18 19  1  0  0  0
 19 20  1  0  0  0
 19 22  1  0  0  0
 20 21  2  0  0  0
 20 23  1  0  0  0
 23 24  1  0  0  0
 24 25  1  0  0  0
 24 27  1  0  0  0
 25 26  2  0  0  0
 25 30  1  0  0  0
 27 28  1  0  0  0
 27 29  1  0  0  0
 30 31  1  0  0  0
 31 32  1  0  0  0
 31 37  1  0  0  0
 32 33  1  0  0  0
 33 34  1  0  0  0
 34 35  1  0  0  0
 35 36  1  0  0  0
 36 39  1  0  0  0
 36 40  1  0  0  0
 36 41  1  0  0  0
 37 38  2  0  0  0
 37 42  1  0  0  0
 42 43  1  0  0  0
 43 44  1  0  0  0
 43 46  1  0  0  0
 44 45  2  0  0  0
 44 47  1  0  0  0
 47 48  1  0  0  0
 48 49  1  0  0  0
 48 51  1  0  0  0
 49 50  2  0  0  0
 49 52  1  0  0  0
 52 53  1  0  0  0
 53 54  1  0  0  0
 53 56  1  0  0  0
 54 55  2  0  0  0
 54 63  1  0  0  0
 56 57  1  0  0  0
 57 58  1  0  0  0
 58 59  1  0  0  0
 59 60  1  0  0  0
 60 61  1  0  0  0
 60 62  2  0  0  0
 63 64  1  0  0  0
 64 65  1  0  0  0
 64 67  1  0  0  0
 65 66  2  0  0  0
 65 72  1  0  0  0
 67 68  1  0  0  0
 68 69  1  0  0  0
 69 70  1  0  0  0
 70 71  1  0  0  0
  1 73  1  0  0  0
  1 74  1  0  0  0
  1 75  1  0  0  0
  2 76  1  0  0  0
  5 77  1  0  0  0
  5 78  1  0  0  0
  6 79  1  0  0  0
  6 80  1  0  0  0
  9 81  1  0  0  0
  9 82  1  0  0  0
 10 83  1  0  0  0
 11 84  1  0  0  0
 14 85  1  0  0  0
 14 86  1  0  0  0
 15 87  1  0  0  0
 16 88  1  0  0  0
 16 89  1  0  0  0
 16 90  1  0  0  0
 17 91  1  0  0  0
 17 92  1  0  0  0
 17 93  1  0  0  0
 18 94  1  0  0  0
 19 95  1  0  0  0
 22 96  1  0  0  0
 22 97  1  0  0  0
 22 98  1  0  0  0
 23 99  1  0  0  0
 24100  1  0  0  0
 27101  1  0  0  0
 28102  1  0  0  0
 29103  1  0  0  0
 29104  1  0  0  0
 29105  1  0  0  0
 30106  1  0  0  0
 31107  1  0  0  0
 32108  1  0  0  0
 32109  1  0  0  0
 33110  1  0  0  0
 33111  1  0  0  0
 34112  1  0  0  0
 34113  1  0  0  0
 35114  1  0  0  0
 35115  1  0  0  0
 39116  1  0  0  0
 39117  1  0  0  0
 39118  1  0  0  0
 40119  1  0  0  0
 40120  1  0  0  0
 40121  1  0  0  0
 41122  1  0  0  0
 41123  1  0  0  0
 41124  1  0  0  0
 42125  1  0  0  0
 43126  1  0  0  0
 46127  1  0  0  0
 46128  1  0  0  0
 46129  1  0  0  0
 47130  1  0  0  0
 48131  1  0  0  0
 51132  1  0  0  0
 51133  1  0  0  0
 51134  1  0  0  0
 52135  1  0  0  0
 53136  1  0  0  0
 56137  1  0  0  0
 56138  1  0  0  0
 57139  1  0  0  0
 57140  1  0  0  0
 58141  1  0  0  0
 58142  1  0  0  0
 59143  1  0  0  0
 61144  1  0  0  0
 61145  1  0  0  0
 62146  1  0  0  0
 63147  1  0  0  0
 64148  1  0  0  0
 67149  1  0  0  0
 67150  1  0  0  0
 68151  1  0  0  0
 68152  1  0  0  0
 69153  1  0  0  0
 69154  1  0  0  0
 70155  1  0  0  0
 70156  1  0  0  0
 71157  1  0  0  0
 71158  1  0  0  0
 71159  1  0  0  0
 72160  1  0  0  0
M  END
$$$$
