4uxl_ligand
  -I-interpret- 

 49 52  0  0  0  0  0  0  0  0999 V2000
   47.0900  -19.0200   -5.8250 C   0  0  0  0  0
   39.6680  -19.3730   -2.3630 C   0  0  0  0  0
   38.7270  -18.3180   -2.5260 C   0  0  0  0  0
   42.5860  -19.6380   -5.9930 C   0  0  0  0  0
   38.5090  -18.8770   -4.9030 C   0  0  0  0  0
   44.0990  -18.0200   -6.9560 C   0  0  0  0  0
   46.1990  -19.3000   -4.7610 C   0  0  0  0  0
   43.8320  -18.9690   -5.9170 C   0  0  0  0  0
   44.7910  -19.2860   -4.7630 C   0  0  0  0  0
   40.0550  -20.2110   -3.4660 C   0  0  0  0  0
   39.4610  -19.9590   -4.7770 C   0  0  0  0  0
   41.6380  -19.3800   -7.0450 C   0  0  0  0  0
   38.1390  -18.0630   -3.7960 C   0  0  0  0  0
   44.4500  -19.6560   -3.3590 C   0  0  0  0  0
   42.0350  -18.4160   -8.0110 C   0  0  0  0  0
   41.0410  -21.3210   -3.2130 C   0  0  0  0  0
   43.0670  -19.8090   -2.7030 C   0  0  0  0  0
   39.7790  -20.8070   -6.0520 C   0  0  0  0  0
   38.4740  -21.3880   -6.6120 C   0  0  0  0  0
   47.9240  -19.7900   -2.9680 C   0  0  0  0  0
   43.2410  -22.3140   -2.6420 C   0  0  0  0  0
   47.8180  -18.7620   -6.6960 N   0  0  0  0  0
   43.2290  -17.7530   -7.9740 N   0  0  0  0  0
   45.5310  -19.8450   -2.6920 N   0  0  0  0  0
   46.5490  -19.6540   -3.4450 N   0  0  0  0  0
   42.3790  -21.1320   -2.8740 N   0  0  0  0  0
   41.1630  -18.1170   -9.0750 N   0  0  0  0  0
   40.5840  -22.4760   -3.3230 O   0  0  0  0  0
   40.3990  -20.0190   -7.1580 O   0  0  0  0  0
   37.2500  -17.0780   -3.9480 F   0  0  0  0  0
   40.1052  -19.5499   -1.3803 H   0  0  0  0  0
   38.4545  -17.7000   -1.6705 H   0  0  0  0  0
   42.3363  -20.3737   -5.2285 H   0  0  0  0  0
   38.0609  -18.6790   -5.8767 H   0  0  0  0  0
   45.0469  -17.4824   -6.9329 H   0  0  0  0  0
   42.4240  -19.0729   -3.1855 H   0  0  0  0  0
   43.2297  -19.6927   -1.6315 H   0  0  0  0  0
   40.4856  -21.5721   -5.7304 H   0  0  0  0  0
   38.0070  -22.0219   -5.8582 H   0  0  0  0  0
   37.7980  -20.5739   -6.8734 H   0  0  0  0  0
   38.6931  -21.9796   -7.5009 H   0  0  0  0  0
   48.4337  -20.5599   -3.5472 H   0  0  0  0  0
   48.4443  -18.8396   -3.0873 H   0  0  0  0  0
   47.9158  -20.0715   -1.9150 H   0  0  0  0  0
   42.8335  -22.9037   -1.8208 H   0  0  0  0  0
   43.2733  -22.9217   -3.5463 H   0  0  0  0  0
   44.2483  -21.9834   -2.3887 H   0  0  0  0  0
   40.2618  -18.5897   -9.1440 H   0  0  0  0  0
   41.4324  -17.4277   -9.7769 H   0  0  0  0  0
  7  1  1  0  0  0
  1 22  3  0  0  0
  2  3  4  0  0  0
 10  2  4  0  0  0
  3 13  4  0  0  0
  8  4  4  0  0  0
  4 12  4  0  0  0
 11  5  4  0  0  0
  5 13  4  0  0  0
  8  6  4  0  0  0
  6 23  4  0  0  0
  9  7  4  0  0  0
  7 25  4  0  0  0
  9  8  1  0  0  0
 14  9  4  0  0  0
 10 11  4  0  0  0
 16 10  1  0  0  0
 11 18  1  0  0  0
 12 15  4  0  0  0
 12 29  1  0  0  0
 13 30  1  0  0  0
 17 14  1  0  0  0
 14 24  4  0  0  0
 23 15  4  0  0  0
 15 27  1  0  0  0
 26 16  1  0  0  0
 16 28  2  0  0  0
 17 26  1  0  0  0
 18 19  1  0  0  0
 18 29  1  0  0  0
 25 20  1  0  0  0
 26 21  1  0  0  0
 24 25  4  0  0  0
  2 31  1  0  0  0
  3 32  1  0  0  0
  4 33  1  0  0  0
  5 34  1  0  0  0
  6 35  1  0  0  0
 17 36  1  0  0  0
 17 37  1  0  0  0
 18 38  1  0  0  0
 19 39  1  0  0  0
 19 40  1  0  0  0
 19 41  1  0  0  0
 20 42  1  0  0  0
 20 43  1  0  0  0
 20 44  1  0  0  0
 21 45  1  0  0  0
 21 46  1  0  0  0
 21 47  1  0  0  0
 27 48  1  0  0  0
 27 49  1  0  0  0
M  END
$$$$
