3tnh_ligand
  -I-interpret- 

 25 26  0  0  0  0  0  0  0  0999 V2000
   47.5240  -15.2590  -12.2740 C   0  0  0  0  0
   47.9870  -13.9670  -12.0620 C   0  0  0  0  0
   49.3310  -13.6780  -12.1500 C   0  0  0  0  0
   46.2000  -15.4960  -12.1810 O   0  0  0  0  0
   50.2240  -14.7040  -12.4550 C   0  0  0  0  0
   49.7450  -16.0080  -12.6630 C   0  0  0  0  0
   48.3950  -16.2960  -12.5750 C   0  0  0  0  0
   51.5560  -14.4120  -12.5630 N   0  0  0  0  0
   52.4580  -15.3410  -12.6420 N   0  0  0  0  0
   53.7680  -14.9780  -12.7450 C   0  0  0  0  0
   54.8790  -15.8000  -12.7020 C   0  0  0  0  0
   54.8350  -17.1690  -12.5500 N   0  0  0  0  0
   55.9770  -15.0270  -12.8440 N   0  0  0  0  0
   55.5600  -13.7080  -12.9790 N   0  0  0  0  0
   54.2530  -13.6670  -12.9240 C   0  0  0  0  0
   53.4330  -12.5480  -13.0420 N   0  0  0  0  0
   47.2793  -13.1731  -11.8234 H   0  0  0  0  0
   49.6907  -12.6626  -11.9837 H   0  0  0  0  0
   46.0297  -16.4254  -12.3508 H   0  0  0  0  0
   50.4490  -16.8064  -12.8977 H   0  0  0  0  0
   48.0261  -17.3087  -12.7375 H   0  0  0  0  0
   53.9366  -17.6435  -12.4598 H   0  0  0  0  0
   55.7008  -17.7077  -12.5277 H   0  0  0  0  0
   52.4192  -12.6520  -13.0003 H   0  0  0  0  0
   53.8461  -11.6242  -13.1701 H   0  0  0  0  0
  1  2  4  0  0  0
  1  4  1  0  0  0
  1  7  4  0  0  0
  2  3  4  0  0  0
  3  5  4  0  0  0
  5  6  4  0  0  0
  5  8  1  0  0  0
  6  7  4  0  0  0
  8  9  2  0  0  0
  9 10  1  0  0  0
 10 11  4  0  0  0
 10 15  4  0  0  0
 11 12  1  0  0  0
 11 13  4  0  0  0
 13 14  4  0  0  0
 14 15  4  0  0  0
 15 16  1  0  0  0
  2 17  1  0  0  0
  3 18  1  0  0  0
  4 19  1  0  0  0
  6 20  1  0  0  0
  7 21  1  0  0  0
 12 22  1  0  0  0
 12 23  1  0  0  0
 16 24  1  0  0  0
 16 25  1  0  0  0
M  END
$$$$
