5m7m_ligand
  -I-interpret- 

 78 82  0  0  0  0  0  0  0  0999 V2000
   15.9110    1.6390   26.6230 N   0  0  0  0  0
   17.1270    0.8270   26.5270 C   0  0  0  0  0
   15.5600    5.2750   26.1970 C   0  0  0  0  0
   19.1130    5.6720   26.5380 C   0  0  0  0  0
   20.0840    6.6650   26.4320 C   0  0  0  0  0
   19.7420    7.9460   25.9850 C   0  0  0  0  0
   18.4220    8.2390   25.6490 C   0  0  0  0  0
   15.2550   -0.7260   31.3310 C   0  0  0  0  0
   17.3140   -0.6300   32.6000 C   0  0  0  0  0
   23.0810   -2.0530   37.1740 C   0  0  0  0  0
   21.9120   -1.2170   37.4670 N   0  3  0  0  0
   21.0960   -1.6480   38.6110 C   0  0  0  0  0
   21.0300   -1.5150   36.3110 C   0  0  0  0  0
   19.8160   -0.5860   36.3460 C   0  0  0  0  0
   19.0760   -0.8430   35.0470 C   0  0  0  0  0
   17.7390    0.4120   35.0160 S   0  0  0  0  0
   16.8610    0.3080   36.2640 O   0  0  0  0  0
   18.4050    1.7760   35.0010 O   0  0  0  0  0
   16.6900    0.2430   33.5880 N   0  0  0  0  0
   15.2770   -0.1200   33.8680 C   0  0  0  0  0
   14.4680   -0.0520   32.5030 C   0  0  0  0  0
   16.6760   -0.1190   31.3790 C   0  0  0  0  0
   14.6180   -0.5420   30.0640 C   0  0  0  0  0
   15.1480    0.2140   29.0090 C   0  0  0  0  0
   14.4360    0.2990   27.8120 N   0  0  0  0  0
   13.3980   -1.1700   29.8160 C   0  0  0  0  0
   12.7460   -1.0370   28.5880 C   0  0  0  0  0
   13.2720   -0.3120   27.6100 C   0  0  0  0  0
   12.8420   -0.0450   26.3750 N   0  0  0  0  0
   13.7630    0.7380   25.8140 C   0  0  0  0  0
   13.5910    1.2660   24.3900 C   0  0  0  0  0
   14.6630    0.6230   23.5260 C   0  0  0  0  0
   14.7490    0.9780   26.7100 C   0  0  0  0  0
   16.0060    2.9630   26.4910 C   0  0  0  0  0
   17.1270    3.6990   26.4750 N   0  0  0  0  0
   14.8040    3.8790   26.3010 S   0  0  0  0  0
   16.8590    5.0060   26.3150 C   0  0  0  0  0
   17.7870    5.9580   26.2310 C   0  0  0  0  0
   20.6760    8.8940   25.8760 F   0  0  0  0  0
   17.4540    7.2450   25.7720 C   0  0  0  0  0
   17.2114    0.1955   27.4114 H   0  0  0  0  0
   17.0752    0.2014   25.6359 H   0  0  0  0  0
   17.9957    1.4822   26.4625 H   0  0  0  0  0
   15.1055    6.2558   26.0571 H   0  0  0  0  0
   19.3927    4.6695   26.8620 H   0  0  0  0  0
   21.1171    6.4427   26.6990 H   0  0  0  0  0
   18.1503    9.2333   25.2944 H   0  0  0  0  0
   15.2884   -1.8088   31.4513 H   0  0  0  0  0
   17.1641   -1.6949   32.7777 H   0  0  0  0  0
   18.4034   -0.5965   32.5898 H   0  0  0  0  0
   23.7444   -2.0637   38.0388 H   0  0  0  0  0
   22.7534   -3.0689   36.9532 H   0  0  0  0  0
   23.6109   -1.6455   36.3130 H   0  0  0  0  0
   22.2277   -0.2638   37.6464 H   0  0  0  0  0
   20.7173   -2.6534   38.4272 H   0  0  0  0  0
   21.7082   -1.6482   39.5128 H   0  0  0  0  0
   20.2595   -0.9609   38.7384 H   0  0  0  0  0
   20.6970   -2.5515   36.3648 H   0  0  0  0  0
   21.5807   -1.3596   35.3833 H   0  0  0  0  0
   20.1133    0.4586   36.4379 H   0  0  0  0  0
   19.1850   -0.7837   37.2125 H   0  0  0  0  0
   18.6819   -1.8581   34.9977 H   0  0  0  0  0
   19.7330   -0.7585   34.1814 H   0  0  0  0  0
   14.8486    0.5724   34.5927 H   0  0  0  0  0
   15.2239   -1.1254   34.2856 H   0  0  0  0  0
   13.5257   -0.5838   32.6350 H   0  0  0  0  0
   14.3067    0.9961   32.2508 H   0  0  0  0  0
   16.6323    0.9701   31.3909 H   0  0  0  0  0
   17.2483   -0.4010   30.4952 H   0  0  0  0  0
   16.1025    0.7280   29.1222 H   0  0  0  0  0
   12.9431   -1.7782   30.5978 H   0  0  0  0  0
   11.7901   -1.5368   28.4311 H   0  0  0  0  0
   13.6909    2.3513   24.3733 H   0  0  0  0  0
   12.5995    1.0185   24.0109 H   0  0  0  0  0
   15.6470    0.8880   23.9128 H   0  0  0  0  0
   14.5429   -0.4602   23.5463 H   0  0  0  0  0
   14.5654    0.9815   22.5013 H   0  0  0  0  0
   16.4204    7.4685   25.5079 H   0  0  0  0  0
  1  2  1  0  0  0
  1 33  1  0  0  0
 34  1  1  0  0  0
  3 36  4  0  0  0
 37  3  4  0  0  0
  4  5  4  0  0  0
 38  4  4  0  0  0
  5  6  4  0  0  0
  6  7  4  0  0  0
  6 39  1  0  0  0
  7 40  4  0  0  0
  8 21  1  0  0  0
  8 22  1  0  0  0
 23  8  1  0  0  0
  9 19  1  0  0  0
 22  9  1  0  0  0
 11 10  1  0  0  0
 11 12  1  0  0  0
 13 11  1  0  0  0
 14 13  1  0  0  0
 15 14  1  0  0  0
 16 15  1  0  0  0
 16 17  2  0  0  0
 16 18  2  0  0  0
 19 16  1  0  0  0
 20 19  1  0  0  0
 21 20  1  0  0  0
 24 23  4  0  0  0
 23 26  4  0  0  0
 25 24  4  0  0  0
 25 28  4  0  0  0
 33 25  4  0  0  0
 27 26  4  0  0  0
 28 27  4  0  0  0
 29 28  4  0  0  0
 30 29  4  0  0  0
 30 31  1  0  0  0
 33 30  4  0  0  0
 31 32  1  0  0  0
 35 34  4  0  0  0
 34 36  4  0  0  0
 37 35  4  0  0  0
 37 38  1  0  0  0
 38 40  4  0  0  0
  2 41  1  0  0  0
  2 42  1  0  0  0
  2 43  1  0  0  0
  3 44  1  0  0  0
  4 45  1  0  0  0
  5 46  1  0  0  0
  7 47  1  0  0  0
  8 48  1  0  0  0
  9 49  1  0  0  0
  9 50  1  0  0  0
 10 51  1  0  0  0
 10 52  1  0  0  0
 10 53  1  0  0  0
 11 54  1  0  0  0
 12 55  1  0  0  0
 12 56  1  0  0  0
 12 57  1  0  0  0
 13 58  1  0  0  0
 13 59  1  0  0  0
 14 60  1  0  0  0
 14 61  1  0  0  0
 15 62  1  0  0  0
 15 63  1  0  0  0
 20 64  1  0  0  0
 20 65  1  0  0  0
 21 66  1  0  0  0
 21 67  1  0  0  0
 22 68  1  0  0  0
 22 69  1  0  0  0
 24 70  1  0  0  0
 26 71  1  0  0  0
 27 72  1  0  0  0
 31 73  1  0  0  0
 31 74  1  0  0  0
 32 75  1  0  0  0
 32 76  1  0  0  0
 32 77  1  0  0  0
 40 78  1  0  0  0
M  END
$$$$
