3hxe_ligand
  -I-interpret- 

111114  0  0  0  0  0  0  0  0999 V2000
   -0.3340   28.1110   31.4690 C   0  0  0  0  0
   -0.3340   26.8650   30.5830 C   0  0  0  0  0
    0.1120   25.6170   31.3420 C   0  0  0  0  0
   -0.0130   24.3490   30.4590 C   0  0  0  0  0
    0.1110   23.1010   31.3240 C   0  0  0  0  0
    1.3110   22.2400   30.9080 C   0  0  0  0  0
    1.1240   21.6560   29.5100 C   0  0  0  0  0
    2.2040   22.2170   28.6090 C   0  0  0  0  0
    3.3630   21.2430   28.4950 C   0  0  0  0  0
    3.2160   20.5850   27.1470 C   0  0  0  0  0
    4.4630   19.8260   26.8120 C   0  0  0  0  0
    5.5970   20.2790   27.0510 O   0  0  0  0  0
    4.1340   18.6750   26.2540 N   0  0  0  0  0
    5.0630   17.6260   25.7840 C   0  0  0  0  0
    4.3720   16.5230   24.8890 C   0  0  0  0  0
    2.8490   16.4810   24.9200 C   0  0  0  0  0
    2.0300   16.7180   23.9100 C   0  0  0  0  0
    0.7990   16.5830   24.3820 N   0  0  0  0  0
    0.8450   16.2500   25.6660 C   0  0  0  0  0
    2.1220   16.1970   25.9900 N   0  0  0  0  0
    6.1140   18.1850   24.8400 C   0  0  0  0  0
    7.2380   17.6810   24.7870 O   0  0  0  0  0
    5.6740   19.1600   24.0610 N   0  0  0  0  0
    6.5780   19.7190   23.0460 C   0  0  0  0  0
    6.4680   18.6980   21.8620 C   0  0  0  0  0
    7.2220   19.2350   20.6120 C   0  0  0  0  0
    6.5900   20.1660   19.7740 C   0  0  0  0  0
    7.3230   20.6430   18.6580 C   0  0  0  0  0
    8.6480   20.2230   18.4580 C   0  0  0  0  0
    9.2580   19.3010   19.3090 C   0  0  0  0  0
    8.5650   18.8030   20.4190 C   0  0  0  0  0
    6.1030   21.0640   22.5170 C   0  0  0  0  0
    4.9110   21.3150   22.3450 O   0  0  0  0  0
    7.0790   21.9110   22.2370 N   0  0  0  0  0
    6.8160   23.2310   21.6240 C   0  0  0  0  0
    5.9800   24.1900   22.4720 C   0  0  0  0  0
    6.6490   24.4200   23.7890 C   0  0  0  0  0
    6.3900   23.5090   24.8490 C   0  0  0  0  0
    6.9700   23.7500   26.0900 C   0  0  0  0  0
    7.7990   24.8660   26.2470 C   0  0  0  0  0
    8.4290   25.0300   27.4500 O   0  0  0  0  0
    8.0300   25.7830   25.1830 C   0  0  0  0  0
    7.4490   25.5740   23.9270 C   0  0  0  0  0
    8.1680   23.8260   21.1220 C   0  0  0  0  0
    9.2020   23.4560   21.7140 O   0  0  0  0  0
    8.1520   24.6570   20.0550 N   0  0  0  0  0
    9.4510   25.1700   19.6100 C   0  0  0  0  0
    6.9440   25.0830   19.3240 C   0  0  0  0  0
    6.8890   26.6240   19.2890 C   0  0  0  0  0
    5.4960   26.9920   18.8320 C   0  0  0  0  0
    5.2930   27.7160   17.6740 C   0  0  0  0  0
    3.9910   28.0160   17.2820 C   0  0  0  0  0
    2.9260   27.5850   18.0680 C   0  0  0  0  0
    3.1860   26.8780   19.2250 C   0  0  0  0  0
    4.4430   26.6010   19.5660 N   0  0  0  0  0
   -1.0168   27.9606   32.3052 H   0  0  0  0  0
    0.6731   28.2861   31.8475 H   0  0  0  0  0
   -0.6583   28.9714   30.8837 H   0  0  0  0  0
    0.3654   27.0316   29.7637 H   0  0  0  0  0
   -1.3517   26.7008   30.2289 H   0  0  0  0  0
   -0.5261   25.4956   32.2173 H   0  0  0  0  0
    1.1563   25.7393   31.6293 H   0  0  0  0  0
    0.7820   24.3502   29.7133 H   0  0  0  0  0
   -0.9846   24.3491   29.9650 H   0  0  0  0  0
   -0.7956   22.5080   31.2037 H   0  0  0  0  0
    0.2539   23.4128   32.3586 H   0  0  0  0  0
    1.4066   21.4166   31.6158 H   0  0  0  0  0
    2.2014   22.8687   30.9029 H   0  0  0  0  0
    0.1403   21.9221   29.1232 H   0  0  0  0  0
    1.1968   20.5691   29.5471 H   0  0  0  0  0
    2.5686   23.1520   29.0343 H   0  0  0  0  0
    1.7847   22.3851   27.6170 H   0  0  0  0  0
    3.3432   20.5076   29.2993 H   0  0  0  0  0
    4.3212   21.7550   28.5837 H   0  0  0  0  0
    3.0465   21.3504   26.3897 H   0  0  0  0  0
    2.3717   19.8961   27.1732 H   0  0  0  0  0
    3.1377   18.4914   26.1354 H   0  0  0  0  0
    5.4629   17.2206   26.7135 H   0  0  0  0  0
    4.7091   15.5624   25.2786 H   0  0  0  0  0
    4.6474   16.7525   23.8596 H   0  0  0  0  0
    2.3119   16.9743   22.8888 H   0  0  0  0  0
   -0.0041   16.0584   26.3221 H   0  0  0  0  0
    4.7241   19.5173   24.1632 H   0  0  0  0  0
    7.5760   19.8668   23.4587 H   0  0  0  0  0
    5.4168   18.5582   21.6099 H   0  0  0  0  0
    6.9143   17.7514   22.1666 H   0  0  0  0  0
    5.5748   20.5093   19.9732 H   0  0  0  0  0
    6.8584   21.3352   17.9558 H   0  0  0  0  0
    9.2132   20.6269   17.6181 H   0  0  0  0  0
   10.2764   18.9676   19.1093 H   0  0  0  0  0
    9.0379   18.1076   21.1125 H   0  0  0  0  0
    8.0408   21.6464   22.4499 H   0  0  0  0  0
    6.1583   23.0776   20.7685 H   0  0  0  0  0
    4.9947   23.7553   22.6404 H   0  0  0  0  0
    5.8815   25.1407   21.9479 H   0  0  0  0  0
    5.7506   22.6402   24.6926 H   0  0  0  0  0
    6.7814   23.0791   26.9281 H   0  0  0  0  0
    8.9623   25.8278   27.4245 H   0  0  0  0  0
    8.6640   26.6542   25.3477 H   0  0  0  0  0
    7.6062   26.2659   23.0995 H   0  0  0  0  0
    9.9154   25.7317   20.4205 H   0  0  0  0  0
   10.0934   24.3351   19.3302 H   0  0  0  0  0
    9.3067   25.8234   18.7496 H   0  0  0  0  0
    6.0572   24.6968   19.8266 H   0  0  0  0  0
    6.9768   24.6951   18.3059 H   0  0  0  0  0
    7.6417   27.0266   18.6112 H   0  0  0  0  0
    7.1019   27.0450   20.2716 H   0  0  0  0  0
    6.1406   28.0483   17.0747 H   0  0  0  0  0
    3.8076   28.5825   16.3690 H   0  0  0  0  0
    1.8994   27.8030   17.7736 H   0  0  0  0  0
    2.3632   26.5469   19.8586 H   0  0  0  0  0
  1  2  1  0  0  0
  2  3  1  0  0  0
  3  4  1  0  0  0
  4  5  1  0  0  0
  5  6  1  0  0  0
  6  7  1  0  0  0
  7  8  1  0  0  0
  8  9  1  0  0  0
  9 10  1  0  0  0
 10 11  1  0  0  0
 11 12  2  0  0  0
 11 13  1  0  0  0
 13 14  1  0  0  0
 14 15  1  0  0  0
 14 21  1  0  0  0
 15 16  1  0  0  0
 16 17  4  0  0  0
 16 20  4  0  0  0
 17 18  4  0  0  0
 18 19  4  0  0  0
 19 20  4  0  0  0
 21 22  2  0  0  0
 21 23  1  0  0  0
 23 24  1  0  0  0
 24 25  1  0  0  0
 24 32  1  0  0  0
 25 26  1  0  0  0
 26 27  4  0  0  0
 26 31  4  0  0  0
 27 28  4  0  0  0
 28 29  4  0  0  0
 29 30  4  0  0  0
 30 31  4  0  0  0
 32 33  2  0  0  0
 32 34  1  0  0  0
 34 35  1  0  0  0
 35 36  1  0  0  0
 35 44  1  0  0  0
 36 37  1  0  0  0
 37 38  4  0  0  0
 37 43  4  0  0  0
 38 39  4  0  0  0
 39 40  4  0  0  0
 40 41  1  0  0  0
 40 42  4  0  0  0
 42 43  4  0  0  0
 44 45  2  0  0  0
 44 46  1  0  0  0
 46 47  1  0  0  0
 46 48  1  0  0  0
 48 49  1  0  0  0
 49 50  1  0  0  0
 50 51  4  0  0  0
 50 55  4  0  0  0
 51 52  4  0  0  0
 52 53  4  0  0  0
 53 54  4  0  0  0
 54 55  4  0  0  0
  1 56  1  0  0  0
  1 57  1  0  0  0
  1 58  1  0  0  0
  2 59  1  0  0  0
  2 60  1  0  0  0
  3 61  1  0  0  0
  3 62  1  0  0  0
  4 63  1  0  0  0
  4 64  1  0  0  0
  5 65  1  0  0  0
  5 66  1  0  0  0
  6 67  1  0  0  0
  6 68  1  0  0  0
  7 69  1  0  0  0
  7 70  1  0  0  0
  8 71  1  0  0  0
  8 72  1  0  0  0
  9 73  1  0  0  0
  9 74  1  0  0  0
 10 75  1  0  0  0
 10 76  1  0  0  0
 13 77  1  0  0  0
 14 78  1  0  0  0
 15 79  1  0  0  0
 15 80  1  0  0  0
 17 81  1  0  0  0
 19 82  1  0  0  0
 23 83  1  0  0  0
 24 84  1  0  0  0
 25 85  1  0  0  0
 25 86  1  0  0  0
 27 87  1  0  0  0
 28 88  1  0  0  0
 29 89  1  0  0  0
 30 90  1  0  0  0
 31 91  1  0  0  0
 34 92  1  0  0  0
 35 93  1  0  0  0
 36 94  1  0  0  0
 36 95  1  0  0  0
 38 96  1  0  0  0
 39 97  1  0  0  0
 41 98  1  0  0  0
 42 99  1  0  0  0
 43100  1  0  0  0
 47101  1  0  0  0
 47102  1  0  0  0
 47103  1  0  0  0
 48104  1  0  0  0
 48105  1  0  0  0
 49106  1  0  0  0
 49107  1  0  0  0
 51108  1  0  0  0
 52109  1  0  0  0
 53110  1  0  0  0
 54111  1  0  0  0
M  END
$$$$
