### 
### Created by X-TOOL on Mon Sep 10 21:12:59 2018
### 

@<TRIPOS>MOLECULE
3hxe_ligand
  112   115     1     0     0
SMALL
GAST_HUCK


@<TRIPOS>ATOM
      1 CAA        -0.3340   28.1110   31.4690 C.3       1 BD8        -0.0653
      2 CAW        -0.3340   26.8650   30.5830 C.3       1 BD8        -0.0559
      3 CAX         0.1120   25.6170   31.3420 C.3       1 BD8        -0.0533
      4 CAY        -0.0130   24.3490   30.4590 C.3       1 BD8        -0.0531
      5 CAZ         0.1110   23.1010   31.3240 C.3       1 BD8        -0.0531
      6 CBA         1.3110   22.2400   30.9080 C.3       1 BD8        -0.0531
      7 CBB         1.1240   21.6560   29.5100 C.3       1 BD8        -0.0529
      8 CBC         2.2040   22.2170   28.6090 C.3       1 BD8        -0.0510
      9 CBD         3.3630   21.2430   28.4950 C.3       1 BD8        -0.0361
     10 CBE         3.2160   20.5850   27.1470 C.3       1 BD8         0.0374
     11 CBQ         4.4630   19.8260   26.8120 C.2       1 BD8         0.1783
     12 OAC         5.5970   20.2790   27.0510 O.2       1 BD8        -0.3969
     13 NBM         4.1340   18.6750   26.2540 N.am      1 BD8        -0.2638
     14 CCA         5.0630   17.6260   25.7840 C.3       1 BD8         0.1420
     15 CBJ         4.3720   16.5230   24.8890 C.3       1 BD8         0.0427
     16 CBY         2.8490   16.4810   24.9200 C.2       1 BD8         0.0561
     17 CAV         2.0300   16.7180   23.9100 C.2       1 BD8        -0.0276
     18 NBP         0.7990   16.5830   24.3820 N.2       1 BD8        -0.3437
     19 CAU         0.8450   16.2500   25.6660 C.2       1 BD8         0.0875
     20 NBL         2.1220   16.1970   25.9900 N.pl3     1 BD8        -0.2623
     21 CBS         6.1140   18.1850   24.8400 C.2       1 BD8         0.2061
     22 OAE         7.2380   17.6810   24.7870 O.2       1 BD8        -0.3942
     23 N           5.6740   19.1600   24.0610 N.am      1 BD8        -0.2618
     24 CA          6.5780   19.7190   23.0460 C.3       1 BD8         0.1404
     25 CB          6.4680   18.6980   21.8620 C.3       1 BD8         0.0214
     26 CG          7.2220   19.2350   20.6120 C.ar      1 BD8        -0.0386
     27 CD1         6.5900   20.1660   19.7740 C.ar      1 BD8        -0.0601
     28 CE1         7.3230   20.6430   18.6580 C.ar      1 BD8        -0.0686
     29 CZ          8.6480   20.2230   18.4580 C.ar      1 BD8        -0.0687
     30 CE2         9.2580   19.3010   19.3090 C.ar      1 BD8        -0.0686
     31 CD2         8.5650   18.8030   20.4190 C.ar      1 BD8        -0.0601
     32 C           6.1030   21.0640   22.5170 C.2       1 BD8         0.2061
     33 O           4.9110   21.3150   22.3450 O.2       1 BD8        -0.3942
     34 NBO         7.0790   21.9110   22.2370 N.am      1 BD8        -0.2620
     35 CCB         6.8160   23.2310   21.6240 C.3       1 BD8         0.1391
     36 CBI         5.9800   24.1900   22.4720 C.3       1 BD8         0.0164
     37 CBW         6.6490   24.4200   23.7890 C.ar      1 BD8        -0.0493
     38 CAS         6.3900   23.5090   24.8490 C.ar      1 BD8        -0.0685
     39 CAQ         6.9700   23.7500   26.0900 C.ar      1 BD8        -0.0398
     40 CBU         7.7990   24.8660   26.2470 C.ar      1 BD8         0.0805
     41 OAG         8.4290   25.0300   27.4500 O.3       1 BD8        -0.3376
     42 CAR         8.0300   25.7830   25.1830 C.ar      1 BD8        -0.0398
     43 CAT         7.4490   25.5740   23.9270 C.ar      1 BD8        -0.0685
     44 CBT         8.1680   23.8260   21.1220 C.2       1 BD8         0.2059
     45 OAF         9.2020   23.4560   21.7140 O.2       1 BD8        -0.3942
     46 NCC         8.1520   24.6570   20.0550 N.am      1 BD8        -0.2720
     47 CAB         9.4510   25.1700   19.6100 C.3       1 BD8         0.0228
     48 CBG         6.9440   25.0830   19.3240 C.3       1 BD8         0.0453
     49 CBF         6.8890   26.6240   19.2890 C.3       1 BD8         0.0169
     50 CBX         5.4960   26.9920   18.8320 C.ar      1 BD8         0.0300
     51 CAP         5.2930   27.7160   17.6740 C.ar      1 BD8        -0.0323
     52 CAL         3.9910   28.0160   17.2820 C.ar      1 BD8        -0.0489
     53 CAI         2.9260   27.5850   18.0680 C.ar      1 BD8        -0.0410
     54 CAM         3.1860   26.8780   19.2250 C.ar      1 BD8         0.0028
     55 NBK         4.4430   26.6010   19.5660 N.ar      1 BD8        -0.2980
     56 H1         -0.6611   28.9801   30.8794 H         1 BD8         0.0230
     57 H2          0.6818   28.2889   31.8516 H         1 BD8         0.0230
     58 H3         -1.0228   27.9605   32.3134 H         1 BD8         0.0230
     59 H4          0.3520   27.0304   29.7392 H         1 BD8         0.0263
     60 H5         -1.3526   26.7020   30.2010 H         1 BD8         0.0263
     61 H6         -0.5186   25.4958   32.2351 H         1 BD8         0.0265
     62 H7          1.1615   25.7391   31.6479 H         1 BD8         0.0265
     63 H8          0.7866   24.3502   29.7036 H         1 BD8         0.0265
     64 H9         -0.9917   24.3491   29.9570 H         1 BD8         0.0265
     65 H10        -0.8078   22.5046   31.2233 H         1 BD8         0.0265
     66 H11         0.2374   23.4055   32.3734 H         1 BD8         0.0265
     67 H12         1.4256   21.4156   31.6271 H         1 BD8         0.0265
     68 H13         2.2177   22.8628   30.9166 H         1 BD8         0.0265
     69 H14         0.1337   21.9345   29.1205 H         1 BD8         0.0265
     70 H15         1.2069   20.5599   29.5511 H         1 BD8         0.0265
     71 H16         2.5690   23.1657   29.0294 H         1 BD8         0.0267
     72 H17         1.7832   22.3969   27.6088 H         1 BD8         0.0267
     73 H18         3.3113   20.4908   29.2959 H         1 BD8         0.0290
     74 H19         4.3214   21.7793   28.5568 H         1 BD8         0.0290
     75 H20         3.0415   21.3558   26.3819 H         1 BD8         0.0502
     76 H21         2.3623   19.8918   27.1706 H         1 BD8         0.0502
     77 H22         3.1572   18.4950   26.1377 H         1 BD8         0.1884
     78 H23         5.5366   17.1630   26.6622 H         1 BD8         0.0824
     79 H24         4.7406   15.5419   25.2230 H         1 BD8         0.0491
     80 H25         4.6808   16.6955   23.8474 H         1 BD8         0.0491
     81 H26         2.3116   16.9741   22.8897 H         1 BD8         0.0324
     82 H27        -0.0033   16.0586   26.3215 H         1 BD8         0.1149
     83 H28         2.4938   15.9714   26.9237 H         1 BD8         0.2386
     84 H29         4.7427   19.5103   24.1612 H         1 BD8         0.1885
     85 H30         7.6047   19.8003   23.4323 H         1 BD8         0.0823
     86 H31         5.4079   18.5485   21.6094 H         1 BD8         0.0474
     87 H32         6.9108   17.7387   22.1681 H         1 BD8         0.0474
     88 H33         5.5804   20.5074   19.9721 H         1 BD8         0.0557
     89 H34         6.8609   21.3314   17.9597 H         1 BD8         0.0599
     90 H35         9.2101   20.6247   17.6227 H         1 BD8         0.0559
     91 H36        10.2708   18.9694   19.1104 H         1 BD8         0.0599
     92 H37         9.0353   18.1114   21.1086 H         1 BD8         0.0557
     93 H38         8.0220   21.6516   22.4457 H         1 BD8         0.1885
     94 H39         6.2094   23.0380   20.7269 H         1 BD8         0.0821
     95 H40         4.9839   23.7546   22.6401 H         1 BD8         0.0453
     96 H41         5.8765   25.1489   21.9431 H         1 BD8         0.0453
     97 H42         5.7541   22.6450   24.6935 H         1 BD8         0.0530
     98 H43         6.7824   23.0828   26.9235 H         1 BD8         0.0525
     99 H44         8.9568   25.8195   27.4248 H         1 BD8         0.2458
    100 H45         8.6605   26.6495   25.3468 H         1 BD8         0.0525
    101 H46         7.6053   26.2621   23.1041 H         1 BD8         0.0530
    102 H47         9.3067   25.8296   18.7416 H         1 BD8         0.0486
    103 H48        10.1003   24.3283   19.3272 H         1 BD8         0.0486
    104 H49         9.9207   25.7371   20.4271 H         1 BD8         0.0486
    105 H50         6.0497   24.6945   19.8332 H         1 BD8         0.0548
    106 H51         6.9793   24.6928   18.2962 H         1 BD8         0.0548
    107 H52         7.6365   27.0153   18.5832 H         1 BD8         0.0475
    108 H53         7.0811   27.0342   20.2914 H         1 BD8         0.0475
    109 H54         6.1360   28.0465   17.0780 H         1 BD8         0.0651
    110 H55         3.8086   28.5794   16.3741 H         1 BD8         0.0719
    111 H56         1.9050   27.8018   17.7752 H         1 BD8         0.0652
    112 H57         2.3677   26.5487   19.8551 H         1 BD8         0.0803
@<TRIPOS>BOND
     1    1    2 1  
     2    2    3 1  
     3    3    4 1  
     4    4    5 1  
     5    5    6 1  
     6    6    7 1  
     7    7    8 1  
     8    8    9 1  
     9    9   10 1  
    10   10   11 1  
    11   11   12 2  
    12   11   13 am 
    13   13   14 1  
    14   14   15 1  
    15   14   21 1  
    16   15   16 1  
    17   16   17 2  
    18   16   20 1  
    19   17   18 1  
    20   18   19 2  
    21   19   20 1  
    22   21   22 2  
    23   21   23 am 
    24   23   24 1  
    25   24   25 1  
    26   24   32 1  
    27   25   26 1  
    28   26   27 ar 
    29   26   31 ar 
    30   27   28 ar 
    31   28   29 ar 
    32   29   30 ar 
    33   30   31 ar 
    34   32   33 2  
    35   32   34 am 
    36   34   35 1  
    37   35   36 1  
    38   35   44 1  
    39   36   37 1  
    40   37   38 ar 
    41   37   43 ar 
    42   38   39 ar 
    43   39   40 ar 
    44   40   41 1  
    45   40   42 ar 
    46   42   43 ar 
    47   44   45 2  
    48   44   46 am 
    49   46   47 1  
    50   46   48 1  
    51   48   49 1  
    52   49   50 1  
    53   50   51 ar 
    54   50   55 ar 
    55   51   52 ar 
    56   52   53 ar 
    57   53   54 ar 
    58   54   55 ar 
    59    1   56 1  
    60    1   57 1  
    61    1   58 1  
    62    2   59 1  
    63    2   60 1  
    64    3   61 1  
    65    3   62 1  
    66    4   63 1  
    67    4   64 1  
    68    5   65 1  
    69    5   66 1  
    70    6   67 1  
    71    6   68 1  
    72    7   69 1  
    73    7   70 1  
    74    8   71 1  
    75    8   72 1  
    76    9   73 1  
    77    9   74 1  
    78   10   75 1  
    79   10   76 1  
    80   13   77 1  
    81   14   78 1  
    82   15   79 1  
    83   15   80 1  
    84   17   81 1  
    85   19   82 1  
    86   20   83 1  
    87   23   84 1  
    88   24   85 1  
    89   25   86 1  
    90   25   87 1  
    91   27   88 1  
    92   28   89 1  
    93   29   90 1  
    94   30   91 1  
    95   31   92 1  
    96   34   93 1  
    97   35   94 1  
    98   36   95 1  
    99   36   96 1  
   100   38   97 1  
   101   39   98 1  
   102   41   99 1  
   103   42  100 1  
   104   43  101 1  
   105   47  102 1  
   106   47  103 1  
   107   47  104 1  
   108   48  105 1  
   109   48  106 1  
   110   49  107 1  
   111   49  108 1  
   112   51  109 1  
   113   52  110 1  
   114   53  111 1  
   115   54  112 1  
@<TRIPOS>SUBSTRUCTURE
     1 BD8         1

