3s7a_ligand
  -I-interpret- 

 58 62  0  0  0  0  0  0  0  0999 V2000
   19.2600   11.0930   10.4420 N   0  0  0  0  0
   18.8350   11.1060    9.1620 C   0  0  0  0  0
   18.3190   12.2490    8.7120 N   0  0  0  0  0
   18.9410    9.9970    8.3760 N   0  0  0  0  0
   19.4340    8.8450    8.8560 C   0  0  0  0  0
   19.5370    7.7490    8.0710 N   0  0  0  0  0
   20.4160    7.7370   10.7340 N   0  0  0  0  0
   20.8180    7.7240   12.0160 C   0  0  0  0  0
   20.7170    8.8920   12.7880 C   0  0  0  0  0
   20.1960    9.9830   12.2580 N   0  0  0  0  0
   21.4410    6.4140   12.5490 C   0  0  0  0  0
   21.3050    6.1550   13.9820 N   0  0  0  0  0
   19.8620    8.8280   10.2080 C   0  0  0  0  0
   19.7750    9.9700   10.9730 C   0  0  0  0  0
   13.8550    8.0600   19.6610 O   0  0  0  0  0
   15.2870    9.7210   20.0480 O   0  0  0  0  0
   24.6330    4.9020   16.1020 C   0  0  0  0  0
   24.3750    4.4490   14.8080 C   0  0  0  0  0
   17.8150    5.4980   13.9790 C   0  0  0  0  0
   23.7750    5.8030   16.7270 C   0  0  0  0  0
   23.2350    4.8900   14.1160 C   0  0  0  0  0
   19.1530    5.5610   13.6110 C   0  0  0  0  0
   21.8740    7.1090   16.7810 C   0  0  0  0  0
   20.4960    7.2700   16.6420 C   0  0  0  0  0
   18.3340    6.5830   16.0690 C   0  0  0  0  0
   15.3880    7.4320   17.4260 C   0  0  0  0  0
   15.8610    6.0410   17.0080 C   0  0  0  0  0
   16.0200    7.8510   18.7600 C   0  0  0  0  0
   16.0760    5.9330   15.5610 O   0  0  0  0  0
   14.9770    8.5960   19.5890 C   0  0  0  0  0
   17.4000    6.0190   15.2080 C   0  0  0  0  0
   22.6570    6.2390   16.0240 C   0  0  0  0  0
   19.6830    6.6390   15.6960 C   0  0  0  0  0
   22.3840    5.7940   14.7330 C   0  0  0  0  0
   20.0750    6.1490   14.4800 C   0  0  0  0  0
   18.2605   13.0597    9.3282 H   0  0  0  0  0
   17.9824   12.3133    7.7513 H   0  0  0  0  0
   19.2375    7.7895    7.0968 H   0  0  0  0  0
   19.9142    6.8817    8.4530 H   0  0  0  0  0
   21.0671    8.8981   13.8202 H   0  0  0  0  0
   22.5115    6.4926   12.3592 H   0  0  0  0  0
   20.9113    5.6045   12.0468 H   0  0  0  0  0
   16.2114    9.8987   19.8593 H   0  0  0  0  0
   25.5174    4.5461   16.6304 H   0  0  0  0  0
   25.0616    3.7492   14.3315 H   0  0  0  0  0
   17.0873    5.0414   13.3081 H   0  0  0  0  0
   23.9739    6.1567   17.7387 H   0  0  0  0  0
   23.0228    4.5274   13.1102 H   0  0  0  0  0
   19.4802    5.1556   12.6536 H   0  0  0  0  0
   22.3772    7.7090   17.5392 H   0  0  0  0  0
   20.0064    7.9525   17.3367 H   0  0  0  0  0
   18.0172    6.9811   17.0330 H   0  0  0  0  0
   14.3046    7.4118   17.5438 H   0  0  0  0  0
   15.6850    8.1471   16.6589 H   0  0  0  0  0
   15.0887    5.3246   17.2879 H   0  0  0  0  0
   16.8111    5.8451   17.5050 H   0  0  0  0  0
   16.8756    8.5004   18.5745 H   0  0  0  0  0
   16.3581    6.9673   19.3012 H   0  0  0  0  0
  1  2  4  0  0  0
 14  1  4  0  0  0
  2  3  1  0  0  0
  4  2  4  0  0  0
  5  4  4  0  0  0
  5  6  1  0  0  0
 13  5  4  0  0  0
  8  7  4  0  0  0
  7 13  4  0  0  0
  8  9  4  0  0  0
 11  8  1  0  0  0
  9 10  4  0  0  0
 10 14  4  0  0  0
 12 11  1  0  0  0
 12 34  1  0  0  0
 35 12  1  0  0  0
 13 14  4  0  0  0
 30 15  2  0  0  0
 30 16  1  0  0  0
 17 18  4  0  0  0
 20 17  4  0  0  0
 21 18  4  0  0  0
 19 22  4  0  0  0
 31 19  4  0  0  0
 32 20  4  0  0  0
 34 21  4  0  0  0
 22 35  4  0  0  0
 24 23  2  0  0  0
 23 32  1  0  0  0
 33 24  1  0  0  0
 31 25  4  0  0  0
 25 33  4  0  0  0
 27 26  1  0  0  0
 26 28  1  0  0  0
 29 27  1  0  0  0
 28 30  1  0  0  0
 29 31  1  0  0  0
 32 34  4  0  0  0
 33 35  4  0  0  0
  3 36  1  0  0  0
  3 37  1  0  0  0
  6 38  1  0  0  0
  6 39  1  0  0  0
  9 40  1  0  0  0
 11 41  1  0  0  0
 11 42  1  0  0  0
 16 43  1  0  0  0
 17 44  1  0  0  0
 18 45  1  0  0  0
 19 46  1  0  0  0
 20 47  1  0  0  0
 21 48  1  0  0  0
 22 49  1  0  0  0
 23 50  1  0  0  0
 24 51  1  0  0  0
 25 52  1  0  0  0
 26 53  1  0  0  0
 26 54  1  0  0  0
 27 55  1  0  0  0
 27 56  1  0  0  0
 28 57  1  0  0  0
 28 58  1  0  0  0
M  END
$$$$
