2qhc_ligand
  -I-interpret- 

 94 97  0  0  0  0  0  0  0  0999 V2000
  -14.6170   58.9170   10.9060 C   0  0  0  0  0
  -14.9180   56.6930    9.6780 C   0  0  0  0  0
  -13.4650   56.7080    9.4710 N   0  0  0  0  0
  -12.6670   57.6800    9.8870 C   0  0  0  0  0
  -13.2170   58.6980   10.5600 N   0  0  0  0  0
  -12.9540   51.0240    3.7080 C   0  0  0  0  0
  -12.5850   50.0330    2.7930 C   0  0  0  0  0
  -13.5170   49.0920    2.3400 C   0  0  0  0  0
  -14.8260   49.1410    2.8020 C   0  0  0  0  0
  -15.1930   50.1230    3.7250 C   0  0  0  0  0
  -14.2710   51.0660    4.1780 C   0  0  0  0  0
  -11.4670   57.6290    9.6740 O   0  0  0  0  0
  -12.9170   55.5820    8.6970 C   0  0  0  0  0
  -13.3970   55.7490    7.2770 C   0  0  0  0  0
  -12.5230   56.3260    6.4370 N   0  0  0  0  0
  -12.8350   56.5810    5.0280 C   0  0  0  0  0
  -13.3000   54.2100    9.2810 C   0  0  0  0  0
  -12.8490   53.0460    8.4060 C   0  0  0  0  0
  -12.7500   53.9950   10.6880 C   0  0  0  0  0
  -14.5330   55.3970    6.9640 O   0  0  0  0  0
  -16.0270   59.5560    6.2880 C   0  0  0  0  0
  -15.5640   60.3360    7.3470 C   0  0  0  0  0
  -14.1970   60.3960    7.6000 C   0  0  0  0  0
  -13.3150   59.6720    6.7890 C   0  0  0  0  0
  -13.7810   58.8810    5.7300 C   0  0  0  0  0
  -15.1520   58.8360    5.4780 C   0  0  0  0  0
  -12.7890   58.1080    4.8660 C   0  0  0  0  0
  -11.7220   55.9580    4.1660 C   0  0  0  0  0
  -11.3400   54.4980    4.4610 C   0  0  0  0  0
  -12.3670   53.4660    3.9830 C   0  0  0  0  0
  -12.5260   53.5790    2.5330 N   0  0  0  0  0
  -13.6880   54.0170    2.0320 C   0  0  0  0  0
  -13.8340   54.1130    0.5290 C   0  0  0  0  0
  -12.6990   53.5740   -0.1450 O   0  0  0  0  0
  -12.8110   53.1830   -1.4520 C   0  0  0  0  0
  -10.0960   54.2220    3.8470 O   0  0  0  0  0
  -11.9130   52.0240    4.1880 C   0  0  0  0  0
  -14.6300   54.3510    2.7390 O   0  0  0  0  0
  -12.9250   54.1510   -2.4480 C   0  0  0  0  0
  -13.0420   53.7690   -3.7890 C   0  0  0  0  0
  -13.0500   52.4230   -4.1400 C   0  0  0  0  0
  -12.9320   51.4590   -3.1360 C   0  0  0  0  0
  -12.8120   51.8340   -1.7970 C   0  0  0  0  0
  -12.6960   50.7570   -0.7500 C   0  0  0  0  0
  -12.9210   55.6170   -2.0870 C   0  0  0  0  0
  -15.2250   57.5110   10.9490 C   0  0  0  0  0
  -15.1213   59.5586   10.1834 H   0  0  0  0  0
  -14.7265   59.4391   11.8566 H   0  0  0  0  0
  -15.2719   55.6686    9.7940 H   0  0  0  0  0
  -15.4261   57.1281    8.8175 H   0  0  0  0  0
  -12.5681   59.4196   10.8740 H   0  0  0  0  0
  -11.5587   49.9928    2.4280 H   0  0  0  0  0
  -13.2167   48.3238    1.6275 H   0  0  0  0  0
  -15.5611   48.4187    2.4470 H   0  0  0  0  0
  -16.2170   50.1527    4.0973 H   0  0  0  0  0
  -14.5743   51.8305    4.8933 H   0  0  0  0  0
  -11.8280   55.6001    8.7392 H   0  0  0  0  0
  -11.6065   56.5973    6.7932 H   0  0  0  0  0
  -13.7989   56.1666    4.7325 H   0  0  0  0  0
  -14.3892   54.2260    9.3186 H   0  0  0  0  0
  -13.3132   53.1306    7.4234 H   0  0  0  0  0
  -11.7644   53.0715    8.3003 H   0  0  0  0  0
  -13.1480   52.1065    8.8708 H   0  0  0  0  0
  -11.6620   54.0569   10.6648 H   0  0  0  0  0
  -13.1449   54.7636   11.3524 H   0  0  0  0  0
  -13.0516   53.0115   11.0483 H   0  0  0  0  0
  -17.0977   59.5086    6.0896 H   0  0  0  0  0
  -16.2648   60.8923    7.9695 H   0  0  0  0  0
  -13.8162   61.0015    8.4225 H   0  0  0  0  0
  -12.2441   59.7245    6.9851 H   0  0  0  0  0
  -15.5371   58.2399    4.6507 H   0  0  0  0  0
  -13.0444   58.3212    3.8280 H   0  0  0  0  0
  -11.7923   58.4260    5.1718 H   0  0  0  0  0
  -10.8264   56.5453    4.3688 H   0  0  0  0  0
  -12.1003   55.9645    3.1438 H   0  0  0  0  0
  -11.2947   54.4044    5.5460 H   0  0  0  0  0
  -13.2711   53.6707    4.5563 H   0  0  0  0  0
  -11.7591   53.3266    1.9097 H   0  0  0  0  0
  -13.9271   55.1649    0.2589 H   0  0  0  0  0
  -14.7138   53.5423    0.2317 H   0  0  0  0  0
   -9.8475   53.3120    4.0249 H   0  0  0  0  0
  -11.0009   51.8690    3.6117 H   0  0  0  0  0
  -11.7548   51.8652    5.2547 H   0  0  0  0  0
  -13.1274   54.5311   -4.5636 H   0  0  0  0  0
  -13.1470   52.1247   -5.1839 H   0  0  0  0  0
  -12.9337   50.4018   -3.4013 H   0  0  0  0  0
  -11.7569   50.8768   -0.2098 H   0  0  0  0  0
  -13.5303   50.8381   -0.0532 H   0  0  0  0  0
  -12.7172   49.7796   -1.2321 H   0  0  0  0  0
  -13.7568   55.8279   -1.4199 H   0  0  0  0  0
  -11.9843   55.8643   -1.5874 H   0  0  0  0  0
  -13.0190   56.2135   -2.9940 H   0  0  0  0  0
  -16.3071   57.6157   11.0273 H   0  0  0  0  0
  -14.7923   56.9843   11.7996 H   0  0  0  0  0
  5  1  1  0  0  0
 46  1  1  0  0  0
  3  2  1  0  0  0
  2 46  1  0  0  0
  3  4  1  0  0  0
 13  3  1  0  0  0
  4  5  1  0  0  0
  4 12  2  0  0  0
  6  7  4  0  0  0
  6 11  4  0  0  0
 37  6  1  0  0  0
  7  8  4  0  0  0
  8  9  4  0  0  0
 10  9  4  0  0  0
 11 10  4  0  0  0
 14 13  1  0  0  0
 13 17  1  0  0  0
 15 14  1  0  0  0
 14 20  2  0  0  0
 16 15  1  0  0  0
 16 27  1  0  0  0
 28 16  1  0  0  0
 17 18  1  0  0  0
 17 19  1  0  0  0
 21 22  4  0  0  0
 26 21  4  0  0  0
 23 22  4  0  0  0
 24 23  4  0  0  0
 25 24  4  0  0  0
 25 26  4  0  0  0
 27 25  1  0  0  0
 29 28  1  0  0  0
 30 29  1  0  0  0
 29 36  1  0  0  0
 30 31  1  0  0  0
 30 37  1  0  0  0
 31 32  1  0  0  0
 32 33  1  0  0  0
 32 38  2  0  0  0
 33 34  1  0  0  0
 34 35  1  0  0  0
 35 39  4  0  0  0
 35 43  4  0  0  0
 39 40  4  0  0  0
 39 45  1  0  0  0
 40 41  4  0  0  0
 41 42  4  0  0  0
 42 43  4  0  0  0
 43 44  1  0  0  0
  1 47  1  0  0  0
  1 48  1  0  0  0
  2 49  1  0  0  0
  2 50  1  0  0  0
  5 51  1  0  0  0
  7 52  1  0  0  0
  8 53  1  0  0  0
  9 54  1  0  0  0
 10 55  1  0  0  0
 11 56  1  0  0  0
 13 57  1  0  0  0
 15 58  1  0  0  0
 16 59  1  0  0  0
 17 60  1  0  0  0
 18 61  1  0  0  0
 18 62  1  0  0  0
 18 63  1  0  0  0
 19 64  1  0  0  0
 19 65  1  0  0  0
 19 66  1  0  0  0
 21 67  1  0  0  0
 22 68  1  0  0  0
 23 69  1  0  0  0
 24 70  1  0  0  0
 26 71  1  0  0  0
 27 72  1  0  0  0
 27 73  1  0  0  0
 28 74  1  0  0  0
 28 75  1  0  0  0
 29 76  1  0  0  0
 30 77  1  0  0  0
 31 78  1  0  0  0
 33 79  1  0  0  0
 33 80  1  0  0  0
 36 81  1  0  0  0
 37 82  1  0  0  0
 37 83  1  0  0  0
 40 84  1  0  0  0
 41 85  1  0  0  0
 42 86  1  0  0  0
 44 87  1  0  0  0
 44 88  1  0  0  0
 44 89  1  0  0  0
 45 90  1  0  0  0
 45 91  1  0  0  0
 45 92  1  0  0  0
 46 93  1  0  0  0
 46 94  1  0  0  0
M  END
$$$$
