3imc_ligand
  -I-interpret- 

 19 20  0  0  0  0  0  0  0  0999 V2000
   10.8110    9.4790   -4.9270 C   0  0  0  0  0
   15.0230   10.6810   -0.2970 C   0  0  0  0  0
   14.4980    9.8200   -4.7700 C   0  0  0  0  0
   13.7050   10.4860   -0.6880 C   0  0  0  0  0
   15.5050   10.0790   -3.8390 C   0  0  0  0  0
   12.8240    9.9860   -3.0220 C   0  0  0  0  0
   15.8520   10.5520   -1.3710 N   0  0  0  0  0
   12.1910    9.5130   -5.2970 O   0  0  0  0  0
   13.1670    9.7640   -4.3610 C   0  0  0  0  0
   13.8330   10.2430   -2.0880 C   0  0  0  0  0
   15.1500   10.2940   -2.4980 C   0  0  0  0  0
   10.6553    8.7000   -4.1807 H   0  0  0  0  0
   10.5237   10.4448   -4.5113 H   0  0  0  0  0
   10.2051    9.2664   -5.8078 H   0  0  0  0  0
   15.3470   10.9044    0.7195 H   0  0  0  0  0
   14.7528    9.6614   -5.8179 H   0  0  0  0  0
   12.8012   10.5120   -0.0793 H   0  0  0  0  0
   16.5497   10.1138   -4.1480 H   0  0  0  0  0
   11.7799    9.9588   -2.7101 H   0  0  0  0  0
  8  1  1  0  0  0
  4  2  4  0  0  0
  2  7  4  0  0  0
  3  5  4  0  0  0
  9  3  4  0  0  0
 10  4  4  0  0  0
  5 11  4  0  0  0
  9  6  4  0  0  0
  6 10  4  0  0  0
 11  7  4  0  0  0
  8  9  1  0  0  0
 10 11  4  0  0  0
  1 12  1  0  0  0
  1 13  1  0  0  0
  1 14  1  0  0  0
  2 15  1  0  0  0
  3 16  1  0  0  0
  4 17  1  0  0  0
  5 18  1  0  0  0
  6 19  1  0  0  0
M  END
$$$$
