1l6s_ligand
  -I-interpret- 

 32 31  0  0  0  0  0  0  0  0999 V2000
   21.1330   91.2050   49.0930 C   0  0  0  0  0
   22.2470   90.9800   48.5420 O   0  0  0  0  0
   20.8450   90.3720   50.3230 C   0  0  0  0  0
   19.3590   90.3810   50.6570 C   0  0  0  0  0
   19.3170   89.5610   53.0580 C   0  0  0  0  0
   20.2590   92.0480   48.7160 O   0  0  0  0  0
   19.1570   88.3590   53.9740 C   0  0  0  0  0
   21.3060   87.0790   52.8760 C   0  0  0  0  0
   22.1390   88.2820   53.2740 C   0  0  0  0  0
   23.5780   87.8550   53.4840 C   0  0  0  0  0
   23.8360   86.6240   53.4500 O   0  0  0  0  0
   24.4110   88.7700   53.7030 O   0  0  0  0  0
   19.9280   87.0940   53.5040 C   0  0  0  0  0
   19.0060   89.2710   51.5990 C   0  0  0  0  0
   21.3940   90.7930   51.1653 H   0  0  0  0  0
   21.1520   89.3445   50.1277 H   0  0  0  0  0
   18.7951   90.2453   49.7341 H   0  0  0  0  0
   19.1163   91.3308   51.1335 H   0  0  0  0  0
   20.3605   89.8716   53.1109 H   0  0  0  0  0
   18.6114   90.3205   53.3945 H   0  0  0  0  0
   19.5069   92.0156   49.3117 H   0  0  0  0  0
   18.0974   88.1036   53.9879 H   0  0  0  0  0
   19.5611   88.6394   54.9467 H   0  0  0  0  0
   21.8228   86.1833   53.2207 H   0  0  0  0  0
   21.1822   87.0991   51.7932 H   0  0  0  0  0
   21.7472   88.7044   54.1993 H   0  0  0  0  0
   22.0946   89.0314   52.4837 H   0  0  0  0  0
   23.0312   86.1345   53.2649 H   0  0  0  0  0
   19.3023   86.7389   52.6852 H   0  0  0  0  0
   20.1026   86.5727   54.4452 H   0  0  0  0  0
   19.6032   88.4058   51.3111 H   0  0  0  0  0
   17.9289   89.1205   51.5259 H   0  0  0  0  0
  1  2  2  0  0  0
  3  1  1  0  0  0
  1  6  1  0  0  0
  4  3  1  0  0  0
 14  4  1  0  0  0
  7  5  1  0  0  0
  5 14  1  0  0  0
 13  7  1  0  0  0
  8  9  1  0  0  0
  8 13  1  0  0  0
  9 10  1  0  0  0
 10 11  1  0  0  0
 10 12  2  0  0  0
  3 15  1  0  0  0
  3 16  1  0  0  0
  4 17  1  0  0  0
  4 18  1  0  0  0
  5 19  1  0  0  0
  5 20  1  0  0  0
  6 21  1  0  0  0
  7 22  1  0  0  0
  7 23  1  0  0  0
  8 24  1  0  0  0
  8 25  1  0  0  0
  9 26  1  0  0  0
  9 27  1  0  0  0
 11 28  1  0  0  0
 13 29  1  0  0  0
 13 30  1  0  0  0
 14 31  1  0  0  0
 14 32  1  0  0  0
M  END
$$$$
