1nyx_ligand
  -I-interpret- 

 56 59  0  0  0  0  0  0  0  0999 V2000
   18.1290   63.1530   21.2310 O   0  0  0  0  0
   18.9010   63.0530   20.2510 C   0  0  0  0  0
   19.9750   62.7220   20.8990 O   0  0  0  0  0
   18.7300   63.2370   18.9670 C   0  0  0  0  0
   20.0370   63.7800   18.3210 O   0  0  0  0  0
   19.8480   65.0350   17.7230 C   0  0  0  0  0
   21.1320   65.5140   17.1070 C   0  0  0  0  0
   18.2960   62.1510   18.1620 C   0  0  0  0  0
   17.8290   61.8270   16.8800 C   0  0  0  0  0
   18.8240   61.5670   15.9080 C   0  0  0  0  0
   18.4500   61.2540   14.5860 C   0  0  0  0  0
   17.0820   61.2000   14.2370 C   0  0  0  0  0
   16.7120   60.9010   12.9320 O   0  0  0  0  0
   16.2430   62.0960   12.3240 C   0  0  0  0  0
   16.0920   61.9160   10.8160 C   0  0  0  0  0
   15.8650   63.2260   10.1840 N   0  0  0  0  0
   14.5870   63.7110    9.9910 C   0  0  0  0  0
   14.4060   65.1380    9.8510 C   0  0  0  0  0
   15.4990   65.9450    9.9100 O   0  0  0  0  0
   16.7290   65.4170    9.6440 C   0  0  0  0  0
   16.9260   63.9950    9.7850 C   0  0  0  0  0
   18.2120   63.4480    9.5100 C   0  0  0  0  0
   19.2720   64.2820    9.1050 C   0  0  0  0  0
   19.0680   65.6740    8.9700 C   0  0  0  0  0
   17.8020   66.2370    9.2380 C   0  0  0  0  0
   13.1140   65.6760    9.6600 C   0  0  0  0  0
   11.9920   64.8180    9.6070 C   0  0  0  0  0
   12.1550   63.4170    9.7410 C   0  0  0  0  0
   13.4400   62.8660    9.9320 C   0  0  0  0  0
   16.0900   61.4570   15.2210 C   0  0  0  0  0
   16.4690   61.7680   16.5330 C   0  0  0  0  0
   20.6971   62.6002   20.2783 H   0  0  0  0  0
   17.8940   63.9365   18.9680 H   0  0  0  0  0
   19.5287   65.7482   18.4829 H   0  0  0  0  0
   19.0890   64.9493   16.9454 H   0  0  0  0  0
   21.8955   65.5976   17.8804 H   0  0  0  0  0
   21.4576   64.8019   16.3487 H   0  0  0  0  0
   20.9711   66.4888   16.6465 H   0  0  0  0  0
   17.3391   62.0150   18.6660 H   0  0  0  0  0
   19.2826   61.7051   18.0364 H   0  0  0  0  0
   19.8783   61.6088   16.1815 H   0  0  0  0  0
   19.2140   61.0541   13.8347 H   0  0  0  0  0
   16.9641   62.8915   12.5118 H   0  0  0  0  0
   15.2699   62.3460   12.7466 H   0  0  0  0  0
   15.2435   61.2629   10.6118 H   0  0  0  0  0
   17.0007   61.4706   10.4111 H   0  0  0  0  0
   18.3770   62.3756    9.6138 H   0  0  0  0  0
   20.2518   63.8531    8.8952 H   0  0  0  0  0
   19.8920   66.3154    8.6575 H   0  0  0  0  0
   17.6528   67.3114    9.1306 H   0  0  0  0  0
   12.9822   66.7528    9.5535 H   0  0  0  0  0
   10.9960   65.2364    9.4623 H   0  0  0  0  0
   11.2846   62.7624    9.6964 H   0  0  0  0  0
   13.5565   61.7872   10.0351 H   0  0  0  0  0
   15.0339   61.4121   14.9549 H   0  0  0  0  0
   15.7067   61.9648   17.2868 H   0  0  0  0  0
  1  2  2  0  0  0
  2  3  1  0  0  0
  2  4  1  0  0  0
  4  5  1  0  0  0
  4  8  1  0  0  0
  5  6  1  0  0  0
  6  7  1  0  0  0
  8  9  1  0  0  0
  9 10  4  0  0  0
  9 31  4  0  0  0
 10 11  4  0  0  0
 11 12  4  0  0  0
 12 13  1  0  0  0
 12 30  4  0  0  0
 13 14  1  0  0  0
 14 15  1  0  0  0
 15 16  1  0  0  0
 16 17  1  0  0  0
 16 21  1  0  0  0
 17 18  4  0  0  0
 17 29  4  0  0  0
 18 19  1  0  0  0
 18 26  4  0  0  0
 19 20  1  0  0  0
 20 21  4  0  0  0
 20 25  4  0  0  0
 21 22  4  0  0  0
 22 23  4  0  0  0
 23 24  4  0  0  0
 24 25  4  0  0  0
 26 27  4  0  0  0
 27 28  4  0  0  0
 28 29  4  0  0  0
 30 31  4  0  0  0
  3 32  1  0  0  0
  4 33  1  0  0  0
  6 34  1  0  0  0
  6 35  1  0  0  0
  7 36  1  0  0  0
  7 37  1  0  0  0
  7 38  1  0  0  0
  8 39  1  0  0  0
  8 40  1  0  0  0
 10 41  1  0  0  0
 11 42  1  0  0  0
 14 43  1  0  0  0
 14 44  1  0  0  0
 15 45  1  0  0  0
 15 46  1  0  0  0
 22 47  1  0  0  0
 23 48  1  0  0  0
 24 49  1  0  0  0
 25 50  1  0  0  0
 26 51  1  0  0  0
 27 52  1  0  0  0
 28 53  1  0  0  0
 29 54  1  0  0  0
 30 55  1  0  0  0
 31 56  1  0  0  0
M  END
$$$$
