### 
### Created by X-TOOL on Mon Sep 10 21:13:32 2018
### 

@<TRIPOS>MOLECULE
5vqi_ligand
  135   134     1     0     0
SMALL
GAST_HUCK


@<TRIPOS>ATOM
      1 N         -40.0180   60.9060  205.2530 N.4       1 SER         0.2377
      2 CA        -41.1790   60.5760  206.0790 C.3       1 SER         0.0621
      3 C         -41.0790   61.2440  207.4460 C.2       1 SER         0.2265
      4 O         -40.1000   61.0520  208.1710 O.2       1 SER        -0.3907
      5 CB        -41.3240   59.0700  206.2390 C.3       1 SER        -0.0040
      6 N         -42.1010   62.0280  207.7860 N.am      1 SER        -0.2589
      7 CA        -42.1490   62.7740  209.0420 C.3       1 SER         0.1540
      8 C         -43.0670   62.1020  210.0340 C.2       1 SER         0.2062
      9 O         -43.7070   62.7700  210.8400 O.2       1 SER        -0.3943
     10 CB        -42.6270   64.2010  208.8000 C.3       1 SER         0.0843
     11 OG        -43.6960   64.1960  207.8670 O.3       1 SER        -0.3903
     12 N         -43.1380   60.7780  209.9560 N.am      1 LYS        -0.2637
     13 CA        -43.9960   60.0020  210.8270 C.3       1 LYS         0.1310
     14 C         -43.1620   59.0400  211.6720 C.2       1 LYS         0.2039
     15 O         -42.0410   58.6780  211.2980 O.2       1 LYS        -0.3944
     16 CB        -45.0460   59.2460  210.0040 C.3       1 LYS        -0.0122
     17 CG        -46.1470   60.1370  209.4190 C.3       1 LYS        -0.0440
     18 CD        -47.1710   59.3070  208.6520 C.3       1 LYS        -0.0124
     19 CE        -48.1700   60.1770  207.9130 C.3       1 LYS        -0.0354
     20 NZ        -49.2450   59.3630  207.2860 N.4       1 LYS         0.2185
     21 N         -43.7050   58.6470  212.8230 N.am      1 ARG        -0.2637
     22 CA        -43.0480   57.6840  213.7080 C.3       1 ARG         0.1311
     23 C         -44.0230   56.6290  214.1990 C.2       1 ARG         0.2039
     24 O         -45.0000   56.9520  214.8840 O.2       1 ARG        -0.3944
     25 CB        -42.4270   58.3750  214.9230 C.3       1 ARG        -0.0092
     26 CG        -41.3770   59.4060  214.6200 C.3       1 ARG        -0.0156
     27 CD        -40.9740   60.0870  215.9070 C.3       1 ARG         0.0627
     28 NE        -39.9020   61.0500  215.7010 N.pl3     1 ARG        -0.2723
     29 CZ        -39.3240   61.7290  216.6840 C.cat     1 ARG         0.2882
     30 NH1       -39.7370   61.5420  217.9290 N.pl3     1 ARG        -0.2849
     31 NH2       -38.3460   62.5920  216.4240 N.pl3     1 ARG        -0.2849
     32 N         -43.7570   55.3720  213.8570 N.am      1 GLN        -0.2636
     33 CA        -44.5020   54.2520  214.4320 C.3       1 GLN         0.1330
     34 C         -43.9720   53.9860  215.8260 C.2       1 GLN         0.2040
     35 O         -42.7720   54.1180  216.0640 O.2       1 GLN        -0.3944
     36 CB        -44.3790   52.9980  213.5660 C.3       1 GLN         0.0045
     37 CG        -45.0540   51.7680  214.1390 C.3       1 GLN         0.0412
     38 CD        -44.5700   50.4970  213.4760 C.2       1 GLN         0.1737
     39 OE1       -43.4940   50.4720  212.8840 O.2       1 GLN        -0.3973
     40 NE2       -45.3540   49.4350  213.5770 N.am      1 GLN        -0.3009
     41 N         -44.8580   53.6440  216.7580 N.am      1 ARG        -0.2637
     42 CA        -44.4250   53.2950  218.1050 C.3       1 ARG         0.1310
     43 C         -44.1460   51.7940  218.1810 C.2       1 ARG         0.2033
     44 O         -45.0500   50.9790  217.9950 O.2       1 ARG        -0.3944
     45 CB        -45.4560   53.7140  219.1570 C.3       1 ARG        -0.0092
     46 CG        -44.9860   53.3500  220.5490 C.3       1 ARG        -0.0156
     47 CD        -45.7430   53.9960  221.6930 C.3       1 ARG         0.0627
     48 NE        -45.1250   53.6030  222.9620 N.pl3     1 ARG        -0.2723
     49 CZ        -45.5390   53.9870  224.1690 C.cat     1 ARG         0.2882
     50 NH1       -46.5870   54.7960  224.3050 N.pl3     1 ARG        -0.2849
     51 NH2       -44.8970   53.5570  225.2480 N.pl3     1 ARG        -0.2849
     52 N         -42.8860   51.4630  218.4750 N.am      1 ARG        -0.2695
     53 CA        -42.2910   50.1130  218.3680 C.3       1 ARG         0.0945
     54 C         -42.2500   49.6400  216.9150 C.2       1 ARG         0.0601
     55 O         -41.1790   49.5770  216.2880 O.co2     1 ARG        -0.5666
     56 CB        -43.0200   49.0610  219.2220 C.3       1 ARG        -0.0148
     57 CG        -43.2960   49.4200  220.6720 C.3       1 ARG        -0.0162
     58 CD        -42.4160   50.5120  221.2570 C.3       1 ARG         0.0627
     59 NE        -42.9080   50.9240  222.5780 N.pl3     1 ARG        -0.2723
     60 CZ        -42.7770   50.1960  223.6860 C.cat     1 ARG         0.2882
     61 NH1       -42.1610   49.0180  223.6470 N.pl3     1 ARG        -0.2849
     62 NH2       -43.2510   50.6420  224.8380 N.pl3     1 ARG        -0.2849
     63 OXT       -43.2860   49.3040  216.3170 O.co2     1 ARG        -0.5666
     64 H1        -40.1048   60.4548  204.3558 H         1 SER         0.2015
     65 H2        -39.1785   60.5860  205.7101 H         1 SER         0.2015
     66 H3        -39.9705   61.9045  205.1237 H         1 SER         0.2015
     67 H4        -42.0785   60.9570  205.5734 H         1 SER         0.1095
     68 H5        -42.2028   58.8505  206.8631 H         1 SER         0.0310
     69 H6        -40.4220   58.6638  206.7201 H         1 SER         0.0310
     70 H7        -41.4521   58.6068  205.2496 H         1 SER         0.0310
     71 H8        -42.8707   62.1099  207.1528 H         1 SER         0.1885
     72 H9        -41.1347   62.8074  209.4662 H         1 SER         0.0823
     73 H10       -41.7966   64.8020  208.4011 H         1 SER         0.0606
     74 H11       -42.9723   64.6368  209.7491 H         1 SER         0.0606
     75 H12       -44.4134   63.6774  208.2118 H         1 SER         0.2097
     76 H13       -42.5817   60.3023  209.2747 H         1 LYS         0.1883
     77 H14       -44.5199   60.6920  211.5049 H         1 LYS         0.0800
     78 H15       -45.5190   58.4954  210.6543 H         1 LYS         0.0312
     79 H16       -44.5336   58.7401  209.1724 H         1 LYS         0.0312
     80 H17       -45.6923   60.8689  208.7352 H         1 LYS         0.0269
     81 H18       -46.6545   60.6669  210.2385 H         1 LYS         0.0269
     82 H19       -47.7147   58.6681  209.3634 H         1 LYS         0.0317
     83 H20       -46.6420   58.6760  207.9226 H         1 LYS         0.0317
     84 H21       -47.6426   60.7380  207.1274 H         1 LYS         0.0813
     85 H22       -48.6248   60.8819  208.6245 H         1 LYS         0.0813
     86 H23       -49.8893   59.9708  206.8049 H         1 LYS         0.1994
     87 H24       -49.7372   58.8492  208.0000 H         1 LYS         0.1994
     88 H25       -48.8372   58.7173  206.6281 H         1 LYS         0.1994
     89 H26       -44.5919   59.0228  213.0917 H         1 ARG         0.1883
     90 H27       -42.2485   57.1871  213.1390 H         1 ARG         0.0800
     91 H28       -41.9676   57.6002  215.5543 H         1 ARG         0.0313
     92 H29       -43.2358   58.8701  215.4803 H         1 ARG         0.0313
     93 H30       -41.7822   60.1509  213.9193 H         1 ARG         0.0301
     94 H31       -40.4997   58.9184  214.1699 H         1 ARG         0.0301
     95 H32       -40.6330   59.3233  216.6214 H         1 ARG         0.0689
     96 H33       -41.8481   60.6115  216.3203 H         1 ARG         0.0689
     97 H34       -39.5737   61.2136  214.7385 H         1 ARG         0.2642
     98 H35       -39.2970   62.0625  218.7012 H         1 ARG         0.2615
     99 H36       -40.4981   60.8761  218.1246 H         1 ARG         0.2615
    100 H37       -38.0285   62.7338  215.4545 H         1 ARG         0.2615
    101 H38       -37.9061   63.1186  217.1922 H         1 ARG         0.2615
    102 H39       -43.0324   55.1883  213.1927 H         1 GLN         0.1883
    103 H40       -45.5648   54.5278  214.4981 H         1 GLN         0.0801
    104 H41       -43.3099   52.7738  213.4364 H         1 GLN         0.0337
    105 H42       -44.8303   53.2120  212.5859 H         1 GLN         0.0337
    106 H43       -46.1401   51.8560  213.9885 H         1 GLN         0.0504
    107 H44       -44.8363   51.7122  215.2158 H         1 GLN         0.0504
    108 H45       -45.0806   48.5699  213.1566 H         1 GLN         0.1814
    109 H46       -46.2196   49.4980  214.0737 H         1 GLN         0.1814
    110 H47       -45.8319   53.6263  216.5316 H         1 ARG         0.1883
    111 H48       -43.4886   53.8326  218.3152 H         1 ARG         0.0800
    112 H49       -46.4076   53.2015  218.9528 H         1 ARG         0.0313
    113 H50       -45.6061   54.8022  219.1007 H         1 ARG         0.0313
    114 H51       -43.9294   53.6435  220.6356 H         1 ARG         0.0301
    115 H52       -45.0739   52.2592  220.6600 H         1 ARG         0.0301
    116 H53       -46.7911   53.6627  221.6754 H         1 ARG         0.0689
    117 H54       -45.7044   55.0903  221.5883 H         1 ARG         0.0689
    118 H55       -44.3056   52.9805  222.9176 H         1 ARG         0.2642
    119 H56       -46.8962   55.0849  225.2441 H         1 ARG         0.2615
    120 H57       -47.0889   55.1332  223.4712 H         1 ARG         0.2615
    121 H58       -44.0853   52.9307  225.1489 H         1 ARG         0.2615
    122 H59       -45.2105   53.8495  226.1845 H         1 ARG         0.2615
    123 H60       -42.2885   52.1970  218.7979 H         1 ARG         0.1875
    124 H61       -41.2560   50.1818  218.7340 H         1 ARG         0.0726
    125 H62       -42.4074   48.1474  219.2173 H         1 ARG         0.0307
    126 H63       -43.9878   48.8560  218.7411 H         1 ARG         0.0307
    127 H64       -43.1568   48.5124  221.2778 H         1 ARG         0.0301
    128 H65       -44.3419   49.7528  220.7451 H         1 ARG         0.0301
    129 H66       -42.4223   51.3808  220.5824 H         1 ARG         0.0689
    130 H67       -41.3883   50.1327  221.3568 H         1 ARG         0.0689
    131 H68       -43.3848   51.8339  222.6526 H         1 ARG         0.2642
    132 H69       -42.0627   48.4595  224.5069 H         1 ARG         0.2615
    133 H70       -41.7822   48.6641  222.7569 H         1 ARG         0.2615
    134 H71       -43.7298   51.5530  224.8798 H         1 ARG         0.2615
    135 H72       -43.1412   50.0782  225.6930 H         1 ARG         0.2615
@<TRIPOS>BOND
     1    1    2 1  
     2    2    3 1  
     3    2    5 1  
     4    3    4 2  
     5    3    6 am 
     6    6    7 1  
     7    7    8 1  
     8    7   10 1  
     9    8    9 2  
    10    8   12 am 
    11   10   11 1  
    12   12   13 1  
    13   13   14 1  
    14   13   16 1  
    15   14   15 2  
    16   14   21 am 
    17   16   17 1  
    18   17   18 1  
    19   18   19 1  
    20   19   20 1  
    21   21   22 1  
    22   22   23 1  
    23   22   25 1  
    24   23   24 2  
    25   23   32 am 
    26   25   26 1  
    27   26   27 1  
    28   27   28 1  
    29   28   29 ar 
    30   29   30 ar 
    31   29   31 ar 
    32   32   33 1  
    33   33   34 1  
    34   33   36 1  
    35   34   35 2  
    36   34   41 am 
    37   36   37 1  
    38   37   38 1  
    39   38   39 2  
    40   38   40 am 
    41   41   42 1  
    42   42   43 1  
    43   42   45 1  
    44   43   44 2  
    45   43   52 am 
    46   45   46 1  
    47   46   47 1  
    48   47   48 1  
    49   48   49 ar 
    50   49   50 ar 
    51   49   51 ar 
    52   52   53 1  
    53   53   54 1  
    54   53   56 1  
    55   54   55 ar 
    56   54   63 ar 
    57   56   57 1  
    58   57   58 1  
    59   58   59 1  
    60   59   60 ar 
    61   60   61 ar 
    62   60   62 ar 
    63    1   64 1  
    64    1   65 1  
    65    1   66 1  
    66    2   67 1  
    67    5   68 1  
    68    5   69 1  
    69    5   70 1  
    70    6   71 1  
    71    7   72 1  
    72   10   73 1  
    73   10   74 1  
    74   11   75 1  
    75   12   76 1  
    76   13   77 1  
    77   16   78 1  
    78   16   79 1  
    79   17   80 1  
    80   17   81 1  
    81   18   82 1  
    82   18   83 1  
    83   19   84 1  
    84   19   85 1  
    85   20   86 1  
    86   20   87 1  
    87   20   88 1  
    88   21   89 1  
    89   22   90 1  
    90   25   91 1  
    91   25   92 1  
    92   26   93 1  
    93   26   94 1  
    94   27   95 1  
    95   27   96 1  
    96   28   97 1  
    97   30   98 1  
    98   30   99 1  
    99   31  100 1  
   100   31  101 1  
   101   32  102 1  
   102   33  103 1  
   103   36  104 1  
   104   36  105 1  
   105   37  106 1  
   106   37  107 1  
   107   40  108 1  
   108   40  109 1  
   109   41  110 1  
   110   42  111 1  
   111   45  112 1  
   112   45  113 1  
   113   46  114 1  
   114   46  115 1  
   115   47  116 1  
   116   47  117 1  
   117   48  118 1  
   118   50  119 1  
   119   50  120 1  
   120   51  121 1  
   121   51  122 1  
   122   52  123 1  
   123   53  124 1  
   124   56  125 1  
   125   56  126 1  
   126   57  127 1  
   127   57  128 1  
   128   58  129 1  
   129   58  130 1  
   130   59  131 1  
   131   61  132 1  
   132   61  133 1  
   133   62  134 1  
   134   62  135 1  
@<TRIPOS>SUBSTRUCTURE
     1 SER         1

