5vqi_ligand
  -I-interpret- 

133132  0  0  0  0  0  0  0  0999 V2000
  -40.0180   60.9060  205.2530 N   0  3  0  0  0
  -41.1790   60.5760  206.0790 C   0  0  0  0  0
  -41.0790   61.2440  207.4460 C   0  0  0  0  0
  -40.1000   61.0520  208.1710 O   0  0  0  0  0
  -41.3240   59.0700  206.2390 C   0  0  0  0  0
  -42.1010   62.0280  207.7860 N   0  0  0  0  0
  -42.1490   62.7740  209.0420 C   0  0  0  0  0
  -43.0670   62.1020  210.0340 C   0  0  0  0  0
  -43.7070   62.7700  210.8400 O   0  0  0  0  0
  -42.6270   64.2010  208.8000 C   0  0  0  0  0
  -43.6960   64.1960  207.8670 O   0  0  0  0  0
  -43.1380   60.7780  209.9560 N   0  0  0  0  0
  -43.9960   60.0020  210.8270 C   0  0  0  0  0
  -43.1620   59.0400  211.6720 C   0  0  0  0  0
  -42.0410   58.6780  211.2980 O   0  0  0  0  0
  -45.0460   59.2460  210.0040 C   0  0  0  0  0
  -46.1470   60.1370  209.4190 C   0  0  0  0  0
  -47.1710   59.3070  208.6520 C   0  0  0  0  0
  -48.1700   60.1770  207.9130 C   0  0  0  0  0
  -49.2450   59.3630  207.2860 N   0  3  0  0  0
  -43.7050   58.6470  212.8230 N   0  0  0  0  0
  -43.0480   57.6840  213.7080 C   0  0  0  0  0
  -44.0230   56.6290  214.1990 C   0  0  0  0  0
  -45.0000   56.9520  214.8840 O   0  0  0  0  0
  -42.4270   58.3750  214.9230 C   0  0  0  0  0
  -41.3770   59.4060  214.6200 C   0  0  0  0  0
  -40.9740   60.0870  215.9070 C   0  0  0  0  0
  -39.9020   61.0500  215.7010 N   0  0  0  0  0
  -39.3240   61.7290  216.6840 C   0  0  0  0  0
  -39.7370   61.5420  217.9290 N   0  0  0  0  0
  -38.3460   62.5920  216.4240 N   0  0  0  0  0
  -43.7570   55.3720  213.8570 N   0  0  0  0  0
  -44.5020   54.2520  214.4320 C   0  0  0  0  0
  -43.9720   53.9860  215.8260 C   0  0  0  0  0
  -42.7720   54.1180  216.0640 O   0  0  0  0  0
  -44.3790   52.9980  213.5660 C   0  0  0  0  0
  -45.0540   51.7680  214.1390 C   0  0  0  0  0
  -44.5700   50.4970  213.4760 C   0  0  0  0  0
  -43.4940   50.4720  212.8840 O   0  0  0  0  0
  -45.3540   49.4350  213.5770 N   0  0  0  0  0
  -44.8580   53.6440  216.7580 N   0  0  0  0  0
  -44.4250   53.2950  218.1050 C   0  0  0  0  0
  -44.1460   51.7940  218.1810 C   0  0  0  0  0
  -45.0500   50.9790  217.9950 O   0  0  0  0  0
  -45.4560   53.7140  219.1570 C   0  0  0  0  0
  -44.9860   53.3500  220.5490 C   0  0  0  0  0
  -45.7430   53.9960  221.6930 C   0  0  0  0  0
  -45.1250   53.6030  222.9620 N   0  0  0  0  0
  -45.5390   53.9870  224.1690 C   0  0  0  0  0
  -46.5870   54.7960  224.3050 N   0  0  0  0  0
  -44.8970   53.5570  225.2480 N   0  0  0  0  0
  -42.8860   51.4630  218.4750 N   0  0  0  0  0
  -42.2910   50.1130  218.3680 C   0  0  0  0  0
  -42.2500   49.6400  216.9150 C   0  0  0  0  0
  -41.1790   49.5770  216.2880 O   0  0  0  0  0
  -43.0200   49.0610  219.2220 C   0  0  0  0  0
  -43.2960   49.4200  220.6720 C   0  0  0  0  0
  -42.4160   50.5120  221.2570 C   0  0  0  0  0
  -42.9080   50.9240  222.5780 N   0  0  0  0  0
  -42.7770   50.1960  223.6860 C   0  0  0  0  0
  -42.1610   49.0180  223.6470 N   0  0  0  0  0
  -43.2510   50.6420  224.8380 N   0  0  0  0  0
  -43.2860   49.3040  216.3170 O   0  0  0  0  0
  -39.9440   61.9192  205.1619 H   0  0  0  0  0
  -39.1738   60.5405  205.6936 H   0  0  0  0  0
  -40.1293   60.4876  204.3295 H   0  0  0  0  0
  -42.0663   60.9547  205.5716 H   0  0  0  0  0
  -40.4548   58.6766  206.7661 H   0  0  0  0  0
  -42.2264   58.8518  206.8101 H   0  0  0  0  0
  -41.3943   58.6065  205.2550 H   0  0  0  0  0
  -42.8861   62.1115  207.1402 H   0  0  0  0  0
  -41.1393   62.7960  209.4519 H   0  0  0  0  0
  -41.8039   64.7951  208.4030 H   0  0  0  0  0
  -42.9707   64.6312  209.7407 H   0  0  0  0  0
  -43.9934   65.0965  207.7180 H   0  0  0  0  0
  -42.5706   60.2928  209.2610 H   0  0  0  0  0
  -44.5193   60.6790  211.5022 H   0  0  0  0  0
  -45.5297   58.5358  210.6746 H   0  0  0  0  0
  -44.5255   58.7851  209.1645 H   0  0  0  0  0
  -45.6915   60.8515  208.7334 H   0  0  0  0  0
  -46.6538   60.6495  210.2367 H   0  0  0  0  0
  -47.7178   58.6938  209.3683 H   0  0  0  0  0
  -46.6383   58.7018  207.9185 H   0  0  0  0  0
  -47.6421   60.7157  207.1261 H   0  0  0  0  0
  -48.6278   60.8601  208.6285 H   0  0  0  0  0
  -49.8963   59.9790  206.7995 H   0  0  0  0  0
  -48.8311   58.7101  206.6206 H   0  0  0  0  0
  -49.7423   58.8436  208.0094 H   0  0  0  0  0
  -44.6097   59.0303  213.0971 H   0  0  0  0  0
  -42.2629   57.2087  213.1200 H   0  0  0  0  0
  -41.9350   57.5948  215.5039 H   0  0  0  0  0
  -43.2382   58.8996  215.4278 H   0  0  0  0  0
  -41.7747   60.1428  213.9221 H   0  0  0  0  0
  -40.5083   58.9258  214.1695 H   0  0  0  0  0
  -40.6188   59.3242  216.5999 H   0  0  0  0  0
  -41.8411   60.6200  216.2969 H   0  0  0  0  0
  -39.5769   61.2120  214.7479 H   0  0  0  0  0
  -40.4907   60.8826  218.1227 H   0  0  0  0  0
  -37.9103   63.1134  217.1847 H   0  0  0  0  0
  -38.0316   62.7324  215.4639 H   0  0  0  0  0
  -43.0179   55.1847  213.1795 H   0  0  0  0  0
  -45.5598   54.5111  214.4762 H   0  0  0  0  0
  -43.3162   52.7696  213.4854 H   0  0  0  0  0
  -44.8686   53.2170  212.6171 H   0  0  0  0  0
  -46.1267   51.8558  213.9667 H   0  0  0  0  0
  -44.8154   51.7112  215.2011 H   0  0  0  0  0
  -45.0721   48.5509  213.1536 H   0  0  0  0  0
  -46.2399   49.5009  214.0783 H   0  0  0  0  0
  -45.8513   53.6259  216.5270 H   0  0  0  0  0
  -43.5073   53.8411  218.3236 H   0  0  0  0  0
  -46.3927   53.1941  218.9562 H   0  0  0  0  0
  -45.5915   54.7942  219.1041 H   0  0  0  0  0
  -43.9562   53.6986  220.6265 H   0  0  0  0  0
  -45.1332   52.2749  220.6516 H   0  0  0  0  0
  -46.7824   53.6683  221.6752 H   0  0  0  0  0
  -45.7075   55.0805  221.5891 H   0  0  0  0  0
  -44.3135   52.9866  222.9181 H   0  0  0  0  0
  -46.8929   55.0824  225.2349 H   0  0  0  0  0
  -47.0843   55.1296  223.4793 H   0  0  0  0  0
  -44.0929   52.9371  225.1498 H   0  0  0  0  0
  -42.2765   52.2117  218.8044 H   0  0  0  0  0
  -41.2762   50.2092  218.7542 H   0  0  0  0  0
  -40.4595   49.8609  216.8566 H   0  0  0  0  0
  -42.3614   48.1929  219.2507 H   0  0  0  0  0
  -43.9970   48.9262  218.7578 H   0  0  0  0  0
  -43.1021   48.5203  221.2559 H   0  0  0  0  0
  -44.3191   49.7940  220.7089 H   0  0  0  0  0
  -42.4340   51.3739  220.5900 H   0  0  0  0  0
  -41.4016   50.1276  221.3632 H   0  0  0  0  0
  -43.3802   51.8251  222.6519 H   0  0  0  0  0
  -42.0578   48.4680  224.4998 H   0  0  0  0  0
  -41.7918   48.6645  222.7643 H   0  0  0  0  0
  -43.7193   51.5471  224.8806 H   0  0  0  0  0
  1  2  1  0  0  0
  2  3  1  0  0  0
  2  5  1  0  0  0
  3  4  2  0  0  0
  3  6  1  0  0  0
  6  7  1  0  0  0
  7  8  1  0  0  0
  7 10  1  0  0  0
  8  9  2  0  0  0
  8 12  1  0  0  0
 10 11  1  0  0  0
 12 13  1  0  0  0
 13 14  1  0  0  0
 13 16  1  0  0  0
 14 15  2  0  0  0
 14 21  1  0  0  0
 16 17  1  0  0  0
 17 18  1  0  0  0
 18 19  1  0  0  0
 19 20  1  0  0  0
 21 22  1  0  0  0
 22 23  1  0  0  0
 22 25  1  0  0  0
 23 24  2  0  0  0
 23 32  1  0  0  0
 25 26  1  0  0  0
 26 27  1  0  0  0
 27 28  1  0  0  0
 28 29  1  0  0  0
 29 30  2  0  0  0
 29 31  1  0  0  0
 32 33  1  0  0  0
 33 34  1  0  0  0
 33 36  1  0  0  0
 34 35  2  0  0  0
 34 41  1  0  0  0
 36 37  1  0  0  0
 37 38  1  0  0  0
 38 39  2  0  0  0
 38 40  1  0  0  0
 41 42  1  0  0  0
 42 43  1  0  0  0
 42 45  1  0  0  0
 43 44  2  0  0  0
 43 52  1  0  0  0
 45 46  1  0  0  0
 46 47  1  0  0  0
 47 48  1  0  0  0
 48 49  1  0  0  0
 49 50  1  0  0  0
 49 51  2  0  0  0
 52 53  1  0  0  0
 53 54  1  0  0  0
 53 56  1  0  0  0
 54 55  1  0  0  0
 54 63  2  0  0  0
 56 57  1  0  0  0
 57 58  1  0  0  0
 58 59  1  0  0  0
 59 60  1  0  0  0
 60 61  1  0  0  0
 60 62  2  0  0  0
  1 64  1  0  0  0
  1 65  1  0  0  0
  1 66  1  0  0  0
  2 67  1  0  0  0
  5 68  1  0  0  0
  5 69  1  0  0  0
  5 70  1  0  0  0
  6 71  1  0  0  0
  7 72  1  0  0  0
 10 73  1  0  0  0
 10 74  1  0  0  0
 11 75  1  0  0  0
 12 76  1  0  0  0
 13 77  1  0  0  0
 16 78  1  0  0  0
 16 79  1  0  0  0
 17 80  1  0  0  0
 17 81  1  0  0  0
 18 82  1  0  0  0
 18 83  1  0  0  0
 19 84  1  0  0  0
 19 85  1  0  0  0
 20 86  1  0  0  0
 20 87  1  0  0  0
 20 88  1  0  0  0
 21 89  1  0  0  0
 22 90  1  0  0  0
 25 91  1  0  0  0
 25 92  1  0  0  0
 26 93  1  0  0  0
 26 94  1  0  0  0
 27 95  1  0  0  0
 27 96  1  0  0  0
 28 97  1  0  0  0
 30 98  1  0  0  0
 31 99  1  0  0  0
 31100  1  0  0  0
 32101  1  0  0  0
 33102  1  0  0  0
 36103  1  0  0  0
 36104  1  0  0  0
 37105  1  0  0  0
 37106  1  0  0  0
 40107  1  0  0  0
 40108  1  0  0  0
 41109  1  0  0  0
 42110  1  0  0  0
 45111  1  0  0  0
 45112  1  0  0  0
 46113  1  0  0  0
 46114  1  0  0  0
 47115  1  0  0  0
 47116  1  0  0  0
 48117  1  0  0  0
 50118  1  0  0  0
 50119  1  0  0  0
 51120  1  0  0  0
 52121  1  0  0  0
 53122  1  0  0  0
 55123  1  0  0  0
 56124  1  0  0  0
 56125  1  0  0  0
 57126  1  0  0  0
 57127  1  0  0  0
 58128  1  0  0  0
 58129  1  0  0  0
 59130  1  0  0  0
 61131  1  0  0  0
 61132  1  0  0  0
 62133  1  0  0  0
M  END
$$$$
