2w05_ligand
  -I-interpret- 

 56 58  0  0  0  0  0  0  0  0999 V2000
   -0.6120   29.7420    8.1750 C   0  0  0  0  0
    0.3870   29.0570    7.5420 N   0  0  0  0  0
    1.2800   29.7190    6.7870 C   0  0  0  0  0
    1.2800   31.0390    6.5910 N   0  0  0  0  0
    0.3220   31.7720    7.1860 C   0  0  0  0  0
   -0.6740   31.1800    8.0040 C   0  0  0  0  0
    2.2870   28.8850    6.1710 N   0  0  0  0  0
    3.0700   27.7270    6.5550 C   0  0  0  0  0
    2.9200   27.0490    7.8080 C   0  0  0  0  0
    3.7200   25.9270    8.1180 C   0  0  0  0  0
    4.6730   25.4830    7.1750 C   0  0  0  0  0
    4.8470   26.1280    5.9280 C   0  0  0  0  0
    4.0420   27.2530    5.6210 C   0  0  0  0  0
    5.6590   24.1120    7.5580 S   0  0  0  0  0
    4.7450   23.0880    8.6240 N   0  0  0  0  0
    4.2800   21.8560    7.9530 C   0  0  0  0  0
    3.4970   20.9690    8.9230 C   0  0  0  0  0
    3.0660   19.7760    8.2400 O   0  0  0  0  0
    2.3130   18.8540    9.0630 C   0  0  0  0  0
   -1.5680   29.0270    8.9950 C   0  0  0  0  0
   -1.3470   27.8240    9.7550 N   0  0  0  0  0
   -2.6540   27.6920   10.3070 C   0  0  0  0  0
   -3.6280   28.6070   10.0110 N   0  0  0  0  0
   -2.9270   29.4440    9.1830 C   0  0  0  0  0
   -0.0740   26.9880    9.9180 C   0  0  0  0  0
    0.4320   26.9880   11.3740 C   0  0  0  0  0
   -0.2660   25.5370    9.4020 C   0  0  0  0  0
   -3.1040   26.5640   11.2600 C   0  0  0  0  0
    6.0130   23.3090    6.2270 O   0  0  0  0  0
    6.9850   24.5790    8.3040 O   0  0  0  0  0
    0.3108   32.8515    7.0353 H   0  0  0  0  0
   -1.4498   31.7784    8.4817 H   0  0  0  0  0
    2.5021   29.1897    5.2216 H   0  0  0  0  0
    2.1821   27.4020    8.5284 H   0  0  0  0  0
    3.6035   25.4113    9.0712 H   0  0  0  0  0
    5.5879   25.7657    5.2153 H   0  0  0  0  0
    4.1652   27.7610    4.6645 H   0  0  0  0  0
    4.5517   23.3115    9.6003 H   0  0  0  0  0
    5.1481   21.3028    7.5947 H   0  0  0  0  0
    3.6268   22.1326    7.1254 H   0  0  0  0  0
    2.6265   21.5122    9.2907 H   0  0  0  0  0
    4.1358   20.6965    9.7631 H   0  0  0  0  0
    2.9279   18.5345    9.9044 H   0  0  0  0  0
    1.4161   19.3497    9.4344 H   0  0  0  0  0
    2.0298   17.9858    8.4679 H   0  0  0  0  0
   -3.3562   30.3312    8.7174 H   0  0  0  0  0
    0.6897   27.4623    9.3017 H   0  0  0  0  0
    0.6530   28.0104   11.6805 H   0  0  0  0  0
   -0.3366   26.5705   12.0244 H   0  0  0  0  0
    1.3361   26.3831   11.4431 H   0  0  0  0  0
   -1.0661   25.0557    9.9643 H   0  0  0  0  0
   -0.5271   25.5605    8.3440 H   0  0  0  0  0
    0.6608   24.9793    9.5365 H   0  0  0  0  0
   -2.9844   25.6011   10.7633 H   0  0  0  0  0
   -2.4931   26.5872   12.1624 H   0  0  0  0  0
   -4.1512   26.7100   11.5248 H   0  0  0  0  0
  1  2  4  0  0  0
  1  6  4  0  0  0
  1 20  1  0  0  0
  2  3  4  0  0  0
  3  4  4  0  0  0
  3  7  1  0  0  0
  4  5  4  0  0  0
  5  6  4  0  0  0
  7  8  1  0  0  0
  8  9  4  0  0  0
  8 13  4  0  0  0
  9 10  4  0  0  0
 10 11  4  0  0  0
 11 12  4  0  0  0
 11 14  1  0  0  0
 12 13  4  0  0  0
 14 15  1  0  0  0
 14 29  2  0  0  0
 14 30  2  0  0  0
 15 16  1  0  0  0
 16 17  1  0  0  0
 17 18  1  0  0  0
 18 19  1  0  0  0
 20 21  4  0  0  0
 20 24  4  0  0  0
 21 22  4  0  0  0
 21 25  1  0  0  0
 22 23  4  0  0  0
 22 28  1  0  0  0
 23 24  4  0  0  0
 25 26  1  0  0  0
 25 27  1  0  0  0
  5 31  1  0  0  0
  6 32  1  0  0  0
  7 33  1  0  0  0
  9 34  1  0  0  0
 10 35  1  0  0  0
 12 36  1  0  0  0
 13 37  1  0  0  0
 15 38  1  0  0  0
 16 39  1  0  0  0
 16 40  1  0  0  0
 17 41  1  0  0  0
 17 42  1  0  0  0
 19 43  1  0  0  0
 19 44  1  0  0  0
 19 45  1  0  0  0
 24 46  1  0  0  0
 25 47  1  0  0  0
 26 48  1  0  0  0
 26 49  1  0  0  0
 26 50  1  0  0  0
 27 51  1  0  0  0
 27 52  1  0  0  0
 27 53  1  0  0  0
 28 54  1  0  0  0
 28 55  1  0  0  0
 28 56  1  0  0  0
M  END
$$$$
