4pxm_ligand
  -I-interpret- 

 44 47  0  0  0  0  0  0  0  0999 V2000
   23.7790   -2.5250    4.0500 C   0  0  0  0  0
   22.9890   -2.3190    2.7030 C   0  0  0  0  0
   21.5740   -2.4230    2.8150 C   0  0  0  0  0
   20.8290   -2.0930    1.7670 O   0  0  0  0  0
   20.9270   -2.8240    3.9940 C   0  0  0  0  0
   21.7090   -3.0020    5.1800 C   0  0  0  0  0
   21.0490   -3.3620    6.6640 C   0  0  0  0  0
   22.0530   -3.9120    7.6600 C   0  0  0  0  0
   23.3040   -3.0540    7.7430 C   0  0  0  0  0
   24.1290   -3.1960    6.4340 C   0  0  0  0  0
   23.2590   -2.8850    5.2690 C   0  0  0  0  0
   25.3640   -2.2630    6.5370 C   0  0  0  0  0
   26.2710   -2.7930    7.7310 C   0  0  0  0  0
   25.4680   -2.8130    9.0490 C   0  0  0  0  0
   24.1810   -3.6280    8.8520 C   0  0  0  0  0
   23.6110   -3.7240   10.2850 C   0  0  0  0  0
   24.8940   -3.7820   11.1890 C   0  0  0  0  0
   26.0830   -3.5400   10.2480 C   0  0  0  0  0
   27.1200   -2.7800   10.8660 O   0  0  0  0  0
   25.1410   -1.3760    9.4960 C   0  0  0  0  0
   24.8563   -2.3642    4.0103 H   0  0  0  0  0
   23.4884   -2.1124    1.7564 H   0  0  0  0  0
   19.9016   -2.2114    1.9850 H   0  0  0  0  0
   19.8508   -2.9965    4.0065 H   0  0  0  0  0
   20.2916   -4.1299    6.5065 H   0  0  0  0  0
   20.6528   -2.4349    7.0784 H   0  0  0  0  0
   22.3458   -4.9094    7.3321 H   0  0  0  0  0
   21.5838   -3.9252    8.6438 H   0  0  0  0  0
   23.0201   -2.0157    7.9143 H   0  0  0  0  0
   24.4903   -4.2146    6.2925 H   0  0  0  0  0
   25.0496   -1.2365    6.7258 H   0  0  0  0  0
   25.9245   -2.2706    5.6022 H   0  0  0  0  0
   27.1279   -2.1294    7.8474 H   0  0  0  0  0
   26.6029   -3.8057    7.5021 H   0  0  0  0  0
   24.3073   -4.6369    8.4592 H   0  0  0  0  0
   22.9661   -4.5923   10.4200 H   0  0  0  0  0
   22.9634   -2.8832   10.5335 H   0  0  0  0  0
   24.9788   -4.7440   11.6944 H   0  0  0  0  0
   24.8556   -3.0320   11.9790 H   0  0  0  0  0
   26.5741   -4.4696    9.9604 H   0  0  0  0  0
   27.4757   -3.2717   11.6098 H   0  0  0  0  0
   26.0687   -0.8253    9.6516 H   0  0  0  0  0
   24.5491   -0.8828    8.7249 H   0  0  0  0  0
   24.5745   -1.4064   10.4268 H   0  0  0  0  0
  1  2  4  0  0  0
  1 11  4  0  0  0
  2  3  4  0  0  0
  3  4  1  0  0  0
  3  5  4  0  0  0
  5  6  4  0  0  0
  6  7  1  0  0  0
  6 11  4  0  0  0
  7  8  1  0  0  0
  8  9  1  0  0  0
  9 10  1  0  0  0
  9 15  1  0  0  0
 10 11  1  0  0  0
 10 12  1  0  0  0
 12 13  1  0  0  0
 13 14  1  0  0  0
 14 15  1  0  0  0
 14 18  1  0  0  0
 14 20  1  0  0  0
 15 16  1  0  0  0
 16 17  1  0  0  0
 17 18  1  0  0  0
 18 19  1  0  0  0
  1 21  1  0  0  0
  2 22  1  0  0  0
  4 23  1  0  0  0
  5 24  1  0  0  0
  7 25  1  0  0  0
  7 26  1  0  0  0
  8 27  1  0  0  0
  8 28  1  0  0  0
  9 29  1  0  0  0
 10 30  1  0  0  0
 12 31  1  0  0  0
 12 32  1  0  0  0
 13 33  1  0  0  0
 13 34  1  0  0  0
 15 35  1  0  0  0
 16 36  1  0  0  0
 16 37  1  0  0  0
 17 38  1  0  0  0
 17 39  1  0  0  0
 18 40  1  0  0  0
 19 41  1  0  0  0
 20 42  1  0  0  0
 20 43  1  0  0  0
 20 44  1  0  0  0
M  END
$$$$
