4piq_ligand
  -I-interpret- 

 46 46  0  0  0  0  0  0  0  0999 V2000
   34.3500  -27.1790   15.4860 C   0  0  0  0  0
   35.6020  -27.0420   14.6420 C   0  0  0  0  0
   35.5460  -25.6490   13.9940 C   0  0  0  0  0
   36.2430  -24.5590   14.5610 C   0  0  0  0  0
   36.1380  -23.2650   14.0050 C   0  0  0  0  0
   35.3090  -23.0470   12.8930 C   0  0  0  0  0
   34.6010  -24.1250   12.3330 C   0  0  0  0  0
   34.7180  -25.4160   12.8770 C   0  0  0  0  0
   33.3320  -27.5990   14.9400 O   0  0  0  0  0
   33.5740  -23.8640   10.9470 Cl  0  0  0  0  0
   37.0170  -21.9220   14.7170 Cl  0  0  0  0  0
   34.4410  -26.7760   16.7920 N   0  0  0  0  0
   33.3330  -26.7810   17.7740 C   0  0  0  0  0
   33.1870  -25.4280   18.4880 C   0  0  0  0  0
   33.8600  -24.4710   18.1160 O   0  0  0  0  0
   33.4940  -27.9090   18.8530 C   0  0  0  0  0
   34.6020  -27.6040   19.7210 O   0  0  0  0  0
   33.5800  -29.3630   18.3040 C   0  0  0  0  0
   32.3230  -25.3550   19.5460 N   0  0  0  0  0
   32.0810  -24.1740   20.3720 C   0  0  0  0  0
   30.8860  -24.3650   21.2850 C   0  0  0  0  0
   29.9560  -25.0630   20.8920 O   0  0  0  0  0
   28.7740  -22.7700   23.1980 C   0  0  0  0  0
   28.4010  -22.1240   24.1560 N   0  0  0  0  0
   29.8150  -23.7830   23.4650 C   0  0  0  0  0
   30.9100  -23.7270   22.4890 N   0  0  0  0  0
   35.6464  -27.8227   13.8826 H   0  0  0  0  0
   36.4974  -27.1505   15.2540 H   0  0  0  0  0
   36.8696  -24.7186   15.4385 H   0  0  0  0  0
   35.2149  -22.0483   12.4665 H   0  0  0  0  0
   34.1645  -26.2429   12.4319 H   0  0  0  0  0
   35.3496  -26.4442   17.1156 H   0  0  0  0  0
   32.4327  -26.9775   17.1917 H   0  0  0  0  0
   32.5618  -27.9045   19.4180 H   0  0  0  0  0
   34.6934  -28.2985   20.3775 H   0  0  0  0  0
   32.6695  -29.5960   17.7518 H   0  0  0  0  0
   34.4408  -29.4493   17.6409 H   0  0  0  0  0
   33.6897  -30.0583   19.1362 H   0  0  0  0  0
   31.8013  -26.1999   19.7791 H   0  0  0  0  0
   31.8790  -23.3293   19.7134 H   0  0  0  0  0
   32.9618  -24.0005   20.9902 H   0  0  0  0  0
   28.3648  -22.6117   22.2002 H   0  0  0  0  0
   28.8047  -22.2974   25.0765 H   0  0  0  0  0
   29.3531  -24.7681   23.3990 H   0  0  0  0  0
   30.2321  -23.5871   24.4528 H   0  0  0  0  0
   31.7369  -23.1787   22.7257 H   0  0  0  0  0
  1  2  1  0  0  0
  1  9  2  0  0  0
 12  1  1  0  0  0
  2  3  1  0  0  0
  3  4  4  0  0  0
  3  8  4  0  0  0
  4  5  4  0  0  0
  5  6  4  0  0  0
  5 11  1  0  0  0
  7  6  4  0  0  0
  8  7  4  0  0  0
  7 10  1  0  0  0
 13 12  1  0  0  0
 14 13  1  0  0  0
 13 16  1  0  0  0
 14 15  2  0  0  0
 19 14  1  0  0  0
 16 17  1  0  0  0
 16 18  1  0  0  0
 20 19  1  0  0  0
 21 20  1  0  0  0
 21 22  2  0  0  0
 26 21  1  0  0  0
 23 24  2  0  0  0
 25 23  1  0  0  0
 25 26  1  0  0  0
  2 27  1  0  0  0
  2 28  1  0  0  0
  4 29  1  0  0  0
  6 30  1  0  0  0
  8 31  1  0  0  0
 12 32  1  0  0  0
 13 33  1  0  0  0
 16 34  1  0  0  0
 17 35  1  0  0  0
 18 36  1  0  0  0
 18 37  1  0  0  0
 18 38  1  0  0  0
 19 39  1  0  0  0
 20 40  1  0  0  0
 20 41  1  0  0  0
 23 42  1  0  0  0
 24 43  1  0  0  0
 25 44  1  0  0  0
 25 45  1  0  0  0
 26 46  1  0  0  0
M  END
$$$$
