### 
### Created by X-TOOL on Mon Sep 10 21:13:20 2018
### 

@<TRIPOS>MOLECULE
4piq_ligand
   46    46     1     0     0
SMALL
GAST_HUCK


@<TRIPOS>ATOM
      1 C12        34.3500  -27.1790   15.4860 C.2       1 3FS         0.1898
      2 C13        35.6020  -27.0420   14.6420 C.3       1 3FS         0.0705
      3 C15        35.5460  -25.6490   13.9940 C.ar      1 3FS        -0.0234
      4 C16        36.2430  -24.5590   14.5610 C.ar      1 3FS        -0.0440
      5 C17        36.1380  -23.2650   14.0050 C.ar      1 3FS         0.0347
      6 C18        35.3090  -23.0470   12.8930 C.ar      1 3FS        -0.0406
      7 C19        34.6010  -24.1250   12.3330 C.ar      1 3FS         0.0347
      8 C20        34.7180  -25.4160   12.8770 C.ar      1 3FS        -0.0440
      9 O14        33.3320  -27.5990   14.9400 O.2       1 3FS        -0.3939
     10 CL1        33.5740  -23.8640   10.9470 Cl        1 3FS        -0.0724
     11 CL2        37.0170  -21.9220   14.7170 Cl        1 3FS        -0.0724
     12 N9         34.4410  -26.7760   16.7920 N.am      1 3FS        -0.2616
     13 C8         33.3330  -26.7810   17.7740 C.3       1 3FS         0.1565
     14 C6         33.1870  -25.4280   18.4880 C.2       1 3FS         0.2063
     15 O7         33.8600  -24.4710   18.1160 O.2       1 3FS        -0.3943
     16 C10        33.4940  -27.9090   18.8530 C.3       1 3FS         0.0924
     17 O26        34.6020  -27.6040   19.7210 O.3       1 3FS        -0.3874
     18 C11        33.5800  -29.3630   18.3040 C.3       1 3FS        -0.0346
     19 N5         32.3230  -25.3550   19.5460 N.am      1 3FS        -0.2663
     20 C4         32.0810  -24.1740   20.3720 C.3       1 3FS         0.1202
     21 C2         30.8860  -24.3650   21.2850 C.2       1 3FS         0.2014
     22 O3         29.9560  -25.0630   20.8920 O.2       1 3FS        -0.3946
     23 C24        28.7740  -22.7700   23.1980 C.2       1 3FS         0.0176
     24 N25        28.4010  -22.1240   24.1560 N.2       1 3FS        -0.3621
     25 C23        29.8150  -23.7830   23.4650 C.3       1 3FS         0.0897
     26 N1         30.9100  -23.7270   22.4890 N.am      1 3FS        -0.2653
     27 H          35.6232  -27.8209   13.8656 H         1 3FS         0.0659
     28 H          36.4975  -27.1303   15.2746 H         1 3FS         0.0659
     29 H          36.8662  -24.7177   15.4337 H         1 3FS         0.0568
     30 H          35.2154  -22.0538   12.4689 H         1 3FS         0.0573
     31 H          34.1676  -26.2383   12.4344 H         1 3FS         0.0568
     32 H          35.3318  -26.4507   17.1092 H         1 3FS         0.1885
     33 H          32.4038  -26.9742   17.2180 H         1 3FS         0.0826
     34 H          32.5838  -27.8745   19.4698 H         1 3FS         0.0639
     35 H          34.4431  -26.7745   20.1559 H         1 3FS         0.2101
     36 H          33.6908  -30.0657   19.1430 H         1 3FS         0.0257
     37 H          34.4484  -29.4515   17.6346 H         1 3FS         0.0257
     38 H          32.6617  -29.5994   17.7465 H         1 3FS         0.0257
     39 H          31.8115  -26.1834   19.7745 H         1 3FS         0.1881
     40 H          31.8938  -23.3116   19.7153 H         1 3FS         0.0763
     41 H          32.9722  -23.9801   20.9869 H         1 3FS         0.0763
     42 H          28.3652  -22.6118   22.2011 H         1 3FS         0.1222
     43 H          27.6924  -21.4163   24.0416 H         1 3FS         0.1054
     44 H          29.3556  -24.7816   23.4243 H         1 3FS         0.0803
     45 H          30.2276  -23.6099   24.4699 H         1 3FS         0.0803
     46 H          31.7207  -23.1895   22.7211 H         1 3FS         0.1894
@<TRIPOS>BOND
     1    1    2 1  
     2    1    9 2  
     3   12    1 am 
     4    2    3 1  
     5    3    4 ar 
     6    3    8 ar 
     7    4    5 ar 
     8    5    6 ar 
     9    5   11 1  
    10    7    6 ar 
    11    8    7 ar 
    12    7   10 1  
    13   13   12 1  
    14   14   13 1  
    15   13   16 1  
    16   14   15 2  
    17   19   14 am 
    18   16   17 1  
    19   16   18 1  
    20   20   19 1  
    21   21   20 1  
    22   21   22 2  
    23   26   21 am 
    24   23   24 2  
    25   25   23 1  
    26   25   26 1  
    27    2   27 1  
    28    2   28 1  
    29    4   29 1  
    30    6   30 1  
    31    8   31 1  
    32   12   32 1  
    33   13   33 1  
    34   16   34 1  
    35   17   35 1  
    36   18   36 1  
    37   18   37 1  
    38   18   38 1  
    39   19   39 1  
    40   20   40 1  
    41   20   41 1  
    42   23   42 1  
    43   24   43 1  
    44   25   44 1  
    45   25   45 1  
    46   26   46 1  
@<TRIPOS>SUBSTRUCTURE
     1 3FS         1

