3tiy_ligand
  -I-interpret- 

 24 25  0  0  0  0  0  0  0  0999 V2000
  -94.7320    9.7670  -48.7200 C   0  0  0  0  0
  -94.3220    9.7630  -50.0630 C   0  0  0  0  0
  -92.9950    9.0730  -51.7710 O   0  0  0  0  0
  -93.2570    8.9500  -50.4510 C   0  0  0  0  0
  -92.5410    8.0890  -49.5430 C   0  0  0  0  0
  -92.9790    8.0980  -48.1710 C   0  0  0  0  0
  -92.4450    7.3580  -47.0830 C   0  0  0  0  0
  -91.3970    6.4360  -47.0280 C   0  0  0  0  0
  -90.5760    6.0130  -48.0620 C   0  0  0  0  0
  -90.6010    6.3890  -49.4070 C   0  0  0  0  0
  -91.4650    7.3040  -50.0650 C   0  0  0  0  0
  -91.2030    7.4000  -51.3000 O   0  0  0  0  0
  -89.6330    5.7440  -50.1270 O   0  0  0  0  0
  -94.0680    8.9460  -47.8000 C   0  0  0  0  0
  -95.7600   10.5350  -48.2980 O   0  0  0  0  0
  -94.9230   10.5320  -51.0090 O   0  0  0  0  0
  -92.2593    8.5023  -52.0046 H   0  0  0  0  0
  -92.9369    7.5406  -46.1276 H   0  0  0  0  0
  -91.2004    5.9944  -46.0511 H   0  0  0  0  0
  -89.8077    5.2898  -47.7886 H   0  0  0  0  0
  -89.6777    6.0243  -51.0441 H   0  0  0  0  0
  -94.3946    8.9541  -46.7601 H   0  0  0  0  0
  -95.8904   10.4037  -47.3560 H   0  0  0  0  0
  -94.4976   10.3850  -51.8569 H   0  0  0  0  0
  1  2  4  0  0  0
  1 14  4  0  0  0
  1 15  1  0  0  0
  2  4  4  0  0  0
  2 16  1  0  0  0
  4  3  1  0  0  0
  4  5  4  0  0  0
  5  6  4  0  0  0
  5 11  1  0  0  0
  6  7  1  0  0  0
  6 14  4  0  0  0
  7  8  2  0  0  0
  8  9  1  0  0  0
  9 10  2  0  0  0
 10 11  1  0  0  0
 10 13  1  0  0  0
 11 12  2  0  0  0
  3 17  1  0  0  0
  7 18  1  0  0  0
  8 19  1  0  0  0
  9 20  1  0  0  0
 13 21  1  0  0  0
 14 22  1  0  0  0
 15 23  1  0  0  0
 16 24  1  0  0  0
M  END
$$$$
