3i7e_ligand
  -I-interpret- 

 77 80  0  0  0  0  0  0  0  0999 V2000
    2.2950    2.1710   10.5650 C   0  0  0  0  0
    0.6820    3.2600   11.9230 O   0  0  0  0  0
    1.6270    3.4820   10.8560 C   0  0  0  0  0
    2.6710    4.3860   11.2710 O   0  0  0  0  0
    3.9710    3.7970   11.1030 C   0  0  0  0  0
    3.7630    2.5140   10.3000 C   0  0  0  0  0
    0.5550    1.8450   12.1480 C   0  0  0  0  0
    1.8980    1.2460   11.7350 C   0  0  0  0  0
    2.8430    1.3390   12.8440 O   0  0  0  0  0
    3.7420    0.3230   13.0970 C   0  0  0  0  0
    3.7620   -0.7870   12.5420 O   0  0  0  0  0
    4.5940    0.7350   14.0290 N   0  0  0  0  0
    5.6840   -0.1040   14.5700 C   0  0  0  0  0
    7.0420    0.6480   14.3950 C   0  0  0  0  0
    7.3660    1.0410   12.9470 C   0  0  0  0  0
    7.7990    0.0540   12.0160 C   0  0  0  0  0
    8.0890    0.4150   10.6800 C   0  0  0  0  0
    7.9520    1.7690   10.2600 C   0  0  0  0  0
    7.5230    2.7570   11.1740 C   0  0  0  0  0
    7.2270    2.3980   12.5180 C   0  0  0  0  0
    5.3000   -0.4350   16.0550 C   0  0  0  0  0
    5.4900    0.7160   16.8910 O   0  0  0  0  0
    6.0830   -1.6290   16.6490 C   0  0  0  0  0
    5.8660   -2.8840   15.8860 N   0  0  0  0  0
    7.1990   -3.5630   14.9830 S   0  0  0  0  0
    6.4920   -4.4430   13.8830 O   0  0  0  0  0
    8.0210   -2.3940   14.3210 O   0  0  0  0  0
    8.1940   -4.5280   16.0650 C   0  0  0  0  0
    9.2750   -3.9340   16.7760 C   0  0  0  0  0
   10.0450   -4.7330   17.6570 C   0  0  0  0  0
    9.7400   -6.1200   17.8320 C   0  0  0  0  0
   10.5640   -6.8120   18.7220 O   0  0  0  0  0
   10.4330   -8.2230   19.0390 C   0  0  0  0  0
    8.6510   -6.6810   17.1060 C   0  0  0  0  0
    7.8800   -5.8920   16.2280 C   0  0  0  0  0
    4.5240   -3.5650   15.8830 C   0  0  0  0  0
    3.8570   -3.8080   17.2690 C   0  0  0  0  0
    2.3510   -4.0960   17.1840 C   0  0  0  0  0
    4.5080   -5.0030   17.9790 C   0  0  0  0  0
    2.0038    1.6045    9.6805 H   0  0  0  0  0
    1.0973    3.8951    9.9976 H   0  0  0  0  0
    4.4315    3.5842   12.0677 H   0  0  0  0  0
    4.6449    4.4784   10.5837 H   0  0  0  0  0
    3.9807    2.6412    9.2396 H   0  0  0  0  0
    4.4423    1.7157   10.5988 H   0  0  0  0  0
   -0.2668    1.4203   11.5714 H   0  0  0  0  0
    0.3221    1.6248   13.1898 H   0  0  0  0  0
    1.8728    0.1908   11.4631 H   0  0  0  0  0
    4.4903    1.6828   14.3914 H   0  0  0  0  0
    5.8112   -1.0490   14.0419 H   0  0  0  0  0
    7.8285   -0.0300   14.7264 H   0  0  0  0  0
    6.9730    1.5716   14.9697 H   0  0  0  0  0
    7.9072   -0.9828   12.3343 H   0  0  0  0  0
    8.4179   -0.3442    9.9704 H   0  0  0  0  0
    8.1789    2.0438    9.2299 H   0  0  0  0  0
    7.4190    3.7925   10.8498 H   0  0  0  0  0
    6.8933    3.1594   13.2230 H   0  0  0  0  0
    4.2486   -0.7216   16.0309 H   0  0  0  0  0
    5.2509    0.4968   17.7946 H   0  0  0  0  0
    5.7317   -1.7890   17.6683 H   0  0  0  0  0
    7.1455   -1.3892   16.6085 H   0  0  0  0  0
    9.5075   -2.8773   16.6442 H   0  0  0  0  0
   10.8754   -4.2881   18.2052 H   0  0  0  0  0
    9.4473   -8.4082   19.4658 H   0  0  0  0  0
   10.5527   -8.8111   18.1291 H   0  0  0  0  0
   11.2010   -8.5051   19.7592 H   0  0  0  0  0
    8.4098   -7.7366   17.2310 H   0  0  0  0  0
    7.0478   -6.3335   15.6797 H   0  0  0  0  0
    4.6906   -4.5529   15.4537 H   0  0  0  0  0
    3.8522   -2.9002   15.3400 H   0  0  0  0  0
    4.0039   -2.8802   17.8220 H   0  0  0  0  0
    1.8456   -3.2474   16.7229 H   0  0  0  0  0
    2.1867   -4.9895   16.5817 H   0  0  0  0  0
    1.9556   -4.2548   18.1873 H   0  0  0  0  0
    4.3882   -5.8969   17.3669 H   0  0  0  0  0
    5.5690   -4.8020   18.1271 H   0  0  0  0  0
    4.0274   -5.1557   18.9454 H   0  0  0  0  0
  1  3  1  0  0  0
  1  6  1  0  0  0
  1  8  1  0  0  0
  3  2  1  0  0  0
  2  7  1  0  0  0
  3  4  1  0  0  0
  4  5  1  0  0  0
  5  6  1  0  0  0
  7  8  1  0  0  0
  8  9  1  0  0  0
  9 10  1  0  0  0
 10 11  2  0  0  0
 10 12  1  0  0  0
 12 13  1  0  0  0
 13 14  1  0  0  0
 13 21  1  0  0  0
 14 15  1  0  0  0
 15 16  4  0  0  0
 15 20  4  0  0  0
 16 17  4  0  0  0
 17 18  4  0  0  0
 18 19  4  0  0  0
 19 20  4  0  0  0
 21 22  1  0  0  0
 21 23  1  0  0  0
 23 24  1  0  0  0
 24 25  1  0  0  0
 24 36  1  0  0  0
 25 26  2  0  0  0
 25 27  2  0  0  0
 25 28  1  0  0  0
 28 29  4  0  0  0
 28 35  4  0  0  0
 29 30  4  0  0  0
 30 31  4  0  0  0
 31 32  1  0  0  0
 31 34  4  0  0  0
 32 33  1  0  0  0
 34 35  4  0  0  0
 36 37  1  0  0  0
 37 38  1  0  0  0
 37 39  1  0  0  0
  1 40  1  0  0  0
  3 41  1  0  0  0
  5 42  1  0  0  0
  5 43  1  0  0  0
  6 44  1  0  0  0
  6 45  1  0  0  0
  7 46  1  0  0  0
  7 47  1  0  0  0
  8 48  1  0  0  0
 12 49  1  0  0  0
 13 50  1  0  0  0
 14 51  1  0  0  0
 14 52  1  0  0  0
 16 53  1  0  0  0
 17 54  1  0  0  0
 18 55  1  0  0  0
 19 56  1  0  0  0
 20 57  1  0  0  0
 21 58  1  0  0  0
 22 59  1  0  0  0
 23 60  1  0  0  0
 23 61  1  0  0  0
 29 62  1  0  0  0
 30 63  1  0  0  0
 33 64  1  0  0  0
 33 65  1  0  0  0
 33 66  1  0  0  0
 34 67  1  0  0  0
 35 68  1  0  0  0
 36 69  1  0  0  0
 36 70  1  0  0  0
 37 71  1  0  0  0
 38 72  1  0  0  0
 38 73  1  0  0  0
 38 74  1  0  0  0
 39 75  1  0  0  0
 39 76  1  0  0  0
 39 77  1  0  0  0
M  END
$$$$
