2vwm_ligand
  -I-interpret- 

 65 69  0  0  0  0  0  0  0  0999 V2000
   17.6140   10.9800   30.6350 O   0  0  0  0  0
   17.5410   10.5570   31.8190 C   0  0  0  0  0
   17.8390   11.3320   32.9910 C   0  0  0  0  0
   17.7470   10.7890   34.2380 C   0  0  0  0  0
   17.3270    9.4340   34.4020 C   0  0  0  0  0
   17.0580    8.6690   33.3140 C   0  0  0  0  0
   17.1380    9.2020   32.0090 N   0  0  0  0  0
   16.8490    8.3830   30.8440 C   0  0  0  0  0
   17.8510    7.5080   30.4430 C   0  0  0  0  0
   17.6130    6.7460   29.3240 C   0  0  0  0  0
   18.5840    5.8730   28.9330 F   0  0  0  0  0
   15.6450    8.5050   30.1560 C   0  0  0  0  0
   15.4090    7.7010   29.0310 C   0  0  0  0  0
   16.4130    6.8230   28.6200 C   0  0  0  0  0
   16.1980    6.0120   27.4540 N   0  0  0  0  0
   15.6940    6.6550   26.2910 C   0  0  0  0  0
   15.5460    7.8820   26.3200 O   0  0  0  0  0
   15.3470    5.8960   25.0490 C   0  0  0  0  0
   15.1000    4.4530   25.2310 N   0  3  0  0  0
   15.5340    3.4960   24.1870 C   0  0  0  0  0
   15.0200    3.9400   22.8610 C   0  0  0  0  0
   15.8250    3.7220   21.7650 N   0  0  0  0  0
   13.9190    4.5020   22.7680 O   0  0  0  0  0
   14.0630    4.0360   25.9140 C   0  0  0  0  0
   13.6530    2.6620   25.4530 C   0  0  0  0  0
   14.7670    2.2680   24.5410 C   0  0  0  0  0
   13.5740    1.7100   26.5520 N   0  0  0  0  0
   12.5700    1.8850   27.4530 C   0  0  0  0  0
   11.7900    2.8330   27.3020 O   0  0  0  0  0
   12.4820    0.9510   28.5340 C   0  0  0  0  0
   13.2730   -0.1310   28.7780 C   0  0  0  0  0
   12.8670   -0.8090   29.9400 C   0  0  0  0  0
   11.8110   -0.1490   30.5140 C   0  0  0  0  0
   11.2280    1.2200   29.6860 S   0  0  0  0  0
   11.0350   -0.5070   32.0180 Cl  0  0  0  0  0
   15.4560    4.0160   20.4000 C   0  0  0  0  0
   16.6630    3.9330   19.4580 C   0  0  0  0  0
   16.5000    3.1960   18.1580 C   0  0  0  0  0
   17.3350    2.6030   19.2560 C   0  0  0  0  0
   18.1441   12.3727   32.8814 H   0  0  0  0  0
   17.9947   11.3908   35.1124 H   0  0  0  0  0
   17.2224    9.0138   35.4023 H   0  0  0  0  0
   16.7753    7.6251   33.4498 H   0  0  0  0  0
   18.7883    7.4290   30.9937 H   0  0  0  0  0
   14.8919    9.2193   30.4887 H   0  0  0  0  0
   14.4642    7.7606   28.4908 H   0  0  0  0  0
   16.3995    5.0121   27.4605 H   0  0  0  0  0
   16.2066    5.9812   24.3842 H   0  0  0  0  0
   14.4171    6.3241   24.6746 H   0  0  0  0  0
   16.6170    3.3831   24.1379 H   0  0  0  0  0
   16.7495    3.3237   21.9294 H   0  0  0  0  0
   13.5678    4.6022   26.7029 H   0  0  0  0  0
   12.6652    2.6676   24.9922 H   0  0  0  0  0
   15.4192    1.5477   25.0349 H   0  0  0  0  0
   14.3674    1.8025   23.6400 H   0  0  0  0  0
   14.2426    0.9450   26.6423 H   0  0  0  0  0
   14.1131   -0.4322   28.1522 H   0  0  0  0  0
   13.3223   -1.7209   30.3263 H   0  0  0  0  0
   15.0587    5.0303   20.3617 H   0  0  0  0  0
   14.7168    3.2826   20.0777 H   0  0  0  0  0
   17.0011    4.9279   19.7479 H   0  0  0  0  0
   16.5785    3.3969   17.0896 H   0  0  0  0  0
   15.6971    2.8912   17.4867 H   0  0  0  0  0
   17.4412    1.6530   19.7798 H   0  0  0  0  0
   18.3221    2.1584   19.3828 H   0  0  0  0  0
  1  2  2  0  0  0
  2  3  1  0  0  0
  2  7  1  0  0  0
  3  4  2  0  0  0
  4  5  1  0  0  0
  5  6  2  0  0  0
  6  7  1  0  0  0
  7  8  1  0  0  0
  8  9  4  0  0  0
  8 12  4  0  0  0
  9 10  4  0  0  0
 10 11  1  0  0  0
 10 14  4  0  0  0
 12 13  4  0  0  0
 13 14  4  0  0  0
 14 15  1  0  0  0
 15 16  1  0  0  0
 16 17  2  0  0  0
 16 18  1  0  0  0
 18 19  1  0  0  0
 19 20  1  0  0  0
 19 24  2  0  0  0
 20 21  1  0  0  0
 20 26  1  0  0  0
 21 22  1  0  0  0
 21 23  2  0  0  0
 22 36  1  0  0  0
 24 25  1  0  0  0
 25 26  1  0  0  0
 25 27  1  0  0  0
 27 28  1  0  0  0
 28 29  2  0  0  0
 28 30  1  0  0  0
 30 31  4  0  0  0
 30 34  4  0  0  0
 31 32  4  0  0  0
 32 33  4  0  0  0
 33 34  4  0  0  0
 33 35  1  0  0  0
 36 37  1  0  0  0
 37 38  1  0  0  0
 37 39  1  0  0  0
 38 39  1  0  0  0
  3 40  1  0  0  0
  4 41  1  0  0  0
  5 42  1  0  0  0
  6 43  1  0  0  0
  9 44  1  0  0  0
 12 45  1  0  0  0
 13 46  1  0  0  0
 15 47  1  0  0  0
 18 48  1  0  0  0
 18 49  1  0  0  0
 20 50  1  0  0  0
 22 51  1  0  0  0
 24 52  1  0  0  0
 25 53  1  0  0  0
 26 54  1  0  0  0
 26 55  1  0  0  0
 27 56  1  0  0  0
 31 57  1  0  0  0
 32 58  1  0  0  0
 36 59  1  0  0  0
 36 60  1  0  0  0
 37 61  1  0  0  0
 38 62  1  0  0  0
 38 63  1  0  0  0
 39 64  1  0  0  0
 39 65  1  0  0  0
M  END
$$$$
