4cpt_ligand
  -I-interpret- 

108111  0  0  0  0  0  0  0  0999 V2000
    7.8350   23.4840    2.7730 C   0  0  0  0  0
    9.0990   23.0340    3.1410 C   0  0  0  0  0
   10.2220   23.8290    2.9230 C   0  0  0  0  0
   11.4750   23.4640    3.4340 C   0  0  0  0  0
   10.0680   25.0370    2.2540 C   0  0  0  0  0
    8.8020   25.4970    1.9090 C   0  0  0  0  0
    7.6760   24.7220    2.1540 C   0  0  0  0  0
    6.4140   25.2120    1.7890 C   0  0  0  0  0
    5.4170   24.8740    2.7070 C   0  0  0  0  0
    5.1920   25.5620    3.9040 C   0  0  0  0  0
    6.0780   26.5090    4.4230 C   0  0  0  0  0
    6.9930   25.8500    5.3840 N   0  0  0  0  0
    8.2080   26.4520    5.7240 C   0  0  0  0  0
    8.4740   27.5340    5.1960 O   0  0  0  0  0
    9.1690   25.7330    6.4700 C   0  0  0  0  0
    9.5330   26.5320    7.7300 C   0  0  0  0  0
    8.2790   26.7280    8.5880 C   0  0  0  0  0
   10.6040   25.7920    8.5380 C   0  0  0  0  0
   10.3730   25.5260    5.6250 N   0  0  0  0  0
   11.0380   24.2960    5.5340 C   0  0  0  0  0
   10.5840   23.3230    6.1440 O   0  0  0  0  0
   12.0230   24.1550    4.5400 C   0  0  0  0  0
   12.4380   25.4660    4.1210 O   0  0  0  0  0
   13.2760   23.4260    5.0700 C   0  0  0  0  0
   13.6300   23.9230    6.4840 C   0  0  0  0  0
   15.1290   23.7600    6.7790 C   0  0  0  0  0
   15.4910   22.3770    7.1440 N   0  3  0  0  0
   15.8930   21.6160    6.2070 N   0  0  0  0  0
   15.3770   20.5260    5.6070 C   0  0  0  0  0
   14.0710   20.1770    6.0640 O   0  0  0  0  0
   16.1520   19.7380    4.8150 C   0  0  0  0  0
   15.4770   18.9870    3.6540 C   0  0  0  0  0
   14.5890   17.8600    4.1950 C   0  0  0  0  0
   14.6280   19.9550    2.8320 C   0  0  0  0  0
   16.5510   18.3710    2.7590 C   0  0  0  0  0
   16.8510   18.7510    5.6530 N   0  0  0  0  0
   18.1810   18.7530    5.7890 C   0  0  0  0  0
   18.8780   19.5100    5.1070 O   0  0  0  0  0
   18.7450   17.9010    6.6900 O   0  0  0  0  0
   20.1590   18.0940    6.7910 C   0  0  0  0  0
   16.1380   22.1990    8.3200 C   0  0  0  0  0
   16.2400   20.9050    8.8360 C   0  0  0  0  0
   17.4810   20.2900    8.9720 C   0  0  0  0  0
   17.6050   19.0590    9.6220 C   0  0  0  0  0
   15.1560   20.3580    9.5030 C   0  0  0  0  0
   15.2670   19.1190   10.1230 C   0  0  0  0  0
   16.4880   18.4660   10.1990 C   0  0  0  0  0
   16.5690   17.2360   10.8560 C   0  0  0  0  0
   17.6830   16.9280   11.6280 C   0  0  0  0  0
   17.7250   15.7470   12.3620 C   0  0  0  0  0
   16.6270   14.8970   12.3850 C   0  0  0  0  0
   15.4650   15.2460   11.6900 N   0  0  0  0  0
   15.4470   16.4150   10.9170 C   0  0  0  0  0
    6.9615   22.8626    2.9707 H   0  0  0  0  0
    9.2113   22.0531    3.6029 H   0  0  0  0  0
   12.1689   23.6663    2.6181 H   0  0  0  0  0
   11.3333   22.4453    3.7950 H   0  0  0  0  0
   10.9467   25.6288    1.9976 H   0  0  0  0  0
    8.6923   26.4756    1.4416 H   0  0  0  0  0
    6.1484   24.7692    0.8290 H   0  0  0  0  0
    6.4765   26.2995    1.7488 H   0  0  0  0  0
    4.7758   24.0231    2.4769 H   0  0  0  0  0
    4.2791   25.3483    4.4599 H   0  0  0  0  0
    5.5169   27.2924    4.9325 H   0  0  0  0  0
    6.6573   26.9494    3.6115 H   0  0  0  0  0
    6.7357   24.9544    5.7988 H   0  0  0  0  0
    8.7690   24.7647    6.7707 H   0  0  0  0  0
    9.9287   27.5035    7.4337 H   0  0  0  0  0
    7.5294   27.2731    8.0144 H   0  0  0  0  0
    7.8813   25.7547    8.8756 H   0  0  0  0  0
    8.5372   27.2951    9.4823 H   0  0  0  0  0
   10.2235   24.8143    8.8335 H   0  0  0  0  0
   11.4968   25.6659    7.9256 H   0  0  0  0  0
   10.8510   26.3713    9.4277 H   0  0  0  0  0
   10.7318   26.3147    5.0868 H   0  0  0  0  0
   13.1113   25.3853    3.4415 H   0  0  0  0  0
   14.1134   23.6295    4.4027 H   0  0  0  0  0
   13.0729   22.3559    5.1108 H   0  0  0  0  0
   13.0692   23.3321    7.2082 H   0  0  0  0  0
   13.3779   24.9813    6.5513 H   0  0  0  0  0
   15.3758   24.4041    7.6230 H   0  0  0  0  0
   15.6783   24.0219    5.8747 H   0  0  0  0  0
   14.5550   22.0225    7.3408 H   0  0  0  0  0
   16.8001   21.8899    5.8294 H   0  0  0  0  0
   16.8113   20.4538    4.3239 H   0  0  0  0  0
   15.1996   17.1601    4.7655 H   0  0  0  0  0
   13.8199   18.2835    4.8410 H   0  0  0  0  0
   14.1185   17.3381    3.3617 H   0  0  0  0  0
   13.8616   20.3957    3.4696 H   0  0  0  0  0
   15.2646   20.7428    2.4294 H   0  0  0  0  0
   14.1540   19.4148    2.0125 H   0  0  0  0  0
   17.1882   19.1611    2.3619 H   0  0  0  0  0
   17.1537   17.6754    3.3430 H   0  0  0  0  0
   16.0746   17.8385    1.9358 H   0  0  0  0  0
   16.3045   18.0441    6.1449 H   0  0  0  0  0
   20.6188   17.9180    5.8185 H   0  0  0  0  0
   20.3630   19.1157    7.1112 H   0  0  0  0  0
   20.5687   17.3948    7.5199 H   0  0  0  0  0
   15.5524   22.7528    9.0538 H   0  0  0  0  0
   17.1648   22.5116    8.1302 H   0  0  0  0  0
   18.3686   20.7751    8.5659 H   0  0  0  0  0
   18.5752   18.5651    9.6764 H   0  0  0  0  0
   14.2120   20.9016    9.5418 H   0  0  0  0  0
   14.3814   18.6538   10.5558 H   0  0  0  0  0
   18.5283   17.6155   11.6585 H   0  0  0  0  0
   18.6237   15.4876   12.9216 H   0  0  0  0  0
   16.6709   13.9615   12.9426 H   0  0  0  0  0
   14.5489   16.6827   10.3603 H   0  0  0  0  0
  1  2  4  0  0  0
  1  7  4  0  0  0
  2  3  4  0  0  0
  3  4  1  0  0  0
  3  5  4  0  0  0
  4 22  1  0  0  0
  5  6  4  0  0  0
  6  7  4  0  0  0
  7  8  1  0  0  0
  8  9  1  0  0  0
  9 10  2  0  0  0
 10 11  1  0  0  0
 11 12  1  0  0  0
 12 13  1  0  0  0
 13 14  2  0  0  0
 13 15  1  0  0  0
 15 16  1  0  0  0
 15 19  1  0  0  0
 16 17  1  0  0  0
 16 18  1  0  0  0
 19 20  1  0  0  0
 20 21  2  0  0  0
 20 22  1  0  0  0
 22 23  1  0  0  0
 22 24  1  0  0  0
 24 25  1  0  0  0
 25 26  1  0  0  0
 26 27  1  0  0  0
 27 28  1  0  0  0
 27 41  1  0  0  0
 28 29  1  0  0  0
 29 30  2  0  0  0
 29 31  1  0  0  0
 31 32  1  0  0  0
 31 36  1  0  0  0
 32 33  1  0  0  0
 32 34  1  0  0  0
 32 35  1  0  0  0
 36 37  1  0  0  0
 37 38  2  0  0  0
 37 39  1  0  0  0
 39 40  1  0  0  0
 41 42  1  0  0  0
 42 43  4  0  0  0
 42 45  4  0  0  0
 43 44  4  0  0  0
 44 47  4  0  0  0
 45 46  4  0  0  0
 46 47  4  0  0  0
 47 48  1  0  0  0
 48 49  4  0  0  0
 48 53  4  0  0  0
 49 50  4  0  0  0
 50 51  4  0  0  0
 51 52  4  0  0  0
 52 53  4  0  0  0
  1 54  1  0  0  0
  2 55  1  0  0  0
  4 56  1  0  0  0
  4 57  1  0  0  0
  5 58  1  0  0  0
  6 59  1  0  0  0
  8 60  1  0  0  0
  8 61  1  0  0  0
  9 62  1  0  0  0
 10 63  1  0  0  0
 11 64  1  0  0  0
 11 65  1  0  0  0
 12 66  1  0  0  0
 15 67  1  0  0  0
 16 68  1  0  0  0
 17 69  1  0  0  0
 17 70  1  0  0  0
 17 71  1  0  0  0
 18 72  1  0  0  0
 18 73  1  0  0  0
 18 74  1  0  0  0
 19 75  1  0  0  0
 23 76  1  0  0  0
 24 77  1  0  0  0
 24 78  1  0  0  0
 25 79  1  0  0  0
 25 80  1  0  0  0
 26 81  1  0  0  0
 26 82  1  0  0  0
 27 83  1  0  0  0
 28 84  1  0  0  0
 31 85  1  0  0  0
 33 86  1  0  0  0
 33 87  1  0  0  0
 33 88  1  0  0  0
 34 89  1  0  0  0
 34 90  1  0  0  0
 34 91  1  0  0  0
 35 92  1  0  0  0
 35 93  1  0  0  0
 35 94  1  0  0  0
 36 95  1  0  0  0
 40 96  1  0  0  0
 40 97  1  0  0  0
 40 98  1  0  0  0
 41 99  1  0  0  0
 41100  1  0  0  0
 43101  1  0  0  0
 44102  1  0  0  0
 45103  1  0  0  0
 46104  1  0  0  0
 49105  1  0  0  0
 50106  1  0  0  0
 51107  1  0  0  0
 53108  1  0  0  0
M  END
$$$$
