2w67_ligand
  -I-interpret- 

 31 31  0  0  0  0  0  0  0  0999 V2000
  -16.2050    2.8620   -3.5010 O   0  0  0  0  0
  -15.0350    2.7940   -3.8510 C   0  0  0  0  0
  -14.6370    2.1650   -5.1690 C   0  0  0  0  0
  -14.0380    3.3180   -3.1330 N   0  0  0  0  0
  -14.1600    3.9600   -1.8160 C   0  0  0  0  0
  -14.6830    2.9220   -0.8580 C   0  0  0  0  0
  -13.5300    2.1410   -0.4030 O   0  0  0  0  0
  -15.3270    3.4800    0.3840 C   0  0  0  0  0
  -15.5900    2.3270    1.1740 O   0  0  0  0  0
  -16.5870    4.3380    0.2030 C   0  0  0  0  0
  -17.6180    3.6160    0.8590 O   0  0  0  0  0
  -17.1020    4.6030   -1.2180 C   0  0  0  0  0
  -16.2080    5.3070   -2.1390 N   0  3  0  0  0
  -14.8300    5.3410   -1.6680 C   0  0  0  0  0
  -14.9623    1.1248   -5.1866 H   0  0  0  0  0
  -15.1096    2.7087   -5.9870 H   0  0  0  0  0
  -13.5535    2.2101   -5.2792 H   0  0  0  0  0
  -13.1027    3.2680   -3.5370 H   0  0  0  0  0
  -13.1495    4.2930   -1.5791 H   0  0  0  0  0
  -15.4435    2.3553   -1.3952 H   0  0  0  0  0
  -13.0822    1.7614   -1.1626 H   0  0  0  0  0
  -14.6519    4.2066    0.8359 H   0  0  0  0  0
  -14.7840    1.8139    1.2676 H   0  0  0  0  0
  -16.3212    5.3240    0.5842 H   0  0  0  0  0
  -18.4436    4.1002    0.7844 H   0  0  0  0  0
  -17.9711    5.2502   -1.0997 H   0  0  0  0  0
  -17.2644    3.6199   -1.6599 H   0  0  0  0  0
  -16.5356    6.2696   -2.2193 H   0  0  0  0  0
  -16.2224    4.8111   -3.0302 H   0  0  0  0  0
  -14.2746    6.0645   -2.2649 H   0  0  0  0  0
  -14.8278    5.6191   -0.6141 H   0  0  0  0  0
  1  2  2  0  0  0
  2  3  1  0  0  0
  2  4  1  0  0  0
  4  5  1  0  0  0
  5  6  1  0  0  0
  5 14  1  0  0  0
  6  7  1  0  0  0
  6  8  1  0  0  0
  8  9  1  0  0  0
  8 10  1  0  0  0
 10 11  1  0  0  0
 10 12  1  0  0  0
 12 13  1  0  0  0
 13 14  1  0  0  0
  3 15  1  0  0  0
  3 16  1  0  0  0
  3 17  1  0  0  0
  4 18  1  0  0  0
  5 19  1  0  0  0
  6 20  1  0  0  0
  7 21  1  0  0  0
  8 22  1  0  0  0
  9 23  1  0  0  0
 10 24  1  0  0  0
 11 25  1  0  0  0
 12 26  1  0  0  0
 12 27  1  0  0  0
 13 28  1  0  0  0
 13 29  1  0  0  0
 14 30  1  0  0  0
 14 31  1  0  0  0
M  END
$$$$
