1ouy_ligand
  -I-interpret- 

 48 52  0  0  0  0  0  0  0  0999 V2000
   37.0730   33.2760   32.3530 F   0  0  0  0  0
   38.2180   32.6250   32.1570 C   0  0  0  0  0
   38.5430   31.5490   33.0140 C   0  0  0  0  0
   39.7580   30.8530   32.8080 C   0  0  0  0  0
   40.6380   31.2380   31.7670 C   0  0  0  0  0
   42.1610   30.3360   31.5450 S   0  0  0  0  0
   43.4540   31.5380   31.7920 C   0  0  0  0  0
   44.8030   31.3040   31.4080 C   0  0  0  0  0
   45.7430   32.3490   31.6290 C   0  0  0  0  0
   45.3470   33.5860   32.2450 C   0  0  0  0  0
   46.2210   34.6870   32.4770 N   0  0  0  0  0
   45.7840   35.8880   33.0660 C   0  0  0  0  0
   46.5150   36.8420   33.2720 O   0  0  0  0  0
   44.4820   35.9910   33.4170 N   0  0  0  0  0
   43.4750   34.9510   33.2350 C   0  0  0  0  0
   43.9760   33.6940   32.5880 C   0  0  0  0  0
   43.0750   32.7050   32.3870 N   0  0  0  0  0
   47.5780   34.6360   32.1330 C   0  0  0  0  0
   48.5990   34.1770   33.0440 C   0  0  0  0  0
   48.2200   33.6570   34.6480 Cl  0  0  0  0  0
   49.9610   34.1470   32.6570 C   0  0  0  0  0
   50.3520   34.5530   31.3650 C   0  0  0  0  0
   49.3710   35.0070   30.4350 C   0  0  0  0  0
   48.0030   35.0420   30.8110 C   0  0  0  0  0
   46.8530   35.6080   29.6160 Cl  0  0  0  0  0
   45.2450   30.0490   30.7750 C   0  0  0  0  0
   45.2790   28.7450   31.5960 C   0  0  0  0  0
   45.7370   27.5000   30.7870 C   0  0  0  0  0
   46.6500   27.8440   29.6650 N   0  0  0  0  0
   46.0820   28.8240   28.7090 C   0  0  0  0  0
   45.6110   30.0690   29.4600 C   0  0  0  0  0
   40.2730   32.3300   30.9200 C   0  0  0  0  0
   41.0890   32.7100   29.9250 F   0  0  0  0  0
   39.0670   33.0370   31.1080 C   0  0  0  0  0
   37.8689   31.2600   33.8203 H   0  0  0  0  0
   40.0183   30.0151   33.4548 H   0  0  0  0  0
   46.7807   32.2093   31.3262 H   0  0  0  0  0
   42.4379   35.0778   33.5455 H   0  0  0  0  0
   50.7154   33.8062   33.3661 H   0  0  0  0  0
   51.4028   34.5200   31.0772 H   0  0  0  0  0
   49.6713   35.3266   29.4371 H   0  0  0  0  0
   45.7178   29.0681   30.8237 H   0  0  0  0  0
   45.0060   28.7002   32.6503 H   0  0  0  0  0
   45.4223   26.4822   31.0176 H   0  0  0  0  0
   47.5820   27.4423   29.5626 H   0  0  0  0  0
   46.0108   28.6785   27.6311 H   0  0  0  0  0
   45.5653   31.0155   28.9214 H   0  0  0  0  0
   38.7995   33.8746   30.4637 H   0  0  0  0  0
  2  1  1  0  0  0
  2  3  4  0  0  0
  2 34  4  0  0  0
  3  4  4  0  0  0
  4  5  4  0  0  0
  5  6  1  0  0  0
  5 32  4  0  0  0
  6  7  1  0  0  0
  7  8  4  0  0  0
  7 17  4  0  0  0
  8  9  4  0  0  0
  8 26  1  0  0  0
  9 10  4  0  0  0
 10 11  1  0  0  0
 10 16  4  0  0  0
 11 12  1  0  0  0
 11 18  1  0  0  0
 12 13  2  0  0  0
 12 14  1  0  0  0
 14 15  2  0  0  0
 15 16  1  0  0  0
 16 17  4  0  0  0
 18 19  4  0  0  0
 18 24  4  0  0  0
 19 20  1  0  0  0
 19 21  4  0  0  0
 21 22  4  0  0  0
 22 23  4  0  0  0
 23 24  4  0  0  0
 24 25  1  0  0  0
 26 27  1  0  0  0
 26 31  1  0  0  0
 27 28  2  0  0  0
 28 29  1  0  0  0
 29 30  1  0  0  0
 30 31  2  0  0  0
 32 33  1  0  0  0
 32 34  4  0  0  0
  3 35  1  0  0  0
  4 36  1  0  0  0
  9 37  1  0  0  0
 15 38  1  0  0  0
 21 39  1  0  0  0
 22 40  1  0  0  0
 23 41  1  0  0  0
 26 42  1  0  0  0
 27 43  1  0  0  0
 28 44  1  0  0  0
 29 45  1  0  0  0
 30 46  1  0  0  0
 31 47  1  0  0  0
 34 48  1  0  0  0
M  END
$$$$
