6sfi_ligand
  -I-interpret- 

 68 71  0  0  0  0  0  0  0  0999 V2000
   55.5350   72.3050   12.2270 N   0  0  0  0  0
   53.8840   76.3350   11.4910 C   0  0  0  0  0
   57.0850   71.7510   16.5290 O   0  0  0  0  0
   58.1680   67.6200   18.0750 N   0  0  0  0  0
   52.0930   75.2570   12.6580 C   0  0  0  0  0
   54.8050   66.0900   20.3680 N   0  0  0  0  0
   52.9630   74.2800   13.1060 C   0  0  0  0  0
   54.3070   74.3360   12.7210 C   0  0  0  0  0
   56.9720   71.1600   15.4580 C   0  0  0  0  0
   56.3380   71.8160   14.2970 C   0  0  0  0  0
   55.6890   73.0380   14.3530 C   0  0  0  0  0
   56.2010   71.4180   12.9490 C   0  0  0  0  0
   55.1920   73.2810   13.1250 N   0  0  0  0  0
   52.5530   76.2800   11.8500 C   0  0  0  0  0
   54.7950   75.3590   11.9230 C   0  0  0  0  0
   56.2500   75.4760   11.5740 C   0  0  0  0  0
   57.4760   69.9400   15.2570 N   0  0  0  0  0
   58.2910   69.2830   16.2620 C   0  0  0  0  0
   57.5580   68.3820   17.2040 C   0  0  0  0  0
   55.7980   68.3200   17.2340 S   0  0  0  0  0
   55.9220   67.2060   18.5530 C   0  0  0  0  0
   57.2230   66.9640   18.8600 C   0  0  0  0  0
   54.6670   66.7010   19.1790 C   0  0  0  0  0
   53.5790   66.9150   18.6710 O   0  0  0  0  0
   53.6780   65.4180   21.0370 C   0  0  0  0  0
   53.8150   65.5840   22.5590 C   0  0  0  0  0
   54.3160   64.6790   23.2410 O   0  0  0  0  0
   53.4790   66.7750   23.0740 N   0  0  0  0  0
   53.6390   63.9510   20.5740 C   0  0  0  0  0
   52.4420   63.1210   20.9850 C   0  0  0  0  0
   51.0530   63.5220   20.4100 C   0  0  0  0  0
   49.9950   62.5110   20.8380 C   0  0  0  0  0
   48.6070   62.8520   20.3150 C   0  0  0  0  0
   48.5980   62.9900   18.8270 C   0  0  0  0  0
   49.6120   64.0290   18.3810 C   0  0  0  0  0
   51.0220   63.6690   18.8840 C   0  0  0  0  0
   54.2345   77.1518   10.8600 H   0  0  0  0  0
   51.0415   75.2204   12.9428 H   0  0  0  0  0
   55.7188   66.0917   20.8213 H   0  0  0  0  0
   52.6064   73.4767   13.7507 H   0  0  0  0  0
   55.5975   73.6826   15.2272 H   0  0  0  0  0
   56.5988   70.4856   12.5484 H   0  0  0  0  0
   51.8623   77.0452   11.4956 H   0  0  0  0  0
   56.3632   75.4783   10.4899 H   0  0  0  0  0
   56.6471   76.4046   11.9840 H   0  0  0  0  0
   56.7926   74.6298   11.9955 H   0  0  0  0  0
   57.2840   69.4594   14.3780 H   0  0  0  0  0
   58.7289   70.0746   16.8700 H   0  0  0  0  0
   58.9995   68.6546   15.7223 H   0  0  0  0  0
   57.5101   66.2962   19.6722 H   0  0  0  0  0
   52.7223   65.8666   20.7660 H   0  0  0  0  0
   53.6335   66.9643   24.0643 H   0  0  0  0  0
   53.0688   67.4920   22.4756 H   0  0  0  0  0
   54.5013   63.4732   21.0391 H   0  0  0  0  0
   53.6112   63.9874   19.4850 H   0  0  0  0  0
   52.3578   63.2448   22.0647 H   0  0  0  0  0
   52.6372   62.1185   20.6042 H   0  0  0  0  0
   50.8395   64.5082   20.8223 H   0  0  0  0  0
   49.9513   62.5146   21.9271 H   0  0  0  0  0
   50.2764   61.5404   20.4294 H   0  0  0  0  0
   48.2988   63.8024   20.7507 H   0  0  0  0  0
   47.9277   62.0452   20.5900 H   0  0  0  0  0
   47.6048   63.3055   18.5073 H   0  0  0  0  0
   48.8569   62.0295   18.3814 H   0  0  0  0  0
   49.3281   64.9969   18.7943 H   0  0  0  0  0
   49.6254   64.0617   17.2916 H   0  0  0  0  0
   51.3151   62.7180   18.4393 H   0  0  0  0  0
   51.7050   64.4696   18.6001 H   0  0  0  0  0
 12  1  4  0  0  0
  1 13  4  0  0  0
  2 14  4  0  0  0
 15  2  4  0  0  0
  9  3  2  0  0  0
  4 19  4  0  0  0
 22  4  4  0  0  0
  7  5  4  0  0  0
  5 14  4  0  0  0
 23  6  1  0  0  0
  6 25  1  0  0  0
  8  7  4  0  0  0
 13  8  1  0  0  0
  8 15  4  0  0  0
  9 10  1  0  0  0
 17  9  1  0  0  0
 10 11  4  0  0  0
 10 12  4  0  0  0
 11 13  4  0  0  0
 15 16  1  0  0  0
 18 17  1  0  0  0
 19 18  1  0  0  0
 20 19  4  0  0  0
 21 20  4  0  0  0
 21 22  4  0  0  0
 21 23  1  0  0  0
 23 24  2  0  0  0
 25 26  1  0  0  0
 25 29  1  0  0  0
 26 27  2  0  0  0
 26 28  1  0  0  0
 29 30  1  0  0  0
 30 31  1  0  0  0
 31 32  1  0  0  0
 31 36  1  0  0  0
 32 33  1  0  0  0
 33 34  1  0  0  0
 34 35  1  0  0  0
 35 36  1  0  0  0
  2 37  1  0  0  0
  5 38  1  0  0  0
  6 39  1  0  0  0
  7 40  1  0  0  0
 11 41  1  0  0  0
 12 42  1  0  0  0
 14 43  1  0  0  0
 16 44  1  0  0  0
 16 45  1  0  0  0
 16 46  1  0  0  0
 17 47  1  0  0  0
 18 48  1  0  0  0
 18 49  1  0  0  0
 22 50  1  0  0  0
 25 51  1  0  0  0
 28 52  1  0  0  0
 28 53  1  0  0  0
 29 54  1  0  0  0
 29 55  1  0  0  0
 30 56  1  0  0  0
 30 57  1  0  0  0
 31 58  1  0  0  0
 32 59  1  0  0  0
 32 60  1  0  0  0
 33 61  1  0  0  0
 33 62  1  0  0  0
 34 63  1  0  0  0
 34 64  1  0  0  0
 35 65  1  0  0  0
 35 66  1  0  0  0
 36 67  1  0  0  0
 36 68  1  0  0  0
M  END
$$$$
