6fav_ligand
  -I-interpret- 

153157  0  0  0  0  0  0  0  0999 V2000
   23.2100   -4.7350  -17.8380 C   0  0  0  0  0
   23.6330   -5.8150  -18.2560 O   0  0  0  0  0
   22.9360   -3.5590  -18.7410 C   0  0  0  0  0
   22.9640   -4.5480  -16.5460 N   0  0  0  0  0
   23.2050   -5.6220  -15.5920 C   0  0  0  0  0
   22.3790   -6.8850  -15.9040 C   0  0  0  0  0
   21.4560   -6.8660  -16.7210 O   0  0  0  0  0
   22.9150   -5.1480  -14.1580 C   0  0  0  0  0
   23.9140   -4.1240  -13.5530 C   0  0  0  0  0
   23.7800   -4.0840  -12.0130 C   0  0  0  0  0
   24.5340   -3.0260  -11.3340 N   0  0  0  0  0
   25.8000   -3.1250  -10.9270 C   0  0  0  0  0
   26.3790   -2.1080  -10.2980 N   0  0  0  0  0
   26.5000   -4.2290  -11.1520 N   0  0  0  0  0
   22.7450   -7.9800  -15.2480 N   0  0  0  0  0
   21.9450   -9.1930  -15.2900 C   0  0  0  0  0
   20.5560   -8.9140  -14.7190 C   0  0  0  0  0
   20.4310   -8.2550  -13.6820 O   0  0  0  0  0
   22.6080  -10.2700  -14.4240 C   0  0  0  0  0
   23.9730  -10.4760  -14.8180 O   0  0  0  0  0
   21.8550  -11.5740  -14.5430 C   0  0  0  0  0
   19.4840   -9.4290  -15.3410 N   0  0  0  0  0
   18.1550   -9.2060  -14.7560 C   0  0  0  0  0
   17.8590   -9.9420  -13.4240 C   0  0  0  0  0
   18.1880  -11.1120  -13.2290 O   0  0  0  0  0
   17.1980   -9.7000  -15.8630 C   0  0  0  0  0
   18.0010   -9.7720  -17.0930 C   0  0  0  0  0
   19.4130  -10.0310  -16.6810 C   0  0  0  0  0
   17.2110   -9.2380  -12.5050 N   0  0  0  0  0
   16.7700   -9.8150  -11.2470 C   0  0  0  0  0
   16.9880   -8.8030  -10.1280 C   0  0  0  0  0
   16.2270   -7.6480  -10.4200 O   0  0  0  0  0
   15.2860  -10.1790  -11.3410 C   0  0  0  0  0
   14.6660  -10.0050  -12.3880 O   0  0  0  0  0
   16.4480   -6.3320   -9.5240 P   0  0  0  0  0
   15.4630   -5.2570  -10.1310 O   0  0  0  0  0
   17.9410   -5.9140   -9.7170 O   0  0  0  0  0
   16.1370   -6.7020   -8.0350 O   0  0  0  0  0
   14.7100  -10.6940  -10.2660 N   0  0  0  0  0
   13.3020  -11.1070  -10.2820 C   0  0  0  0  0
   12.4200   -9.9050  -10.6430 C   0  0  0  0  0
   12.5550   -8.8550  -10.0290 O   0  0  0  0  0
   12.9330  -11.6390   -8.9040 C   0  0  0  0  0
   11.6140  -12.3970   -8.7630 C   0  0  0  0  0
   11.6680  -13.7340   -9.4800 C   0  0  0  0  0
   11.2570  -12.6040   -7.2910 C   0  0  0  0  0
   11.5390  -10.0490  -11.6370 N   0  0  0  0  0
   10.7100   -8.9160  -12.0820 C   0  0  0  0  0
    9.4470   -8.7080  -11.2580 C   0  0  0  0  0
    8.3630   -8.4460  -11.7870 O   0  0  0  0  0
   10.3670   -9.2820  -13.5270 C   0  0  0  0  0
   10.2970  -10.7860  -13.4910 C   0  0  0  0  0
   11.3800  -11.2150  -12.5210 C   0  0  0  0  0
    9.5990   -8.7720   -9.9510 N   0  0  0  0  0
    8.4740   -8.7700   -9.0590 C   0  0  0  0  0
    8.9560   -9.2990   -7.7420 C   0  0  0  0  0
   10.1520   -9.4560   -7.5300 O   0  0  0  0  0
    7.4180  -12.4230  -10.9770 C   0  0  0  0  0
    7.9820  -12.8850   -9.7760 C   0  0  0  0  0
    7.4880  -12.4060   -8.5460 C   0  0  0  0  0
    6.5180   -9.6230   -6.7700 C   0  0  0  0  0
    2.6520  -14.3470   -5.7820 C   0  0  0  0  0
    2.3870  -12.1580   -6.6500 C   0  0  0  0  0
    1.6340  -11.0000   -6.8980 C   0  0  0  0  0
    2.2780   -9.8170   -7.2330 C   0  0  0  0  0
    3.6580   -9.7750   -7.3340 C   0  0  0  0  0
    4.4000  -10.9610   -7.0700 C   0  0  0  0  0
    5.9630  -10.9950   -7.1390 C   0  0  0  0  0
    6.4580  -11.4890   -8.5110 C   0  0  0  0  0
    5.8840  -11.0460   -9.7230 C   0  0  0  0  0
    6.3930  -11.5090  -10.9550 C   0  0  0  0  0
    8.5210   -9.9740   -5.4100 C   0  0  0  0  0
    7.1950   -9.9100   -4.5150 C   0  0  0  0  0
    6.2030   -9.2220   -5.4860 C   0  0  0  0  0
    3.7840  -12.1200   -6.7380 C   0  0  0  0  0
    8.1470   -9.7920   -6.6830 N   0  0  0  0  0
    1.7700  -13.4070   -6.2940 O   0  0  0  0  0
   23.8561   -3.2706  -19.2492 H   0  0  0  0  0
   22.1835   -3.8368  -19.4790 H   0  0  0  0  0
   22.5710   -2.7224  -18.1452 H   0  0  0  0  0
   22.6054   -3.6500  -16.2212 H   0  0  0  0  0
   24.2580   -5.8893  -15.6808 H   0  0  0  0  0
   22.9735   -6.0358  -13.5284 H   0  0  0  0  0
   21.9499   -4.6428  -14.1958 H   0  0  0  0  0
   23.6941   -3.1346  -13.9540 H   0  0  0  0  0
   24.9294   -4.4230  -13.8130 H   0  0  0  0  0
   24.1774   -5.0298  -11.6449 H   0  0  0  0  0
   22.7275   -3.8966  -11.8005 H   0  0  0  0  0
   24.0521   -2.1442  -11.1590 H   0  0  0  0  0
   27.3500   -2.1822   -9.9947 H   0  0  0  0  0
   25.8525   -1.2531  -10.1184 H   0  0  0  0  0
   26.0706   -5.0143  -11.6413 H   0  0  0  0  0
   23.6068   -7.9697  -14.7024 H   0  0  0  0  0
   21.8664   -9.5290  -16.3239 H   0  0  0  0  0
   22.5857   -9.9273  -13.3895 H   0  0  0  0  0
   24.3664  -11.1532  -14.2628 H   0  0  0  0  0
   20.8274  -11.4304  -14.2092 H   0  0  0  0  0
   21.8583  -11.9004  -15.5830 H   0  0  0  0  0
   22.3379  -12.3289  -13.9224 H   0  0  0  0  0
   18.0509   -8.1586  -14.4729 H   0  0  0  0  0
   16.3521   -9.0233  -15.9836 H   0  0  0  0  0
   16.7734  -10.6720  -15.6120 H   0  0  0  0  0
   17.9287   -8.8407  -17.6548 H   0  0  0  0  0
   17.6379  -10.5676  -17.7436 H   0  0  0  0  0
   19.6646  -11.0916  -16.6809 H   0  0  0  0  0
   20.1393   -9.6056  -17.3736 H   0  0  0  0  0
   17.0150   -8.2540  -12.6888 H   0  0  0  0  0
   17.3431  -10.7176  -11.0350 H   0  0  0  0  0
   18.0449   -8.5463  -10.0566 H   0  0  0  0  0
   16.6737   -9.2267   -9.1741 H   0  0  0  0  0
   14.5566   -5.5430   -9.9963 H   0  0  0  0  0
   15.2138   -6.9528   -7.9549 H   0  0  0  0  0
   15.2549  -10.8058   -9.4110 H   0  0  0  0  0
   13.1467  -11.8887  -11.0255 H   0  0  0  0  0
   12.8318  -10.7584   -8.2697 H   0  0  0  0  0
   13.7111  -12.3597   -8.6524 H   0  0  0  0  0
   10.8372  -11.7899   -9.2280 H   0  0  0  0  0
   11.8627  -13.5689  -10.5397 H   0  0  0  0  0
   12.4657  -14.3418   -9.0531 H   0  0  0  0  0
   10.7142  -14.2478   -9.3602 H   0  0  0  0  0
   12.0453  -13.1786   -6.8046 H   0  0  0  0  0
   11.1582  -11.6346   -6.8026 H   0  0  0  0  0
   10.3139  -13.1459   -7.2199 H   0  0  0  0  0
   11.2421   -7.9711  -11.9723 H   0  0  0  0  0
   11.1021   -8.9113  -14.2414 H   0  0  0  0  0
    9.4382   -8.8250  -13.8684 H   0  0  0  0  0
   10.4506  -11.2181  -14.4798 H   0  0  0  0  0
    9.3140  -11.1339  -13.1736 H   0  0  0  0  0
   11.1131  -12.1187  -11.9731 H   0  0  0  0  0
   12.3079  -11.4833  -13.0261 H   0  0  0  0  0
   10.5407   -8.8243   -9.5625 H   0  0  0  0  0
    7.6695   -9.3914   -9.4524 H   0  0  0  0  0
    8.0739   -7.7624   -8.9461 H   0  0  0  0  0
    7.7957  -12.7917  -11.9307 H   0  0  0  0  0
    8.7964  -13.6092   -9.7954 H   0  0  0  0  0
    7.9241  -12.7636   -7.6132 H   0  0  0  0  0
    6.1214   -8.9192   -7.5017 H   0  0  0  0  0
    3.4185  -14.5667   -6.5251 H   0  0  0  0  0
    3.1205  -13.9509   -4.8811 H   0  0  0  0  0
    2.1077  -15.2595   -5.5389 H   0  0  0  0  0
    0.5467  -11.0295   -6.8277 H   0  0  0  0  0
    1.6936   -8.9156   -7.4177 H   0  0  0  0  0
    4.1668   -8.8515   -7.6104 H   0  0  0  0  0
    6.3393  -11.7157   -6.4129 H   0  0  0  0  0
    5.0481  -10.3467   -9.7068 H   0  0  0  0  0
    5.9721  -11.1407  -11.8906 H   0  0  0  0  0
    9.0200  -10.9356   -5.2897 H   0  0  0  0  0
    9.2292   -9.2041   -5.1036 H   0  0  0  0  0
    7.3278   -9.3756   -3.5743 H   0  0  0  0  0
    6.8574  -10.8849   -4.1632 H   0  0  0  0  0
    5.1790   -9.5054   -5.2427 H   0  0  0  0  0
    6.2806   -8.1382   -5.3994 H   0  0  0  0  0
    4.3712  -13.0169   -6.5407 H   0  0  0  0  0
  1  2  2  0  0  0
  1  3  1  0  0  0
  4  1  1  0  0  0
  5  4  1  0  0  0
  6  5  1  0  0  0
  5  8  1  0  0  0
  6  7  2  0  0  0
 15  6  1  0  0  0
  8  9  1  0  0  0
  9 10  1  0  0  0
 10 11  1  0  0  0
 11 12  1  0  0  0
 12 13  1  0  0  0
 12 14  2  0  0  0
 16 15  1  0  0  0
 17 16  1  0  0  0
 16 19  1  0  0  0
 17 18  2  0  0  0
 22 17  1  0  0  0
 19 20  1  0  0  0
 19 21  1  0  0  0
 23 22  1  0  0  0
 22 28  1  0  0  0
 24 23  1  0  0  0
 23 26  1  0  0  0
 24 25  2  0  0  0
 29 24  1  0  0  0
 26 27  1  0  0  0
 27 28  1  0  0  0
 30 29  1  0  0  0
 30 31  1  0  0  0
 33 30  1  0  0  0
 31 32  1  0  0  0
 32 35  1  0  0  0
 33 34  2  0  0  0
 39 33  1  0  0  0
 35 36  1  0  0  0
 35 37  2  0  0  0
 35 38  1  0  0  0
 40 39  1  0  0  0
 41 40  1  0  0  0
 40 43  1  0  0  0
 41 42  2  0  0  0
 47 41  1  0  0  0
 43 44  1  0  0  0
 44 45  1  0  0  0
 44 46  1  0  0  0
 48 47  1  0  0  0
 47 53  1  0  0  0
 49 48  1  0  0  0
 48 51  1  0  0  0
 49 50  2  0  0  0
 54 49  1  0  0  0
 51 52  1  0  0  0
 52 53  1  0  0  0
 55 54  1  0  0  0
 56 55  1  0  0  0
 56 57  2  0  0  0
 76 56  1  0  0  0
 59 58  4  0  0  0
 71 58  4  0  0  0
 60 59  4  0  0  0
 69 60  4  0  0  0
 61 68  1  0  0  0
 61 74  1  0  0  0
 76 61  1  0  0  0
 77 62  1  0  0  0
 63 64  4  0  0  0
 75 63  4  0  0  0
 63 77  1  0  0  0
 65 64  4  0  0  0
 66 65  4  0  0  0
 67 66  4  0  0  0
 68 67  1  0  0  0
 67 75  4  0  0  0
 68 69  1  0  0  0
 69 70  4  0  0  0
 70 71  4  0  0  0
 72 73  1  0  0  0
 76 72  1  0  0  0
 73 74  1  0  0  0
  3 78  1  0  0  0
  3 79  1  0  0  0
  3 80  1  0  0  0
  4 81  1  0  0  0
  5 82  1  0  0  0
  8 83  1  0  0  0
  8 84  1  0  0  0
  9 85  1  0  0  0
  9 86  1  0  0  0
 10 87  1  0  0  0
 10 88  1  0  0  0
 11 89  1  0  0  0
 13 90  1  0  0  0
 13 91  1  0  0  0
 14 92  1  0  0  0
 15 93  1  0  0  0
 16 94  1  0  0  0
 19 95  1  0  0  0
 20 96  1  0  0  0
 21 97  1  0  0  0
 21 98  1  0  0  0
 21 99  1  0  0  0
 23100  1  0  0  0
 26101  1  0  0  0
 26102  1  0  0  0
 27103  1  0  0  0
 27104  1  0  0  0
 28105  1  0  0  0
 28106  1  0  0  0
 29107  1  0  0  0
 30108  1  0  0  0
 31109  1  0  0  0
 31110  1  0  0  0
 36111  1  0  0  0
 38112  1  0  0  0
 39113  1  0  0  0
 40114  1  0  0  0
 43115  1  0  0  0
 43116  1  0  0  0
 44117  1  0  0  0
 45118  1  0  0  0
 45119  1  0  0  0
 45120  1  0  0  0
 46121  1  0  0  0
 46122  1  0  0  0
 46123  1  0  0  0
 48124  1  0  0  0
 51125  1  0  0  0
 51126  1  0  0  0
 52127  1  0  0  0
 52128  1  0  0  0
 53129  1  0  0  0
 53130  1  0  0  0
 54131  1  0  0  0
 55132  1  0  0  0
 55133  1  0  0  0
 58134  1  0  0  0
 59135  1  0  0  0
 60136  1  0  0  0
 61137  1  0  0  0
 62138  1  0  0  0
 62139  1  0  0  0
 62140  1  0  0  0
 64141  1  0  0  0
 65142  1  0  0  0
 66143  1  0  0  0
 68144  1  0  0  0
 70145  1  0  0  0
 71146  1  0  0  0
 72147  1  0  0  0
 72148  1  0  0  0
 73149  1  0  0  0
 73150  1  0  0  0
 74151  1  0  0  0
 74152  1  0  0  0
 75153  1  0  0  0
M  END
$$$$
