### 
### Created by X-TOOL on Wed Jan  1 15:39:35 2020
### 

@<TRIPOS>MOLECULE
6fav_ligand
  152   156     1     0     0
SMALL
GAST_HUCK


@<TRIPOS>ATOM
      1 C          23.2100   -4.7350  -17.8380 C.2       1 ACE         0.1751
      2 O          23.6330   -5.8150  -18.2560 O.2       1 ACE        -0.3972
      3 CH3        22.9360   -3.5590  -18.7410 C.3       1 ACE         0.0258
      4 N          22.9640   -4.5480  -16.5460 N.am      1 ARG        -0.2658
      5 CA         23.2050   -5.6220  -15.5920 C.3       1 ARG         0.1310
      6 C          22.3790   -6.8850  -15.9040 C.2       1 ARG         0.2040
      7 O          21.4560   -6.8660  -16.7210 O.2       1 ARG        -0.3944
      8 CB         22.9150   -5.1480  -14.1580 C.3       1 ARG        -0.0092
      9 CG         23.9140   -4.1240  -13.5530 C.3       1 ARG        -0.0156
     10 CD         23.7800   -4.0840  -12.0130 C.3       1 ARG         0.0627
     11 NE         24.5340   -3.0260  -11.3340 N.pl3     1 ARG        -0.2723
     12 CZ         25.8000   -3.1250  -10.9270 C.cat     1 ARG         0.2882
     13 NH1        26.3790   -2.1080  -10.2980 N.pl3     1 ARG        -0.2849
     14 NH2        26.5000   -4.2290  -11.1520 N.pl3     1 ARG        -0.2849
     15 N          22.7450   -7.9800  -15.2480 N.am      1 THR        -0.2613
     16 CA         21.9450   -9.1930  -15.2900 C.3       1 THR         0.1567
     17 C          20.5560   -8.9140  -14.7190 C.2       1 THR         0.2090
     18 O          20.4310   -8.2550  -13.6820 O.2       1 THR        -0.3941
     19 CB         22.6080  -10.2700  -14.4240 C.3       1 THR         0.0924
     20 OG1        23.9730  -10.4760  -14.8180 O.3       1 THR        -0.3874
     21 CG2        21.8550  -11.5740  -14.5430 C.3       1 THR        -0.0346
     22 N          19.4840   -9.4290  -15.3410 N.am      1 PRO        -0.2498
     23 CA         18.1550   -9.2060  -14.7560 C.3       1 PRO         0.1338
     24 C          17.8590   -9.9420  -13.4240 C.2       1 PRO         0.2042
     25 O          18.1880  -11.1120  -13.2290 O.2       1 PRO        -0.3944
     26 CB         17.1980   -9.7000  -15.8630 C.3       1 PRO        -0.0104
     27 CG         18.0010   -9.7720  -17.0930 C.3       1 PRO        -0.0281
     28 CD         19.4130  -10.0310  -16.6810 C.3       1 PRO         0.0369
     29 N          17.2110   -9.2380  -12.5050 N.am      1 SEP        -0.2613
     30 CA         16.7700   -9.8150  -11.2470 C.3       1 SEP         0.1586
     31 CB         16.9880   -8.8030  -10.1280 C.3       1 SEP         0.1184
     32 OG         16.2270   -7.6480  -10.4200 O.3       1 SEP        -0.2714
     33 C          15.2860  -10.1790  -11.3410 C.2       1 SEP         0.2065
     34 O          14.6660  -10.0050  -12.3880 O.2       1 SEP        -0.3943
     35 P          16.4480   -6.3320   -9.5240 P.3       1 SEP         0.2010
     36 O1P        15.4630   -5.2570  -10.1310 O.co2     1 SEP        -0.5537
     37 O2P        17.9410   -5.9140   -9.7170 O.co2     1 SEP        -0.5537
     38 O3P        16.1370   -6.7020   -8.0350 O.co2     1 SEP        -0.5537
     39 N          14.7100  -10.6940  -10.2660 N.am      1 LEU        -0.2636
     40 CA         13.3020  -11.1070  -10.2820 C.3       1 LEU         0.1314
     41 C          12.4200   -9.9050  -10.6430 C.2       1 LEU         0.2064
     42 O          12.5550   -8.8550  -10.0290 O.2       1 LEU        -0.3942
     43 CB         12.9330  -11.6390   -8.9040 C.3       1 LEU        -0.0101
     44 CG         11.6140  -12.3970   -8.7630 C.3       1 LEU        -0.0425
     45 CD1        11.6680  -13.7340   -9.4800 C.3       1 LEU        -0.0625
     46 CD2        11.2570  -12.6040   -7.2910 C.3       1 LEU        -0.0625
     47 N          11.5390  -10.0490  -11.6370 N.am      1 PRO        -0.2498
     48 CA         10.7100   -8.9160  -12.0820 C.3       1 PRO         0.1338
     49 C           9.4470   -8.7080  -11.2580 C.2       1 PRO         0.2039
     50 O           8.3630   -8.4460  -11.7870 O.2       1 PRO        -0.3944
     51 CB         10.3670   -9.2820  -13.5270 C.3       1 PRO        -0.0104
     52 CG         10.2970  -10.7860  -13.4910 C.3       1 PRO        -0.0281
     53 CD         11.3800  -11.2150  -12.5210 C.3       1 PRO         0.0369
     54 N           9.5990   -8.7720   -9.9510 N.am      1 GLY        -0.2664
     55 CA          8.4740   -8.7700   -9.0590 C.3       1 GLY         0.1202
     56 C           8.9560   -9.2990   -7.7420 C.2       1 GLY         0.2015
     57 O          10.1520   -9.4560   -7.5300 O.2       1 GLY        -0.3946
     58 C12         7.4180  -12.4230  -10.9770 C.ar      1 D3Q        -0.0685
     59 C13         7.9820  -12.8850   -9.7760 C.ar      1 D3Q        -0.0682
     60 C14         7.4880  -12.4060   -8.5460 C.ar      1 D3Q        -0.0580
     61 C15         6.5180   -9.6230   -6.7700 C.3       1 D3Q         0.0663
     62 C01         2.6520  -14.3470   -5.7820 C.3       1 D3Q         0.0592
     63 C03         2.3870  -12.1580   -6.6500 C.ar      1 D3Q         0.0844
     64 C04         1.6340  -11.0000   -6.8980 C.ar      1 D3Q        -0.0399
     65 C05         2.2780   -9.8170   -7.2330 C.ar      1 D3Q        -0.0768
     66 C06         3.6580   -9.7750   -7.3340 C.ar      1 D3Q        -0.0691
     67 C07         4.4000  -10.9610   -7.0700 C.ar      1 D3Q        -0.0355
     68 C08         5.9630  -10.9950   -7.1390 C.3       1 D3Q         0.0462
     69 C09         6.4580  -11.4890   -8.5110 C.ar      1 D3Q        -0.0269
     70 C10         5.8840  -11.0460   -9.7230 C.ar      1 D3Q        -0.0580
     71 C11         6.3930  -11.5090  -10.9550 C.ar      1 D3Q        -0.0682
     72 C17         8.5210   -9.9740   -5.4100 C.3       1 D3Q         0.0347
     73 C18         7.1950   -9.9100   -4.5150 C.3       1 D3Q        -0.0301
     74 C19         6.2030   -9.2220   -5.4860 C.3       1 D3Q        -0.0239
     75 C20         3.7840  -12.1200   -6.7380 C.ar      1 D3Q        -0.0299
     76 N16         8.1470   -9.7920   -6.6830 N.am      1 D3Q        -0.2644
     77 O02         1.7700  -13.4070   -6.2940 O.3       1 D3Q        -0.3229
     78 H1         22.5675   -2.7140  -18.1409 H         1 ACE         0.0467
     79 H2         22.1767   -3.8381  -19.4863 H         1 ACE         0.0467
     80 H3         23.8639   -3.2669  -19.2545 H         1 ACE         0.0467
     81 H4         22.6125   -3.6676  -16.2276 H         1 ARG         0.1882
     82 H5         24.2694   -5.8921  -15.6555 H         1 ARG         0.0800
     83 H6         22.9098   -6.0348  -13.5072 H         1 ARG         0.0313
     84 H7         21.9175   -4.6844  -14.1542 H         1 ARG         0.0313
     85 H8         23.7006   -3.1251  -13.9612 H         1 ARG         0.0301
     86 H9         24.9399   -4.4177  -13.8198 H         1 ARG         0.0301
     87 H10        24.1260   -5.0509  -11.6189 H         1 ARG         0.0689
     88 H11        22.7157   -3.9487  -11.7703 H         1 ARG         0.0689
     89 H12        24.0473   -2.1356  -11.1573 H         1 ARG         0.2642
     90 H13        27.3569   -2.1860   -9.9843 H         1 ARG         0.2615
     91 H14        25.8499   -1.2415  -10.1241 H         1 ARG         0.2615
     92 H15        26.0638   -5.0252  -11.6385 H         1 ARG         0.2615
     93 H16        27.4798   -4.2901  -10.8402 H         1 ARG         0.2615
     94 H17        23.5899   -7.9699  -14.7131 H         1 THR         0.1884
     95 H18        21.8599   -9.5450  -16.3287 H         1 THR         0.0826
     96 H19        22.5870   -9.9395  -13.3751 H         1 THR         0.0639
     97 H20        24.4560   -9.6639  -14.7191 H         1 THR         0.2101
     98 H21        22.3414  -12.3367  -13.9171 H         1 THR         0.0257
     99 H22        21.8576  -11.9046  -15.5921 H         1 THR         0.0257
    100 H23        20.8177  -11.4305  -14.2064 H         1 THR         0.0257
    101 H24        18.0148   -8.1290  -14.5819 H         1 PRO         0.0802
    102 H25        16.3653   -8.9929  -15.9915 H         1 PRO         0.0313
    103 H26        16.7997  -10.6932  -15.6083 H         1 PRO         0.0313
    104 H27        17.9366   -8.8210  -17.6419 H         1 PRO         0.0287
    105 H28        17.6386  -10.5900  -17.7329 H         1 PRO         0.0287
    106 H29        19.6211  -11.1104  -16.6408 H         1 PRO         0.0524
    107 H30        20.1207   -9.5465  -17.3698 H         1 PRO         0.0524
    108 H31        17.0188   -8.2733  -12.6852 H         1 SEP         0.1884
    109 H32        17.3539  -10.7231  -11.0362 H         1 SEP         0.0827
    110 H33        18.0544   -8.5401  -10.0667 H         1 SEP         0.0662
    111 H34        16.6603   -9.2318   -9.1695 H         1 SEP         0.0662
    112 H35        15.2442  -10.8036   -9.4278 H         1 LEU         0.1883
    113 H36        13.1588  -11.9001  -11.0306 H         1 LEU         0.0800
    114 H37        12.8915  -10.7783   -8.2203 H         1 LEU         0.0315
    115 H38        13.7377  -12.3194   -8.5886 H         1 LEU         0.0315
    116 H39        10.8222  -11.7907   -9.2271 H         1 LEU         0.0298
    117 H40        10.7059  -14.2536   -9.3598 H         1 LEU         0.0232
    118 H41        12.4727  -14.3484   -9.0500 H         1 LEU         0.0232
    119 H42        11.8644  -13.5688  -10.5496 H         1 LEU         0.0232
    120 H43        11.2208  -11.6295   -6.7820 H         1 LEU         0.0232
    121 H44        12.0189  -13.2384   -6.8146 H         1 LEU         0.0232
    122 H45        10.2744  -13.0929   -7.2172 H         1 LEU         0.0232
    123 H46        11.2996   -7.9879  -12.0502 H         1 PRO         0.0802
    124 H47        11.1515   -8.9397  -14.2179 H         1 PRO         0.0313
    125 H48         9.4009   -8.8488  -13.8254 H         1 PRO         0.0313
    126 H49        10.4874  -11.2044  -14.4903 H         1 PRO         0.0287
    127 H50         9.3097  -11.1172  -13.1368 H         1 PRO         0.0287
    128 H51        11.0659  -12.1007  -11.9493 H         1 PRO         0.0524
    129 H52        12.3176  -11.4351  -13.0524 H         1 PRO         0.0524
    130 H53        10.5222   -8.8233   -9.5702 H         1 GLY         0.1881
    131 H54         7.6764   -9.4153   -9.4558 H         1 GLY         0.0763
    132 H55         8.0907   -7.7462   -8.9370 H         1 GLY         0.0763
    133 H56         7.7936  -12.7896  -11.9255 H         1 GLY         0.0561
    134 H57         8.7919  -13.6052   -9.7953 H         1 GLY         0.0600
    135 H58         7.9217  -12.7617   -7.6184 H         1 GLY         0.0561
    136 H59         6.2060   -8.8715   -7.5102 H         1 GLY         0.0606
    137 H60         2.1038  -15.2685   -5.5362 H         1 GLY         0.0577
    138 H61         3.1255  -13.9485   -4.8726 H         1 GLY         0.0577
    139 H62         3.4261  -14.5697   -6.5311 H         1 GLY         0.0577
    140 H63         0.5526  -11.0294   -6.8281 H         1 GLY         0.0487
    141 H64         1.6968   -8.9206   -7.4167 H         1 GLY         0.0572
    142 H65         4.1640   -8.8566   -7.6089 H         1 GLY         0.0468
    143 H66         6.3194  -11.7129   -6.3857 H         1 GLY         0.0639
    144 H67         5.0527  -10.3505   -9.7068 H         1 GLY         0.0561
    145 H68         5.9744  -11.1428  -11.8854 H         1 GLY         0.0600
    146 H69         9.0060  -10.9547   -5.2960 H         1 GLY         0.0522
    147 H70         9.2203   -9.1814   -5.1054 H         1 GLY         0.0522
    148 H71         7.3512   -9.3090   -3.6070 H         1 GLY         0.0285
    149 H72         6.8504  -10.9161   -4.2341 H         1 GLY         0.0285
    150 H73         5.1731   -9.5223   -5.2428 H         1 GLY         0.0291
    151 H74         6.2957   -8.1291   -5.4025 H         1 GLY         0.0291
    152 H75         4.3679  -13.0120   -6.5418 H         1 GLY         0.0482
@<TRIPOS>BOND
     1    1    2 2  
     2    1    3 1  
     3    4    1 am 
     4    5    4 1  
     5    6    5 1  
     6    5    8 1  
     7    6    7 2  
     8   15    6 am 
     9    8    9 1  
    10    9   10 1  
    11   10   11 1  
    12   11   12 ar 
    13   12   13 ar 
    14   12   14 ar 
    15   16   15 1  
    16   17   16 1  
    17   16   19 1  
    18   17   18 2  
    19   22   17 am 
    20   19   20 1  
    21   19   21 1  
    22   23   22 1  
    23   22   28 1  
    24   24   23 1  
    25   23   26 1  
    26   24   25 2  
    27   29   24 am 
    28   26   27 1  
    29   27   28 1  
    30   30   29 1  
    31   30   31 1  
    32   33   30 1  
    33   31   32 1  
    34   32   35 1  
    35   33   34 2  
    36   39   33 am 
    37   35   36 ar 
    38   35   37 ar 
    39   35   38 ar 
    40   40   39 1  
    41   41   40 1  
    42   40   43 1  
    43   41   42 2  
    44   47   41 am 
    45   43   44 1  
    46   44   45 1  
    47   44   46 1  
    48   48   47 1  
    49   47   53 1  
    50   49   48 1  
    51   48   51 1  
    52   49   50 2  
    53   54   49 am 
    54   51   52 1  
    55   52   53 1  
    56   55   54 1  
    57   56   55 1  
    58   56   57 2  
    59   76   56 am 
    60   59   58 ar 
    61   71   58 ar 
    62   60   59 ar 
    63   69   60 ar 
    64   61   68 1  
    65   61   74 1  
    66   76   61 1  
    67   77   62 1  
    68   63   64 ar 
    69   75   63 ar 
    70   63   77 1  
    71   65   64 ar 
    72   66   65 ar 
    73   67   66 ar 
    74   68   67 1  
    75   67   75 ar 
    76   68   69 1  
    77   69   70 ar 
    78   70   71 ar 
    79   72   73 1  
    80   76   72 1  
    81   73   74 1  
    82    3   78 1  
    83    3   79 1  
    84    3   80 1  
    85    4   81 1  
    86    5   82 1  
    87    8   83 1  
    88    8   84 1  
    89    9   85 1  
    90    9   86 1  
    91   10   87 1  
    92   10   88 1  
    93   11   89 1  
    94   13   90 1  
    95   13   91 1  
    96   14   92 1  
    97   14   93 1  
    98   15   94 1  
    99   16   95 1  
   100   19   96 1  
   101   20   97 1  
   102   21   98 1  
   103   21   99 1  
   104   21  100 1  
   105   23  101 1  
   106   26  102 1  
   107   26  103 1  
   108   27  104 1  
   109   27  105 1  
   110   28  106 1  
   111   28  107 1  
   112   29  108 1  
   113   30  109 1  
   114   31  110 1  
   115   31  111 1  
   116   39  112 1  
   117   40  113 1  
   118   43  114 1  
   119   43  115 1  
   120   44  116 1  
   121   45  117 1  
   122   45  118 1  
   123   45  119 1  
   124   46  120 1  
   125   46  121 1  
   126   46  122 1  
   127   48  123 1  
   128   51  124 1  
   129   51  125 1  
   130   52  126 1  
   131   52  127 1  
   132   53  128 1  
   133   53  129 1  
   134   54  130 1  
   135   55  131 1  
   136   55  132 1  
   137   58  133 1  
   138   59  134 1  
   139   60  135 1  
   140   61  136 1  
   141   62  137 1  
   142   62  138 1  
   143   62  139 1  
   144   64  140 1  
   145   65  141 1  
   146   66  142 1  
   147   68  143 1  
   148   70  144 1  
   149   71  145 1  
   150   72  146 1  
   151   72  147 1  
   152   73  148 1  
   153   73  149 1  
   154   74  150 1  
   155   74  151 1  
   156   75  152 1  
@<TRIPOS>SUBSTRUCTURE
     1 ACE         1

