3omc_ligand
  -I-interpret- 

118117  0  0  0  0  0  0  0  0999 V2000
   19.0700  -12.0980    6.4110 N   0  3  0  0  0
   18.0710  -12.1270    7.5210 C   0  0  0  0  0
   16.8490  -11.2940    7.1850 C   0  0  0  0  0
   16.6640  -10.8840    6.0300 O   0  0  0  0  0
   16.0120  -11.0450    8.1920 N   0  0  0  0  0
   14.7700  -10.2770    8.0130 C   0  0  0  0  0
   14.0720  -10.1830    9.3730 C   0  0  0  0  0
   12.6970   -9.5190    9.2400 C   0  0  0  0  0
   12.0420   -9.2900   10.5830 C   0  0  0  0  0
   10.6400   -8.8940   10.4140 N   0  0  0  0  0
    9.7380   -8.9090   11.4040 C   0  0  0  0  0
   10.0480   -9.2960   12.5820 N   0  0  0  0  0
    9.1450   -9.3780   13.7220 C   0  0  0  0  0
    8.4690   -8.5230   11.1320 N   0  0  0  0  0
    8.0650   -8.1020    9.7840 C   0  0  0  0  0
   15.0300   -8.8890    7.4700 C   0  0  0  0  0
   15.9590   -8.1980    7.9160 O   0  0  0  0  0
   14.2060   -8.4680    6.5060 N   0  0  0  0  0
   14.2950   -7.1130    5.9430 C   0  0  0  0  0
   14.0950   -6.0710    7.0310 C   0  0  0  0  0
   13.1440   -6.1360    7.8230 O   0  0  0  0  0
   13.2790   -6.9230    4.8530 C   0  0  0  0  0
   15.0130   -5.1160    7.0660 N   0  0  0  0  0
   15.0380   -4.1170    8.1280 C   0  0  0  0  0
   15.9820   -3.0020    7.7140 C   0  0  0  0  0
   16.7670   -3.1630    6.7750 O   0  0  0  0  0
   15.4960   -4.7400    9.4580 C   0  0  0  0  0
   16.9230   -5.2660    9.4450 C   0  0  0  0  0
   17.2380   -6.0050   10.7250 C   0  0  0  0  0
   18.5680   -6.6020   10.6460 N   0  0  0  0  0
   19.7080   -5.9310   10.8200 C   0  0  0  0  0
   19.7010   -4.6260   11.1050 N   0  0  0  0  0
   20.8650   -6.5670   10.7140 N   0  0  0  0  0
   15.9250   -1.8840    8.4300 N   0  0  0  0  0
   16.8020   -0.7590    8.1470 C   0  0  0  0  0
   18.2660   -1.1760    8.1820 C   0  0  0  0  0
   18.6710   -2.0080    9.0030 O   0  0  0  0  0
   16.5480    0.3920    9.1250 C   0  0  0  0  0
   19.0360   -0.5990    7.2630 N   0  0  0  0  0
   20.4840   -0.7650    7.2360 C   0  0  0  0  0
   21.1160    0.5940    7.5200 C   0  0  0  0  0
   21.3840    1.3780    6.6060 O   0  0  0  0  0
   20.9500   -1.3320    5.8940 C   0  0  0  0  0
   22.4440   -1.5670    5.8520 C   0  0  0  0  0
   22.8290   -2.5960    4.8310 C   0  0  0  0  0
   24.2770   -2.8020    4.8450 N   0  0  0  0  0
   24.8840   -3.9000    5.2890 C   0  0  0  0  0
   24.1760   -4.9220    5.7550 N   0  0  0  0  0
   26.2080   -3.9790    5.2580 N   0  0  0  0  0
   21.3400    0.8630    8.8030 N   0  0  0  0  0
   21.6660    2.2090    9.2700 C   0  0  0  0  0
   23.0560    2.6970    8.8780 C   0  0  0  0  0
   23.3060    3.9040    8.9120 O   0  0  0  0  0
   21.4850    2.2940   10.7550 C   0  0  0  0  0
   23.9470    1.9190    8.5260 O   0  0  0  0  0
   19.8776  -12.6660    6.6671 H   0  0  0  0  0
   18.6449  -12.4723    5.5627 H   0  0  0  0  0
   19.3673  -11.1360    6.2478 H   0  0  0  0  0
   18.5358  -11.7152    8.4168 H   0  0  0  0  0
   17.7554  -13.1586    7.6767 H   0  0  0  0  0
   16.2409  -11.3998    9.1205 H   0  0  0  0  0
   14.1421  -10.7889    7.2837 H   0  0  0  0  0
   14.6878   -9.5811   10.0412 H   0  0  0  0  0
   13.9373  -11.1902    9.7672 H   0  0  0  0  0
   12.0555  -10.1806    8.6579 H   0  0  0  0  0
   12.8330   -8.5503    8.7591 H   0  0  0  0  0
   12.5734   -8.4931   11.1033 H   0  0  0  0  0
   12.0803  -10.2160   11.1566 H   0  0  0  0  0
   10.2814   -9.5990    9.7700 H   0  0  0  0  0
   10.5410   -8.6625   12.0986 H   0  0  0  0  0
   10.6958   -8.5664   12.8792 H   0  0  0  0  0
    8.7385   -8.3891   13.9337 H   0  0  0  0  0
    8.3310  -10.0649   13.4904 H   0  0  0  0  0
    9.6922   -9.7412   14.5919 H   0  0  0  0  0
    8.3446   -7.6825   11.6964 H   0  0  0  0  0
    8.6573   -7.2384    9.4817 H   0  0  0  0  0
    8.2308   -8.9209    9.0840 H   0  0  0  0  0
    7.0081   -7.8354    9.7895 H   0  0  0  0  0
   13.4940   -9.1059    6.1502 H   0  0  0  0  0
   15.2898   -6.9874    5.5154 H   0  0  0  0  0
   13.4600   -7.6476    4.0591 H   0  0  0  0  0
   12.2789   -7.0708    5.2605 H   0  0  0  0  0
   13.3635   -5.9132    4.4513 H   0  0  0  0  0
   15.7199   -5.0787    6.3316 H   0  0  0  0  0
   14.0339   -3.7211    8.2798 H   0  0  0  0  0
   14.8429   -5.5901    9.6554 H   0  0  0  0  0
   15.4509   -3.9544   10.2122 H   0  0  0  0  0
   17.6064   -4.4221    9.3506 H   0  0  0  0  0
   17.0351   -5.9538    8.6069 H   0  0  0  0  0
   16.5003   -6.7937   10.8733 H   0  0  0  0  0
   17.2099   -5.3037   11.5589 H   0  0  0  0  0
   18.6299   -7.5999   10.4441 H   0  0  0  0  0
   20.5813   -4.1285   11.2388 H   0  0  0  0  0
   18.8153   -4.1270   11.1888 H   0  0  0  0  0
   20.8811   -7.5643   10.5004 H   0  0  0  0  0
   15.2525   -1.8135    9.1936 H   0  0  0  0  0
   16.5753   -0.4107    7.1393 H   0  0  0  0  0
   15.5132    0.7223    9.0345 H   0  0  0  0  0
   16.7337    0.0497   10.1431 H   0  0  0  0  0
   17.2169    1.2202    8.8910 H   0  0  0  0  0
   18.5959   -0.0179    6.5496 H   0  0  0  0  0
   20.7941   -1.4818    7.9964 H   0  0  0  0  0
   20.7015   -0.6077    5.1183 H   0  0  0  0  0
   20.4543   -2.2910    5.7436 H   0  0  0  0  0
   22.7575   -1.9282    6.8315 H   0  0  0  0  0
   22.9271   -0.6273    5.5843 H   0  0  0  0  0
   22.5269   -2.2494    3.8427 H   0  0  0  0  0
   22.3319   -3.5369    5.0668 H   0  0  0  0  0
   24.8649   -2.0487    4.4882 H   0  0  0  0  0
   24.6503   -5.7619    6.0866 H   0  0  0  0  0
   23.1578   -4.8672    5.7814 H   0  0  0  0  0
   26.7570   -3.1999    4.8948 H   0  0  0  0  0
   21.2824    0.1052    9.4833 H   0  0  0  0  0
   20.9696    2.8761    8.7619 H   0  0  0  0  0
   20.4490    2.0674   11.0070 H   0  0  0  0  0
   22.1443    1.5753   11.2418 H   0  0  0  0  0
   21.7305    3.3009   11.0926 H   0  0  0  0  0
   23.6118    1.0197    8.5474 H   0  0  0  0  0
  1  2  1  0  0  0
  2  3  1  0  0  0
  3  4  2  0  0  0
  3  5  1  0  0  0
  5  6  1  0  0  0
  6  7  1  0  0  0
  6 16  1  0  0  0
  7  8  1  0  0  0
  8  9  1  0  0  0
  9 10  1  0  0  0
 10 11  1  0  0  0
 11 12  1  0  0  0
 11 14  1  0  0  0
 12 13  1  0  0  0
 14 15  1  0  0  0
 16 17  2  0  0  0
 16 18  1  0  0  0
 18 19  1  0  0  0
 19 20  1  0  0  0
 19 22  1  0  0  0
 20 21  2  0  0  0
 20 23  1  0  0  0
 23 24  1  0  0  0
 24 25  1  0  0  0
 24 27  1  0  0  0
 25 26  2  0  0  0
 25 34  1  0  0  0
 27 28  1  0  0  0
 28 29  1  0  0  0
 29 30  1  0  0  0
 30 31  1  0  0  0
 31 32  1  0  0  0
 31 33  2  0  0  0
 34 35  1  0  0  0
 35 36  1  0  0  0
 35 38  1  0  0  0
 36 37  2  0  0  0
 36 39  1  0  0  0
 39 40  1  0  0  0
 40 41  1  0  0  0
 40 43  1  0  0  0
 41 42  2  0  0  0
 41 50  1  0  0  0
 43 44  1  0  0  0
 44 45  1  0  0  0
 45 46  1  0  0  0
 46 47  1  0  0  0
 47 48  1  0  0  0
 47 49  2  0  0  0
 50 51  1  0  0  0
 51 52  1  0  0  0
 51 54  1  0  0  0
 52 53  2  0  0  0
 52 55  1  0  0  0
  1 56  1  0  0  0
  1 57  1  0  0  0
  1 58  1  0  0  0
  2 59  1  0  0  0
  2 60  1  0  0  0
  5 61  1  0  0  0
  6 62  1  0  0  0
  7 63  1  0  0  0
  7 64  1  0  0  0
  8 65  1  0  0  0
  8 66  1  0  0  0
  9 67  1  0  0  0
  9 68  1  0  0  0
 10 69  1  0  0  0
 11 70  1  0  0  0
 12 71  1  0  0  0
 13 72  1  0  0  0
 13 73  1  0  0  0
 13 74  1  0  0  0
 14 75  1  0  0  0
 15 76  1  0  0  0
 15 77  1  0  0  0
 15 78  1  0  0  0
 18 79  1  0  0  0
 19 80  1  0  0  0
 22 81  1  0  0  0
 22 82  1  0  0  0
 22 83  1  0  0  0
 23 84  1  0  0  0
 24 85  1  0  0  0
 27 86  1  0  0  0
 27 87  1  0  0  0
 28 88  1  0  0  0
 28 89  1  0  0  0
 29 90  1  0  0  0
 29 91  1  0  0  0
 30 92  1  0  0  0
 32 93  1  0  0  0
 32 94  1  0  0  0
 33 95  1  0  0  0
 34 96  1  0  0  0
 35 97  1  0  0  0
 38 98  1  0  0  0
 38 99  1  0  0  0
 38100  1  0  0  0
 39101  1  0  0  0
 40102  1  0  0  0
 43103  1  0  0  0
 43104  1  0  0  0
 44105  1  0  0  0
 44106  1  0  0  0
 45107  1  0  0  0
 45108  1  0  0  0
 46109  1  0  0  0
 48110  1  0  0  0
 48111  1  0  0  0
 49112  1  0  0  0
 50113  1  0  0  0
 51114  1  0  0  0
 54115  1  0  0  0
 54116  1  0  0  0
 54117  1  0  0  0
 55118  1  0  0  0
M  END
$$$$
