### 
### Created by X-TOOL on Mon Sep 10 21:13:02 2018
### 

@<TRIPOS>MOLECULE
3omc_ligand
  118   117     1     0     0
SMALL
GAST_HUCK


@<TRIPOS>ATOM
      1 N          19.0700  -12.0980    6.4110 N.4       1 GLY         0.2357
      2 CA         18.0710  -12.1270    7.5210 C.3       1 GLY         0.0545
      3 C          16.8490  -11.2940    7.1850 C.2       1 GLY         0.2236
      4 O          16.6640  -10.8840    6.0300 O.2       1 GLY        -0.3910
      5 N          16.0120  -11.0450    8.1920 N.am      1 2MR        -0.2613
      6 CA         14.7700  -10.2770    8.0130 C.3       1 2MR         0.1312
      7 CB         14.0720  -10.1830    9.3730 C.3       1 2MR        -0.0092
      8 CG         12.6970   -9.5190    9.2400 C.3       1 2MR        -0.0156
      9 CD         12.0420   -9.2900   10.5830 C.3       1 2MR         0.0627
     10 NE         10.6400   -8.8940   10.4140 N.pl3     1 2MR        -0.2721
     11 CZ          9.7380   -8.9090   11.4040 C.cat     1 2MR         0.2920
     12 NH1        10.0480   -9.2960   12.5820 N.pl3     1 2MR        -0.2748
     13 CQ1         9.1450   -9.3780   13.7220 C.3       1 2MR         0.0514
     14 NH2         8.4690   -8.5230   11.1320 N.pl3     1 2MR        -0.2748
     15 CQ2         8.0650   -8.1020    9.7840 C.3       1 2MR         0.0514
     16 C          15.0300   -8.8890    7.4700 C.2       1 2MR         0.2039
     17 O          15.9590   -8.1980    7.9160 O.2       1 2MR        -0.3944
     18 N          14.2060   -8.4680    6.5060 N.am      1 ALA        -0.2640
     19 CA         14.2950   -7.1130    5.9430 C.3       1 ALA         0.1282
     20 C          14.0950   -6.0710    7.0310 C.2       1 ALA         0.2036
     21 O          13.1440   -6.1360    7.8230 O.2       1 ALA        -0.3944
     22 CB         13.2790   -6.9230    4.8530 C.3       1 ALA        -0.0244
     23 N          15.0130   -5.1160    7.0660 N.am      1 ARG        -0.2637
     24 CA         15.0380   -4.1170    8.1280 C.3       1 ARG         0.1311
     25 C          15.9820   -3.0020    7.7140 C.2       1 ARG         0.2039
     26 O          16.7670   -3.1630    6.7750 O.2       1 ARG        -0.3944
     27 CB         15.4960   -4.7400    9.4580 C.3       1 ARG        -0.0092
     28 CG         16.9230   -5.2660    9.4450 C.3       1 ARG        -0.0156
     29 CD         17.2380   -6.0050   10.7250 C.3       1 ARG         0.0627
     30 NE         18.5680   -6.6020   10.6460 N.pl3     1 ARG        -0.2723
     31 CZ         19.7080   -5.9310   10.8200 C.cat     1 ARG         0.2882
     32 NH1        19.7010   -4.6260   11.1050 N.pl3     1 ARG        -0.2849
     33 NH2        20.8650   -6.5670   10.7140 N.pl3     1 ARG        -0.2849
     34 N          15.9250   -1.8840    8.4300 N.am      1 ALA        -0.2640
     35 CA         16.8020   -0.7590    8.1470 C.3       1 ALA         0.1282
     36 C          18.2660   -1.1760    8.1820 C.2       1 ALA         0.2036
     37 O          18.6710   -2.0080    9.0030 O.2       1 ALA        -0.3944
     38 CB         16.5480    0.3920    9.1250 C.3       1 ALA        -0.0244
     39 N          19.0360   -0.5990    7.2630 N.am      1 ARG        -0.2637
     40 CA         20.4840   -0.7650    7.2360 C.3       1 ARG         0.1310
     41 C          21.1160    0.5940    7.5200 C.2       1 ARG         0.2033
     42 O          21.3840    1.3780    6.6060 O.2       1 ARG        -0.3944
     43 CB         20.9500   -1.3320    5.8940 C.3       1 ARG        -0.0092
     44 CG         22.4440   -1.5670    5.8520 C.3       1 ARG        -0.0156
     45 CD         22.8290   -2.5960    4.8310 C.3       1 ARG         0.0627
     46 NE         24.2770   -2.8020    4.8450 N.pl3     1 ARG        -0.2723
     47 CZ         24.8840   -3.9000    5.2890 C.cat     1 ARG         0.2882
     48 NH1        24.1760   -4.9220    5.7550 N.pl3     1 ARG        -0.2849
     49 NH2        26.2080   -3.9790    5.2580 N.pl3     1 ARG        -0.2849
     50 N          21.3400    0.8630    8.8030 N.am      1 ALA        -0.2698
     51 CA         21.6660    2.2090    9.2700 C.3       1 ALA         0.0916
     52 C          23.0560    2.6970    8.8780 C.2       1 ALA         0.0598
     53 O          23.3060    3.9040    8.9120 O.co2     1 ALA        -0.5666
     54 CB         21.4850    2.2940   10.7550 C.3       1 ALA        -0.0300
     55 OXT        23.9470    1.9190    8.5260 O.co2     1 ALA        -0.5666
     56 H1         19.8686  -12.6590    6.6630 H         1 GLY         0.2012
     57 H2         19.3647  -11.1478    6.2488 H         1 GLY         0.2012
     58 H3         18.6510  -12.4677    5.5721 H         1 GLY         0.2012
     59 H4         18.5374  -11.7269    8.4333 H         1 GLY         0.1061
     60 H5         17.7586  -13.1673    7.6948 H         1 GLY         0.1061
     61 H6         16.2364  -11.3929    9.1023 H         1 2MR         0.1884
     62 H7         14.1193  -10.8122    7.3058 H         1 2MR         0.0800
     63 H8         14.6946   -9.5870   10.0565 H         1 2MR         0.0313
     64 H9         13.9442  -11.1959    9.7825 H         1 2MR         0.0313
     65 H10        12.0470  -10.1681    8.6348 H         1 2MR         0.0301
     66 H11        12.8191   -8.5493    8.7353 H         1 2MR         0.0301
     67 H12        12.5807   -8.4930   11.1165 H         1 2MR         0.0689
     68 H13        12.0867  -10.2192   11.1699 H         1 2MR         0.0689
     69 H14        10.3314   -8.5868    9.4806 H         1 2MR         0.2642
     70 H15        11.0267   -9.5757   12.7398 H         1 2MR         0.2639
     71 H16         9.6961   -9.7444   14.6006 H         1 2MR         0.0652
     72 H17         8.3230  -10.0710   13.4896 H         1 2MR         0.0652
     73 H18         8.7340   -8.3805   13.9368 H         1 2MR         0.0652
     74 H19         7.7701   -8.5246   11.8886 H         1 2MR         0.2639
     75 H20         6.9985   -7.8326    9.7883 H         1 2MR         0.0652
     76 H21         8.2318   -8.9277    9.0766 H         1 2MR         0.0652
     77 H22         8.6621   -7.2304    9.4777 H         1 2MR         0.0652
     78 H23        13.5080   -9.0934    6.1572 H         1 ALA         0.1883
     79 H24        15.2983   -6.9807    5.5119 H         1 ALA         0.0797
     80 H25        13.3633   -5.9042    4.4468 H         1 ALA         0.0277
     81 H26        12.2692   -7.0719    5.2630 H         1 ALA         0.0277
     82 H27        13.4606   -7.6537    4.0510 H         1 ALA         0.0277
     83 H28        15.7060   -5.0795    6.3460 H         1 ARG         0.1883
     84 H29        14.0264   -3.7056    8.2602 H         1 ARG         0.0800
     85 H30        14.8228   -5.5767    9.6963 H         1 ARG         0.0313
     86 H31        15.4190   -3.9726   10.2423 H         1 ARG         0.0313
     87 H32        17.6176   -4.4198    9.3376 H         1 ARG         0.0301
     88 H33        17.0461   -5.9518    8.5938 H         1 ARG         0.0301
     89 H34        16.4919   -6.7983   10.8801 H         1 ARG         0.0689
     90 H35        17.2051   -5.3006   11.5692 H         1 ARG         0.0689
     91 H36        18.6305   -7.6097   10.4421 H         1 ARG         0.2642
     92 H37        20.5901   -4.1228   11.2363 H         1 ARG         0.2615
     93 H38        18.8065   -4.1230   11.1934 H         1 ARG         0.2615
     94 H39        20.8813   -7.5732   10.4946 H         1 ARG         0.2615
     95 H40        21.7484   -6.0554   10.8510 H         1 ARG         0.2615
     96 H41        15.2656   -1.8149    9.1786 H         1 ALA         0.1883
     97 H42        16.5752   -0.4004    7.1321 H         1 ALA         0.0797
     98 H43        17.2225    1.2285    8.8899 H         1 ALA         0.0277
     99 H44        16.7352    0.0479   10.1529 H         1 ALA         0.0277
    100 H45        15.5040    0.7264    9.0346 H         1 ALA         0.0277
    101 H46        18.6045   -0.0292    6.5635 H         1 ARG         0.1883
    102 H47        20.7789   -1.4683    8.0287 H         1 ARG         0.0800
    103 H48        20.6822   -0.6211    5.0985 H         1 ARG         0.0313
    104 H49        20.4373   -2.2892    5.7182 H         1 ARG         0.0313
    105 H50        22.7763   -1.9101    6.8429 H         1 ARG         0.0301
    106 H51        22.9446   -0.6191    5.6052 H         1 ARG         0.0301
    107 H52        22.5204   -2.2513    3.8330 H         1 ARG         0.0689
    108 H53        22.3244   -3.5454    5.0633 H         1 ARG         0.0689
    109 H54        24.8706   -2.0413    4.4847 H         1 ARG         0.2642
    110 H55        24.6552   -5.7674    6.0964 H         1 ARG         0.2615
    111 H56        23.1475   -4.8694    5.7751 H         1 ARG         0.2615
    112 H57        26.7627   -3.1895    4.8976 H         1 ARG         0.2615
    113 H58        26.6812   -4.8298    5.5943 H         1 ARG         0.2615
    114 H59        21.2835    0.1201    9.4700 H         1 ALA         0.1875
    115 H60        20.9432    2.8943    8.8033 H         1 ALA         0.0723
    116 H61        21.7325    3.3098   11.0970 H         1 ALA         0.0270
    117 H62        22.1499    1.5692   11.2475 H         1 ALA         0.0270
    118 H63        20.4398    2.0655   11.0107 H         1 ALA         0.0270
@<TRIPOS>BOND
     1    1    2 1  
     2    2    3 1  
     3    3    4 2  
     4    3    5 am 
     5    5    6 1  
     6    6    7 1  
     7    6   16 1  
     8    7    8 1  
     9    8    9 1  
    10    9   10 1  
    11   10   11 ar 
    12   11   12 ar 
    13   11   14 ar 
    14   12   13 1  
    15   14   15 1  
    16   16   17 2  
    17   16   18 am 
    18   18   19 1  
    19   19   20 1  
    20   19   22 1  
    21   20   21 2  
    22   20   23 am 
    23   23   24 1  
    24   24   25 1  
    25   24   27 1  
    26   25   26 2  
    27   25   34 am 
    28   27   28 1  
    29   28   29 1  
    30   29   30 1  
    31   30   31 ar 
    32   31   32 ar 
    33   31   33 ar 
    34   34   35 1  
    35   35   36 1  
    36   35   38 1  
    37   36   37 2  
    38   36   39 am 
    39   39   40 1  
    40   40   41 1  
    41   40   43 1  
    42   41   42 2  
    43   41   50 am 
    44   43   44 1  
    45   44   45 1  
    46   45   46 1  
    47   46   47 ar 
    48   47   48 ar 
    49   47   49 ar 
    50   50   51 1  
    51   51   52 1  
    52   51   54 1  
    53   52   53 ar 
    54   52   55 ar 
    55    1   56 1  
    56    1   57 1  
    57    1   58 1  
    58    2   59 1  
    59    2   60 1  
    60    5   61 1  
    61    6   62 1  
    62    7   63 1  
    63    7   64 1  
    64    8   65 1  
    65    8   66 1  
    66    9   67 1  
    67    9   68 1  
    68   10   69 1  
    69   12   70 1  
    70   13   71 1  
    71   13   72 1  
    72   13   73 1  
    73   14   74 1  
    74   15   75 1  
    75   15   76 1  
    76   15   77 1  
    77   18   78 1  
    78   19   79 1  
    79   22   80 1  
    80   22   81 1  
    81   22   82 1  
    82   23   83 1  
    83   24   84 1  
    84   27   85 1  
    85   27   86 1  
    86   28   87 1  
    87   28   88 1  
    88   29   89 1  
    89   29   90 1  
    90   30   91 1  
    91   32   92 1  
    92   32   93 1  
    93   33   94 1  
    94   33   95 1  
    95   34   96 1  
    96   35   97 1  
    97   38   98 1  
    98   38   99 1  
    99   38  100 1  
   100   39  101 1  
   101   40  102 1  
   102   43  103 1  
   103   43  104 1  
   104   44  105 1  
   105   44  106 1  
   106   45  107 1  
   107   45  108 1  
   108   46  109 1  
   109   48  110 1  
   110   48  111 1  
   111   49  112 1  
   112   49  113 1  
   113   50  114 1  
   114   51  115 1  
   115   54  116 1  
   116   54  117 1  
   117   54  118 1  
@<TRIPOS>SUBSTRUCTURE
     1 GLY         1

