5lli_ligand
  -I-interpret- 

 70 73  0  0  0  0  0  0  0  0999 V2000
   10.3760   57.5870   97.6990 C   0  0  0  0  0
    9.9170   58.3050   96.4330 C   0  0  0  0  0
   10.2660   56.8510   96.3760 C   0  0  0  0  0
    9.2190   56.0370   96.2680 C   0  0  0  0  0
    8.4820   55.4740   96.1840 N   0  0  0  0  0
   11.5640   56.3750   95.7090 C   0  0  0  0  0
   12.6020   56.9910   95.9240 O   0  0  0  0  0
   11.4880   55.2620   94.9670 N   0  0  0  0  0
   12.6440   54.6940   94.2740 C   0  0  0  0  0
   12.8740   53.2600   94.7870 C   0  0  0  0  0
   11.5640   52.4460   94.8670 C   0  0  0  0  0
   13.4270   53.3560   96.2110 C   0  0  0  0  0
   13.9000   52.4980   93.9130 C   0  0  0  0  0
   12.2890   54.7310   92.7800 C   0  0  0  0  0
   11.1320   54.5270   92.4450 O   0  0  0  0  0
   13.2660   55.0160   91.9010 N   0  0  0  0  0
   14.6840   55.3170   92.1970 C   0  0  0  0  0
   15.1540   56.0940   90.9830 C   0  0  0  0  0
   14.7850   57.4770   91.0790 O   0  0  0  0  0
   14.4030   55.4690   89.8420 C   0  0  0  0  0
   13.0450   55.1110   90.4150 C   0  0  0  0  0
   12.6330   53.8980   89.8240 C   0  0  0  0  0
   13.1110   52.8260   90.2010 O   0  0  0  0  0
   11.7580   54.0290   88.7960 N   0  0  0  0  0
   11.2750   52.8900   87.9710 C   0  0  0  0  0
   12.0740   52.6680   86.7960 C   0  0  0  0  0
   12.9080   53.6480   86.2430 C   0  0  0  0  0
   13.6780   53.3930   85.0920 C   0  0  0  0  0
   12.0400   51.4320   86.1410 C   0  0  0  0  0
   12.8140   51.1830   85.0020 C   0  0  0  0  0
   13.6380   52.1700   84.4470 C   0  0  0  0  0
   14.3800   51.9620   83.3480 C   0  0  0  0  0
   15.9870   52.4050   83.1140 S   0  0  0  0  0
   16.0970   51.7980   81.5870 C   0  0  0  0  0
   14.9160   51.2780   81.2440 N   0  0  0  0  0
   13.9880   51.3760   82.2060 C   0  0  0  0  0
   12.6050   50.8260   81.9580 C   0  0  0  0  0
   10.0710   57.4684   98.7387 H   0  0  0  0  0
   11.0878   57.7213   98.5135 H   0  0  0  0  0
   10.1453   59.2201   95.8866 H   0  0  0  0  0
    9.1067   58.9618   96.1167 H   0  0  0  0  0
   10.5870   54.7915   94.8819 H   0  0  0  0  0
   13.5686   55.2438   94.4497 H   0  0  0  0  0
   10.8714   52.9407   95.5479 H   0  0  0  0  0
   11.1166   52.3816   93.8751 H   0  0  0  0  0
   11.7827   51.4433   95.2342 H   0  0  0  0  0
   14.3662   53.9090   96.1982 H   0  0  0  0  0
   12.7073   53.8743   96.8447 H   0  0  0  0  0
   13.5999   52.3528   96.6007 H   0  0  0  0  0
   13.5321   52.4421   92.8885 H   0  0  0  0  0
   14.8532   53.0265   93.9298 H   0  0  0  0  0
   14.0345   51.4909   94.3076 H   0  0  0  0  0
   15.2723   54.4146   92.3636 H   0  0  0  0  0
   14.8025   55.8825   93.1213 H   0  0  0  0  0
   16.2379   56.0580   90.8732 H   0  0  0  0  0
   15.0941   57.9443   90.2995 H   0  0  0  0  0
   14.9197   54.5929   89.4500 H   0  0  0  0  0
   14.3173   56.1488   88.9943 H   0  0  0  0  0
   12.2549   55.8345   90.2144 H   0  0  0  0  0
   11.4112   54.9627   88.5761 H   0  0  0  0  0
   10.2617   53.1232   87.6441 H   0  0  0  0  0
   11.3287   51.9901   88.5837 H   0  0  0  0  0
   12.9622   54.6295   86.7139 H   0  0  0  0  0
   14.3222   54.1796   84.6991 H   0  0  0  0  0
   11.3945   50.6434   86.5276 H   0  0  0  0  0
   12.7746   50.1983   84.5362 H   0  0  0  0  0
   16.9879   51.8176   80.9593 H   0  0  0  0  0
   12.3889   50.0466   82.6887 H   0  0  0  0  0
   11.8737   51.6285   82.0538 H   0  0  0  0  0
   12.5569   50.4070   80.9529 H   0  0  0  0  0
  1  2  1  0  0  0
  1  3  1  0  0  0
  2  3  1  0  0  0
  3  4  1  0  0  0
  3  6  1  0  0  0
  4  5  3  0  0  0
  6  7  2  0  0  0
  6  8  1  0  0  0
  8  9  1  0  0  0
  9 10  1  0  0  0
  9 14  1  0  0  0
 10 11  1  0  0  0
 10 12  1  0  0  0
 10 13  1  0  0  0
 14 15  2  0  0  0
 14 16  1  0  0  0
 16 17  1  0  0  0
 16 21  1  0  0  0
 17 18  1  0  0  0
 18 19  1  0  0  0
 18 20  1  0  0  0
 20 21  1  0  0  0
 21 22  1  0  0  0
 22 23  2  0  0  0
 22 24  1  0  0  0
 24 25  1  0  0  0
 25 26  1  0  0  0
 26 27  4  0  0  0
 26 29  4  0  0  0
 27 28  4  0  0  0
 28 31  4  0  0  0
 29 30  4  0  0  0
 30 31  4  0  0  0
 31 32  1  0  0  0
 32 33  4  0  0  0
 32 36  4  0  0  0
 33 34  4  0  0  0
 34 35  4  0  0  0
 35 36  4  0  0  0
 36 37  1  0  0  0
  1 38  1  0  0  0
  1 39  1  0  0  0
  2 40  1  0  0  0
  2 41  1  0  0  0
  8 42  1  0  0  0
  9 43  1  0  0  0
 11 44  1  0  0  0
 11 45  1  0  0  0
 11 46  1  0  0  0
 12 47  1  0  0  0
 12 48  1  0  0  0
 12 49  1  0  0  0
 13 50  1  0  0  0
 13 51  1  0  0  0
 13 52  1  0  0  0
 17 53  1  0  0  0
 17 54  1  0  0  0
 18 55  1  0  0  0
 19 56  1  0  0  0
 20 57  1  0  0  0
 20 58  1  0  0  0
 21 59  1  0  0  0
 24 60  1  0  0  0
 25 61  1  0  0  0
 25 62  1  0  0  0
 27 63  1  0  0  0
 28 64  1  0  0  0
 29 65  1  0  0  0
 30 66  1  0  0  0
 34 67  1  0  0  0
 37 68  1  0  0  0
 37 69  1  0  0  0
 37 70  1  0  0  0
M  END
$$$$
