3bla_ligand
  -I-interpret- 

 37 39  0  0  0  0  0  0  0  0999 V2000
    5.2650   -0.0070   22.5200 C   0  0  0  0  0
    3.7140   -0.0930   20.6220 C   0  0  0  0  0
    3.8360    0.0260   22.1340 C   0  0  0  0  0
    7.9520   -0.1080   23.2770 C   0  0  0  0  0
    7.4030    1.0770   22.8080 C   0  0  0  0  0
    6.0620    1.1340   22.4290 C   0  0  0  0  0
    0.3140    4.3310   22.9700 N   0  0  0  0  0
    2.7870    1.5540   23.7860 C   0  0  0  0  0
    2.6910    1.3010   26.2000 C   0  0  0  0  0
    1.7320    2.3060   26.3370 C   0  0  0  0  0
    1.7730    2.6290   23.8940 C   0  0  0  0  0
    1.2330    3.3770   22.7330 C   0  0  0  0  0
    5.8170   -1.1980   22.9900 C   0  0  0  0  0
    3.2160    0.9260   24.9630 C   0  0  0  0  0
    8.4420    2.5340   22.6950 Cl  0  0  0  0  0
    7.1630   -1.2530   23.3570 C   0  0  0  0  0
    3.2550    1.2590   22.5320 O   0  0  0  0  0
    1.2460    2.9930   25.2270 C   0  0  0  0  0
    0.3100    3.9740   25.3150 N   0  0  0  0  0
    1.6140    3.1680   21.4550 N   0  0  0  0  0
   -0.1340    4.6170   24.2080 C   0  0  0  0  0
   -1.0590    5.5900   24.2900 N   0  0  0  0  0
    2.6613   -0.0668   20.3405 H   0  0  0  0  0
    4.2384    0.7378   20.1500 H   0  0  0  0  0
    4.1552   -1.0349   20.2962 H   0  0  0  0  0
    3.3227   -0.8023   22.6224 H   0  0  0  0  0
    8.9979   -0.1427   23.5820 H   0  0  0  0  0
    5.6376    2.0686   22.0623 H   0  0  0  0  0
    3.0437    0.7888   27.0952 H   0  0  0  0  0
    1.3572    2.5574   27.3292 H   0  0  0  0  0
    5.1953   -2.0896   23.0712 H   0  0  0  0  0
    3.9667    0.1374   24.9116 H   0  0  0  0  0
    7.5957   -2.1907   23.7056 H   0  0  0  0  0
    1.2073    3.7255   20.7039 H   0  0  0  0  0
    2.3086    2.4525   21.2404 H   0  0  0  0  0
   -1.3792    6.0619   23.4443 H   0  0  0  0  0
   -1.4403    5.8560   25.1979 H   0  0  0  0  0
  3  1  1  0  0  0
  1  6  4  0  0  0
  1 13  4  0  0  0
  3  2  1  0  0  0
 17  3  1  0  0  0
  5  4  4  0  0  0
  4 16  4  0  0  0
  6  5  4  0  0  0
  5 15  1  0  0  0
 12  7  4  0  0  0
  7 21  4  0  0  0
 11  8  4  0  0  0
  8 14  4  0  0  0
  8 17  1  0  0  0
  9 10  4  0  0  0
 14  9  4  0  0  0
 10 18  4  0  0  0
 11 12  4  0  0  0
 11 18  4  0  0  0
 12 20  1  0  0  0
 13 16  4  0  0  0
 18 19  4  0  0  0
 19 21  4  0  0  0
 21 22  1  0  0  0
  2 23  1  0  0  0
  2 24  1  0  0  0
  2 25  1  0  0  0
  3 26  1  0  0  0
  4 27  1  0  0  0
  6 28  1  0  0  0
  9 29  1  0  0  0
 10 30  1  0  0  0
 13 31  1  0  0  0
 14 32  1  0  0  0
 16 33  1  0  0  0
 20 34  1  0  0  0
 20 35  1  0  0  0
 22 36  1  0  0  0
 22 37  1  0  0  0
M  END
$$$$
