6hcw_ligand
  -I-interpret- 

 41 43  0  0  0  0  0  0  0  0999 V2000
   48.6780   19.6400   -6.0330 C   0  0  0  0  0
   48.9290   19.8410   -4.5360 C   0  0  0  0  0
   48.5340   20.9780   -6.6820 C   0  0  0  0  0
   50.6390   13.2900   -0.8360 C   0  0  0  0  0
   48.4960   16.0690    0.4340 C   0  0  0  0  0
   49.2740   18.0140   -0.8180 C   0  0  0  0  0
   48.3910   17.4570    0.0610 C   0  0  0  0  0
   49.6560   21.9490   -6.4580 C   0  0  0  0  0
   49.8950   22.1300   -4.9550 C   0  0  0  0  0
   49.1810   19.4130   -1.2550 C   0  0  0  0  0
   51.3620   15.2930   -1.8810 C   0  0  0  0  0
   50.4140   15.9720   -1.1490 C   0  0  0  0  0
   50.7410   11.9460   -0.7040 F   0  0  0  0  0
   49.6980   13.9400   -0.0890 C   0  0  0  0  0
   51.4600   13.9140   -1.7460 C   0  0  0  0  0
   49.5530   15.3130   -0.2480 C   0  0  0  0  0
   47.7860   15.5470    1.3140 O   0  0  0  0  0
   50.2770   17.3100   -1.4040 O   0  0  0  0  0
   48.1740   20.0440   -1.0370 O   0  0  0  0  0
   50.2240   19.8880   -1.9270 N   0  0  0  0  0
   50.2030   21.1270   -2.6900 C   0  0  0  0  0
   50.0850   20.7960   -4.2370 C   0  0  0  0  0
   51.3060   20.2080   -4.6770 O   0  0  0  0  0
   47.3620   21.5440   -6.2580 F   0  0  0  0  0
   48.3640   20.8010   -8.0350 F   0  0  0  0  0
   47.7676   19.0588   -6.1797 H   0  0  0  0  0
   49.5148   19.1019   -6.4785 H   0  0  0  0  0
   49.1870   18.8702   -4.1128 H   0  0  0  0  0
   48.0256   20.2741   -4.1066 H   0  0  0  0  0
   47.5962   18.0698    0.4863 H   0  0  0  0  0
   49.3935   22.9105   -6.8992 H   0  0  0  0  0
   50.5635   21.5640   -6.9231 H   0  0  0  0  0
   49.0210   22.6230   -4.5294 H   0  0  0  0  0
   50.8034   22.7181   -4.8243 H   0  0  0  0  0
   52.0267   15.8304   -2.5574 H   0  0  0  0  0
   49.0736   13.3930    0.6174 H   0  0  0  0  0
   52.1684   13.3419   -2.3451 H   0  0  0  0  0
   51.0916   19.3520   -1.9069 H   0  0  0  0  0
   51.1236   21.6812   -2.5070 H   0  0  0  0  0
   49.3478   21.7283   -2.3816 H   0  0  0  0  0
   51.4344   19.3679   -4.2306 H   0  0  0  0  0
  2  1  1  0  0  0
  1  3  1  0  0  0
 22  2  1  0  0  0
  8  3  1  0  0  0
  3 24  1  0  0  0
  3 25  1  0  0  0
  4 13  1  0  0  0
 14  4  4  0  0  0
 15  4  4  0  0  0
  7  5  1  0  0  0
  5 16  1  0  0  0
  5 17  2  0  0  0
  6  7  2  0  0  0
 10  6  1  0  0  0
  6 18  1  0  0  0
  9  8  1  0  0  0
 22  9  1  0  0  0
 10 19  2  0  0  0
 20 10  1  0  0  0
 12 11  4  0  0  0
 11 15  4  0  0  0
 12 16  4  0  0  0
 18 12  1  0  0  0
 16 14  4  0  0  0
 21 20  1  0  0  0
 21 22  1  0  0  0
 22 23  1  0  0  0
  1 26  1  0  0  0
  1 27  1  0  0  0
  2 28  1  0  0  0
  2 29  1  0  0  0
  7 30  1  0  0  0
  8 31  1  0  0  0
  8 32  1  0  0  0
  9 33  1  0  0  0
  9 34  1  0  0  0
 11 35  1  0  0  0
 14 36  1  0  0  0
 15 37  1  0  0  0
 20 38  1  0  0  0
 21 39  1  0  0  0
 21 40  1  0  0  0
 23 41  1  0  0  0
M  END
$$$$
