2bgr_ligand
  -I-interpret- 

 47 47  0  0  0  0  0  0  0  0999 V2000
   38.5330   52.2340   34.2950 N   0  3  0  0  0
   38.2470   51.8580   35.7040 C   0  0  0  0  0
   39.2650   52.3190   36.7640 C   0  0  0  0  0
   40.2300   53.0630   36.4910 O   0  0  0  0  0
   38.0020   50.3430   35.8330 C   0  0  0  0  0
   36.5600   49.9690   35.6080 C   0  0  0  0  0
   35.9270   48.6170   36.5910 S   0  0  0  0  0
   34.6330   48.0300   35.5040 C   0  0  0  0  0
   38.9690   51.8700   37.9820 N   0  0  0  0  0
   39.6430   52.2240   39.2280 C   0  0  0  0  0
   41.1210   51.8240   39.2170 C   0  0  0  0  0
   41.4540   50.6890   38.8610 O   0  0  0  0  0
   38.9170   51.4940   40.3680 C   0  0  0  0  0
   37.4270   51.2740   40.0700 C   0  0  0  0  0
   36.6320   52.2370   40.2050 O   0  0  0  0  0
   36.9600   50.1860   39.6610 O   0  0  0  0  0
   42.0060   52.7260   39.6390 N   0  0  0  0  0
   43.4610   52.4960   39.5120 C   0  0  0  0  0
   43.9840   51.3480   40.3770 C   0  0  0  0  0
   44.2210   50.2490   39.8620 O   0  0  0  0  0
   44.0920   53.8200   39.9560 C   0  0  0  0  0
   43.0090   54.5680   40.7050 C   0  0  0  0  0
   41.6790   53.9960   40.3120 C   0  0  0  0  0
   38.6910   53.2401   34.2382 H   0  0  0  0  0
   39.3655   51.7393   33.9746 H   0  0  0  0  0
   37.7382   51.9798   33.7085 H   0  0  0  0  0
   37.3419   52.4203   35.9337 H   0  0  0  0  0
   38.2723   50.0442   36.8458 H   0  0  0  0  0
   38.6016   49.8401   35.0743 H   0  0  0  0  0
   36.4894   49.6469   34.5691 H   0  0  0  0  0
   35.9734   50.8450   35.8847 H   0  0  0  0  0
   33.9134   48.8305   35.3325 H   0  0  0  0  0
   35.0700   47.7228   34.5538 H   0  0  0  0  0
   34.1301   47.1803   35.9657 H   0  0  0  0  0
   38.1927   51.2120   38.0518 H   0  0  0  0  0
   39.6087   53.3056   39.3588 H   0  0  0  0  0
   38.9935   52.1096   41.2642 H   0  0  0  0  0
   39.3831   50.5166   40.4923 H   0  0  0  0  0
   37.1126   53.0052   40.5221 H   0  0  0  0  0
   43.7107   52.2044   38.4919 H   0  0  0  0  0
   44.1473   51.4982   41.4442 H   0  0  0  0  0
   44.4488   54.3937   39.1007 H   0  0  0  0  0
   44.9635   53.6496   40.5881 H   0  0  0  0  0
   43.0473   55.6283   40.4551 H   0  0  0  0  0
   43.1576   54.4617   41.7796 H   0  0  0  0  0
   41.0289   53.8454   41.1739 H   0  0  0  0  0
   41.1209   54.6701   39.6622 H   0  0  0  0  0
  1  2  1  0  0  0
  2  3  1  0  0  0
  2  5  1  0  0  0
  3  4  2  0  0  0
  3  9  1  0  0  0
  5  6  1  0  0  0
  6  7  1  0  0  0
  7  8  1  0  0  0
  9 10  1  0  0  0
 10 11  1  0  0  0
 10 13  1  0  0  0
 11 12  2  0  0  0
 11 17  1  0  0  0
 13 14  1  0  0  0
 14 15  1  0  0  0
 14 16  2  0  0  0
 17 18  1  0  0  0
 17 23  1  0  0  0
 18 19  1  0  0  0
 18 21  1  0  0  0
 19 20  2  0  0  0
 21 22  1  0  0  0
 22 23  1  0  0  0
  1 24  1  0  0  0
  1 25  1  0  0  0
  1 26  1  0  0  0
  2 27  1  0  0  0
  5 28  1  0  0  0
  5 29  1  0  0  0
  6 30  1  0  0  0
  6 31  1  0  0  0
  8 32  1  0  0  0
  8 33  1  0  0  0
  8 34  1  0  0  0
  9 35  1  0  0  0
 10 36  1  0  0  0
 13 37  1  0  0  0
 13 38  1  0  0  0
 15 39  1  0  0  0
 18 40  1  0  0  0
 19 41  1  0  0  0
 21 42  1  0  0  0
 21 43  1  0  0  0
 22 44  1  0  0  0
 22 45  1  0  0  0
 23 46  1  0  0  0
 23 47  1  0  0  0
M  END
$$$$
