4e1k_ligand
  -I-interpret- 

 47 50  0  0  0  0  0  0  0  0999 V2000
   28.8980    3.5580   85.2210 C   0  0  0  0  0
   30.2190    3.7160   85.7240 O   0  0  0  0  0
   30.2570    3.7720   87.1150 C   0  0  0  0  0
   29.1570    3.8180   87.9530 C   0  0  0  0  0
   29.3390    3.8700   89.3290 C   0  0  0  0  0
   30.6120    3.8780   89.8810 C   0  0  0  0  0
   31.7000    3.8330   89.0330 C   0  0  0  0  0
   31.5180    3.7830   87.6710 C   0  0  0  0  0
   32.6110    3.7420   86.8440 O   0  0  0  0  0
   30.8110    3.9250   91.2040 N   0  0  0  0  0
   29.7140    3.9640   91.9640 C   0  0  0  0  0
   28.4500    3.9660   91.5350 N   0  0  0  0  0
   28.2650    3.9160   90.2060 C   0  0  0  0  0
   26.9420    3.9100   89.6990 N   0  0  0  0  0
   25.8260    4.0230   90.5540 C   0  0  0  0  0
   25.6720    3.2170   91.6690 C   0  0  0  0  0
   24.5750    3.3470   92.5010 C   0  0  0  0  0
   23.6080    4.2910   92.2220 C   0  0  0  0  0
   23.7550    5.0850   91.1050 C   0  0  0  0  0
   24.8530    4.9560   90.2790 C   0  0  0  0  0
   22.4640    4.4630   93.0390 N   0  0  0  0  0
   22.5050    4.3480   94.4100 C   0  0  0  0  0
   23.5010    4.1010   95.0770 O   0  0  0  0  0
   21.2110    4.5460   95.0960 C   0  0  0  0  0
   20.0370    4.1510   94.4910 C   0  0  0  0  0
   18.8410    4.3460   95.1480 C   0  0  0  0  0
   18.8220    4.9300   96.3990 C   0  0  0  0  0
   20.0030    5.3200   97.0010 C   0  0  0  0  0
   21.2020    5.1270   96.3470 C   0  0  0  0  0
   28.4722    2.6316   85.6065 H   0  0  0  0  0
   28.2857    4.4013   85.5403 H   0  0  0  0  0
   28.9273    3.5204   84.1320 H   0  0  0  0  0
   28.1505    3.8134   87.5346 H   0  0  0  0  0
   32.7090    3.8371   89.4452 H   0  0  0  0  0
   33.4119    3.7558   87.3731 H   0  0  0  0  0
   29.8658    3.9976   93.0429 H   0  0  0  0  0
   26.7934    3.8220   88.6937 H   0  0  0  0  0
   26.4292    2.4663   91.8952 H   0  0  0  0  0
   24.4744    2.7047   93.3759 H   0  0  0  0  0
   22.9917    5.8268   90.8702 H   0  0  0  0  0
   24.9500    5.5974   89.4031 H   0  0  0  0  0
   21.5730    4.6811   92.5930 H   0  0  0  0  0
   20.0543    3.6894   93.5037 H   0  0  0  0  0
   17.9069    4.0380   94.6782 H   0  0  0  0  0
   17.8731    5.0837   96.9129 H   0  0  0  0  0
   19.9872    5.7787   97.9896 H   0  0  0  0  0
   22.1374    5.4320   96.8162 H   0  0  0  0  0
  1  2  1  0  0  0
  2  3  1  0  0  0
  3  4  4  0  0  0
  3  8  4  0  0  0
  4  5  4  0  0  0
  5  6  4  0  0  0
  5 13  4  0  0  0
  6  7  4  0  0  0
  6 10  4  0  0  0
  7  8  4  0  0  0
  8  9  1  0  0  0
 10 11  4  0  0  0
 11 12  4  0  0  0
 12 13  4  0  0  0
 13 14  1  0  0  0
 14 15  1  0  0  0
 15 16  4  0  0  0
 15 20  4  0  0  0
 16 17  4  0  0  0
 17 18  4  0  0  0
 18 19  4  0  0  0
 18 21  1  0  0  0
 19 20  4  0  0  0
 21 22  1  0  0  0
 22 23  2  0  0  0
 22 24  1  0  0  0
 24 25  4  0  0  0
 24 29  4  0  0  0
 25 26  4  0  0  0
 26 27  4  0  0  0
 27 28  4  0  0  0
 28 29  4  0  0  0
  1 30  1  0  0  0
  1 31  1  0  0  0
  1 32  1  0  0  0
  4 33  1  0  0  0
  7 34  1  0  0  0
  9 35  1  0  0  0
 11 36  1  0  0  0
 14 37  1  0  0  0
 16 38  1  0  0  0
 17 39  1  0  0  0
 19 40  1  0  0  0
 20 41  1  0  0  0
 21 42  1  0  0  0
 25 43  1  0  0  0
 26 44  1  0  0  0
 27 45  1  0  0  0
 28 46  1  0  0  0
 29 47  1  0  0  0
M  END
$$$$
