4a4e_ligand
  -I-interpret- 

 35 34  0  0  0  0  0  0  0  0999 V2000
   16.2980    2.5720   -3.7600 N   0  3  0  0  0
   16.3830    3.0400   -2.3830 C   0  0  0  0  0
   16.0160    1.9050   -1.4240 C   0  0  0  0  0
   16.0080    2.2390    0.0670 C   0  0  0  0  0
   14.6910    2.8560    0.4800 C   0  0  0  0  0
   13.5720    1.9730    0.0960 N   0  0  0  0  0
   12.3000    2.1390    0.4210 C   0  0  0  0  0
   11.9620    3.2210    1.1880 N   0  0  0  0  0
   10.6670    3.6770    1.7100 C   0  0  0  0  0
   11.4220    1.2520   -0.0760 N   0  0  0  0  0
    9.9870    1.1520    0.0840 C   0  0  0  0  0
   17.7900    3.5070   -2.1460 C   0  0  0  0  0
   17.9850    4.6890   -1.8160 O   0  0  0  0  0
   18.7200    2.7080   -2.3750 O   0  0  0  0  0
   15.3497    2.2476   -3.9497 H   0  0  0  0  0
   16.5297    3.3376   -4.3929 H   0  0  0  0  0
   16.9553    1.8043   -3.8981 H   0  0  0  0  0
   15.6862    3.8597   -2.2077 H   0  0  0  0  0
   16.7830    1.1418   -1.5558 H   0  0  0  0  0
   14.9933    1.6216   -1.6729 H   0  0  0  0  0
   16.8061    2.9535    0.2685 H   0  0  0  0  0
   16.1537    1.3179    0.6314 H   0  0  0  0  0
   14.5748    3.8174   -0.0203 H   0  0  0  0  0
   14.6839    2.9914    1.5615 H   0  0  0  0  0
   13.8043    1.1128    0.5925 H   0  0  0  0  0
   11.4948    2.0749    1.1529 H   0  0  0  0  0
   12.1529    3.9702    0.5226 H   0  0  0  0  0
    9.9895    3.8709    0.8785 H   0  0  0  0  0
   10.2437    2.9052    2.3529 H   0  0  0  0  0
   10.8102    4.5921    2.2847 H   0  0  0  0  0
   11.7149    0.4131    0.4249 H   0  0  0  0  0
    9.7482    1.0284    1.1403 H   0  0  0  0  0
    9.5166    2.0604   -0.2923 H   0  0  0  0  0
    9.6193    0.2921   -0.4760 H   0  0  0  0  0
   18.3544    1.8527   -2.6125 H   0  0  0  0  0
  1  2  1  0  0  0
  2  3  1  0  0  0
  2 12  1  0  0  0
  3  4  1  0  0  0
  4  5  1  0  0  0
  5  6  1  0  0  0
  6  7  1  0  0  0
  7  8  1  0  0  0
  7 10  1  0  0  0
  8  9  1  0  0  0
 10 11  1  0  0  0
 12 13  2  0  0  0
 12 14  1  0  0  0
  1 15  1  0  0  0
  1 16  1  0  0  0
  1 17  1  0  0  0
  2 18  1  0  0  0
  3 19  1  0  0  0
  3 20  1  0  0  0
  4 21  1  0  0  0
  4 22  1  0  0  0
  5 23  1  0  0  0
  5 24  1  0  0  0
  6 25  1  0  0  0
  7 26  1  0  0  0
  8 27  1  0  0  0
  9 28  1  0  0  0
  9 29  1  0  0  0
  9 30  1  0  0  0
 10 31  1  0  0  0
 11 32  1  0  0  0
 11 33  1  0  0  0
 11 34  1  0  0  0
 14 35  1  0  0  0
M  END
$$$$
