2hny_ligand
  -I-interpret- 

 34 37  0  0  0  0  0  0  0  0999 V2000
    2.1040  -37.6880   21.2250 N   0  0  0  0  0
    2.6920  -38.9130   20.6210 C   0  0  0  0  0
    2.9380  -40.0510   21.5440 C   0  0  0  0  0
    1.8250  -40.1150   20.5580 C   0  0  0  0  0
    4.3470  -36.8340   21.4840 N   0  0  0  0  0
    5.2440  -36.1100   22.1910 C   0  0  0  0  0
    4.8730  -35.3660   23.3280 C   0  0  0  0  0
    3.5410  -35.3710   23.7370 C   0  0  0  0  0
    3.1300  -34.6360   24.9900 C   0  0  0  0  0
    3.0490  -36.8370   21.8870 C   0  0  0  0  0
    2.5990  -36.1020   22.9950 C   0  0  0  0  0
    1.1940  -36.0450   23.3340 N   0  0  0  0  0
    0.0590  -36.0960   22.6100 C   0  0  0  0  0
   -1.0460  -36.0110   23.1520 O   0  0  0  0  0
    0.1020  -36.2530   21.0870 C   0  0  0  0  0
    1.1100  -37.0070   20.4260 C   0  0  0  0  0
   -0.9060  -35.6800   20.3150 C   0  0  0  0  0
   -0.8970  -35.8500   18.9270 C   0  0  0  0  0
    0.1390  -36.5980   18.3420 C   0  0  0  0  0
    1.1260  -37.1670   19.0800 N   0  0  0  0  0
    3.2905  -38.3600   19.8971 H   0  0  0  0  0
    3.0999  -40.2218   22.6083 H   0  0  0  0  0
    3.7717  -40.6681   21.8790 H   0  0  0  0  0
    1.4356  -40.8037   19.8083 H   0  0  0  0  0
    0.7622  -40.3564   20.5393 H   0  0  0  0  0
    6.2860  -36.1019   21.8712 H   0  0  0  0  0
    5.6181  -34.7938   23.8807 H   0  0  0  0  0
    3.6686  -35.0469   25.8439 H   0  0  0  0  0
    3.3682  -33.5777   24.8836 H   0  0  0  0  0
    2.0575  -34.7546   25.1440 H   0  0  0  0  0
    1.0268  -35.9448   24.3352 H   0  0  0  0  0
   -1.6982  -35.1018   20.7906 H   0  0  0  0  0
   -1.6800  -35.4099   18.3095 H   0  0  0  0  0
    0.1503  -36.7255   17.2595 H   0  0  0  0  0
  1  2  1  0  0  0
 10  1  1  0  0  0
  1 16  1  0  0  0
  2  3  1  0  0  0
  2  4  1  0  0  0
  4  3  1  0  0  0
  5  6  4  0  0  0
  5 10  4  0  0  0
  6  7  4  0  0  0
  7  8  4  0  0  0
  8  9  1  0  0  0
  8 11  4  0  0  0
 10 11  4  0  0  0
 11 12  1  0  0  0
 12 13  1  0  0  0
 13 14  2  0  0  0
 13 15  1  0  0  0
 15 16  4  0  0  0
 15 17  4  0  0  0
 16 20  4  0  0  0
 17 18  4  0  0  0
 18 19  4  0  0  0
 19 20  4  0  0  0
  2 21  1  0  0  0
  3 22  1  0  0  0
  3 23  1  0  0  0
  4 24  1  0  0  0
  4 25  1  0  0  0
  6 26  1  0  0  0
  7 27  1  0  0  0
  9 28  1  0  0  0
  9 29  1  0  0  0
  9 30  1  0  0  0
 12 31  1  0  0  0
 17 32  1  0  0  0
 18 33  1  0  0  0
 19 34  1  0  0  0
M  END
$$$$
