3ddq_ligand
  -I-interpret- 

 52 54  0  0  0  0  0  0  0  0999 V2000
  -34.3270   17.8530   35.2940 O   0  0  0  0  0
  -33.8910   16.6360   34.6780 C   0  0  0  0  0
  -34.7150   16.3620   33.4250 C   0  0  0  0  0
  -36.2080   16.2620   33.7610 C   0  0  0  0  0
  -37.0790   15.7250   32.6290 C   0  0  0  0  0
  -34.5710   17.5490   32.5920 N   0  0  0  0  0
  -34.1710   17.4670   31.3090 C   0  0  0  0  0
  -33.8630   16.2650   30.7640 N   0  0  0  0  0
  -33.4630   16.2320   29.4730 C   0  0  0  0  0
  -33.1080   15.2070   28.7460 N   0  0  0  0  0
  -33.2530   13.9370   29.4580 C   0  0  0  0  0
  -34.5220   13.1660   29.0410 C   0  0  0  0  0
  -32.0520   13.2140   30.1060 C   0  0  0  0  0
  -32.8010   15.6150   27.5020 C   0  0  0  0  0
  -33.3510   17.3690   28.7000 C   0  0  0  0  0
  -32.9300   16.9750   27.4770 N   0  0  0  0  0
  -34.0770   18.6010   30.5770 N   0  0  0  0  0
  -33.6780   18.5840   29.2880 C   0  0  0  0  0
  -33.5770   19.7200   28.5660 N   0  0  0  0  0
  -33.9320   21.0170   29.1270 C   0  0  0  0  0
  -32.7830   21.7730   29.7180 C   0  0  0  0  0
  -32.8560   22.1790   31.0530 C   0  0  0  0  0
  -31.8030   22.8960   31.6230 C   0  0  0  0  0
  -30.6940   23.2080   30.8370 C   0  0  0  0  0
  -30.6350   22.8100   29.4990 C   0  0  0  0  0
  -31.6830   22.0860   28.9350 C   0  0  0  0  0
  -33.8031   18.0173   36.0814 H   0  0  0  0  0
  -34.0206   15.8122   35.3799 H   0  0  0  0  0
  -32.8404   16.7294   34.4031 H   0  0  0  0  0
  -34.3818   15.4357   32.9570 H   0  0  0  0  0
  -36.5540   17.2729   33.9767 H   0  0  0  0  0
  -36.3009   15.5637   34.5927 H   0  0  0  0  0
  -36.9924   16.3813   31.7630 H   0  0  0  0  0
  -36.7467   14.7221   32.3611 H   0  0  0  0  0
  -38.1178   15.6894   32.9571 H   0  0  0  0  0
  -34.7784   18.4646   32.9908 H   0  0  0  0  0
  -33.4182   14.2434   30.4909 H   0  0  0  0  0
  -35.4014   13.7733   29.2553 H   0  0  0  0  0
  -34.4797   12.9495   27.9736 H   0  0  0  0  0
  -34.5786   12.2323   29.6005 H   0  0  0  0  0
  -31.3145   12.9781   29.3388 H   0  0  0  0  0
  -31.6016   13.8624   30.8576 H   0  0  0  0  0
  -32.3952   12.2930   30.5773 H   0  0  0  0  0
  -32.5043   14.9788   26.6682 H   0  0  0  0  0
  -33.2437   19.6692   27.6033 H   0  0  0  0  0
  -34.6412   20.8323   29.9338 H   0  0  0  0  0
  -34.3250   21.6215   28.3095 H   0  0  0  0  0
  -33.7354   21.9357   31.6493 H   0  0  0  0  0
  -31.8467   23.2074   32.6667 H   0  0  0  0  0
  -29.8653   23.7677   31.2707 H   0  0  0  0  0
  -29.7655   23.0670   28.8941 H   0  0  0  0  0
  -31.6386   21.7701   27.8927 H   0  0  0  0  0
  1  2  1  0  0  0
  2  3  1  0  0  0
  3  4  1  0  0  0
  3  6  1  0  0  0
  4  5  1  0  0  0
  6  7  1  0  0  0
  7  8  4  0  0  0
  7 17  4  0  0  0
  8  9  4  0  0  0
  9 10  4  0  0  0
  9 15  4  0  0  0
 10 11  1  0  0  0
 10 14  4  0  0  0
 11 12  1  0  0  0
 11 13  1  0  0  0
 14 16  4  0  0  0
 15 16  4  0  0  0
 15 18  4  0  0  0
 17 18  4  0  0  0
 18 19  1  0  0  0
 19 20  1  0  0  0
 20 21  1  0  0  0
 21 22  4  0  0  0
 21 26  4  0  0  0
 22 23  4  0  0  0
 23 24  4  0  0  0
 24 25  4  0  0  0
 25 26  4  0  0  0
  1 27  1  0  0  0
  2 28  1  0  0  0
  2 29  1  0  0  0
  3 30  1  0  0  0
  4 31  1  0  0  0
  4 32  1  0  0  0
  5 33  1  0  0  0
  5 34  1  0  0  0
  5 35  1  0  0  0
  6 36  1  0  0  0
 11 37  1  0  0  0
 12 38  1  0  0  0
 12 39  1  0  0  0
 12 40  1  0  0  0
 13 41  1  0  0  0
 13 42  1  0  0  0
 13 43  1  0  0  0
 14 44  1  0  0  0
 19 45  1  0  0  0
 20 46  1  0  0  0
 20 47  1  0  0  0
 22 48  1  0  0  0
 23 49  1  0  0  0
 24 50  1  0  0  0
 25 51  1  0  0  0
 26 52  1  0  0  0
M  END
$$$$
