2rt5_ligand
  -I-interpret- 

135135  0  0  0  0  0  0  0  0999 V2000
  288.0800    7.5010   -9.4610 N   0  3  0  0  0
  287.6200    6.3700   -8.6250 C   0  0  0  0  0
  288.2190    5.0470   -9.0980 C   0  0  0  0  0
  287.5910    4.0050   -8.9440 O   0  0  0  0  0
  286.0880    6.2620   -8.6520 C   0  0  0  0  0
  285.3670    7.3260   -7.8510 C   0  0  0  0  0
  285.1820    7.1880   -6.4800 C   0  0  0  0  0
  284.8620    8.4640   -8.4660 C   0  0  0  0  0
  284.5160    8.1490   -5.7480 C   0  0  0  0  0
  284.1950    9.4340   -7.7390 C   0  0  0  0  0
  284.0240    9.2720   -6.3800 C   0  0  0  0  0
  283.3500   10.2330   -5.6560 O   0  0  0  0  0
  289.4330    5.0790   -9.6550 N   0  0  0  0  0
  290.1110    3.8510  -10.0910 C   0  0  0  0  0
  289.2290    3.0330  -11.0310 C   0  0  0  0  0
  288.3300    3.5550  -11.6950 O   0  0  0  0  0
  290.4650    2.9770   -8.8750 C   0  0  0  0  0
  291.5600    3.5420   -7.9940 C   0  0  0  0  0
  291.7930    2.7630   -6.7170 C   0  0  0  0  0
  292.5030    1.7330   -6.7520 O   0  0  0  0  0
  291.2900    3.1960   -5.6620 O   0  0  0  0  0
  289.5340    1.7500  -11.0960 N   0  0  0  0  0
  288.6630    0.7640  -11.6970 C   0  0  0  0  0
  288.8040   -0.5220  -10.9020 C   0  0  0  0  0
  289.8860   -1.1080  -10.8750 O   0  0  0  0  0
  289.0220    0.4960  -13.1720 C   0  0  0  0  0
  289.0560    1.7290  -13.9010 O   0  0  0  0  0
  288.0150   -0.4480  -13.8140 C   0  0  0  0  0
  287.7420   -0.9440  -10.2230 N   0  0  0  0  0
  287.8240   -2.1280   -9.3880 C   0  0  0  0  0
  287.8260   -3.3680  -10.2660 C   0  0  0  0  0
  288.6030   -3.4560  -11.2180 O   0  0  0  0  0
  286.7010   -2.1900   -8.3300 C   0  0  0  0  0
  287.0030   -3.0910   -7.1090 C   0  0  0  0  0
  286.8160   -2.3300   -5.8030 C   0  0  0  0  0
  286.1340   -4.3440   -7.1020 C   0  0  0  0  0
  286.9480   -4.3100   -9.9900 N   0  0  0  0  0
  287.1430   -5.6500  -10.4960 C   0  0  0  0  0
  288.3110   -6.2990   -9.7270 C   0  0  0  0  0
  289.4770   -5.4780   -9.9050 O   0  0  0  0  0
  285.8650   -6.4550  -10.3440 C   0  0  0  0  0
  285.5960   -7.0050   -9.2780 O   0  0  0  0  0
  290.7310   -6.1040   -9.1140 P   0  0  0  0  0
  291.0230   -7.4570   -9.6380 O   0  0  0  0  0
  292.0140   -5.1470   -9.3310 O   0  0  0  0  0
  290.3850   -6.2070   -7.5490 O   0  0  0  0  0
  285.0530   -6.4790  -11.3870 N   0  0  0  0  0
  283.7270   -7.0630  -11.2890 C   0  0  0  0  0
  283.5100   -8.1570  -12.3370 C   0  0  0  0  0
  284.0930   -9.2370  -12.2340 O   0  0  0  0  0
  282.6430   -5.9680  -11.3690 C   0  0  0  0  0
  282.7230   -5.1160  -12.6270 C   0  0  0  0  0
  283.5820   -4.2130  -12.6970 O   0  0  0  0  0
  281.9220   -5.3610  -13.5560 O   0  0  0  0  0
  282.6930   -7.8820  -13.3420 N   0  0  0  0  0
  282.3280   -8.8860  -14.3270 C   0  0  0  0  0
  281.0130   -9.5570  -13.9200 C   0  0  0  0  0
  281.1510  -10.1410  -12.6220 O   0  0  0  0  0
  282.1780   -8.2630  -15.7140 C   0  0  0  0  0
  282.3130   -8.9590  -16.7190 O   0  0  0  0  0
  279.7410  -10.8270  -12.2460 P   0  0  0  0  0
  279.4020  -11.8570  -13.2540 O   0  0  0  0  0
  279.8420  -11.5030  -10.7890 O   0  0  0  0  0
  278.5890   -9.7040  -12.2250 O   0  0  0  0  0
  281.9280   -6.9500  -15.7580 N   0  0  0  0  0
  281.6490   -6.2490  -17.0140 C   0  0  0  0  0
  280.5090   -6.9290  -17.7700 C   0  0  0  0  0
  280.7580   -7.4930  -18.8570 O   0  0  0  0  0
  282.9040   -6.1790  -17.8960 C   0  0  0  0  0
  283.9370   -5.1690  -17.4210 C   0  0  0  0  0
  283.5040   -3.7330  -17.6510 C   0  0  0  0  0
  282.7820   -3.1760  -16.8020 O   0  0  0  0  0
  283.8970   -3.1430  -18.6810 O   0  0  0  0  0
  279.3690   -6.9190  -17.2570 O   0  0  0  0  0
  289.0981    7.5541   -9.4287 H   0  0  0  0  0
  287.7763    7.3561  -10.4239 H   0  0  0  0  0
  287.6816    8.3697   -9.1047 H   0  0  0  0  0
  287.9559    6.5665   -7.6068 H   0  0  0  0  0
  285.8290    5.3002   -8.2093 H   0  0  0  0  0
  285.7788    6.3813   -9.6904 H   0  0  0  0  0
  285.5704    6.3041   -5.9741 H   0  0  0  0  0
  284.9933    8.5954   -9.5401 H   0  0  0  0  0
  284.3791    8.0214   -4.6742 H   0  0  0  0  0
  283.8066   10.3219   -8.2378 H   0  0  0  0  0
  283.0772   10.9417   -6.2433 H   0  0  0  0  0
  289.8999    5.9771   -9.7804 H   0  0  0  0  0
  291.0166    4.1507  -10.6184 H   0  0  0  0  0
  290.8258    2.0237   -9.2611 H   0  0  0  0  0
  289.5670    2.9046   -8.2615 H   0  0  0  0  0
  291.2541    4.5477   -7.7059 H   0  0  0  0  0
  292.4861    3.5037   -8.5676 H   0  0  0  0  0
  292.7893    1.5735   -7.6543 H   0  0  0  0  0
  290.4237    1.4403  -10.7049 H   0  0  0  0  0
  287.6394    1.1380  -11.6774 H   0  0  0  0  0
  290.0059    0.0278  -13.2017 H   0  0  0  0  0
  289.2802    1.5515  -14.8174 H   0  0  0  0  0
  288.0130   -1.3958  -13.2757 H   0  0  0  0  0
  287.0215   -0.0018  -13.7703 H   0  0  0  0  0
  288.2920   -0.6200  -14.8541 H   0  0  0  0  0
  286.8626   -0.4316  -10.2894 H   0  0  0  0  0
  288.7585   -2.0798   -8.8290 H   0  0  0  0  0
  285.8258   -2.6120   -8.8240 H   0  0  0  0  0
  286.5707   -1.1770   -7.9493 H   0  0  0  0  0
  288.0457   -3.3967   -7.1946 H   0  0  0  0  0
  287.4929   -1.4759   -5.7815 H   0  0  0  0  0
  285.7859   -1.9807   -5.7318 H   0  0  0  0  0
  287.0358   -2.9906   -4.9643 H   0  0  0  0  0
  285.0835   -4.0558   -7.0643 H   0  0  0  0  0
  286.3218   -4.9199   -8.0082 H   0  0  0  0  0
  286.3778   -4.9488   -6.2286 H   0  0  0  0  0
  286.1306   -4.0941   -9.4193 H   0  0  0  0  0
  287.3882   -5.6228  -11.5577 H   0  0  0  0  0
  288.4981   -7.3032  -10.1074 H   0  0  0  0  0
  288.0653   -6.3764   -8.6679 H   0  0  0  0  0
  291.8198   -4.2710   -8.9897 H   0  0  0  0  0
  290.1951   -5.3307   -7.2061 H   0  0  0  0  0
  285.3625   -6.0814  -12.2738 H   0  0  0  0  0
  283.6437   -7.5442  -10.3145 H   0  0  0  0  0
  282.7880   -5.3040  -10.5168 H   0  0  0  0  0
  281.6749   -6.4688  -11.3765 H   0  0  0  0  0
  281.3498   -6.0881  -13.3002 H   0  0  0  0  0
  282.3097   -6.9406  -13.4270 H   0  0  0  0  0
  283.1232   -9.6304  -14.3674 H   0  0  0  0  0
  280.7662  -10.3355  -14.6419 H   0  0  0  0  0
  280.2186   -8.8110  -13.8978 H   0  0  0  0  0
  280.0619  -10.8306  -10.1401 H   0  0  0  0  0
  278.8074   -9.0353  -11.5718 H   0  0  0  0  0
  281.9317   -6.4184  -14.8875 H   0  0  0  0  0
  281.3459   -5.2312  -16.7682 H   0  0  0  0  0
  282.5835   -5.8706  -18.8911 H   0  0  0  0  0
  283.3750   -7.1616  -17.8674 H   0  0  0  0  0
  284.8529   -5.3364  -17.9878 H   0  0  0  0  0
  284.0725   -5.3092  -16.3486 H   0  0  0  0  0
  284.4381   -3.7396  -19.2034 H   0  0  0  0  0
  279.3964   -6.4347  -16.4285 H   0  0  0  0  0
  1  2  1  0  0  0
  2  3  1  0  0  0
  2  5  1  0  0  0
  3  4  2  0  0  0
  3 13  1  0  0  0
  5  6  1  0  0  0
  6  7  4  0  0  0
  6  8  4  0  0  0
  7  9  4  0  0  0
  8 10  4  0  0  0
  9 11  4  0  0  0
 10 11  4  0  0  0
 11 12  1  0  0  0
 13 14  1  0  0  0
 14 15  1  0  0  0
 14 17  1  0  0  0
 15 16  2  0  0  0
 15 22  1  0  0  0
 17 18  1  0  0  0
 18 19  1  0  0  0
 19 20  1  0  0  0
 19 21  2  0  0  0
 22 23  1  0  0  0
 23 24  1  0  0  0
 23 26  1  0  0  0
 24 25  2  0  0  0
 24 29  1  0  0  0
 26 27  1  0  0  0
 26 28  1  0  0  0
 29 30  1  0  0  0
 30 31  1  0  0  0
 30 33  1  0  0  0
 31 32  2  0  0  0
 31 37  1  0  0  0
 33 34  1  0  0  0
 34 35  1  0  0  0
 34 36  1  0  0  0
 37 38  1  0  0  0
 38 39  1  0  0  0
 38 41  1  0  0  0
 39 40  1  0  0  0
 40 43  1  0  0  0
 41 42  2  0  0  0
 41 47  1  0  0  0
 43 44  2  0  0  0
 43 45  1  0  0  0
 43 46  1  0  0  0
 47 48  1  0  0  0
 48 49  1  0  0  0
 48 51  1  0  0  0
 49 50  2  0  0  0
 49 55  1  0  0  0
 51 52  1  0  0  0
 52 53  2  0  0  0
 52 54  1  0  0  0
 55 56  1  0  0  0
 56 57  1  0  0  0
 56 59  1  0  0  0
 57 58  1  0  0  0
 58 61  1  0  0  0
 59 60  2  0  0  0
 59 65  1  0  0  0
 61 62  2  0  0  0
 61 63  1  0  0  0
 61 64  1  0  0  0
 65 66  1  0  0  0
 66 67  1  0  0  0
 66 69  1  0  0  0
 67 68  2  0  0  0
 67 74  1  0  0  0
 69 70  1  0  0  0
 70 71  1  0  0  0
 71 72  2  0  0  0
 71 73  1  0  0  0
  1 75  1  0  0  0
  1 76  1  0  0  0
  1 77  1  0  0  0
  2 78  1  0  0  0
  5 79  1  0  0  0
  5 80  1  0  0  0
  7 81  1  0  0  0
  8 82  1  0  0  0
  9 83  1  0  0  0
 10 84  1  0  0  0
 12 85  1  0  0  0
 13 86  1  0  0  0
 14 87  1  0  0  0
 17 88  1  0  0  0
 17 89  1  0  0  0
 18 90  1  0  0  0
 18 91  1  0  0  0
 20 92  1  0  0  0
 22 93  1  0  0  0
 23 94  1  0  0  0
 26 95  1  0  0  0
 27 96  1  0  0  0
 28 97  1  0  0  0
 28 98  1  0  0  0
 28 99  1  0  0  0
 29100  1  0  0  0
 30101  1  0  0  0
 33102  1  0  0  0
 33103  1  0  0  0
 34104  1  0  0  0
 35105  1  0  0  0
 35106  1  0  0  0
 35107  1  0  0  0
 36108  1  0  0  0
 36109  1  0  0  0
 36110  1  0  0  0
 37111  1  0  0  0
 38112  1  0  0  0
 39113  1  0  0  0
 39114  1  0  0  0
 45115  1  0  0  0
 46116  1  0  0  0
 47117  1  0  0  0
 48118  1  0  0  0
 51119  1  0  0  0
 51120  1  0  0  0
 54121  1  0  0  0
 55122  1  0  0  0
 56123  1  0  0  0
 57124  1  0  0  0
 57125  1  0  0  0
 63126  1  0  0  0
 64127  1  0  0  0
 65128  1  0  0  0
 66129  1  0  0  0
 69130  1  0  0  0
 69131  1  0  0  0
 70132  1  0  0  0
 70133  1  0  0  0
 73134  1  0  0  0
 74135  1  0  0  0
M  END
$$$$
