### 
### Created by X-TOOL on Mon Sep 10 21:13:16 2018
### 

@<TRIPOS>MOLECULE
2rt5_ligand
  127   127     1     0     0
SMALL
GAST_HUCK


@<TRIPOS>ATOM
      1 N         288.0800    7.5010   -9.4610 N.4       1 TYR         0.2392
      2 CA        287.6200    6.3700   -8.6250 C.3       1 TYR         0.0730
      3 C         288.2190    5.0470   -9.0980 C.2       1 TYR         0.2286
      4 O         287.5910    4.0050   -8.9440 O.2       1 TYR        -0.3905
      5 CB        286.0880    6.2620   -8.6520 C.3       1 TYR         0.0365
      6 CG        285.3670    7.3260   -7.8510 C.ar      1 TYR        -0.0460
      7 CD1       285.1820    7.1880   -6.4800 C.ar      1 TYR        -0.0684
      8 CD2       284.8620    8.4640   -8.4660 C.ar      1 TYR        -0.0684
      9 CE1       284.5160    8.1490   -5.7480 C.ar      1 TYR        -0.0398
     10 CE2       284.1950    9.4340   -7.7390 C.ar      1 TYR        -0.0398
     11 CZ        284.0240    9.2720   -6.3800 C.ar      1 TYR         0.0805
     12 OH        283.3500   10.2330   -5.6560 O.3       1 TYR        -0.3376
     13 N         289.4330    5.0790   -9.6550 N.am      1 GLU        -0.2608
     14 CA        290.1110    3.8510  -10.0910 C.3       1 GLU         0.1326
     15 C         289.2290    3.0330  -11.0310 C.2       1 GLU         0.2041
     16 O         288.3300    3.5550  -11.6950 O.2       1 GLU        -0.3944
     17 CB        290.4650    2.9770   -8.8750 C.3       1 GLU        -0.0008
     18 CG        291.5600    3.5420   -7.9940 C.3       1 GLU         0.0044
     19 CD        291.7930    2.7630   -6.7170 C.2       1 GLU         0.0350
     20 OE1       292.5030    1.7330   -6.7520 O.co2     1 GLU        -0.5690
     21 OE2       291.2900    3.1960   -5.6620 O.co2     1 GLU        -0.5690
     22 N         289.5340    1.7500  -11.0960 N.am      1 THR        -0.2613
     23 CA        288.6630    0.7640  -11.6970 C.3       1 THR         0.1565
     24 C         288.8040   -0.5220  -10.9020 C.2       1 THR         0.2065
     25 O         289.8860   -1.1080  -10.8750 O.2       1 THR        -0.3943
     26 CB        289.0220    0.4960  -13.1720 C.3       1 THR         0.0924
     27 OG1       289.0560    1.7290  -13.9010 O.3       1 THR        -0.3874
     28 CG2       288.0150   -0.4480  -13.8140 C.3       1 THR        -0.0346
     29 N         287.7420   -0.9440  -10.2230 N.am      1 LEU        -0.2636
     30 CA        287.8240   -2.1280   -9.3880 C.3       1 LEU         0.1312
     31 C         287.8260   -3.3680  -10.2660 C.2       1 LEU         0.2040
     32 O         288.6030   -3.4560  -11.2180 O.2       1 LEU        -0.3944
     33 CB        286.7010   -2.1900   -8.3300 C.3       1 LEU        -0.0101
     34 CG        287.0030   -3.0910   -7.1090 C.3       1 LEU        -0.0425
     35 CD1       286.8160   -2.3300   -5.8030 C.3       1 LEU        -0.0625
     36 CD2       286.1340   -4.3440   -7.1020 C.3       1 LEU        -0.0625
     37 N         286.9480   -4.3100   -9.9900 N.am      1 SEP        -0.2613
     38 CA        287.1430   -5.6500  -10.4960 C.3       1 SEP         0.1586
     39 CB        288.3110   -6.2990   -9.7270 C.3       1 SEP         0.1184
     40 OG        289.4770   -5.4780   -9.9050 O.3       1 SEP        -0.2714
     41 C         285.8650   -6.4550  -10.3440 C.2       1 SEP         0.2066
     42 O         285.5960   -7.0050   -9.2780 O.2       1 SEP        -0.3943
     43 P         290.7310   -6.1040   -9.1140 P.3       1 SEP         0.2010
     44 O1P       291.0230   -7.4570   -9.6380 O.co2     1 SEP        -0.5537
     45 O2P       292.0140   -5.1470   -9.3310 O.co2     1 SEP        -0.5537
     46 O3P       290.3850   -6.2070   -7.5490 O.co2     1 SEP        -0.5537
     47 N         285.0530   -6.4790  -11.3870 N.am      1 ASP        -0.2621
     48 CA        283.7270   -7.0630  -11.2890 C.3       1 ASP         0.1423
     49 C         283.5100   -8.1570  -12.3370 C.2       1 ASP         0.2057
     50 O         284.0930   -9.2370  -12.2340 O.2       1 ASP        -0.3943
     51 CB        282.6430   -5.9680  -11.3690 C.3       1 ASP         0.0406
     52 CG        282.7230   -5.1160  -12.6270 C.2       1 ASP         0.0393
     53 OD1       283.5820   -4.2130  -12.6970 O.co2     1 ASP        -0.5688
     54 OD2       281.9220   -5.3610  -13.5560 O.co2     1 ASP        -0.5688
     55 N         282.6930   -7.8820  -13.3420 N.am      1 SEP        -0.2612
     56 CA        282.3280   -8.8860  -14.3270 C.3       1 SEP         0.1586
     57 CB        281.0130   -9.5570  -13.9200 C.3       1 SEP         0.1184
     58 OG        281.1510  -10.1410  -12.6220 O.3       1 SEP        -0.2714
     59 C         282.1780   -8.2630  -15.7140 C.2       1 SEP         0.2060
     60 O         282.3130   -8.9590  -16.7190 O.2       1 SEP        -0.3943
     61 P         279.7410  -10.8270  -12.2460 P.3       1 SEP         0.2010
     62 O1P       279.4020  -11.8570  -13.2540 O.co2     1 SEP        -0.5537
     63 O2P       279.8420  -11.5030  -10.7890 O.co2     1 SEP        -0.5537
     64 O3P       278.5890   -9.7040  -12.2250 O.co2     1 SEP        -0.5537
     65 N         281.9280   -6.9500  -15.7580 N.am      1 GLU        -0.2693
     66 CA        281.6490   -6.2490  -17.0140 C.3       1 GLU         0.0959
     67 C         280.5090   -6.9290  -17.7700 C.2       1 GLU         0.0602
     68 O         280.7580   -7.4930  -18.8570 O.co2     1 GLU        -0.5666
     69 CB        282.9040   -6.1790  -17.8960 C.3       1 GLU        -0.0064
     70 CG        283.9370   -5.1690  -17.4210 C.3       1 GLU         0.0038
     71 CD        283.5040   -3.7330  -17.6510 C.2       1 GLU         0.0350
     72 OE1       282.7820   -3.1760  -16.8020 O.co2     1 GLU        -0.5690
     73 OE2       283.8970   -3.1430  -18.6810 O.co2     1 GLU        -0.5690
     74 OXT       279.3690   -6.9190  -17.2570 O.co2     1 GLU        -0.5666
     75 H1        287.6682    8.3571   -9.1241 H         1 TYR         0.2017
     76 H2        287.8007    7.3474  -10.4173 H         1 TYR         0.2017
     77 H3        289.0845    7.5690   -9.4111 H         1 TYR         0.2017
     78 H4        287.9437    6.5521   -7.5896 H         1 TYR         0.1120
     79 H5        285.8061    5.2785   -8.2480 H         1 TYR         0.0486
     80 H6        285.7571    6.3371   -9.6983 H         1 TYR         0.0486
     81 H7        285.5683    6.3089   -5.9769 H         1 TYR         0.0530
     82 H8        284.9926    8.5946   -9.5341 H         1 TYR         0.0530
     83 H9        284.3798    8.0221   -4.6801 H         1 TYR         0.0525
     84 H10       283.8087   10.3170   -8.2351 H         1 TYR         0.0525
     85 H11       283.3180    9.9750   -4.7423 H         1 TYR         0.2458
     86 H12       289.8908    5.9595   -9.7780 H         1 GLU         0.1885
     87 H13       291.0355    4.1286  -10.6185 H         1 GLU         0.0801
     88 H14       290.7927    1.9933   -9.2424 H         1 GLU         0.0330
     89 H15       289.5591    2.8566   -8.2628 H         1 GLU         0.0330
     90 H16       291.2881    4.5732   -7.7243 H         1 GLU         0.0433
     91 H17       292.4972    3.5486   -8.5699 H         1 GLU         0.0433
     92 H18       290.4062    1.4464  -10.7125 H         1 THR         0.1884
     93 H19       287.6237    1.1205  -11.6440 H         1 THR         0.0826
     94 H20       290.0178    0.0305  -13.2123 H         1 THR         0.0639
     95 H21       288.2031    2.1450  -13.8574 H         1 THR         0.2101
     96 H22       288.2935   -0.6224  -14.8638 H         1 THR         0.0257
     97 H23       287.0119    0.0012  -13.7706 H         1 THR         0.0257
     98 H24       288.0120   -1.4050  -13.2717 H         1 THR         0.0257
     99 H25       286.8798   -0.4416  -10.2881 H         1 LEU         0.1883
    100 H26       288.7819   -2.0919   -8.8484 H         1 LEU         0.0800
    101 H27       285.7921   -2.5709   -8.8188 H         1 LEU         0.0315
    102 H28       286.5200   -1.1686   -7.9640 H         1 LEU         0.0315
    103 H29       288.0550   -3.4055   -7.1756 H         1 LEU         0.0298
    104 H30       287.0375   -2.9957   -4.9558 H         1 LEU         0.0232
    105 H31       285.7768   -1.9770   -5.7299 H         1 LEU         0.0232
    106 H32       287.4987   -1.4678   -5.7800 H         1 LEU         0.0232
    107 H33       286.2716   -4.8909   -8.0464 H         1 LEU         0.0232
    108 H34       285.0775   -4.0570   -6.9951 H         1 LEU         0.0232
    109 H35       286.4260   -4.9881   -6.2595 H         1 LEU         0.0232
    110 H36       286.1466   -4.0984   -9.4305 H         1 SEP         0.1884
    111 H37       287.4023   -5.5998  -11.5638 H         1 SEP         0.0827
    112 H38       288.5021   -7.3077  -10.1219 H         1 SEP         0.0662
    113 H39       288.0618   -6.3650   -8.6576 H         1 SEP         0.0662
    114 H40       285.3564   -6.0892  -12.2565 H         1 ASP         0.1884
    115 H41       283.6461   -7.5372  -10.2998 H         1 ASP         0.0819
    116 H42       282.7514   -5.3081  -10.4957 H         1 ASP         0.0478
    117 H43       281.6565   -6.4538  -11.3413 H         1 ASP         0.0478
    118 H44       282.3172   -6.9590  -13.4254 H         1 SEP         0.1884
    119 H45       283.1212   -9.6472  -14.3655 H         1 SEP         0.0827
    120 H46       280.7620  -10.3416  -14.6490 H         1 SEP         0.0662
    121 H47       280.2102   -8.8053  -13.8991 H         1 SEP         0.0662
    122 H48       281.9316   -6.4288  -14.9045 H         1 GLU         0.1875
    123 H49       281.3396   -5.2215  -16.7723 H         1 GLU         0.0727
    124 H50       282.5956   -5.9050  -18.9157 H         1 GLU         0.0323
    125 H51       283.3734   -7.1737  -17.9096 H         1 GLU         0.0323
    126 H52       284.8764   -5.3443  -17.9657 H         1 GLU         0.0432
    127 H53       284.1044   -5.3174  -16.3440 H         1 GLU         0.0432
@<TRIPOS>BOND
     1    1    2 1  
     2    2    3 1  
     3    2    5 1  
     4    3    4 2  
     5    3   13 am 
     6    5    6 1  
     7    6    7 ar 
     8    6    8 ar 
     9    7    9 ar 
    10    8   10 ar 
    11    9   11 ar 
    12   10   11 ar 
    13   11   12 1  
    14   13   14 1  
    15   14   15 1  
    16   14   17 1  
    17   15   16 2  
    18   15   22 am 
    19   17   18 1  
    20   18   19 1  
    21   19   20 ar 
    22   19   21 ar 
    23   22   23 1  
    24   23   24 1  
    25   23   26 1  
    26   24   25 2  
    27   24   29 am 
    28   26   27 1  
    29   26   28 1  
    30   29   30 1  
    31   30   31 1  
    32   30   33 1  
    33   31   32 2  
    34   31   37 am 
    35   33   34 1  
    36   34   35 1  
    37   34   36 1  
    38   37   38 1  
    39   38   39 1  
    40   38   41 1  
    41   39   40 1  
    42   40   43 1  
    43   41   42 2  
    44   41   47 am 
    45   43   44 ar 
    46   43   45 ar 
    47   43   46 ar 
    48   47   48 1  
    49   48   49 1  
    50   48   51 1  
    51   49   50 2  
    52   49   55 am 
    53   51   52 1  
    54   52   53 ar 
    55   52   54 ar 
    56   55   56 1  
    57   56   57 1  
    58   56   59 1  
    59   57   58 1  
    60   58   61 1  
    61   59   60 2  
    62   59   65 am 
    63   61   62 ar 
    64   61   63 ar 
    65   61   64 ar 
    66   65   66 1  
    67   66   67 1  
    68   66   69 1  
    69   67   68 ar 
    70   67   74 ar 
    71   69   70 1  
    72   70   71 1  
    73   71   72 ar 
    74   71   73 ar 
    75    1   75 1  
    76    1   76 1  
    77    1   77 1  
    78    2   78 1  
    79    5   79 1  
    80    5   80 1  
    81    7   81 1  
    82    8   82 1  
    83    9   83 1  
    84   10   84 1  
    85   12   85 1  
    86   13   86 1  
    87   14   87 1  
    88   17   88 1  
    89   17   89 1  
    90   18   90 1  
    91   18   91 1  
    92   22   92 1  
    93   23   93 1  
    94   26   94 1  
    95   27   95 1  
    96   28   96 1  
    97   28   97 1  
    98   28   98 1  
    99   29   99 1  
   100   30  100 1  
   101   33  101 1  
   102   33  102 1  
   103   34  103 1  
   104   35  104 1  
   105   35  105 1  
   106   35  106 1  
   107   36  107 1  
   108   36  108 1  
   109   36  109 1  
   110   37  110 1  
   111   38  111 1  
   112   39  112 1  
   113   39  113 1  
   114   47  114 1  
   115   48  115 1  
   116   51  116 1  
   117   51  117 1  
   118   55  118 1  
   119   56  119 1  
   120   57  120 1  
   121   57  121 1  
   122   65  122 1  
   123   66  123 1  
   124   69  124 1  
   125   69  125 1  
   126   70  126 1  
   127   70  127 1  
@<TRIPOS>SUBSTRUCTURE
     1 TYR         1

