6ncn_ligand
  -I-interpret- 

 27 28  0  0  0  0  0  0  0  0999 V2000
   -8.3220  -12.0660  -13.5190 N   0  0  0  0  0
   -6.8470  -14.6790  -15.8900 C   0  0  0  0  0
   -8.1210  -13.3160  -13.9310 C   0  0  0  0  0
   -4.7760  -12.6110  -13.7870 C   0  0  0  0  0
   -5.4410  -14.8330  -13.1850 C   0  0  0  0  0
   -6.4160  -13.6450  -16.9420 C   0  0  0  0  0
   -4.3270  -14.9510  -12.3690 C   0  0  0  0  0
   -6.8890  -13.5510  -14.8210 C   0  0  0  0  0
   -3.4220  -13.9060  -12.2680 C   0  0  0  0  0
   -5.6770  -13.6650  -13.8990 C   0  0  0  0  0
   -6.8110  -12.5180  -15.9820 C   0  0  0  0  0
   -3.6570  -12.7530  -12.9890 C   0  0  0  0  0
   -8.9220  -14.2390  -13.5960 N   0  0  0  0  0
   -2.4850  -11.4620  -12.9500 Cl  0  0  0  0  0
   -9.1250  -11.8461  -12.9297 H   0  0  0  0  0
   -7.6730  -11.3282  -13.7927 H   0  0  0  0  0
   -6.2493  -15.5749  -15.7217 H   0  0  0  0  0
   -7.7209  -15.3074  -16.0617 H   0  0  0  0  0
   -4.9516  -11.6795  -14.3251 H   0  0  0  0  0
   -6.1395  -15.6657  -13.2674 H   0  0  0  0  0
   -6.8334  -13.6797  -17.9483 H   0  0  0  0  0
   -5.4119  -13.6786  -17.3648 H   0  0  0  0  0
   -4.1620  -15.8688  -11.8047 H   0  0  0  0  0
   -2.5416  -13.9932  -11.6313 H   0  0  0  0  0
   -7.6648  -11.8789  -16.2069 H   0  0  0  0  0
   -6.1835  -11.6318  -15.8875 H   0  0  0  0  0
   -8.7642  -15.1934  -13.9193 H   0  0  0  0  0
  3  1  1  0  0  0
  2  6  1  0  0  0
  8  2  1  0  0  0
  8  3  1  0  0  0
  3 13  2  0  0  0
 10  4  4  0  0  0
  4 12  4  0  0  0
  5  7  4  0  0  0
 10  5  4  0  0  0
  6 11  1  0  0  0
  7  9  4  0  0  0
  8 10  1  0  0  0
  8 11  1  0  0  0
  9 12  4  0  0  0
 12 14  1  0  0  0
  1 15  1  0  0  0
  1 16  1  0  0  0
  2 17  1  0  0  0
  2 18  1  0  0  0
  4 19  1  0  0  0
  5 20  1  0  0  0
  6 21  1  0  0  0
  6 22  1  0  0  0
  7 23  1  0  0  0
  9 24  1  0  0  0
 11 25  1  0  0  0
 11 26  1  0  0  0
 13 27  1  0  0  0
M  END
$$$$
