2ygu_ligand
  -I-interpret- 

 23 22  0  0  0  0  0  0  0  0999 V2000
   60.8750   62.7600  -27.2040 C   0  0  0  0  0
   60.3990   63.3170  -28.5710 C   0  0  0  0  0
   61.5630   63.6840  -29.5190 C   0  0  0  0  0
   61.2390   64.9430  -30.3610 C   0  0  0  0  0
   61.6870   66.2050  -29.6140 C   0  0  0  0  0
   62.0690   67.3350  -30.5770 C   0  0  0  0  0
   62.9380   68.4180  -29.9150 C   0  0  0  0  0
   61.4647   61.8577  -27.3662 H   0  0  0  0  0
   61.4860   63.5093  -26.7007 H   0  0  0  0  0
   60.0077   62.5229  -26.5878 H   0  0  0  0  0
   59.8321   64.2275  -28.3768 H   0  0  0  0  0
   59.8104   62.5391  -29.0572 H   0  0  0  0  0
   61.7290   62.8487  -30.1993 H   0  0  0  0  0
   62.4460   63.8922  -28.9148 H   0  0  0  0  0
   60.1638   64.9916  -30.5332 H   0  0  0  0  0
   61.7677   64.8833  -31.3123 H   0  0  0  0  0
   62.5634   65.9549  -29.0162 H   0  0  0  0  0
   60.8574   66.5487  -28.9961 H   0  0  0  0  0
   61.1478   67.8088  -30.9162 H   0  0  0  0  0
   62.6460   66.8972  -31.3916 H   0  0  0  0  0
   62.3921   68.8612  -29.0821 H   0  0  0  0  0
   63.8604   67.9678  -29.5480 H   0  0  0  0  0
   63.1751   69.1897  -30.6474 H   0  0  0  0  0
  1  2  1  0  0  0
  2  3  1  0  0  0
  3  4  1  0  0  0
  4  5  1  0  0  0
  5  6  1  0  0  0
  6  7  1  0  0  0
  1  8  1  0  0  0
  1  9  1  0  0  0
  1 10  1  0  0  0
  2 11  1  0  0  0
  2 12  1  0  0  0
  3 13  1  0  0  0
  3 14  1  0  0  0
  4 15  1  0  0  0
  4 16  1  0  0  0
  5 17  1  0  0  0
  5 18  1  0  0  0
  6 19  1  0  0  0
  6 20  1  0  0  0
  7 21  1  0  0  0
  7 22  1  0  0  0
  7 23  1  0  0  0
M  END
$$$$
