4zwy_ligand
  -I-interpret- 

 59 59  0  0  0  0  0  0  0  0999 V2000
   -0.8200    8.4150   12.3860 C   0  0  0  0  0
   -0.1180    9.7120   12.5470 C   0  0  0  0  0
    0.6690    9.8930   11.3420 C   0  0  0  0  0
    1.7710    8.9150   11.1380 C   0  0  0  0  0
    1.9030    6.4290   10.9680 C   0  0  0  0  0
   -1.1590   10.7270   12.5480 O   0  0  0  0  0
   -0.0850   12.2220   14.4010 C   0  0  0  0  0
   -1.2610   11.6910   13.5510 C   0  0  0  0  0
   -2.3340   12.1370   13.6710 O   0  0  0  0  0
   -0.2330    9.8230   10.1540 O   0  0  0  0  0
    2.2200    8.8280    9.7660 O   0  0  0  0  0
    1.4590    7.5030   11.7110 C   0  0  0  0  0
    2.8340    6.3100   11.9850 O   0  0  0  0  0
    3.8530    5.3800   11.8680 C   0  0  0  0  0
    3.9290    4.6480   10.9750 O   0  0  0  0  0
    4.8710    5.4220   13.0020 C   0  0  0  0  0
    0.0400    7.3020   12.2040 O   0  0  0  0  0
   -1.6180    7.9930   13.9240 S   0  0  0  0  0
   -0.6150    8.3780   15.0710 O   0  0  0  0  0
   -2.8860    8.9790   13.9790 O   0  0  0  0  0
   -2.1240    6.3780   13.9770 N   0  0  0  0  0
   -3.1360    6.1830   12.9660 C   0  0  0  0  0
   -4.5080    5.9180   13.5730 C   0  0  0  0  0
   -4.5310    4.8060   14.6520 C   0  0  0  0  0
   -5.9720    4.5640   15.1590 C   0  0  0  0  0
   -6.0520    3.6600   16.4080 C   0  0  0  0  0
   -5.7060    2.3980   15.9420 O   0  0  0  0  0
   -6.0450    1.1000   16.8390 S   0  0  0  0  0
   -7.3690    0.9940   16.6120 O   0  0  0  0  0
   -5.2560    1.3870   18.1170 O   0  0  0  0  0
   -5.3420   -0.2780   16.2830 N   0  0  0  0  0
   -1.4678    8.5658   11.5224 H   0  0  0  0  0
    0.4998    9.7611   13.4437 H   0  0  0  0  0
    1.1452   10.8661   11.4617 H   0  0  0  0  0
    2.5984    9.3221   11.7191 H   0  0  0  0  0
    2.1638    6.4892    9.9114 H   0  0  0  0  0
    1.2598    5.6138   10.6365 H   0  0  0  0  0
    0.0550   13.2845   14.2018 H   0  0  0  0  0
   -0.3071   12.0754   15.4580 H   0  0  0  0  0
    0.8238   11.6794   14.1407 H   0  0  0  0  0
   -0.9538   10.4475   10.2637 H   0  0  0  0  0
    2.4060    9.7097    9.4348 H   0  0  0  0  0
    2.0908    7.5083   12.5992 H   0  0  0  0  0
    4.8997    4.4523   13.4989 H   0  0  0  0  0
    5.8559    5.6530   12.5960 H   0  0  0  0  0
    4.5828    6.1907   13.7190 H   0  0  0  0  0
   -1.7732    5.6638   14.6152 H   0  0  0  0  0
   -2.8559    5.3165   12.3669 H   0  0  0  0  0
   -3.1985    7.0918   12.3675 H   0  0  0  0  0
   -5.1569    5.5880   12.7617 H   0  0  0  0  0
   -4.8246    6.8405   14.0596 H   0  0  0  0  0
   -3.9102    5.1178   15.4919 H   0  0  0  0  0
   -4.1524    3.8826   14.2137 H   0  0  0  0  0
   -6.5168    4.0616   14.3597 H   0  0  0  0  0
   -6.3862    5.5341   15.4338 H   0  0  0  0  0
   -7.0436    3.6724   16.8603 H   0  0  0  0  0
   -5.3883    3.9996   17.2032 H   0  0  0  0  0
   -5.9153   -1.0089   15.8616 H   0  0  0  0  0
   -4.3325   -0.4022   16.3594 H   0  0  0  0  0
  1  2  1  0  0  0
  1 17  1  0  0  0
  1 18  1  0  0  0
  2  3  1  0  0  0
  2  6  1  0  0  0
  3  4  1  0  0  0
  3 10  1  0  0  0
  4 11  1  0  0  0
  4 12  1  0  0  0
 12  5  1  0  0  0
  5 13  1  0  0  0
  6  8  1  0  0  0
  8  7  1  0  0  0
  8  9  2  0  0  0
 12 17  1  0  0  0
 13 14  1  0  0  0
 14 15  2  0  0  0
 14 16  1  0  0  0
 18 19  2  0  0  0
 18 20  2  0  0  0
 18 21  1  0  0  0
 21 22  1  0  0  0
 22 23  1  0  0  0
 23 24  1  0  0  0
 24 25  1  0  0  0
 25 26  1  0  0  0
 26 27  1  0  0  0
 27 28  1  0  0  0
 28 29  2  0  0  0
 28 30  2  0  0  0
 28 31  1  0  0  0
  1 32  1  0  0  0
  2 33  1  0  0  0
  3 34  1  0  0  0
  4 35  1  0  0  0
  5 36  1  0  0  0
  5 37  1  0  0  0
  7 38  1  0  0  0
  7 39  1  0  0  0
  7 40  1  0  0  0
 10 41  1  0  0  0
 11 42  1  0  0  0
 12 43  1  0  0  0
 16 44  1  0  0  0
 16 45  1  0  0  0
 16 46  1  0  0  0
 21 47  1  0  0  0
 22 48  1  0  0  0
 22 49  1  0  0  0
 23 50  1  0  0  0
 23 51  1  0  0  0
 24 52  1  0  0  0
 24 53  1  0  0  0
 25 54  1  0  0  0
 25 55  1  0  0  0
 26 56  1  0  0  0
 26 57  1  0  0  0
 31 58  1  0  0  0
 31 59  1  0  0  0
M  END
$$$$
