6mnf_ligand
  -I-interpret- 

170177  0  0  0  0  0  0  0  0999 V2000
   -6.4850  -46.1630   -9.2060 C   0  0  0  0  0
   -6.4160  -44.6850   -8.7970 C   0  0  0  0  0
   -6.2230  -43.8250  -10.0240 C   0  0  0  0  0
   -5.0420  -44.3170  -10.8810 C   0  0  0  0  0
   -4.9770  -45.8590  -11.0230 C   0  0  0  0  0
   -3.6020  -46.3260  -11.5070 C   0  0  0  0  0
   -5.2750  -44.4100   -7.9800 O   0  0  0  0  0
   -5.9790  -42.4580   -9.6580 O   0  0  0  0  0
   -5.1470  -43.7440  -12.1620 O   0  0  0  0  0
   -5.2780  -46.5310   -9.7560 O   0  0  0  0  0
   -2.6710  -45.2510  -11.3650 O   0  0  0  0  0
   -7.2070  -41.7100   -9.6620 C   0  0  0  0  0
   -6.8400  -40.2380   -9.8520 C   0  0  0  0  0
   -6.0140  -39.7650   -8.6700 C   0  0  0  0  0
   -6.7660  -40.0110   -7.3460 C   0  0  0  0  0
   -7.2040  -41.4820   -7.2440 C   0  0  0  0  0
   -8.1380  -41.7300   -6.0900 C   0  0  0  0  0
   -8.0200  -39.4630   -9.7940 O   0  0  0  0  0
   -5.6420  -38.3840   -8.7910 O   0  0  0  0  0
   -5.9070  -39.7190   -6.2750 O   0  0  0  0  0
   -7.9160  -41.8790   -8.4480 O   0  0  0  0  0
   -8.2240  -43.1340   -5.8770 O   0  0  0  0  0
   -8.0210  -38.4810  -10.8480 C   0  0  0  0  0
   -9.3260  -37.7100  -10.6970 C   0  0  0  0  0
  -10.4590  -38.6850  -10.9280 C   0  0  0  0  0
  -10.3760  -39.2420  -12.3530 C   0  0  0  0  0
   -9.0370  -39.9360  -12.5720 C   0  0  0  0  0
   -8.8010  -40.2640  -14.0320 C   0  0  0  0  0
   -9.4270  -36.7500  -11.7450 O   0  0  0  0  0
  -11.7350  -38.0980  -10.7050 O   0  0  0  0  0
  -11.4120  -40.1790  -12.5690 O   0  0  0  0  0
   -7.9350  -39.0800  -12.1420 O   0  0  0  0  0
   -7.6040  -41.0290  -14.1280 O   0  0  0  0  0
   -9.0660  -35.4340  -11.2700 C   0  0  0  0  0
   -9.4810  -34.4850  -12.4090 C   0  0  0  0  0
   -8.5580  -34.7040  -13.5830 C   0  0  0  0  0
   -7.1270  -34.4050  -13.1450 C   0  0  0  0  0
   -6.7440  -35.4240  -12.0750 C   0  0  0  0  0
   -5.3340  -35.2340  -11.5530 C   0  0  0  0  0
   -9.2920  -33.1220  -12.0290 O   0  0  0  0  0
   -8.9280  -33.9150  -14.7140 O   0  0  0  0  0
   -6.2340  -34.5210  -14.2410 O   0  0  0  0  0
   -7.6640  -35.3230  -10.9610 O   0  0  0  0  0
   -5.3290  -34.1600  -10.6410 O   0  0  0  0  0
   -1.3760  -45.6870  -11.8270 C   0  0  0  0  0
   -0.2980  -44.7080  -11.2980 C   0  0  0  0  0
   -0.3730  -43.3510  -12.0110 C   0  0  0  0  0
   -0.4860  -43.5020  -13.5130 C   0  0  0  0  0
   -1.6180  -44.4630  -13.8630 C   0  0  0  0  0
   -1.6730  -44.7480  -15.3430 C   0  0  0  0  0
    1.0200  -45.1830  -11.5500 O   0  0  0  0  0
    0.7810  -42.5520  -11.7000 O   0  0  0  0  0
   -0.7640  -42.2350  -14.0840 O   0  0  0  0  0
   -1.3710  -45.7200  -13.2170 O   0  0  0  0  0
   -0.3510  -45.0790  -15.7350 O   0  0  0  0  0
   -0.3790  -46.0240  -16.8170 C   0  0  0  0  0
    1.0460  -46.5690  -16.9470 C   0  0  0  0  0
    1.9370  -45.3940  -17.2780 C   0  0  0  0  0
    1.4890  -44.7950  -18.6140 C   0  0  0  0  0
    0.0260  -44.3150  -18.4970 C   0  0  0  0  0
   -0.5510  -43.8390  -19.8080 C   0  0  0  0  0
    1.1510  -47.4370  -18.0770 O   0  0  0  0  0
    3.3120  -45.7410  -17.3210 O   0  0  0  0  0
    2.3150  -43.7120  -18.9370 O   0  0  0  0  0
   -0.8150  -45.4080  -18.0210 O   0  0  0  0  0
   -1.8380  -43.2670  -19.5560 O   0  0  0  0  0
    0.4160  -41.2730  -11.1200 C   0  0  0  0  0
    1.7250  -40.4820  -10.8520 C   0  0  0  0  0
    2.5400  -41.1500   -9.7350 C   0  0  0  0  0
    1.6750  -41.4690   -8.4900 C   0  0  0  0  0
    0.3910  -42.2100   -8.9040 C   0  0  0  0  0
   -0.5880  -42.4620   -7.7740 C   0  0  0  0  0
    1.4420  -39.1720  -10.3860 O   0  0  0  0  0
    3.6670  -40.3610   -9.3670 O   0  0  0  0  0
    2.4060  -42.2890   -7.5950 O   0  0  0  0  0
   -0.3060  -41.4480   -9.9290 O   0  0  0  0  0
    0.1350  -43.0400   -6.7230 O   0  0  0  0  0
    1.1740  -48.8190  -17.6730 C   0  0  0  0  0
    1.7430  -49.6200  -18.8680 C   0  0  0  0  0
    0.7530  -49.5700  -20.0160 C   0  0  0  0  0
   -0.6410  -50.0340  -19.5560 C   0  0  0  0  0
   -1.1040  -49.1950  -18.3560 C   0  0  0  0  0
   -2.4020  -49.6860  -17.7670 C   0  0  0  0  0
    1.8890  -51.0110  -18.5660 O   0  0  0  0  0
    1.1990  -50.3550  -21.1010 O   0  0  0  0  0
   -1.5750  -49.8800  -20.6110 O   0  0  0  0  0
   -0.1190  -49.2640  -17.3140 O   0  0  0  0  0
   -2.1360  -50.8910  -17.0580 O   0  0  0  0  0
   -7.2813  -46.3061   -9.9364 H   0  0  0  0  0
   -6.6934  -46.7779   -8.3305 H   0  0  0  0  0
   -7.3425  -44.4733   -8.2633 H   0  0  0  0  0
   -7.1428  -43.8968  -10.6044 H   0  0  0  0  0
   -4.1282  -44.0105  -10.3720 H   0  0  0  0  0
   -5.7305  -46.1267  -11.7638 H   0  0  0  0  0
   -3.6620  -46.6254  -12.5534 H   0  0  0  0  0
   -3.2729  -47.1790  -10.9136 H   0  0  0  0  0
   -5.3288  -44.9269   -7.1728 H   0  0  0  0  0
   -5.1877  -42.7883  -12.0814 H   0  0  0  0  0
   -7.8544  -42.0627  -10.4649 H   0  0  0  0  0
   -6.3081  -40.1352  -10.7979 H   0  0  0  0  0
   -5.0940  -40.3496   -8.6643 H   0  0  0  0  0
   -7.6491  -39.3729   -7.3145 H   0  0  0  0  0
   -6.2888  -42.0569   -7.1024 H   0  0  0  0  0
   -9.1248  -41.3253   -6.3147 H   0  0  0  0  0
   -7.7617  -41.2386   -5.1928 H   0  0  0  0  0
   -5.1227  -38.1255   -8.0261 H   0  0  0  0  0
   -6.3678  -39.8697   -5.4464 H   0  0  0  0  0
   -8.8171  -43.3094   -5.1428 H   0  0  0  0  0
   -7.1504  -37.8303  -10.7659 H   0  0  0  0  0
   -9.3625  -37.2361   -9.7161 H   0  0  0  0  0
  -10.3495  -39.4934  -10.2051 H   0  0  0  0  0
  -10.4768  -38.4107  -13.0507 H   0  0  0  0  0
   -9.0725  -40.8548  -11.9867 H   0  0  0  0  0
   -8.7066  -39.3459  -14.6119 H   0  0  0  0  0
   -9.6420  -40.8325  -14.4291 H   0  0  0  0  0
  -12.4192  -38.7525  -10.8634 H   0  0  0  0  0
  -11.3508  -40.5214  -13.4638 H   0  0  0  0  0
   -7.4377  -41.2468  -15.0481 H   0  0  0  0  0
   -9.5654  -35.1951  -10.3311 H   0  0  0  0  0
  -10.5264  -34.6844  -12.6444 H   0  0  0  0  0
   -8.6360  -35.7439  -13.9003 H   0  0  0  0  0
   -7.0654  -33.3875  -12.7589 H   0  0  0  0  0
   -6.7944  -36.4063  -12.5448 H   0  0  0  0  0
   -4.6591  -35.0186  -12.3814 H   0  0  0  0  0
   -4.9986  -36.1436  -11.0547 H   0  0  0  0  0
   -9.5566  -32.5495  -12.7528 H   0  0  0  0  0
   -8.3170  -34.0846  -15.4348 H   0  0  0  0  0
   -5.3407  -34.3296  -13.9461 H   0  0  0  0  0
   -4.4392  -34.0316  -10.3044 H   0  0  0  0  0
   -1.1578  -46.6882  -11.4553 H   0  0  0  0  0
   -0.4950  -44.6195  -10.2296 H   0  0  0  0  0
   -1.2738  -42.8546  -11.6501 H   0  0  0  0  0
    0.4517  -43.8971  -13.9038 H   0  0  0  0  0
   -2.5513  -44.0002  -13.5423 H   0  0  0  0  0
   -2.0402  -43.8828  -15.8951 H   0  0  0  0  0
   -2.3617  -45.5647  -15.5592 H   0  0  0  0  0
    1.6573  -44.5513  -11.2088 H   0  0  0  0  0
   -0.8369  -42.3238  -15.0371 H   0  0  0  0  0
   -1.0850  -46.8309  -16.6204 H   0  0  0  0  0
    1.3119  -47.0914  -16.0280 H   0  0  0  0  0
    1.8355  -44.6581  -16.4803 H   0  0  0  0  0
    1.5596  -45.5508  -19.3962 H   0  0  0  0  0
    0.0387  -43.4763  -17.8009 H   0  0  0  0  0
   -0.6447  -44.6764  -20.4994 H   0  0  0  0  0
    0.1065  -43.0936  -20.2553 H   0  0  0  0  0
    3.8309  -44.9620  -17.5343 H   0  0  0  0  0
    2.0347  -43.3359  -19.7746 H   0  0  0  0  0
   -2.2176  -42.9594  -20.3824 H   0  0  0  0  0
   -0.2263  -40.7231  -11.8079 H   0  0  0  0  0
    2.2713  -40.4594  -11.7949 H   0  0  0  0  0
    2.8997  -42.0962  -10.1393 H   0  0  0  0  0
    1.4109  -40.5293   -8.0049 H   0  0  0  0  0
    0.7278  -43.1825   -9.2631 H   0  0  0  0  0
   -1.3891  -43.1254   -8.1001 H   0  0  0  0  0
   -1.0535  -41.5299   -7.4535 H   0  0  0  0  0
    2.2657  -38.7048  -10.2282 H   0  0  0  0  0
    4.1533  -40.8057   -8.6689 H   0  0  0  0  0
    1.8650  -42.4831   -6.8261 H   0  0  0  0  0
   -0.4563  -43.2139   -5.9870 H   0  0  0  0  0
    1.7964  -48.9597  -16.7893 H   0  0  0  0  0
    2.7097  -49.1765  -19.1065 H   0  0  0  0  0
    0.6795  -48.5349  -20.3496 H   0  0  0  0  0
   -0.5807  -51.0837  -19.2688 H   0  0  0  0  0
   -1.2438  -48.1793  -18.7260 H   0  0  0  0  0
   -3.1294  -49.8676  -18.5582 H   0  0  0  0  0
   -2.8168  -48.9365  -17.0930 H   0  0  0  0  0
    2.2435  -51.4681  -19.3321 H   0  0  0  0  0
    0.5575  -50.3078  -21.8137 H   0  0  0  0  0
   -2.4407  -50.1715  -20.3156 H   0  0  0  0  0
   -2.9513  -51.2216  -16.6739 H   0  0  0  0  0
  1  2  1  0  0  0
  1 10  1  0  0  0
  2  3  1  0  0  0
  2  7  1  0  0  0
  3  4  1  0  0  0
  3  8  1  0  0  0
  4  5  1  0  0  0
  4  9  1  0  0  0
  5  6  1  0  0  0
  5 10  1  0  0  0
  6 11  1  0  0  0
  8 12  1  0  0  0
 11 45  1  0  0  0
 12 13  1  0  0  0
 12 21  1  0  0  0
 13 14  1  0  0  0
 13 18  1  0  0  0
 14 15  1  0  0  0
 14 19  1  0  0  0
 15 16  1  0  0  0
 15 20  1  0  0  0
 16 17  1  0  0  0
 16 21  1  0  0  0
 17 22  1  0  0  0
 18 23  1  0  0  0
 23 24  1  0  0  0
 23 32  1  0  0  0
 24 25  1  0  0  0
 24 29  1  0  0  0
 25 26  1  0  0  0
 25 30  1  0  0  0
 26 27  1  0  0  0
 26 31  1  0  0  0
 27 28  1  0  0  0
 27 32  1  0  0  0
 28 33  1  0  0  0
 29 34  1  0  0  0
 34 35  1  0  0  0
 34 43  1  0  0  0
 35 36  1  0  0  0
 35 40  1  0  0  0
 36 37  1  0  0  0
 36 41  1  0  0  0
 37 38  1  0  0  0
 37 42  1  0  0  0
 38 39  1  0  0  0
 38 43  1  0  0  0
 39 44  1  0  0  0
 45 46  1  0  0  0
 45 54  1  0  0  0
 46 47  1  0  0  0
 46 51  1  0  0  0
 47 48  1  0  0  0
 47 52  1  0  0  0
 48 49  1  0  0  0
 48 53  1  0  0  0
 49 50  1  0  0  0
 49 54  1  0  0  0
 50 55  1  0  0  0
 52 67  1  0  0  0
 55 56  1  0  0  0
 56 57  1  0  0  0
 56 65  1  0  0  0
 57 58  1  0  0  0
 57 62  1  0  0  0
 58 59  1  0  0  0
 58 63  1  0  0  0
 59 60  1  0  0  0
 59 64  1  0  0  0
 60 61  1  0  0  0
 60 65  1  0  0  0
 61 66  1  0  0  0
 62 78  1  0  0  0
 67 68  1  0  0  0
 67 76  1  0  0  0
 68 69  1  0  0  0
 68 73  1  0  0  0
 69 70  1  0  0  0
 69 74  1  0  0  0
 70 71  1  0  0  0
 70 75  1  0  0  0
 71 72  1  0  0  0
 71 76  1  0  0  0
 72 77  1  0  0  0
 78 79  1  0  0  0
 78 87  1  0  0  0
 79 80  1  0  0  0
 79 84  1  0  0  0
 80 81  1  0  0  0
 80 85  1  0  0  0
 81 82  1  0  0  0
 81 86  1  0  0  0
 82 83  1  0  0  0
 82 87  1  0  0  0
 83 88  1  0  0  0
  1 89  1  0  0  0
  1 90  1  0  0  0
  2 91  1  0  0  0
  3 92  1  0  0  0
  4 93  1  0  0  0
  5 94  1  0  0  0
  6 95  1  0  0  0
  6 96  1  0  0  0
  7 97  1  0  0  0
  9 98  1  0  0  0
 12 99  1  0  0  0
 13100  1  0  0  0
 14101  1  0  0  0
 15102  1  0  0  0
 16103  1  0  0  0
 17104  1  0  0  0
 17105  1  0  0  0
 19106  1  0  0  0
 20107  1  0  0  0
 22108  1  0  0  0
 23109  1  0  0  0
 24110  1  0  0  0
 25111  1  0  0  0
 26112  1  0  0  0
 27113  1  0  0  0
 28114  1  0  0  0
 28115  1  0  0  0
 30116  1  0  0  0
 31117  1  0  0  0
 33118  1  0  0  0
 34119  1  0  0  0
 35120  1  0  0  0
 36121  1  0  0  0
 37122  1  0  0  0
 38123  1  0  0  0
 39124  1  0  0  0
 39125  1  0  0  0
 40126  1  0  0  0
 41127  1  0  0  0
 42128  1  0  0  0
 44129  1  0  0  0
 45130  1  0  0  0
 46131  1  0  0  0
 47132  1  0  0  0
 48133  1  0  0  0
 49134  1  0  0  0
 50135  1  0  0  0
 50136  1  0  0  0
 51137  1  0  0  0
 53138  1  0  0  0
 56139  1  0  0  0
 57140  1  0  0  0
 58141  1  0  0  0
 59142  1  0  0  0
 60143  1  0  0  0
 61144  1  0  0  0
 61145  1  0  0  0
 63146  1  0  0  0
 64147  1  0  0  0
 66148  1  0  0  0
 67149  1  0  0  0
 68150  1  0  0  0
 69151  1  0  0  0
 70152  1  0  0  0
 71153  1  0  0  0
 72154  1  0  0  0
 72155  1  0  0  0
 73156  1  0  0  0
 74157  1  0  0  0
 75158  1  0  0  0
 77159  1  0  0  0
 78160  1  0  0  0
 79161  1  0  0  0
 80162  1  0  0  0
 81163  1  0  0  0
 82164  1  0  0  0
 83165  1  0  0  0
 83166  1  0  0  0
 84167  1  0  0  0
 85168  1  0  0  0
 86169  1  0  0  0
 88170  1  0  0  0
M  END
$$$$
