### 
### Created by X-TOOL on Wed Jan  1 15:39:38 2020
### 

@<TRIPOS>MOLECULE
6mnf_ligand
  170   177     1     0     0
SMALL
GAST_HUCK


@<TRIPOS>ATOM
      1 C1         -6.4850  -46.1630   -9.2060 C.3       1 BMA         0.0767
      2 C2         -6.4160  -44.6850   -8.7970 C.3       1 BMA         0.1071
      3 C3         -6.2230  -43.8250  -10.0240 C.3       1 BMA         0.1180
      4 C4         -5.0420  -44.3170  -10.8810 C.3       1 BMA         0.1121
      5 C5         -4.9770  -45.8590  -11.0230 C.3       1 BMA         0.1104
      6 C6         -3.6020  -46.3260  -11.5070 C.3       1 BMA         0.0795
      7 O2         -5.2750  -44.4100   -7.9800 O.3       1 BMA        -0.3869
      8 O3         -5.9790  -42.4580   -9.6580 O.3       1 BMA        -0.3401
      9 O4         -5.1470  -43.7440  -12.1620 O.3       1 BMA        -0.3865
     10 O5         -5.2780  -46.5310   -9.7560 O.3       1 BMA        -0.3690
     11 O6         -2.6710  -45.2510  -11.3650 O.3       1 BMA        -0.3461
     12 C1         -7.2070  -41.7100   -9.6620 C.3       1 MAN         0.1888
     13 C2         -6.8400  -40.2380   -9.8520 C.3       1 MAN         0.1406
     14 C3         -6.0140  -39.7650   -8.6700 C.3       1 MAN         0.1144
     15 C4         -6.7660  -40.0110   -7.3460 C.3       1 MAN         0.1119
     16 C5         -7.2040  -41.4820   -7.2440 C.3       1 MAN         0.1130
     17 C6         -8.1380  -41.7300   -6.0900 C.3       1 MAN         0.0730
     18 O2         -8.0200  -39.4630   -9.7940 O.3       1 MAN        -0.3377
     19 O3         -5.6420  -38.3840   -8.7910 O.3       1 MAN        -0.3864
     20 O4         -5.9070  -39.7190   -6.2750 O.3       1 MAN        -0.3865
     21 O5         -7.9160  -41.8790   -8.4480 O.3       1 MAN        -0.3405
     22 O6         -8.2240  -43.1340   -5.8770 O.3       1 MAN        -0.3924
     23 C1         -8.0210  -38.4810  -10.8480 C.3       1 MAN         0.1889
     24 C2         -9.3260  -37.7100  -10.6970 C.3       1 MAN         0.1406
     25 C3        -10.4590  -38.6850  -10.9280 C.3       1 MAN         0.1144
     26 C4        -10.3760  -39.2420  -12.3530 C.3       1 MAN         0.1119
     27 C5         -9.0370  -39.9360  -12.5720 C.3       1 MAN         0.1130
     28 C6         -8.8010  -40.2640  -14.0320 C.3       1 MAN         0.0730
     29 O2         -9.4270  -36.7500  -11.7450 O.3       1 MAN        -0.3378
     30 O3        -11.7350  -38.0980  -10.7050 O.3       1 MAN        -0.3864
     31 O4        -11.4120  -40.1790  -12.5690 O.3       1 MAN        -0.3865
     32 O5         -7.9350  -39.0800  -12.1420 O.3       1 MAN        -0.3405
     33 O6         -7.6040  -41.0290  -14.1280 O.3       1 MAN        -0.3924
     34 C1         -9.0660  -35.4340  -11.2700 C.3       1 MAN         0.1885
     35 C2         -9.4810  -34.4850  -12.4090 C.3       1 MAN         0.1341
     36 C3         -8.5580  -34.7040  -13.5830 C.3       1 MAN         0.1141
     37 C4         -7.1270  -34.4050  -13.1450 C.3       1 MAN         0.1119
     38 C5         -6.7440  -35.4240  -12.0750 C.3       1 MAN         0.1130
     39 C6         -5.3340  -35.2340  -11.5530 C.3       1 MAN         0.0730
     40 O2         -9.2920  -33.1220  -12.0290 O.3       1 MAN        -0.3841
     41 O3         -8.9280  -33.9150  -14.7140 O.3       1 MAN        -0.3864
     42 O4         -6.2340  -34.5210  -14.2410 O.3       1 MAN        -0.3865
     43 O5         -7.6640  -35.3230  -10.9610 O.3       1 MAN        -0.3405
     44 O6         -5.3290  -34.1600  -10.6410 O.3       1 MAN        -0.3924
     45 C1         -1.3760  -45.6870  -11.8270 C.3       1 MAN         0.1880
     46 C2         -0.2980  -44.7080  -11.2980 C.3       1 MAN         0.1345
     47 C3         -0.3730  -43.3510  -12.0110 C.3       1 MAN         0.1206
     48 C4         -0.4860  -43.5020  -13.5130 C.3       1 MAN         0.1123
     49 C5         -1.6180  -44.4630  -13.8630 C.3       1 MAN         0.1134
     50 C6         -1.6730  -44.7480  -15.3430 C.3       1 MAN         0.0796
     51 O2          1.0200  -45.1830  -11.5500 O.3       1 MAN        -0.3841
     52 O3          0.7810  -42.5520  -11.7000 O.3       1 MAN        -0.3401
     53 O4         -0.7640  -42.2350  -14.0840 O.3       1 MAN        -0.3865
     54 O5         -1.3710  -45.7200  -13.2170 O.3       1 MAN        -0.3405
     55 O6         -0.3510  -45.0790  -15.7350 O.3       1 MAN        -0.3460
     56 C1         -0.3790  -46.0240  -16.8170 C.3       1 MAN         0.1884
     57 C2          1.0460  -46.5690  -16.9470 C.3       1 MAN         0.1406
     58 C3          1.9370  -45.3940  -17.2780 C.3       1 MAN         0.1144
     59 C4          1.4890  -44.7950  -18.6140 C.3       1 MAN         0.1119
     60 C5          0.0260  -44.3150  -18.4970 C.3       1 MAN         0.1130
     61 C6         -0.5510  -43.8390  -19.8080 C.3       1 MAN         0.0730
     62 O2          1.1510  -47.4370  -18.0770 O.3       1 MAN        -0.3378
     63 O3          3.3120  -45.7410  -17.3210 O.3       1 MAN        -0.3864
     64 O4          2.3150  -43.7120  -18.9370 O.3       1 MAN        -0.3865
     65 O5         -0.8150  -45.4080  -18.0210 O.3       1 MAN        -0.3405
     66 O6         -1.8380  -43.2670  -19.5560 O.3       1 MAN        -0.3924
     67 C1          0.4160  -41.2730  -11.1200 C.3       1 MAN         0.1884
     68 C2          1.7250  -40.4820  -10.8520 C.3       1 MAN         0.1341
     69 C3          2.5400  -41.1500   -9.7350 C.3       1 MAN         0.1141
     70 C4          1.6750  -41.4690   -8.4900 C.3       1 MAN         0.1119
     71 C5          0.3910  -42.2100   -8.9040 C.3       1 MAN         0.1130
     72 C6         -0.5880  -42.4620   -7.7740 C.3       1 MAN         0.0730
     73 O2          1.4420  -39.1720  -10.3860 O.3       1 MAN        -0.3841
     74 O3          3.6670  -40.3610   -9.3670 O.3       1 MAN        -0.3864
     75 O4          2.4060  -42.2890   -7.5950 O.3       1 MAN        -0.3865
     76 O5         -0.3060  -41.4480   -9.9290 O.3       1 MAN        -0.3405
     77 O6          0.1350  -43.0400   -6.7230 O.3       1 MAN        -0.3924
     78 C1          1.1740  -48.8190  -17.6730 C.3       1 MAN         0.1885
     79 C2          1.7430  -49.6200  -18.8680 C.3       1 MAN         0.1341
     80 C3          0.7530  -49.5700  -20.0160 C.3       1 MAN         0.1141
     81 C4         -0.6410  -50.0340  -19.5560 C.3       1 MAN         0.1119
     82 C5         -1.1040  -49.1950  -18.3560 C.3       1 MAN         0.1130
     83 C6         -2.4020  -49.6860  -17.7670 C.3       1 MAN         0.0730
     84 O2          1.8890  -51.0110  -18.5660 O.3       1 MAN        -0.3841
     85 O3          1.1990  -50.3550  -21.1010 O.3       1 MAN        -0.3864
     86 O4         -1.5750  -49.8800  -20.6110 O.3       1 MAN        -0.3865
     87 O5         -0.1190  -49.2640  -17.3140 O.3       1 MAN        -0.3405
     88 O6         -2.1360  -50.8910  -17.0580 O.3       1 MAN        -0.3924
     89 H1         -7.2862  -46.3041   -9.9463 H         1 BMA         0.0586
     90 H2         -6.6910  -46.7819   -8.3203 H         1 BMA         0.0586
     91 H3         -7.3404  -44.4095   -8.2682 H         1 BMA         0.0643
     92 H4         -7.1417  -43.8736  -10.6269 H         1 BMA         0.0650
     93 H5         -4.1088  -43.9766  -10.4086 H         1 BMA         0.0647
     94 H6         -5.7295  -46.1617  -11.7660 H         1 BMA         0.0646
     95 H7         -3.6641  -46.6232  -12.5642 H         1 BMA         0.0587
     96 H8         -3.2701  -47.1839  -10.9038 H         1 BMA         0.0587
     97 H9         -5.2568  -43.4850   -7.7644 H         1 BMA         0.2100
     98 H10        -5.1873  -42.7982  -12.0823 H         1 BMA         0.2100
     99 H11        -7.8401  -42.0468  -10.4961 H         1 BMA         0.0938
    100 H12        -6.3050  -40.0913  -10.8018 H         1 BMA         0.0675
    101 H13        -5.0888  -40.3597   -8.6499 H         1 BMA         0.0648
    102 H14        -7.6518  -39.3604   -7.3009 H         1 BMA         0.0647
    103 H15        -6.3059  -42.1054   -7.1224 H         1 BMA         0.0647
    104 H16        -9.1345  -41.3281   -6.3253 H         1 BMA         0.0584
    105 H17        -7.7492  -41.2400   -5.1852 H         1 BMA         0.0584
    106 H18        -5.0763  -38.1449   -8.0662 H         1 BMA         0.2100
    107 H19        -5.6312  -38.8116   -6.3300 H         1 BMA         0.2100
    108 H20        -8.5576  -43.5524   -6.6620 H         1 BMA         0.2095
    109 H21        -7.1669  -37.8000  -10.7185 H         1 BMA         0.0938
    110 H22        -9.3920  -37.2338   -9.7076 H         1 BMA         0.0675
    111 H23       -10.3411  -39.5185  -10.2199 H         1 BMA         0.0648
    112 H24       -10.4782  -38.4133  -13.0691 H         1 BMA         0.0647
    113 H25        -9.0273  -40.8670  -11.9862 H         1 BMA         0.0647
    114 H26        -8.6961  -39.3342  -14.6104 H         1 BMA         0.0584
    115 H27        -9.6476  -40.8464  -14.4244 H         1 BMA         0.0584
    116 H28       -11.8696  -37.3906  -11.3247 H         1 BMA         0.2100
    117 H29       -12.2524  -39.7567  -12.4350 H         1 BMA         0.2100
    118 H30        -6.8773  -40.5223  -13.7850 H         1 BMA         0.2095
    119 H31        -9.6385  -35.1982  -10.3608 H         1 BMA         0.0938
    120 H32       -10.5288  -34.6685  -12.6890 H         1 BMA         0.0671
    121 H33        -8.6186  -35.7622  -13.8770 H         1 BMA         0.0648
    122 H34        -7.0701  -33.3868  -12.7327 H         1 BMA         0.0647
    123 H35        -6.8193  -36.4295  -12.5147 H         1 BMA         0.0647
    124 H36        -4.6565  -35.0111  -12.3904 H         1 BMA         0.0584
    125 H37        -5.0007  -36.1514  -11.0458 H         1 BMA         0.0584
    126 H38        -9.5164  -32.5569  -12.7589 H         1 BMA         0.2101
    127 H39        -8.3429  -34.1067  -15.4375 H         1 BMA         0.2100
    128 H40        -6.2890  -35.3983  -14.6014 H         1 BMA         0.2100
    129 H41        -5.9163  -34.3553   -9.9203 H         1 BMA         0.2095
    130 H42        -1.1691  -46.6962  -11.4415 H         1 BMA         0.0937
    131 H43        -0.4467  -44.5730  -10.2165 H         1 BMA         0.0671
    132 H44        -1.2696  -42.8263  -11.6492 H         1 BMA         0.0651
    133 H45         0.4616  -43.8901  -13.9147 H         1 BMA         0.0647
    134 H46        -2.5757  -44.0385  -13.5275 H         1 BMA         0.0647
    135 H47        -2.0206  -43.8588  -15.8893 H         1 BMA         0.0587
    136 H48        -2.3516  -45.5901  -15.5436 H         1 BMA         0.0587
    137 H49         1.6505  -44.5658  -11.1980 H         1 BMA         0.2101
    138 H50        -1.5842  -41.9052  -13.7362 H         1 BMA         0.2100
    139 H51        -1.0676  -46.8464  -16.5734 H         1 BMA         0.0938
    140 H52         1.3578  -47.0769  -16.0225 H         1 BMA         0.0675
    141 H53         1.8072  -44.6345  -16.4930 H         1 BMA         0.0648
    142 H54         1.5618  -45.5591  -19.4019 H         1 BMA         0.0647
    143 H55        -0.0081  -43.4861  -17.7747 H         1 BMA         0.0647
    144 H56        -0.6514  -44.6885  -20.4996 H         1 BMA         0.0584
    145 H57         0.1114  -43.0812  -20.2517 H         1 BMA         0.0584
    146 H58         3.8283  -44.9635  -17.4984 H         1 BMA         0.2100
    147 H59         3.2140  -44.0110  -19.0081 H         1 BMA         0.2100
    148 H60        -2.4055  -43.9243  -19.1708 H         1 BMA         0.2095
    149 H61        -0.2084  -40.7152  -11.8334 H         1 BMA         0.0938
    150 H62         2.3155  -40.4355  -11.7789 H         1 BMA         0.0671
    151 H63         2.9161  -42.1050  -10.1307 H         1 BMA         0.0648
    152 H64         1.4061  -40.5281   -7.9877 H         1 BMA         0.0647
    153 H65         0.6880  -43.1838   -9.3205 H         1 BMA         0.0647
    154 H66        -1.3811  -43.1472   -8.1078 H         1 BMA         0.0584
    155 H67        -1.0374  -41.5132   -7.4456 H         1 BMA         0.0584
    156 H68         2.2571  -38.7104  -10.2279 H         1 BMA         0.2101
    157 H69         3.3689  -39.5464   -8.9795 H         1 BMA         0.2100
    158 H70         1.8758  -42.4694   -6.8276 H         1 BMA         0.2100
    159 H71         0.8204  -42.4434   -6.4459 H         1 BMA         0.2095
    160 H72         1.8383  -48.9374  -16.8043 H         1 BMA         0.0938
    161 H73         2.7113  -49.1922  -19.1669 H         1 BMA         0.0671
    162 H74         0.6744  -48.5267  -20.3555 H         1 BMA         0.0648
    163 H75        -0.5912  -51.0933  -19.2638 H         1 BMA         0.0647
    164 H76        -1.2280  -48.1521  -18.6830 H         1 BMA         0.0647
    165 H77        -3.1275  -49.8786  -18.5711 H         1 BMA         0.0584
    166 H78        -2.8091  -48.9304  -17.0790 H         1 BMA         0.0584
    167 H79         2.2162  -51.4676  -19.3321 H         1 BMA         0.2101
    168 H80         1.2479  -51.2651  -20.8330 H         1 BMA         0.2100
    169 H81        -1.2955  -50.3964  -21.3578 H         1 BMA         0.2100
    170 H82        -1.5065  -50.7186  -16.3676 H         1 BMA         0.2095
@<TRIPOS>BOND
     1    1    2 1  
     2    1   10 1  
     3    2    3 1  
     4    2    7 1  
     5    3    4 1  
     6    3    8 1  
     7    4    5 1  
     8    4    9 1  
     9    5    6 1  
    10    5   10 1  
    11    6   11 1  
    12    8   12 1  
    13   11   45 1  
    14   12   13 1  
    15   12   21 1  
    16   13   14 1  
    17   13   18 1  
    18   14   15 1  
    19   14   19 1  
    20   15   16 1  
    21   15   20 1  
    22   16   17 1  
    23   16   21 1  
    24   17   22 1  
    25   18   23 1  
    26   23   24 1  
    27   23   32 1  
    28   24   25 1  
    29   24   29 1  
    30   25   26 1  
    31   25   30 1  
    32   26   27 1  
    33   26   31 1  
    34   27   28 1  
    35   27   32 1  
    36   28   33 1  
    37   29   34 1  
    38   34   35 1  
    39   34   43 1  
    40   35   36 1  
    41   35   40 1  
    42   36   37 1  
    43   36   41 1  
    44   37   38 1  
    45   37   42 1  
    46   38   39 1  
    47   38   43 1  
    48   39   44 1  
    49   45   46 1  
    50   45   54 1  
    51   46   47 1  
    52   46   51 1  
    53   47   48 1  
    54   47   52 1  
    55   48   49 1  
    56   48   53 1  
    57   49   50 1  
    58   49   54 1  
    59   50   55 1  
    60   52   67 1  
    61   55   56 1  
    62   56   57 1  
    63   56   65 1  
    64   57   58 1  
    65   57   62 1  
    66   58   59 1  
    67   58   63 1  
    68   59   60 1  
    69   59   64 1  
    70   60   61 1  
    71   60   65 1  
    72   61   66 1  
    73   62   78 1  
    74   67   68 1  
    75   67   76 1  
    76   68   69 1  
    77   68   73 1  
    78   69   70 1  
    79   69   74 1  
    80   70   71 1  
    81   70   75 1  
    82   71   72 1  
    83   71   76 1  
    84   72   77 1  
    85   78   79 1  
    86   78   87 1  
    87   79   80 1  
    88   79   84 1  
    89   80   81 1  
    90   80   85 1  
    91   81   82 1  
    92   81   86 1  
    93   82   83 1  
    94   82   87 1  
    95   83   88 1  
    96    1   89 1  
    97    1   90 1  
    98    2   91 1  
    99    3   92 1  
   100    4   93 1  
   101    5   94 1  
   102    6   95 1  
   103    6   96 1  
   104    7   97 1  
   105    9   98 1  
   106   12   99 1  
   107   13  100 1  
   108   14  101 1  
   109   15  102 1  
   110   16  103 1  
   111   17  104 1  
   112   17  105 1  
   113   19  106 1  
   114   20  107 1  
   115   22  108 1  
   116   23  109 1  
   117   24  110 1  
   118   25  111 1  
   119   26  112 1  
   120   27  113 1  
   121   28  114 1  
   122   28  115 1  
   123   30  116 1  
   124   31  117 1  
   125   33  118 1  
   126   34  119 1  
   127   35  120 1  
   128   36  121 1  
   129   37  122 1  
   130   38  123 1  
   131   39  124 1  
   132   39  125 1  
   133   40  126 1  
   134   41  127 1  
   135   42  128 1  
   136   44  129 1  
   137   45  130 1  
   138   46  131 1  
   139   47  132 1  
   140   48  133 1  
   141   49  134 1  
   142   50  135 1  
   143   50  136 1  
   144   51  137 1  
   145   53  138 1  
   146   56  139 1  
   147   57  140 1  
   148   58  141 1  
   149   59  142 1  
   150   60  143 1  
   151   61  144 1  
   152   61  145 1  
   153   63  146 1  
   154   64  147 1  
   155   66  148 1  
   156   67  149 1  
   157   68  150 1  
   158   69  151 1  
   159   70  152 1  
   160   71  153 1  
   161   72  154 1  
   162   72  155 1  
   163   73  156 1  
   164   74  157 1  
   165   75  158 1  
   166   77  159 1  
   167   78  160 1  
   168   79  161 1  
   169   80  162 1  
   170   81  163 1  
   171   82  164 1  
   172   83  165 1  
   173   83  166 1  
   174   84  167 1  
   175   85  168 1  
   176   86  169 1  
   177   88  170 1  
@<TRIPOS>SUBSTRUCTURE
     1 BMA         1

