5j9y_ligand
  -I-interpret- 

 54 58  0  0  0  0  0  0  0  0999 V2000
    0.3200   51.3760  -21.1830 C   0  0  0  0  0
    0.6700   52.0520  -22.2970 C   0  0  0  0  0
    1.6200   53.0430  -22.1750 C   0  0  0  0  0
    2.1870   53.3420  -20.9860 N   0  0  0  0  0
    0.8540   51.6460  -19.9690 N   0  0  0  0  0
   -6.0340   50.1080  -18.1340 C   0  0  0  0  0
   -5.2880   50.1840  -19.4090 C   0  0  0  0  0
   -4.7060   48.7910  -19.4990 C   0  0  0  0  0
   -5.2930   47.8770  -18.9260 O   0  0  0  0  0
   -3.5740   48.5880  -20.1660 N   0  0  0  0  0
   -2.8130   49.5860  -20.9590 C   0  0  0  0  0
   -3.0390   47.2530  -20.1740 C   0  0  0  0  0
   -1.6630   47.3460  -19.5840 C   0  0  0  0  0
   -0.7710   48.0540  -20.5840 C   0  0  0  0  0
   -1.2880   49.5220  -20.6260 C   0  0  0  0  0
   -0.5790   50.4610  -21.5360 N   0  0  0  0  0
   -0.8150   50.5230  -22.7140 N   0  0  0  0  0
    1.8230   52.6580  -19.8390 C   0  0  0  0  0
    2.0240   53.7870  -23.2310 N   0  0  0  0  0
   -0.0850   51.4670  -23.2800 C   0  0  0  0  0
   -0.1650   51.7280  -24.6200 C   0  0  0  0  0
    0.9480   51.6310  -25.4840 C   0  0  0  0  0
    2.1970   51.2270  -25.0260 C   0  0  0  0  0
    3.3270   51.1320  -25.8500 C   0  0  0  0  0
    3.2220   51.4170  -27.2010 C   0  0  0  0  0
    1.9720   51.8230  -27.6930 C   0  0  0  0  0
    0.8550   51.9290  -26.8500 C   0  0  0  0  0
   -0.3610   52.3140  -27.3920 C   0  0  0  0  0
   -1.4820   52.4070  -26.5710 C   0  0  0  0  0
   -1.3870   52.1130  -25.2070 C   0  0  0  0  0
   -6.7911   49.3270  -18.2035 H   0  0  0  0  0
   -5.3432   49.8751  -17.3237 H   0  0  0  0  0
   -6.5155   51.0662  -17.9386 H   0  0  0  0  0
   -4.5369   50.9736  -19.4295 H   0  0  0  0  0
   -5.9088   50.4543  -20.2632 H   0  0  0  0  0
   -3.1825   50.5818  -20.7143 H   0  0  0  0  0
   -2.9488   49.3676  -22.0182 H   0  0  0  0  0
   -3.0045   46.8510  -21.1866 H   0  0  0  0  0
   -3.6679   46.5757  -19.5962 H   0  0  0  0  0
   -1.2755   46.3492  -19.3736 H   0  0  0  0  0
   -1.6922   47.9012  -18.6465 H   0  0  0  0  0
   -0.8164   47.5838  -21.5663 H   0  0  0  0  0
    0.2779   48.0057  -20.2915 H   0  0  0  0  0
   -1.0755   49.8654  -19.6135 H   0  0  0  0  0
    2.2694   52.8940  -18.8730 H   0  0  0  0  0
    1.6228   53.6223  -24.1542 H   0  0  0  0  0
    2.7297   54.5124  -23.1036 H   0  0  0  0  0
    2.3030   50.9709  -23.9718 H   0  0  0  0  0
    4.2868   50.8342  -25.4279 H   0  0  0  0  0
    4.0840   51.3287  -27.8622 H   0  0  0  0  0
    1.8665   52.0609  -28.7515 H   0  0  0  0  0
   -0.4395   52.5427  -28.4548 H   0  0  0  0  0
   -2.4395   52.7108  -26.9941 H   0  0  0  0  0
   -2.2785   52.1832  -24.5837 H   0  0  0  0  0
  1  2  4  0  0  0
  1  5  4  0  0  0
 16  1  4  0  0  0
  2  3  4  0  0  0
  2 20  4  0  0  0
  3  4  4  0  0  0
  3 19  1  0  0  0
 18  4  4  0  0  0
  5 18  4  0  0  0
  7  6  1  0  0  0
  8  7  1  0  0  0
  8  9  2  0  0  0
 10  8  1  0  0  0
 11 10  1  0  0  0
 10 12  1  0  0  0
 15 11  1  0  0  0
 13 12  1  0  0  0
 14 13  1  0  0  0
 15 14  1  0  0  0
 15 16  1  0  0  0
 16 17  4  0  0  0
 17 20  4  0  0  0
 20 21  1  0  0  0
 21 22  4  0  0  0
 21 30  4  0  0  0
 22 23  4  0  0  0
 22 27  4  0  0  0
 23 24  4  0  0  0
 24 25  4  0  0  0
 25 26  4  0  0  0
 26 27  4  0  0  0
 27 28  4  0  0  0
 28 29  4  0  0  0
 29 30  4  0  0  0
  6 31  1  0  0  0
  6 32  1  0  0  0
  6 33  1  0  0  0
  7 34  1  0  0  0
  7 35  1  0  0  0
 11 36  1  0  0  0
 11 37  1  0  0  0
 12 38  1  0  0  0
 12 39  1  0  0  0
 13 40  1  0  0  0
 13 41  1  0  0  0
 14 42  1  0  0  0
 14 43  1  0  0  0
 15 44  1  0  0  0
 18 45  1  0  0  0
 19 46  1  0  0  0
 19 47  1  0  0  0
 23 48  1  0  0  0
 24 49  1  0  0  0
 25 50  1  0  0  0
 26 51  1  0  0  0
 28 52  1  0  0  0
 29 53  1  0  0  0
 30 54  1  0  0  0
M  END
$$$$
