5lck_ligand
  -I-interpret- 

 50 52  0  0  0  0  0  0  0  0999 V2000
   10.4300   11.7570   40.0630 C   0  0  0  0  0
   12.8070   11.5660   40.3560 C   0  0  0  0  0
   15.0490   10.4720   41.4320 C   0  0  0  0  0
   13.8390    9.7900   41.5710 C   0  0  0  0  0
   12.0860    6.2090   44.2050 C   0  0  0  0  0
   10.8960    6.8510   44.4650 C   0  0  0  0  0
   10.7250    8.1520   43.9240 C   0  0  0  0  0
    9.3070   10.2030   43.7220 C   0  0  0  0  0
   10.1590   11.2590   44.0820 C   0  0  0  0  0
    7.9010   11.8130   42.5750 C   0  0  0  0  0
    6.6520    8.5320   43.3050 C   0  0  0  0  0
    5.5540    7.7520   42.6090 C   0  0  0  0  0
    5.5950    6.2700   42.9100 C   0  0  0  0  0
    9.8540    6.1100   45.3180 C   0  0  0  0  0
   12.6950   10.3530   41.0190 C   0  0  0  0  0
    6.9490    8.2960   44.4720 O   0  0  0  0  0
    7.2650    9.4780   42.5600 N   0  0  0  0  0
    8.1590   10.4990   42.9530 C   0  0  0  0  0
    8.7570   12.8310   42.9440 C   0  0  0  0  0
    9.8800   12.5550   43.6940 C   0  0  0  0  0
    9.5900    8.8740   44.1200 N   0  0  0  0  0
   11.7030    8.7000   43.1950 N   0  0  0  0  0
   12.8240    7.9900   43.0010 C   0  0  0  0  0
   13.8050    8.5610   42.2590 N   0  0  0  0  0
   15.1510   11.6410   40.7930 N   0  0  0  0  0
   14.0450   12.1720   40.2660 C   0  0  0  0  0
   11.7470   12.2150   39.7730 O   0  0  0  0  0
   13.0620    6.7540   43.4790 N   0  0  0  0  0
    9.6900    6.6890   46.5180 F   0  0  0  0  0
    8.6400    6.0730   44.7550 F   0  0  0  0  0
   10.2050    4.8370   45.5410 F   0  0  0  0  0
   10.3302   10.7184   39.7477 H   0  0  0  0  0
   10.2486   11.8316   41.1352 H   0  0  0  0  0
    9.7067   12.3718   39.5273 H   0  0  0  0  0
   15.9485   10.0324   41.8629 H   0  0  0  0  0
   12.2369    5.2090   44.6116 H   0  0  0  0  0
   11.0507   11.0540   44.6744 H   0  0  0  0  0
    7.0150   12.0405   41.9822 H   0  0  0  0  0
    5.6907    7.8752   41.5347 H   0  0  0  0  0
    4.5983    8.1358   42.9661 H   0  0  0  0  0
    6.5503    5.8602   42.5819 H   0  0  0  0  0
    5.4811    6.1152   43.9829 H   0  0  0  0  0
    4.7831    5.7706   42.3813 H   0  0  0  0  0
   11.7306    9.8523   41.1051 H   0  0  0  0  0
    7.0498    9.4509   41.5633 H   0  0  0  0  0
    8.5442   13.8563   42.6414 H   0  0  0  0  0
   10.5515   13.3637   43.9825 H   0  0  0  0  0
    8.8421    8.3941   44.6208 H   0  0  0  0  0
   14.6599    8.0093   42.1871 H   0  0  0  0  0
   14.1224   13.1248   39.7422 H   0  0  0  0  0
 27  1  1  0  0  0
 15  2  4  0  0  0
  2 26  4  0  0  0
  2 27  1  0  0  0
  4  3  4  0  0  0
  3 25  4  0  0  0
  4 15  4  0  0  0
 24  4  1  0  0  0
  6  5  4  0  0  0
  5 28  4  0  0  0
  7  6  4  0  0  0
  6 14  1  0  0  0
  7 21  1  0  0  0
 22  7  4  0  0  0
  8  9  4  0  0  0
  8 18  4  0  0  0
 21  8  1  0  0  0
  9 20  4  0  0  0
 18 10  4  0  0  0
 10 19  4  0  0  0
 11 12  1  0  0  0
 11 16  2  0  0  0
 17 11  1  0  0  0
 12 13  1  0  0  0
 14 29  1  0  0  0
 14 30  1  0  0  0
 14 31  1  0  0  0
 18 17  1  0  0  0
 20 19  4  0  0  0
 23 22  4  0  0  0
 23 24  1  0  0  0
 23 28  4  0  0  0
 25 26  4  0  0  0
  1 32  1  0  0  0
  1 33  1  0  0  0
  1 34  1  0  0  0
  3 35  1  0  0  0
  5 36  1  0  0  0
  9 37  1  0  0  0
 10 38  1  0  0  0
 12 39  1  0  0  0
 12 40  1  0  0  0
 13 41  1  0  0  0
 13 42  1  0  0  0
 13 43  1  0  0  0
 15 44  1  0  0  0
 17 45  1  0  0  0
 19 46  1  0  0  0
 20 47  1  0  0  0
 21 48  1  0  0  0
 24 49  1  0  0  0
 26 50  1  0  0  0
M  END
$$$$
