2ie4_ligand
  -I-interpret- 

125131  0  0  0  0  0  0  0  0999 V2000
   35.6590  -44.6880  -39.3530 C   0  0  0  0  0
   34.7600  -43.5790  -38.7960 C   0  0  0  0  0
   33.3300  -44.1080  -38.6610 C   0  0  0  0  0
   33.2740  -45.3800  -37.8080 C   0  0  0  0  0
   31.7970  -45.7530  -37.6660 C   0  0  0  0  0
   31.6540  -46.9740  -36.7580 C   0  0  0  0  0
   32.2990  -46.6690  -35.4070 C   0  0  0  0  0
   33.7500  -46.2140  -35.5820 C   0  0  0  0  0
   34.1700  -45.7170  -34.3540 C   0  0  0  0  0
   35.3960  -46.0520  -33.7910 C   0  0  0  0  0
   36.3390  -47.0050  -34.5240 C   0  0  0  0  0
   35.9230  -47.1490  -35.9890 C   0  0  0  0  0
   36.6630  -48.3700  -36.5450 C   0  0  0  0  0
   36.3180  -48.6250  -38.0140 C   0  0  0  0  0
   34.9990  -48.8870  -38.3730 C   0  0  0  0  0
   34.5970  -49.1210  -39.6810 C   0  0  0  0  0
   35.1400  -50.4110  -40.3070 C   0  0  0  0  0
   33.9320  -50.9990  -41.0450 C   0  0  0  0  0
   32.9210  -49.8550  -40.9590 C   0  0  0  0  0
   31.4580  -50.2950  -41.0300 C   0  0  0  0  0
   30.5930  -49.0660  -40.7410 C   0  0  0  0  0
   30.9390  -47.9160  -41.6920 C   0  0  0  0  0
   32.4420  -47.6730  -41.7140 C   0  0  0  0  0
   32.7180  -46.6560  -42.8230 C   0  0  0  0  0
   31.9320  -45.4000  -42.4520 C   0  0  0  0  0
   30.4600  -45.5740  -42.0770 C   0  0  0  0  0
   29.6650  -45.7410  -43.3720 C   0  0  0  0  0
   29.7310  -44.4570  -44.2040 C   0  0  0  0  0
   28.9490  -44.5750  -45.5150 C   0  0  0  0  0
   29.1910  -43.3520  -46.4050 C   0  0  0  0  0
   28.9110  -42.0650  -45.6270 C   0  0  0  0  0
   29.1370  -40.8560  -46.5360 C   0  0  0  0  0
   28.2670  -41.0010  -47.7850 C   0  0  0  0  0
   28.5760  -42.3310  -48.4740 C   0  0  0  0  0
   27.6600  -42.4950  -49.6900 C   0  0  0  0  0
   27.9720  -43.8070  -50.4120 C   0  0  0  0  0
   29.4570  -43.8290  -50.7780 C   0  0  0  0  0
   30.2990  -43.5740  -49.5250 C   0  0  0  0  0
   27.4820  -42.0760  -45.0790 C   0  0  0  0  0
   29.3330  -45.8520  -46.2680 C   0  0  0  0  0
   32.5400  -44.1490  -42.4520 C   0  0  0  0  0
   38.1760  -48.1920  -36.4040 C   0  0  0  0  0
   35.7890  -45.4570  -32.4380 C   0  0  0  0  0
   34.7750  -42.3800  -39.7470 C   0  0  0  0  0
   36.5290  -45.1530  -38.5870 O   0  0  0  0  0
   35.4560  -45.0500  -40.5320 O   0  0  0  0  0
   35.2570  -43.1860  -37.5130 O   0  0  0  0  0
   33.8540  -45.1330  -36.5180 O   0  0  0  0  0
   32.3160  -47.8700  -34.6310 O   0  0  0  0  0
   34.5030  -47.3540  -36.0150 O   0  0  0  0  0
   33.1760  -49.3290  -39.6580 O   0  0  0  0  0
   33.2070  -48.8650  -41.9500 O   0  0  0  0  0
   30.2630  -46.7290  -41.2400 O   0  0  0  0  0
   34.1150  -46.3640  -42.8980 O   0  0  0  0  0
   28.3160  -46.0780  -43.0400 O   0  0  0  0  0
   28.3460  -43.4140  -47.5640 O   0  0  0  0  0
   29.9410  -42.3260  -48.9090 O   0  0  0  0  0
   32.9565  -44.3458  -39.6570 H   0  0  0  0  0
   32.7250  -43.3422  -38.1755 H   0  0  0  0  0
   33.8352  -46.1907  -38.2727 H   0  0  0  0  0
   31.3889  -45.9865  -38.6494 H   0  0  0  0  0
   31.2548  -44.9145  -37.2290 H   0  0  0  0  0
   32.1477  -47.8314  -37.2153 H   0  0  0  0  0
   30.5981  -47.2050  -36.6169 H   0  0  0  0  0
   31.7265  -45.8786  -34.9215 H   0  0  0  0  0
   33.5124  -45.0380  -33.8112 H   0  0  0  0  0
   36.2956  -47.9835  -34.0458 H   0  0  0  0  0
   37.3515  -46.6037  -34.4812 H   0  0  0  0  0
   36.1666  -46.2712  -36.5876 H   0  0  0  0  0
   36.3391  -49.2322  -35.9620 H   0  0  0  0  0
   37.0994  -48.6016  -38.7735 H   0  0  0  0  0
   34.2436  -48.9096  -37.5875 H   0  0  0  0  0
   34.9578  -48.2675  -40.2550 H   0  0  0  0  0
   35.5428  -51.0958  -39.5607 H   0  0  0  0  0
   35.9822  -50.2252  -40.9735 H   0  0  0  0  0
   33.5698  -51.9297  -40.6082 H   0  0  0  0  0
   34.1559  -51.3019  -42.0678 H   0  0  0  0  0
   31.2604  -51.0802  -40.3002 H   0  0  0  0  0
   31.2290  -50.6988  -42.0162 H   0  0  0  0  0
   30.7778  -48.7410  -39.7171 H   0  0  0  0  0
   29.5460  -49.3340  -40.8824 H   0  0  0  0  0
   30.6193  -48.1726  -42.7020 H   0  0  0  0  0
   32.7490  -47.3088  -40.7336 H   0  0  0  0  0
   32.4173  -47.0412  -43.7973 H   0  0  0  0  0
   30.1251  -44.7007  -41.5173 H   0  0  0  0  0
   30.0930  -46.5418  -43.9750 H   0  0  0  0  0
   30.7757  -44.2654  -44.4489 H   0  0  0  0  0
   29.2900  -43.6507  -43.6180 H   0  0  0  0  0
   27.8890  -44.6230  -45.2655 H   0  0  0  0  0
   30.2340  -43.3517  -46.7217 H   0  0  0  0  0
   29.5955  -41.9991  -44.7813 H   0  0  0  0  0
   30.1870  -40.8044  -46.8240 H   0  0  0  0  0
   28.8683  -39.9425  -46.0055 H   0  0  0  0  0
   28.4780  -40.1803  -48.4706 H   0  0  0  0  0
   27.2155  -40.9771  -47.4987 H   0  0  0  0  0
   27.8232  -41.6629  -50.3749 H   0  0  0  0  0
   26.6224  -42.5090  -49.3563 H   0  0  0  0  0
   27.3681  -43.8830  -51.3162 H   0  0  0  0  0
   27.7400  -44.6502  -49.7614 H   0  0  0  0  0
   29.6598  -43.0518  -51.5148 H   0  0  0  0  0
   29.7129  -44.8034  -51.1940 H   0  0  0  0  0
   31.3497  -43.5335  -49.8121 H   0  0  0  0  0
   30.1193  -44.3796  -48.8131 H   0  0  0  0  0
   26.7773  -42.1525  -45.9070 H   0  0  0  0  0
   27.3562  -42.9297  -44.4131 H   0  0  0  0  0
   27.2984  -41.1536  -44.5280 H   0  0  0  0  0
   30.3987  -45.8314  -46.4959 H   0  0  0  0  0
   29.1097  -46.7195  -45.6470 H   0  0  0  0  0
   28.7630  -45.9109  -47.1952 H   0  0  0  0  0
   33.5925  -44.0545  -42.7194 H   0  0  0  0  0
   31.9640  -43.2631  -42.1846 H   0  0  0  0  0
   38.4894  -47.3062  -36.9565 H   0  0  0  0  0
   38.4300  -48.0735  -35.3507 H   0  0  0  0  0
   38.6827  -49.0699  -36.8047 H   0  0  0  0  0
   35.8150  -44.3700  -32.5143 H   0  0  0  0  0
   35.0570  -45.7523  -31.6863 H   0  0  0  0  0
   36.7741  -45.8261  -32.1525 H   0  0  0  0  0
   34.1439  -41.5888  -39.3421 H   0  0  0  0  0
   35.7963  -42.0139  -39.8520 H   0  0  0  0  0
   34.3954  -42.6863  -40.7218 H   0  0  0  0  0
   34.7331  -44.5385  -40.9026 H   0  0  0  0  0
   35.2452  -43.9418  -36.9212 H   0  0  0  0  0
   31.4165  -48.1805  -34.5042 H   0  0  0  0  0
   34.2702  -45.7254  -43.5978 H   0  0  0  0  0
   27.8065  -46.1855  -43.8465 H   0  0  0  0  0
  1  2  1  0  0  0
  1 45  2  0  0  0
  1 46  1  0  0  0
  2  3  1  0  0  0
  2 44  1  0  0  0
  2 47  1  0  0  0
  3  4  1  0  0  0
  4  5  1  0  0  0
  4 48  1  0  0  0
  5  6  1  0  0  0
  6  7  1  0  0  0
  7  8  1  0  0  0
  7 49  1  0  0  0
  8  9  1  0  0  0
  8 48  1  0  0  0
  8 50  1  0  0  0
  9 10  2  0  0  0
 10 11  1  0  0  0
 10 43  1  0  0  0
 11 12  1  0  0  0
 12 13  1  0  0  0
 12 50  1  0  0  0
 13 14  1  0  0  0
 13 42  1  0  0  0
 14 15  2  0  0  0
 15 16  1  0  0  0
 16 17  1  0  0  0
 16 51  1  0  0  0
 17 18  1  0  0  0
 18 19  1  0  0  0
 19 20  1  0  0  0
 19 51  1  0  0  0
 19 52  1  0  0  0
 20 21  1  0  0  0
 21 22  1  0  0  0
 22 23  1  0  0  0
 22 53  1  0  0  0
 23 24  1  0  0  0
 23 52  1  0  0  0
 24 25  1  0  0  0
 24 54  1  0  0  0
 25 26  1  0  0  0
 25 41  2  0  0  0
 26 27  1  0  0  0
 26 53  1  0  0  0
 27 28  1  0  0  0
 27 55  1  0  0  0
 28 29  1  0  0  0
 29 30  1  0  0  0
 29 40  1  0  0  0
 30 31  1  0  0  0
 30 56  1  0  0  0
 31 32  1  0  0  0
 31 39  1  0  0  0
 32 33  1  0  0  0
 33 34  1  0  0  0
 34 35  1  0  0  0
 34 56  1  0  0  0
 34 57  1  0  0  0
 35 36  1  0  0  0
 36 37  1  0  0  0
 37 38  1  0  0  0
 38 57  1  0  0  0
  3 58  1  0  0  0
  3 59  1  0  0  0
  4 60  1  0  0  0
  5 61  1  0  0  0
  5 62  1  0  0  0
  6 63  1  0  0  0
  6 64  1  0  0  0
  7 65  1  0  0  0
  9 66  1  0  0  0
 11 67  1  0  0  0
 11 68  1  0  0  0
 12 69  1  0  0  0
 13 70  1  0  0  0
 14 71  1  0  0  0
 15 72  1  0  0  0
 16 73  1  0  0  0
 17 74  1  0  0  0
 17 75  1  0  0  0
 18 76  1  0  0  0
 18 77  1  0  0  0
 20 78  1  0  0  0
 20 79  1  0  0  0
 21 80  1  0  0  0
 21 81  1  0  0  0
 22 82  1  0  0  0
 23 83  1  0  0  0
 24 84  1  0  0  0
 26 85  1  0  0  0
 27 86  1  0  0  0
 28 87  1  0  0  0
 28 88  1  0  0  0
 29 89  1  0  0  0
 30 90  1  0  0  0
 31 91  1  0  0  0
 32 92  1  0  0  0
 32 93  1  0  0  0
 33 94  1  0  0  0
 33 95  1  0  0  0
 35 96  1  0  0  0
 35 97  1  0  0  0
 36 98  1  0  0  0
 36 99  1  0  0  0
 37100  1  0  0  0
 37101  1  0  0  0
 38102  1  0  0  0
 38103  1  0  0  0
 39104  1  0  0  0
 39105  1  0  0  0
 39106  1  0  0  0
 40107  1  0  0  0
 40108  1  0  0  0
 40109  1  0  0  0
 41110  1  0  0  0
 41111  1  0  0  0
 42112  1  0  0  0
 42113  1  0  0  0
 42114  1  0  0  0
 43115  1  0  0  0
 43116  1  0  0  0
 43117  1  0  0  0
 44118  1  0  0  0
 44119  1  0  0  0
 44120  1  0  0  0
 46121  1  0  0  0
 47122  1  0  0  0
 49123  1  0  0  0
 54124  1  0  0  0
 55125  1  0  0  0
M  END
$$$$
