6mck_ligand
  -I-interpret- 

 54 58  0  0  0  0  0  0  0  0999 V2000
   66.8180   28.4980   62.9140 C   0  0  0  0  0
   66.3410   29.7950   63.1110 C   0  0  0  0  0
   68.4810   27.9680   54.7870 O   0  0  0  0  0
   67.7910   28.5720   55.5950 C   0  0  0  0  0
   67.9960   28.4180   57.0620 C   0  0  0  0  0
   67.1170   28.9880   57.9710 C   0  0  0  0  0
   67.2750   28.8350   59.3540 C   0  0  0  0  0
   68.3020   28.1190   59.9050 C   0  0  0  0  0
   69.1550   27.5600   59.0070 C   0  0  0  0  0
   69.0410   27.6660   57.6030 C   0  0  0  0  0
   70.1280   26.9220   57.0290 C   0  0  0  0  0
   70.8280   26.4130   58.0580 C   0  0  0  0  0
   72.0640   25.5670   57.9330 C   0  0  0  0  0
   70.2270   26.7900   59.2950 N   0  0  0  0  0
   70.5710   26.4850   60.5720 C   0  0  0  0  0
   70.4670   27.4770   61.4300 N   0  0  0  0  0
   70.7850   27.2380   62.6910 C   0  0  0  0  0
   70.7890   28.3240   63.5040 N   0  0  0  0  0
   70.1020   28.5930   64.7380 C   0  0  0  0  0
   68.7920   29.0410   64.1940 C   0  0  0  0  0
   68.3620   30.3380   64.3900 C   0  0  0  0  0
   67.1230   30.6990   63.8490 C   0  0  0  0  0
   68.0380   28.1280   63.4440 C   0  0  0  0  0
   71.1980   25.9500   63.0920 C   0  0  0  0  0
   71.5980   25.6500   64.5310 C   0  0  0  0  0
   72.6120   24.6320   64.5740 O   0  0  0  0  0
   72.3310   23.4270   63.7690 C   0  0  0  0  0
   71.6480   23.5880   62.3780 C   0  0  0  0  0
   71.2350   24.9940   62.0960 C   0  0  0  0  0
   70.9070   25.2360   60.8420 N   0  0  0  0  0
   66.7590   29.3690   55.1930 N   0  0  0  0  0
   66.2292   27.7796   62.3436 H   0  0  0  0  0
   65.3791   30.1008   62.6996 H   0  0  0  0  0
   66.2769   29.5734   57.5972 H   0  0  0  0  0
   66.5502   29.3056   60.0183 H   0  0  0  0  0
   68.4266   28.0055   60.9819 H   0  0  0  0  0
   70.3429   26.7952   55.9679 H   0  0  0  0  0
   71.8288   24.6633   57.3708 H   0  0  0  0  0
   72.8371   26.1305   57.4107 H   0  0  0  0  0
   72.4192   25.2959   58.9272 H   0  0  0  0  0
   71.3861   29.0858   63.1823 H   0  0  0  0  0
   70.5970   29.3150   65.3875 H   0  0  0  0  0
   70.0461   27.7467   65.4227 H   0  0  0  0  0
   68.9658   31.0551   64.9461 H   0  0  0  0  0
   66.7534   31.7125   64.0050 H   0  0  0  0  0
   68.4172   27.1196   63.2781 H   0  0  0  0  0
   70.7213   25.2977   65.0746 H   0  0  0  0  0
   71.9920   26.5595   64.9844 H   0  0  0  0  0
   71.6221   22.8515   64.3642 H   0  0  0  0  0
   73.3103   23.0001   63.5525 H   0  0  0  0  0
   70.7508   22.9691   62.3730 H   0  0  0  0  0
   72.3690   23.2926   61.6158 H   0  0  0  0  0
   66.5498   29.4703   54.1998 H   0  0  0  0  0
   66.1967   29.8635   55.8857 H   0  0  0  0  0
  1  2  4  0  0  0
 23  1  4  0  0  0
  2 22  4  0  0  0
  4  3  2  0  0  0
  5  4  1  0  0  0
  4 31  1  0  0  0
  5  6  4  0  0  0
 10  5  4  0  0  0
  7  6  4  0  0  0
  8  7  4  0  0  0
  9  8  4  0  0  0
  9 10  4  0  0  0
 14  9  4  0  0  0
 11 10  4  0  0  0
 12 11  4  0  0  0
 12 13  1  0  0  0
 14 12  4  0  0  0
 15 14  1  0  0  0
 16 15  4  0  0  0
 15 30  4  0  0  0
 17 16  4  0  0  0
 18 17  1  0  0  0
 17 24  4  0  0  0
 19 18  1  0  0  0
 20 19  1  0  0  0
 20 21  4  0  0  0
 20 23  4  0  0  0
 21 22  4  0  0  0
 24 25  1  0  0  0
 24 29  4  0  0  0
 25 26  1  0  0  0
 26 27  1  0  0  0
 27 28  1  0  0  0
 28 29  1  0  0  0
 29 30  4  0  0  0
  1 32  1  0  0  0
  2 33  1  0  0  0
  6 34  1  0  0  0
  7 35  1  0  0  0
  8 36  1  0  0  0
 11 37  1  0  0  0
 13 38  1  0  0  0
 13 39  1  0  0  0
 13 40  1  0  0  0
 18 41  1  0  0  0
 19 42  1  0  0  0
 19 43  1  0  0  0
 21 44  1  0  0  0
 22 45  1  0  0  0
 23 46  1  0  0  0
 25 47  1  0  0  0
 25 48  1  0  0  0
 27 49  1  0  0  0
 27 50  1  0  0  0
 28 51  1  0  0  0
 28 52  1  0  0  0
 31 53  1  0  0  0
 31 54  1  0  0  0
M  END
$$$$
