4bae_ligand
  -I-interpret- 

 53 56  0  0  0  0  0  0  0  0999 V2000
    9.2750   -5.5000  -24.2990 C   0  0  0  0  0
    4.4610   -4.6790  -10.3660 C   0  0  0  0  0
    4.9880   -4.8030  -11.6800 C   0  0  0  0  0
    6.5570   -4.7910  -22.1540 C   0  0  0  0  0
    4.5440   -3.7190  -12.4190 C   0  0  0  0  0
    5.2940   -4.4230  -22.5600 C   0  0  0  0  0
    3.7120   -3.5270  -10.3170 C   0  0  0  0  0
    7.5970   -5.2960  -23.0690 C   0  0  0  0  0
    5.7440   -4.2840  -20.1540 C   0  0  0  0  0
    4.7410   -3.2760  -13.7680 C   0  0  0  0  0
    4.7010   -4.3910  -23.8590 C   0  0  0  0  0
    4.4570   -3.4890  -16.8590 C   0  0  0  0  0
    4.8290   -3.1010  -18.2740 C   0  0  0  0  0
    6.9690   -4.2480  -18.1010 C   0  0  0  0  0
    5.6840   -3.7870  -16.0100 C   0  0  0  0  0
    6.6850   -4.7360  -16.6840 C   0  0  0  0  0
    2.9400   -2.9240   -9.2180 C   0  0  0  0  0
    6.7540   -7.6820  -23.3260 C   0  0  0  0  0
    7.0860   -6.9870  -16.1410 C   0  0  0  0  0
    8.6120   -4.5910  -23.5160 N   0  0  0  0  0
    8.7340   -6.7230  -24.3550 N   0  0  0  0  0
    6.8000   -4.7170  -20.8080 N   0  0  0  0  0
    3.7660   -2.9870  -11.5650 N   0  0  0  0  0
    7.6640   -6.5710  -23.5630 N   0  0  0  0  0
    5.6930   -4.1430  -18.8000 N   0  0  0  0  0
    5.3460   -4.1530  -14.6480 N   0  0  0  0  0
    4.3740   -2.1540  -14.0880 O   0  0  0  0  0
    3.6100   -4.8560  -24.1530 O   0  0  0  0  0
    5.5300   -3.7740  -24.7460 O   0  0  0  0  0
    6.1790   -6.0760  -16.7570 O   0  0  0  0  0
    4.3950   -3.9580  -21.1760 S   0  0  0  0  0
    4.7280   -5.7080   -9.0370 Cl  0  0  0  0  0
    6.1340   -6.2370  -12.2210 Br  0  0  0  0  0
   10.1849   -5.2432  -24.8415 H   0  0  0  0  0
    3.8446   -4.3897  -16.9018 H   0  0  0  0  0
    3.9226   -2.6543  -16.4054 H   0  0  0  0  0
    5.3426   -2.1396  -18.2829 H   0  0  0  0  0
    3.9348   -3.0009  -18.8892 H   0  0  0  0  0
    7.6271   -4.9468  -18.6173 H   0  0  0  0  0
    7.4673   -3.2789  -18.0749 H   0  0  0  0  0
    6.2253   -2.8444  -15.9292 H   0  0  0  0  0
    7.5944   -4.7402  -16.0832 H   0  0  0  0  0
    2.1669   -3.6206   -8.8939 H   0  0  0  0  0
    3.6071   -2.7059   -8.3840 H   0  0  0  0  0
    2.4765   -2.0006   -9.5653 H   0  0  0  0  0
    6.7259   -7.9059  -22.2596 H   0  0  0  0  0
    5.7551   -7.4112  -23.6681 H   0  0  0  0  0
    7.1018   -8.5580  -23.8734 H   0  0  0  0  0
    8.0473   -6.9427  -16.6530 H   0  0  0  0  0
    7.2177   -6.7144  -15.0939 H   0  0  0  0  0
    6.6841   -7.9981  -16.2068 H   0  0  0  0  0
    5.5637   -5.0962  -14.3265 H   0  0  0  0  0
    6.3276   -3.4906  -24.2930 H   0  0  0  0  0
 20  1  4  0  0  0
  1 21  4  0  0  0
  3  2  4  0  0  0
  7  2  4  0  0  0
  2 32  1  0  0  0
  5  3  4  0  0  0
  3 33  1  0  0  0
  6  4  4  0  0  0
  4  8  1  0  0  0
 22  4  4  0  0  0
 10  5  1  0  0  0
  5 23  4  0  0  0
  6 11  1  0  0  0
 31  6  4  0  0  0
  7 17  1  0  0  0
 23  7  4  0  0  0
  8 20  4  0  0  0
  8 24  4  0  0  0
  9 22  4  0  0  0
 25  9  1  0  0  0
  9 31  4  0  0  0
 26 10  1  0  0  0
 10 27  2  0  0  0
 11 28  2  0  0  0
 11 29  1  0  0  0
 12 13  1  0  0  0
 15 12  1  0  0  0
 13 25  1  0  0  0
 16 14  1  0  0  0
 14 25  1  0  0  0
 15 16  1  0  0  0
 15 26  1  0  0  0
 16 30  1  0  0  0
 24 18  1  0  0  0
 30 19  1  0  0  0
 21 24  4  0  0  0
  1 34  1  0  0  0
 12 35  1  0  0  0
 12 36  1  0  0  0
 13 37  1  0  0  0
 13 38  1  0  0  0
 14 39  1  0  0  0
 14 40  1  0  0  0
 15 41  1  0  0  0
 16 42  1  0  0  0
 17 43  1  0  0  0
 17 44  1  0  0  0
 17 45  1  0  0  0
 18 46  1  0  0  0
 18 47  1  0  0  0
 18 48  1  0  0  0
 19 49  1  0  0  0
 19 50  1  0  0  0
 19 51  1  0  0  0
 26 52  1  0  0  0
 29 53  1  0  0  0
M  END
$$$$
