### 
### Created by X-TOOL on Mon Sep 10 21:12:52 2018
### 

@<TRIPOS>MOLECULE
1xxi_ligand
   39    41     1     0     0
SMALL
GAST_HUCK


@<TRIPOS>ATOM
      1 PB         50.9290   81.8670   27.9520 P.3       1 ADP         0.2069
      2 O1B        50.2610   82.7600   28.9170 O.co2     1 ADP        -0.5891
      3 O2B        50.0620   81.1350   26.9380 O.co2     1 ADP        -0.5891
      4 O3B        51.7770   80.8380   28.7860 O.co2     1 ADP        -0.5891
      5 PA         52.8530   83.9680   27.5310 P.3       1 ADP         0.3276
      6 O1A        52.0930   85.0970   26.9410 O.co2     1 ADP        -0.5556
      7 O2A        53.0930   84.1570   29.0000 O.co2     1 ADP        -0.5556
      8 O3A        51.9670   82.6800   27.1950 O.3       1 ADP        -0.1548
      9 O5         54.1850   83.6300   26.6480 O.3       1 ADP        -0.2436
     10 C5         55.5080   83.8310   27.2770 C.3       1 ADP         0.1132
     11 C4         56.5550   84.4530   26.3160 C.3       1 ADP         0.1189
     12 O4         56.4170   83.7590   25.0130 O.3       1 ADP        -0.3364
     13 C3         56.3030   85.9350   25.9700 C.3       1 ADP         0.1149
     14 O3         56.8610   86.8590   26.8590 O.3       1 ADP        -0.3864
     15 C2         56.7890   86.0320   24.5320 C.3       1 ADP         0.1385
     16 O2         58.1570   86.3880   24.3530 O.3       1 ADP        -0.3836
     17 C1         56.5230   84.7160   23.9400 C.3       1 ADP         0.2010
     18 N9         55.2170   84.6590   23.1380 N.pl3     1 ADP        -0.1919
     19 C8         54.2040   83.7760   23.4530 C.2       1 ADP         0.1123
     20 N7         53.1400   83.8120   22.6960 N.2       1 ADP        -0.2958
     21 C5         53.4190   84.7810   21.8040 C.ar      1 ADP         0.1045
     22 C6         52.6880   85.3420   20.6700 C.ar      1 ADP         0.1298
     23 N6         51.4510   84.9450   20.2910 N.pl3     1 ADP        -0.3152
     24 N1         53.2960   86.3540   19.9510 N.ar      1 ADP        -0.2698
     25 C2         54.5620   86.8010   20.2940 C.ar      1 ADP         0.0533
     26 N3         55.3390   86.3460   21.3260 N.ar      1 ADP        -0.2714
     27 C4         54.7260   85.3270   22.0450 C.ar      1 ADP         0.1613
     28 H1         55.8840   82.8555   27.6191 H         1 ADP         0.0648
     29 H2         55.3859   84.5005   28.1412 H         1 ADP         0.0648
     30 H3         57.5627   84.3281   26.7391 H         1 ADP         0.0651
     31 H4         55.2183   86.1170   25.9836 H         1 ADP         0.0648
     32 H5         57.8037   86.7436   26.8836 H         1 ADP         0.2100
     33 H6         56.1844   86.7926   24.0164 H         1 ADP         0.0676
     34 H7         58.3147   87.2404   24.7417 H         1 ADP         0.2101
     35 H8         57.3598   84.4487   23.2780 H         1 ADP         0.0996
     36 H9         54.2875   83.0844   24.2901 H         1 ADP         0.1349
     37 H10        50.9947   85.3858   19.4796 H         1 ADP         0.1820
     38 H11        50.9658   84.2021   20.8140 H         1 ADP         0.1820
     39 H12        54.9805   87.5923   19.6826 H         1 ADP         0.0996
@<TRIPOS>BOND
     1    1    2 ar 
     2    1    3 ar 
     3    1    4 ar 
     4    8    1 1  
     5    5    6 ar 
     6    5    7 ar 
     7    5    8 1  
     8    5    9 1  
     9    9   10 1  
    10   10   11 1  
    11   11   12 1  
    12   11   13 1  
    13   12   17 1  
    14   13   14 1  
    15   13   15 1  
    16   15   16 1  
    17   15   17 1  
    18   17   18 1  
    19   18   19 1  
    20   18   27 1  
    21   19   20 2  
    22   20   21 1  
    23   21   22 ar 
    24   21   27 ar 
    25   22   23 1  
    26   22   24 ar 
    27   24   25 ar 
    28   25   26 ar 
    29   26   27 ar 
    30   10   28 1  
    31   10   29 1  
    32   11   30 1  
    33   13   31 1  
    34   14   32 1  
    35   15   33 1  
    36   16   34 1  
    37   17   35 1  
    38   19   36 1  
    39   23   37 1  
    40   23   38 1  
    41   25   39 1  
@<TRIPOS>SUBSTRUCTURE
     1 ADP         1

