1xxi_ligand
  -I-interpret- 

 42 44  0  0  0  0  0  0  0  0999 V2000
   50.9290   81.8670   27.9520 P   0  0  0  0  0
   50.2610   82.7600   28.9170 O   0  0  0  0  0
   50.0620   81.1350   26.9380 O   0  0  0  0  0
   51.7770   80.8380   28.7860 O   0  0  0  0  0
   52.8530   83.9680   27.5310 P   0  0  0  0  0
   52.0930   85.0970   26.9410 O   0  0  0  0  0
   53.0930   84.1570   29.0000 O   0  0  0  0  0
   51.9670   82.6800   27.1950 O   0  0  0  0  0
   54.1850   83.6300   26.6480 O   0  0  0  0  0
   55.5080   83.8310   27.2770 C   0  0  0  0  0
   56.5550   84.4530   26.3160 C   0  0  0  0  0
   56.4170   83.7590   25.0130 O   0  0  0  0  0
   56.3030   85.9350   25.9700 C   0  0  0  0  0
   56.8610   86.8590   26.8590 O   0  0  0  0  0
   56.7890   86.0320   24.5320 C   0  0  0  0  0
   58.1570   86.3880   24.3530 O   0  0  0  0  0
   56.5230   84.7160   23.9400 C   0  0  0  0  0
   55.2170   84.6590   23.1380 N   0  0  0  0  0
   54.2040   83.7760   23.4530 C   0  0  0  0  0
   53.1400   83.8120   22.6960 N   0  0  0  0  0
   53.4190   84.7810   21.8040 C   0  0  0  0  0
   52.6880   85.3420   20.6700 C   0  0  0  0  0
   51.4510   84.9450   20.2910 N   0  0  0  0  0
   53.2960   86.3540   19.9510 N   0  0  0  0  0
   54.5620   86.8010   20.2940 C   0  0  0  0  0
   55.3390   86.3460   21.3260 N   0  0  0  0  0
   54.7260   85.3270   22.0450 C   0  0  0  0  0
   50.6189   80.5922   26.3752 H   0  0  0  0  0
   52.2281   80.2377   28.1879 H   0  0  0  0  0
   53.5859   83.4074   29.3416 H   0  0  0  0  0
   55.8802   82.8530   27.5819 H   0  0  0  0  0
   55.3754   84.5202   28.1110 H   0  0  0  0  0
   57.5187   84.3581   26.8164 H   0  0  0  0  0
   55.2547   86.2158   26.0715 H   0  0  0  0  0
   56.6540   87.7492   26.5652 H   0  0  0  0  0
   56.2582   86.8535   24.0508 H   0  0  0  0  0
   58.3579   86.4207   23.4148 H   0  0  0  0  0
   57.3412   84.5005   23.2528 H   0  0  0  0  0
   54.2876   83.0838   24.2908 H   0  0  0  0  0
   50.9705   84.2093   20.8089 H   0  0  0  0  0
   50.9992   85.3815   19.4874 H   0  0  0  0  0
   54.9828   87.5966   19.6792 H   0  0  0  0  0
  1  2  2  0  0  0
  1  3  1  0  0  0
  1  4  1  0  0  0
  8  1  1  0  0  0
  5  6  2  0  0  0
  5  7  1  0  0  0
  5  8  1  0  0  0
  5  9  1  0  0  0
  9 10  1  0  0  0
 10 11  1  0  0  0
 11 12  1  0  0  0
 11 13  1  0  0  0
 12 17  1  0  0  0
 13 14  1  0  0  0
 13 15  1  0  0  0
 15 16  1  0  0  0
 15 17  1  0  0  0
 17 18  1  0  0  0
 18 19  4  0  0  0
 18 27  4  0  0  0
 19 20  4  0  0  0
 20 21  4  0  0  0
 21 22  4  0  0  0
 21 27  4  0  0  0
 22 23  1  0  0  0
 22 24  4  0  0  0
 24 25  4  0  0  0
 25 26  4  0  0  0
 26 27  4  0  0  0
  3 28  1  0  0  0
  4 29  1  0  0  0
  7 30  1  0  0  0
 10 31  1  0  0  0
 10 32  1  0  0  0
 11 33  1  0  0  0
 13 34  1  0  0  0
 14 35  1  0  0  0
 15 36  1  0  0  0
 16 37  1  0  0  0
 17 38  1  0  0  0
 19 39  1  0  0  0
 23 40  1  0  0  0
 23 41  1  0  0  0
 25 42  1  0  0  0
M  END
$$$$
