1ax1_ligand
  -I-interpret- 

 45 46  0  0  0  0  0  0  0  0999 V2000
   22.2230   -1.4550   37.6430 C   0  0  0  0  0
   21.3570   -2.7070   37.7600 C   0  0  0  0  0
   20.1380   -2.5830   36.8560 C   0  0  0  0  0
   19.3890   -1.2770   37.1580 C   0  0  0  0  0
   20.3620   -0.0970   37.0920 C   0  0  0  0  0
   19.7300    1.2320   37.4530 C   0  0  0  0  0
   23.2830   -1.5370   38.5260 O   0  0  0  0  0
   22.1080   -3.8570   37.3910 O   0  0  0  0  0
   19.2870   -3.6970   37.0700 O   0  0  0  0  0
   18.3510   -1.0730   36.1800 O   0  0  0  0  0
   21.4570   -0.3050   37.9940 O   0  0  0  0  0
   18.8250    1.0920   38.5380 O   0  0  0  0  0
   17.0640   -1.4660   36.5050 C   0  0  0  0  0
   16.0880   -0.8130   35.5200 C   0  0  0  0  0
   14.6730   -1.3640   35.7160 C   0  0  0  0  0
   14.7090   -2.8860   35.5940 C   0  0  0  0  0
   15.6880   -3.4240   36.6310 C   0  0  0  0  0
   15.8030   -4.9310   36.6130 C   0  0  0  0  0
   16.0910    0.5950   35.7020 O   0  0  0  0  0
   13.8010   -0.8210   34.7360 O   0  0  0  0  0
   15.1340   -3.2600   34.2860 O   0  0  0  0  0
   17.0070   -2.8950   36.3840 O   0  0  0  0  0
   16.7230   -5.3740   37.5930 O   0  0  0  0  0
   22.5830   -1.3775   36.6171 H   0  0  0  0  0
   21.0292   -2.8103   38.7944 H   0  0  0  0  0
   20.4562   -2.5648   35.8136 H   0  0  0  0  0
   18.9520   -1.3441   38.1543 H   0  0  0  0  0
   20.6915   -0.0528   36.0539 H   0  0  0  0  0
   19.1809    1.6028   36.5875 H   0  0  0  0  0
   20.5192    1.9247   37.7453 H   0  0  0  0  0
   23.8175   -2.3052   38.3121 H   0  0  0  0  0
   22.8759   -3.9332   37.9621 H   0  0  0  0  0
   19.7666   -4.5062   36.8780 H   0  0  0  0  0
   18.4404    1.9469   38.7448 H   0  0  0  0  0
   16.7973   -1.1650   37.5181 H   0  0  0  0  0
   16.4102   -1.0454   34.5050 H   0  0  0  0  0
   14.3062   -1.0845   36.7036 H   0  0  0  0  0
   13.7149   -3.2992   35.7648 H   0  0  0  0  0
   15.2973   -3.1128   37.5998 H   0  0  0  0  0
   16.1554   -5.2459   35.6308 H   0  0  0  0  0
   14.8249   -5.3617   36.8275 H   0  0  0  0  0
   15.4781    0.9979   35.0826 H   0  0  0  0  0
   12.9169   -1.1717   34.8664 H   0  0  0  0  0
   15.1536   -4.2174   34.2187 H   0  0  0  0  0
   16.7816   -6.3318   37.5655 H   0  0  0  0  0
  1  2  1  0  0  0
  1  7  1  0  0  0
  1 11  1  0  0  0
  2  3  1  0  0  0
  2  8  1  0  0  0
  3  4  1  0  0  0
  3  9  1  0  0  0
  4  5  1  0  0  0
  4 10  1  0  0  0
  5  6  1  0  0  0
  5 11  1  0  0  0
  6 12  1  0  0  0
 10 13  1  0  0  0
 13 14  1  0  0  0
 13 22  1  0  0  0
 14 15  1  0  0  0
 14 19  1  0  0  0
 15 16  1  0  0  0
 15 20  1  0  0  0
 16 17  1  0  0  0
 16 21  1  0  0  0
 17 18  1  0  0  0
 17 22  1  0  0  0
 18 23  1  0  0  0
  1 24  1  0  0  0
  2 25  1  0  0  0
  3 26  1  0  0  0
  4 27  1  0  0  0
  5 28  1  0  0  0
  6 29  1  0  0  0
  6 30  1  0  0  0
  7 31  1  0  0  0
  8 32  1  0  0  0
  9 33  1  0  0  0
 12 34  1  0  0  0
 13 35  1  0  0  0
 14 36  1  0  0  0
 15 37  1  0  0  0
 16 38  1  0  0  0
 17 39  1  0  0  0
 18 40  1  0  0  0
 18 41  1  0  0  0
 19 42  1  0  0  0
 20 43  1  0  0  0
 21 44  1  0  0  0
 23 45  1  0  0  0
M  END
$$$$
