1drk_ligand
  -I-interpret- 

 20 20  0  0  0  0  0  0  0  0999 V2000
   49.7320   33.6320   43.6180 C   0  0  0  0  0
   49.0360   33.0990   44.8940 C   0  0  0  0  0
   48.7010   34.2690   45.8230 C   0  0  0  0  0
   49.9470   35.1320   46.0490 C   0  0  0  0  0
   50.5770   35.5630   44.7470 C   0  0  0  0  0
   50.1480   32.5760   42.7790 O   0  0  0  0  0
   47.8400   32.3830   44.5820 O   0  0  0  0  0
   47.6530   35.0530   45.2730 O   0  0  0  0  0
   49.6110   36.2780   46.7640 O   0  0  0  0  0
   50.8780   34.4250   43.9670 O   0  0  0  0  0
   49.0050   34.2433   43.0834 H   0  0  0  0  0
   49.7228   32.4114   45.3876 H   0  0  0  0  0
   48.3684   33.8713   46.7818 H   0  0  0  0  0
   50.6594   34.5217   46.6042 H   0  0  0  0  0
   51.4947   36.1137   44.9535 H   0  0  0  0  0
   49.8819   36.2020   44.2023 H   0  0  0  0  0
   49.3881   32.0401   42.5403 H   0  0  0  0  0
   48.0503   31.6495   43.9995 H   0  0  0  0  0
   46.8796   34.5009   45.1366 H   0  0  0  0  0
   49.2076   36.0266   47.5981 H   0  0  0  0  0
  1 10  1  0  0  0
  1  6  1  0  0  0
  1  2  1  0  0  0
  2  7  1  0  0  0
  2  3  1  0  0  0
  3  8  1  0  0  0
  3  4  1  0  0  0
  4  9  1  0  0  0
  4  5  1  0  0  0
  5 10  1  0  0  0
  1 11  1  0  0  0
  2 12  1  0  0  0
  3 13  1  0  0  0
  4 14  1  0  0  0
  5 15  1  0  0  0
  5 16  1  0  0  0
  6 17  1  0  0  0
  7 18  1  0  0  0
  8 19  1  0  0  0
  9 20  1  0  0  0
M  END
$$$$
