6h4r_ligand
  -I-interpret- 

 38 40  0  0  0  0  0  0  0  0999 V2000
  -20.5150  -15.4070  -21.2850 C   0  0  0  0  0
  -21.0050  -14.7670  -20.0120 C   0  0  0  0  0
  -22.7430  -14.5400  -16.8990 C   0  0  0  0  0
  -23.8310  -13.3700  -15.2730 C   0  0  0  0  0
  -24.6140  -14.4490  -14.9310 C   0  0  0  0  0
  -24.3940  -15.6470  -15.6000 C   0  0  0  0  0
  -23.4230  -15.7450  -16.6050 C   0  0  0  0  0
  -25.1300  -16.8510  -15.2250 C   0  0  0  0  0
  -20.1390  -14.4780  -24.7890 C   0  0  0  0  0
  -26.0830  -16.8480  -14.4600 O   0  0  0  0  0
  -22.9010  -13.3940  -16.2340 N   0  0  0  0  0
  -24.7490  -17.9710  -15.8560 N   0  0  0  0  0
  -23.7830  -17.9860  -16.7980 C   0  0  0  0  0
  -23.1180  -16.9390  -17.2130 N   0  0  0  0  0
  -21.9570  -14.4280  -18.0700 N   0  0  0  0  0
  -21.7430  -15.3580  -19.0210 C   0  0  0  0  0
  -21.3780  -13.2370  -18.3860 N   0  0  0  0  0
  -20.8130  -13.4530  -19.5570 C   0  0  0  0  0
  -21.0130  -14.7070  -22.5400 C   0  0  0  0  0
  -20.6610  -15.4050  -23.7830 N   0  3  0  0  0
  -19.6700  -16.4560  -23.5510 C   0  0  0  0  0
  -20.8921  -16.4295  -21.3062 H   0  0  0  0  0
  -19.4265  -15.3492  -21.2852 H   0  0  0  0  0
  -23.9779  -12.4382  -14.7269 H   0  0  0  0  0
  -25.3811  -14.3666  -14.1610 H   0  0  0  0  0
  -20.8955  -13.7270  -25.0165 H   0  0  0  0  0
  -19.2450  -13.9893  -24.4017 H   0  0  0  0  0
  -19.8893  -15.0301  -25.6951 H   0  0  0  0  0
  -25.2088  -18.8487  -15.6137 H   0  0  0  0  0
  -23.5373  -18.9474  -17.2491 H   0  0  0  0  0
  -22.0927  -16.3903  -19.0048 H   0  0  0  0  0
  -20.2583  -12.6955  -20.1106 H   0  0  0  0  0
  -20.5433  -13.7240  -22.5735 H   0  0  0  0  0
  -22.1009  -14.6702  -22.4832 H   0  0  0  0  0
  -21.5225  -15.8282  -24.1280 H   0  0  0  0  0
  -19.4824  -16.9889  -24.4832 H   0  0  0  0  0
  -18.7428  -16.0071  -23.1947 H   0  0  0  0  0
  -20.0490  -17.1523  -22.8029 H   0  0  0  0  0
  1  2  1  0  0  0
 19  1  1  0  0  0
  2 16  4  0  0  0
  2 18  4  0  0  0
  3  7  4  0  0  0
  3 11  4  0  0  0
 15  3  1  0  0  0
  4  5  4  0  0  0
 11  4  4  0  0  0
  6  5  4  0  0  0
  7  6  4  0  0  0
  6  8  1  0  0  0
  7 14  1  0  0  0
  8 10  2  0  0  0
  8 12  1  0  0  0
 20  9  1  0  0  0
 13 12  1  0  0  0
 14 13  2  0  0  0
 16 15  4  0  0  0
 17 15  4  0  0  0
 18 17  4  0  0  0
 19 20  1  0  0  0
 20 21  1  0  0  0
  1 22  1  0  0  0
  1 23  1  0  0  0
  4 24  1  0  0  0
  5 25  1  0  0  0
  9 26  1  0  0  0
  9 27  1  0  0  0
  9 28  1  0  0  0
 12 29  1  0  0  0
 13 30  1  0  0  0
 16 31  1  0  0  0
 18 32  1  0  0  0
 19 33  1  0  0  0
 19 34  1  0  0  0
 20 35  1  0  0  0
 21 36  1  0  0  0
 21 37  1  0  0  0
 21 38  1  0  0  0
M  END
$$$$
