5lud_ligand
  -I-interpret- 

 15 15  0  0  0  0  0  0  0  0999 V2000
   -5.7880   22.2860   -8.9390 N   0  0  0  0  0
   -5.1080   21.2420   -8.4520 C   0  0  0  0  0
   -5.6040   19.9220   -8.4180 C   0  0  0  0  0
   -6.8150   19.6680   -8.9360 N   0  0  0  0  0
   -3.8920   21.5040   -7.9300 C   0  0  0  0  0
   -3.1690   20.5070   -7.3600 C   0  0  0  0  0
   -3.6080   19.2250   -7.3820 C   0  0  0  0  0
   -4.8140   18.9100   -7.8980 N   0  0  0  0  0
   -6.7261   22.1524   -9.3165 H   0  0  0  0  0
   -5.3684   23.2157   -8.9328 H   0  0  0  0  0
   -7.3628   20.4241   -9.3467 H   0  0  0  0  0
   -7.1880   18.7188   -8.9192 H   0  0  0  0  0
   -3.4901   22.5166   -7.9660 H   0  0  0  0  0
   -2.2203   20.7410   -6.8769 H   0  0  0  0  0
   -2.9760   18.4352   -6.9760 H   0  0  0  0  0
  1  2  1  0  0  0
  2  3  4  0  0  0
  2  5  4  0  0  0
  3  4  1  0  0  0
  3  8  4  0  0  0
  5  6  4  0  0  0
  6  7  4  0  0  0
  7  8  4  0  0  0
  1  9  1  0  0  0
  1 10  1  0  0  0
  4 11  1  0  0  0
  4 12  1  0  0  0
  5 13  1  0  0  0
  6 14  1  0  0  0
  7 15  1  0  0  0
M  END
$$$$
