### 
### Created by X-TOOL on Mon Sep 10 21:13:25 2018
### 

@<TRIPOS>MOLECULE
4twt_ligand
  176   179     1     0     0
SMALL
GAST_HUCK


@<TRIPOS>ATOM
      1 N          -7.8440   64.4900  235.5540 N.4       1 ALA         0.2377
      2 CA         -9.0550   64.3300  234.6790 C.3       1 ALA         0.0621
      3 C          -9.3480   65.5770  233.8560 C.2       1 ALA         0.2264
      4 O          -9.1840   65.5660  232.6230 O.2       1 ALA        -0.3907
      5 CB        -10.2800   63.9280  235.4980 C.3       1 ALA        -0.0040
      6 N          -9.7490   66.6540  234.5410 N.am      1 CYS        -0.2602
      7 CA         -9.8550   67.9940  233.9370 C.3       1 CYS         0.1399
      8 C          -9.1900   69.0950  234.7510 C.2       1 CYS         0.2072
      9 O          -9.8540   69.7600  235.5410 O.2       1 CYS        -0.3942
     10 CB        -11.2950   68.3550  233.7820 C.3       1 CYS         0.0311
     11 SG        -11.5070   69.8910  232.9020 S.3       1 CYS        -0.1735
     12 N          -7.8830   69.3290  234.5370 N.am      1 PRO        -0.2498
     13 CA         -7.1300   70.2310  235.3850 C.3       1 PRO         0.1340
     14 C          -7.4300   71.6570  235.0920 C.2       1 PRO         0.2066
     15 O          -8.1610   71.9750  234.1410 O.2       1 PRO        -0.3942
     16 CB         -5.6700   69.9610  235.0030 C.3       1 PRO        -0.0104
     17 CG         -5.7060   68.7130  234.2010 C.3       1 PRO        -0.0281
     18 CD         -7.0240   68.7620  233.5020 C.3       1 PRO         0.0369
     19 N          -6.8680   72.5420  235.9010 N.am      1 PRO        -0.2498
     20 CA         -7.1820   73.9240  235.6130 C.3       1 PRO         0.1338
     21 C          -6.4460   74.3570  234.3510 C.2       1 PRO         0.2041
     22 O          -5.3160   73.9050  234.1280 O.2       1 PRO        -0.3944
     23 CB         -6.6760   74.6580  236.8540 C.3       1 PRO        -0.0104
     24 CG         -5.5550   73.8200  237.3610 C.3       1 PRO        -0.0281
     25 CD         -5.9320   72.4000  237.0300 C.3       1 PRO         0.0369
     26 N          -7.1120   75.1640  233.5190 N.am      1 CYS        -0.2629
     27 CA         -6.4910   75.8070  232.3660 C.3       1 CYS         0.1396
     28 C          -7.0930   77.2130  232.1290 C.2       1 CYS         0.2047
     29 O          -8.1660   77.5400  232.6360 O.2       1 CYS        -0.3944
     30 CB         -6.6670   74.9500  231.1180 C.3       1 CYS         0.0311
     31 SG         -8.3910   74.7750  230.5930 S.3       1 CYS        -0.1735
     32 N          -6.4240   78.0010  231.2900 N.am      1 LEU        -0.2637
     33 CA         -6.7790   79.4000  231.0460 C.3       1 LEU         0.1312
     34 C          -8.1820   79.6060  230.4270 C.2       1 LEU         0.2040
     35 O          -8.8060   80.6510  230.6410 O.2       1 LEU        -0.3944
     36 CB         -5.7000   80.0860  230.1850 C.3       1 LEU        -0.0101
     37 CG         -4.2070   79.9120  230.5700 C.3       1 LEU        -0.0425
     38 CD1        -3.3120   80.5490  229.5130 C.3       1 LEU        -0.0625
     39 CD2        -3.8320   80.4570  231.9360 C.3       1 LEU        -0.0625
     40 N          -8.6990   78.6190  229.7010 N.am      1 TRP        -0.2627
     41 CA         -9.9900   78.7790  229.0150 C.3       1 TRP         0.1352
     42 C         -11.2140   78.1850  229.7560 C.2       1 TRP         0.2052
     43 O         -12.3680   78.3810  229.3300 O.2       1 TRP        -0.3942
     44 CB         -9.8970   78.2450  227.5720 C.3       1 TRP         0.0042
     45 CG         -8.6090   78.6000  226.9280 C.2       1 TRP        -0.0418
     46 CD1        -8.2850   79.7890  226.3510 C.2       1 TRP         0.0167
     47 CD2        -7.4290   77.7830  226.8420 C.ar      1 TRP        -0.0214
     48 NE1        -6.9720   79.7670  225.9150 N.pl3     1 TRP        -0.2890
     49 CE2        -6.4320   78.5450  226.2010 C.ar      1 TRP         0.0603
     50 CE3        -7.1190   76.4880  227.2530 C.ar      1 TRP        -0.0747
     51 CZ2        -5.1650   78.0540  225.9560 C.ar      1 TRP        -0.0443
     52 CZ3        -5.8500   75.9950  227.0030 C.ar      1 TRP        -0.0792
     53 CH2        -4.8870   76.7790  226.3620 C.ar      1 TRP        -0.0768
     54 N         -10.9810   77.4940  230.8660 N.am      1 GLN        -0.2635
     55 CA        -12.0410   76.6450  231.4280 C.3       1 GLN         0.1330
     56 C         -13.3470   77.4010  231.7210 C.2       1 GLN         0.2041
     57 O         -14.4440   76.8650  231.6000 O.2       1 GLN        -0.3944
     58 CB        -11.5270   75.9300  232.6650 C.3       1 GLN         0.0045
     59 CG        -11.2350   76.8710  233.8260 C.3       1 GLN         0.0412
     60 CD        -10.1140   76.3980  234.7250 C.2       1 GLN         0.1737
     61 OE1        -9.5520   75.3300  234.5030 O.2       1 GLN        -0.3973
     62 NE2        -9.7530   77.2070  235.7240 N.am      1 GLN        -0.3009
     63 N         -13.2110   78.6630  232.0750 N.am      1 VAL        -0.2635
     64 CA        -14.3600   79.5240  232.3180 C.3       1 VAL         0.1332
     65 C         -15.3890   79.4980  231.1830 C.2       1 VAL         0.2041
     66 O         -16.5630   79.6920  231.4440 O.2       1 VAL        -0.3944
     67 CB        -13.9160   80.9810  232.6610 C.3       1 VAL        -0.0063
     68 CG1       -13.0630   81.6000  231.5550 C.3       1 VAL        -0.0584
     69 CG2       -15.1070   81.8600  232.9410 C.3       1 VAL        -0.0584
     70 N         -14.9660   79.2450  229.9470 N.am      1 LEU        -0.2637
     71 CA        -15.9100   79.2230  228.8140 C.3       1 LEU         0.1312
     72 C         -16.6140   77.9080  228.5760 C.2       1 LEU         0.2039
     73 O         -17.4590   77.8190  227.7000 O.2       1 LEU        -0.3944
     74 CB        -15.1930   79.5740  227.5220 C.3       1 LEU        -0.0101
     75 CG        -14.7930   81.0300  227.4640 C.3       1 LEU        -0.0425
     76 CD1       -13.8050   81.2140  226.3260 C.3       1 LEU        -0.0625
     77 CD2       -16.0250   81.9090  227.2960 C.3       1 LEU        -0.0625
     78 N         -16.2340   76.8690  229.3000 N.am      1 CYS        -0.2629
     79 CA        -16.8770   75.5690  229.1270 C.3       1 CYS         0.1396
     80 C         -17.4800   75.0580  230.4240 C.2       1 CYS         0.2040
     81 O         -17.7490   73.8810  230.5530 O.2       1 CYS        -0.3944
     82 CB        -15.8660   74.5720  228.5600 C.3       1 CYS         0.0311
     83 SG        -14.4560   74.1280  229.6400 S.3       1 CYS        -0.1735
     84 N         -17.6760   75.9490  231.3930 N.am      1 GLY        -0.2722
     85 CA        -18.5440   75.6640  232.5490 C.3       1 GLY         0.0833
     86 C         -17.8930   75.6800  233.9260 C.2       1 GLY         0.0570
     87 O         -18.5840   75.5520  234.9460 O.co2     1 GLY        -0.5669
     88 OXT       -16.6760   75.8130  234.0770 O.co2     1 GLY        -0.5669
     89 H1         -7.6925   63.6414  236.0765 H         1 ALA         0.2015
     90 H2         -7.9897   65.2562  236.1926 H         1 ALA         0.2015
     91 H3         -7.0374   64.6797  234.9800 H         1 ALA         0.2015
     92 H4         -8.8426   63.5129  233.9738 H         1 ALA         0.1095
     93 H5        -11.1476   63.8191  234.8306 H         1 ALA         0.0310
     94 H6        -10.4900   64.7041  236.2487 H         1 ALA         0.0310
     95 H7        -10.0847   62.9713  236.0045 H         1 ALA         0.0310
     96 H8         -9.9875   66.5448  235.5060 H         1 CYS         0.1885
     97 H9         -9.3794   67.9596  232.9457 H         1 CYS         0.0808
     98 H10       -11.7462   68.4525  234.7804 H         1 CYS         0.0422
     99 H11       -11.8042   67.5540  233.2261 H         1 CYS         0.0422
    100 H12       -11.0485   70.6327  233.4077 H         1 CYS         0.1019
    101 H13        -7.3179   70.0177  236.4476 H         1 PRO         0.0802
    102 H14        -5.0539   69.8237  235.9039 H         1 PRO         0.0313
    103 H15        -5.2667   70.7923  234.4061 H         1 PRO         0.0313
    104 H16        -5.6431   67.8290  234.8526 H         1 PRO         0.0287
    105 H17        -4.8802   68.6926  233.4746 H         1 PRO         0.0287
    106 H18        -6.9837   69.4100  232.6141 H         1 PRO         0.0524
    107 H19        -7.3599   67.7568  233.2075 H         1 PRO         0.0524
    108 H20        -8.2638   74.0733  235.4814 H         1 PRO         0.0802
    109 H21        -7.4723   74.7376  237.6087 H         1 PRO         0.0313
    110 H22        -6.3188   75.6644  236.5902 H         1 PRO         0.0313
    111 H23        -5.4432   73.9445  238.4482 H         1 PRO         0.0287
    112 H24        -4.6139   74.0941  236.8618 H         1 PRO         0.0287
    113 H25        -5.0467   71.8177  236.7349 H         1 PRO         0.0524
    114 H26        -6.4216   71.9142  237.8869 H         1 PRO         0.0524
    115 H27        -8.0814   75.3350  233.6952 H         1 CYS         0.1884
    116 H28        -5.4151   75.9168  232.5671 H         1 CYS         0.0808
    117 H29        -6.2636   73.9478  231.3251 H         1 CYS         0.0422
    118 H30        -6.0990   75.4115  230.2968 H         1 CYS         0.0422
    119 H31        -8.4326   74.1992  229.7667 H         1 CYS         0.1019
    120 H32        -5.6397   77.6180  230.8020 H         1 LEU         0.1883
    121 H33        -6.7886   79.9004  232.0255 H         1 LEU         0.0800
    122 H34        -5.9131   81.1650  230.2006 H         1 LEU         0.0315
    123 H35        -5.8150   79.7043  229.1598 H         1 LEU         0.0315
    124 H36        -4.0029   78.8312  230.5844 H         1 LEU         0.0298
    125 H37        -2.2577   80.4184  229.7983 H         1 LEU         0.0232
    126 H38        -3.5410   81.6222  229.4370 H         1 LEU         0.0232
    127 H39        -3.4914   80.0660  228.5411 H         1 LEU         0.0232
    128 H40        -4.4754   80.0001  232.7023 H         1 LEU         0.0232
    129 H41        -3.9689   81.5484  231.9456 H         1 LEU         0.0232
    130 H42        -2.7800   80.2175  232.1502 H         1 LEU         0.0232
    131 H43        -8.2023   77.7548  229.6203 H         1 TRP         0.1884
    132 H44       -10.1710   79.8619  228.9477 H         1 TRP         0.0815
    133 H45       -10.7193   78.6746  226.9810 H         1 TRP         0.0397
    134 H46        -9.9934   77.1494  227.5922 H         1 TRP         0.0397
    135 H47        -8.9617   80.6359  226.2473 H         1 TRP         0.0795
    136 H48        -6.4818   80.5448  225.4507 H         1 TRP         0.2216
    137 H49        -7.8582   75.8779  227.7593 H         1 TRP         0.0540
    138 H50        -4.4160   78.6594  225.4584 H         1 TRP         0.0541
    139 H51        -5.5994   74.9857  227.3090 H         1 TRP         0.0510
    140 H52        -3.9001   76.3677  226.1833 H         1 TRP         0.0530
    141 H53       -10.0901   77.5510  231.3165 H         1 GLN         0.1883
    142 H54       -12.2774   75.8792  230.6746 H         1 GLN         0.0801
    143 H55       -10.5990   75.4009  232.4024 H         1 GLN         0.0337
    144 H56       -12.2855   75.2017  232.9880 H         1 GLN         0.0337
    145 H57       -12.1480   76.9690  234.4317 H         1 GLN         0.0504
    146 H58       -10.9599   77.8538  233.4157 H         1 GLN         0.0504
    147 H59        -9.0168   76.9373  236.3446 H         1 GLN         0.1814
    148 H60       -10.2189   78.0826  235.8515 H         1 GLN         0.1814
    149 H61       -12.2911   79.0408  232.1799 H         1 VAL         0.1883
    150 H62       -14.8674   79.1262  233.2092 H         1 VAL         0.0802
    151 H63       -13.3036   80.9358  233.5736 H         1 VAL         0.0343
    152 H64       -12.7761   82.6224  231.8421 H         1 VAL         0.0234
    153 H65       -13.6411   81.6304  230.6197 H         1 VAL         0.0234
    154 H66       -12.1577   80.9930  231.4070 H         1 VAL         0.0234
    155 H67       -15.7165   81.4087  233.7378 H         1 VAL         0.0234
    156 H68       -15.7124   81.9591  232.0279 H         1 VAL         0.0234
    157 H69       -14.7618   82.8539  233.2618 H         1 VAL         0.0234
    158 H70       -13.9954   79.0675  229.7842 H         1 LEU         0.1883
    159 H71       -16.6771   79.9852  229.0153 H         1 LEU         0.0800
    160 H72       -15.8621   79.3573  226.6762 H         1 LEU         0.0315
    161 H73       -14.2872   78.9551  227.4409 H         1 LEU         0.0315
    162 H74       -14.2985   81.3039  228.4076 H         1 LEU         0.0298
    163 H75       -13.5031   82.2703  226.2698 H         1 LEU         0.0232
    164 H76       -14.2778   80.9169  225.3783 H         1 LEU         0.0232
    165 H77       -12.9183   80.5883  226.5054 H         1 LEU         0.0232
    166 H78       -16.7111   81.7438  228.1398 H         1 LEU         0.0232
    167 H79       -16.5330   81.6523  226.3547 H         1 LEU         0.0232
    168 H80       -15.7209   82.9659  227.2722 H         1 LEU         0.0232
    169 H81       -15.5004   76.9741  229.9715 H         1 CYS         0.1884
    170 H82       -17.6934   75.6849  228.3989 H         1 CYS         0.0808
    171 H83       -15.4549   75.0033  227.6354 H         1 CYS         0.0422
    172 H84       -16.4088   73.6452  228.3225 H         1 CYS         0.0422
    173 H85       -13.8623   73.4688  229.1614 H         1 CYS         0.1019
    174 H86       -17.2210   76.8376  231.3348 H         1 GLY         0.1873
    175 H87       -18.9778   74.6643  232.3992 H         1 GLY         0.0689
    176 H88       -19.3473   76.4155  232.5535 H         1 GLY         0.0689
@<TRIPOS>BOND
     1    1    2 1  
     2    2    3 1  
     3    2    5 1  
     4    3    4 2  
     5    3    6 am 
     6    6    7 1  
     7    7    8 1  
     8    7   10 1  
     9    8    9 2  
    10    8   12 am 
    11   10   11 1  
    12   12   13 1  
    13   12   18 1  
    14   13   14 1  
    15   13   16 1  
    16   14   15 2  
    17   14   19 am 
    18   16   17 1  
    19   17   18 1  
    20   19   20 1  
    21   19   25 1  
    22   20   21 1  
    23   20   23 1  
    24   21   22 2  
    25   21   26 am 
    26   23   24 1  
    27   24   25 1  
    28   26   27 1  
    29   27   28 1  
    30   27   30 1  
    31   28   29 2  
    32   28   32 am 
    33   30   31 1  
    34   32   33 1  
    35   33   34 1  
    36   33   36 1  
    37   34   35 2  
    38   34   40 am 
    39   36   37 1  
    40   37   38 1  
    41   37   39 1  
    42   40   41 1  
    43   41   42 1  
    44   41   44 1  
    45   42   43 2  
    46   42   54 am 
    47   44   45 1  
    48   45   46 2  
    49   45   47 1  
    50   46   48 1  
    51   47   49 ar 
    52   47   50 ar 
    53   48   49 1  
    54   49   51 ar 
    55   50   52 ar 
    56   51   53 ar 
    57   52   53 ar 
    58   54   55 1  
    59   55   56 1  
    60   55   58 1  
    61   56   57 2  
    62   56   63 am 
    63   58   59 1  
    64   59   60 1  
    65   60   61 2  
    66   60   62 am 
    67   63   64 1  
    68   64   65 1  
    69   64   67 1  
    70   65   66 2  
    71   65   70 am 
    72   67   68 1  
    73   67   69 1  
    74   70   71 1  
    75   71   72 1  
    76   71   74 1  
    77   72   73 2  
    78   72   78 am 
    79   74   75 1  
    80   75   76 1  
    81   75   77 1  
    82   78   79 1  
    83   79   80 1  
    84   79   82 1  
    85   80   81 2  
    86   80   84 am 
    87   82   83 1  
    88   84   85 1  
    89   85   86 1  
    90   86   87 ar 
    91   86   88 ar 
    92    1   89 1  
    93    1   90 1  
    94    1   91 1  
    95    2   92 1  
    96    5   93 1  
    97    5   94 1  
    98    5   95 1  
    99    6   96 1  
   100    7   97 1  
   101   10   98 1  
   102   10   99 1  
   103   11  100 1  
   104   13  101 1  
   105   16  102 1  
   106   16  103 1  
   107   17  104 1  
   108   17  105 1  
   109   18  106 1  
   110   18  107 1  
   111   20  108 1  
   112   23  109 1  
   113   23  110 1  
   114   24  111 1  
   115   24  112 1  
   116   25  113 1  
   117   25  114 1  
   118   26  115 1  
   119   27  116 1  
   120   30  117 1  
   121   30  118 1  
   122   31  119 1  
   123   32  120 1  
   124   33  121 1  
   125   36  122 1  
   126   36  123 1  
   127   37  124 1  
   128   38  125 1  
   129   38  126 1  
   130   38  127 1  
   131   39  128 1  
   132   39  129 1  
   133   39  130 1  
   134   40  131 1  
   135   41  132 1  
   136   44  133 1  
   137   44  134 1  
   138   46  135 1  
   139   48  136 1  
   140   50  137 1  
   141   51  138 1  
   142   52  139 1  
   143   53  140 1  
   144   54  141 1  
   145   55  142 1  
   146   58  143 1  
   147   58  144 1  
   148   59  145 1  
   149   59  146 1  
   150   62  147 1  
   151   62  148 1  
   152   63  149 1  
   153   64  150 1  
   154   67  151 1  
   155   68  152 1  
   156   68  153 1  
   157   68  154 1  
   158   69  155 1  
   159   69  156 1  
   160   69  157 1  
   161   70  158 1  
   162   71  159 1  
   163   74  160 1  
   164   74  161 1  
   165   75  162 1  
   166   76  163 1  
   167   76  164 1  
   168   76  165 1  
   169   77  166 1  
   170   77  167 1  
   171   77  168 1  
   172   78  169 1  
   173   79  170 1  
   174   82  171 1  
   175   82  172 1  
   176   83  173 1  
   177   84  174 1  
   178   85  175 1  
   179   85  176 1  
@<TRIPOS>SUBSTRUCTURE
     1 ALA         1

