4twt_ligand
  -I-interpret- 

176179  0  0  0  0  0  0  0  0999 V2000
   -7.8440   64.4900  235.5540 N   0  3  0  0  0
   -9.0550   64.3300  234.6790 C   0  0  0  0  0
   -9.3480   65.5770  233.8560 C   0  0  0  0  0
   -9.1840   65.5660  232.6230 O   0  0  0  0  0
  -10.2800   63.9280  235.4980 C   0  0  0  0  0
   -9.7490   66.6540  234.5410 N   0  0  0  0  0
   -9.8550   67.9940  233.9370 C   0  0  0  0  0
   -9.1900   69.0950  234.7510 C   0  0  0  0  0
   -9.8540   69.7600  235.5410 O   0  0  0  0  0
  -11.2950   68.3550  233.7820 C   0  0  0  0  0
  -11.5070   69.8910  232.9020 S   0  0  0  0  0
   -7.8830   69.3290  234.5370 N   0  0  0  0  0
   -7.1300   70.2310  235.3850 C   0  0  0  0  0
   -7.4300   71.6570  235.0920 C   0  0  0  0  0
   -8.1610   71.9750  234.1410 O   0  0  0  0  0
   -5.6700   69.9610  235.0030 C   0  0  0  0  0
   -5.7060   68.7130  234.2010 C   0  0  0  0  0
   -7.0240   68.7620  233.5020 C   0  0  0  0  0
   -6.8680   72.5420  235.9010 N   0  0  0  0  0
   -7.1820   73.9240  235.6130 C   0  0  0  0  0
   -6.4460   74.3570  234.3510 C   0  0  0  0  0
   -5.3160   73.9050  234.1280 O   0  0  0  0  0
   -6.6760   74.6580  236.8540 C   0  0  0  0  0
   -5.5550   73.8200  237.3610 C   0  0  0  0  0
   -5.9320   72.4000  237.0300 C   0  0  0  0  0
   -7.1120   75.1640  233.5190 N   0  0  0  0  0
   -6.4910   75.8070  232.3660 C   0  0  0  0  0
   -7.0930   77.2130  232.1290 C   0  0  0  0  0
   -8.1660   77.5400  232.6360 O   0  0  0  0  0
   -6.6670   74.9500  231.1180 C   0  0  0  0  0
   -8.3910   74.7750  230.5930 S   0  0  0  0  0
   -6.4240   78.0010  231.2900 N   0  0  0  0  0
   -6.7790   79.4000  231.0460 C   0  0  0  0  0
   -8.1820   79.6060  230.4270 C   0  0  0  0  0
   -8.8060   80.6510  230.6410 O   0  0  0  0  0
   -5.7000   80.0860  230.1850 C   0  0  0  0  0
   -4.2070   79.9120  230.5700 C   0  0  0  0  0
   -3.3120   80.5490  229.5130 C   0  0  0  0  0
   -3.8320   80.4570  231.9360 C   0  0  0  0  0
   -8.6990   78.6190  229.7010 N   0  0  0  0  0
   -9.9900   78.7790  229.0150 C   0  0  0  0  0
  -11.2140   78.1850  229.7560 C   0  0  0  0  0
  -12.3680   78.3810  229.3300 O   0  0  0  0  0
   -9.8970   78.2450  227.5720 C   0  0  0  0  0
   -8.6090   78.6000  226.9280 C   0  0  0  0  0
   -8.2850   79.7890  226.3510 C   0  0  0  0  0
   -7.4290   77.7830  226.8420 C   0  0  0  0  0
   -6.9720   79.7670  225.9150 N   0  0  0  0  0
   -6.4320   78.5450  226.2010 C   0  0  0  0  0
   -7.1190   76.4880  227.2530 C   0  0  0  0  0
   -5.1650   78.0540  225.9560 C   0  0  0  0  0
   -5.8500   75.9950  227.0030 C   0  0  0  0  0
   -4.8870   76.7790  226.3620 C   0  0  0  0  0
  -10.9810   77.4940  230.8660 N   0  0  0  0  0
  -12.0410   76.6450  231.4280 C   0  0  0  0  0
  -13.3470   77.4010  231.7210 C   0  0  0  0  0
  -14.4440   76.8650  231.6000 O   0  0  0  0  0
  -11.5270   75.9300  232.6650 C   0  0  0  0  0
  -11.2350   76.8710  233.8260 C   0  0  0  0  0
  -10.1140   76.3980  234.7250 C   0  0  0  0  0
   -9.5520   75.3300  234.5030 O   0  0  0  0  0
   -9.7530   77.2070  235.7240 N   0  0  0  0  0
  -13.2110   78.6630  232.0750 N   0  0  0  0  0
  -14.3600   79.5240  232.3180 C   0  0  0  0  0
  -15.3890   79.4980  231.1830 C   0  0  0  0  0
  -16.5630   79.6920  231.4440 O   0  0  0  0  0
  -13.9160   80.9810  232.6610 C   0  0  0  0  0
  -13.0630   81.6000  231.5550 C   0  0  0  0  0
  -15.1070   81.8600  232.9410 C   0  0  0  0  0
  -14.9660   79.2450  229.9470 N   0  0  0  0  0
  -15.9100   79.2230  228.8140 C   0  0  0  0  0
  -16.6140   77.9080  228.5760 C   0  0  0  0  0
  -17.4590   77.8190  227.7000 O   0  0  0  0  0
  -15.1930   79.5740  227.5220 C   0  0  0  0  0
  -14.7930   81.0300  227.4640 C   0  0  0  0  0
  -13.8050   81.2140  226.3260 C   0  0  0  0  0
  -16.0250   81.9090  227.2960 C   0  0  0  0  0
  -16.2340   76.8690  229.3000 N   0  0  0  0  0
  -16.8770   75.5690  229.1270 C   0  0  0  0  0
  -17.4800   75.0580  230.4240 C   0  0  0  0  0
  -17.7490   73.8810  230.5530 O   0  0  0  0  0
  -15.8660   74.5720  228.5600 C   0  0  0  0  0
  -14.4560   74.1280  229.6400 S   0  0  0  0  0
  -17.6760   75.9490  231.3930 N   0  0  0  0  0
  -18.5440   75.6640  232.5490 C   0  0  0  0  0
  -17.8930   75.6800  233.9260 C   0  0  0  0  0
  -18.5840   75.5520  234.9460 O   0  0  0  0  0
  -16.6760   75.8130  234.0770 O   0  0  0  0  0
   -7.0444   64.7579  234.9802 H   0  0  0  0  0
   -8.0222   65.2139  236.2501 H   0  0  0  0  0
   -7.6462   63.6064  236.0236 H   0  0  0  0  0
   -8.8265   63.5270  233.9782 H   0  0  0  0  0
  -10.5483   64.7420  236.1715 H   0  0  0  0  0
  -11.1129   63.7213  234.8260 H   0  0  0  0  0
  -10.0499   63.0349  236.0790 H   0  0  0  0  0
   -9.9922   66.5426  235.5253 H   0  0  0  0  0
   -9.3363   67.9305  232.9804 H   0  0  0  0  0
  -11.7268   68.4692  234.7763 H   0  0  0  0  0
  -11.7851   67.5653  233.2125 H   0  0  0  0  0
  -12.8045   70.1625  232.7934 H   0  0  0  0  0
   -7.3653   70.0671  236.4366 H   0  0  0  0  0
   -5.0353   69.8569  235.8830 H   0  0  0  0  0
   -5.2402   70.7898  234.4405 H   0  0  0  0  0
   -5.6035   67.8230  234.8219 H   0  0  0  0  0
   -4.8725   68.6505  233.5014 H   0  0  0  0  0
   -7.0076   69.3453  232.5814 H   0  0  0  0  0
   -7.3613   67.7910  233.1393 H   0  0  0  0  0
   -8.2378   74.1196  235.4256 H   0  0  0  0  0
   -7.4605   74.7810  237.6007 H   0  0  0  0  0
   -6.3514   75.6722  236.6213 H   0  0  0  0  0
   -5.4088   73.9548  238.4327 H   0  0  0  0  0
   -4.6076   74.0993  236.9001 H   0  0  0  0  0
   -5.0662   71.7876  236.7782 H   0  0  0  0  0
   -6.3782   71.8796  237.8775 H   0  0  0  0  0
   -8.1008   75.3384  233.6987 H   0  0  0  0  0
   -5.4265   75.9153  232.5739 H   0  0  0  0  0
   -6.2946   73.9527  231.3521 H   0  0  0  0  0
   -6.1274   75.4398  230.3074 H   0  0  0  0  0
   -8.4458   74.0152  229.5028 H   0  0  0  0  0
   -5.6240   77.6103  230.7923 H   0  0  0  0  0
   -6.8234   79.8687  232.0291 H   0  0  0  0  0
   -5.8942   81.1534  230.2896 H   0  0  0  0  0
   -5.7916   79.6259  229.2011 H   0  0  0  0  0
   -4.0518   78.8343  230.6203 H   0  0  0  0  0
   -3.4907   80.0696  228.5506 H   0  0  0  0  0
   -3.5399   81.6123  229.4386 H   0  0  0  0  0
   -2.2676   80.4190  229.7968 H   0  0  0  0  0
   -4.0424   81.5260  231.9695 H   0  0  0  0  0
   -4.4154   79.9464  232.7022 H   0  0  0  0  0
   -2.7699   80.2887  232.1139 H   0  0  0  0  0
   -8.1924   77.7375  229.6187 H   0  0  0  0  0
  -10.1795   79.8523  229.0040 H   0  0  0  0  0
  -10.7028   78.6934  226.9908 H   0  0  0  0  0
   -9.9720   77.1581  227.6061 H   0  0  0  0  0
   -8.9623   80.6367  226.2472 H   0  0  0  0  0
   -7.8623   75.8745  227.7621 H   0  0  0  0  0
   -4.4119   78.6628  225.4556 H   0  0  0  0  0
   -5.5981   74.9801  227.3107 H   0  0  0  0  0
   -3.8946   76.3655  226.1823 H   0  0  0  0  0
  -10.0722   77.5521  231.3255 H   0  0  0  0  0
  -12.2986   75.9112  230.6643 H   0  0  0  0  0
  -10.5923   75.4375  232.3967 H   0  0  0  0  0
  -12.3017   75.2356  232.9902 H   0  0  0  0  0
  -12.1380   76.9287  234.4338 H   0  0  0  0  0
  -10.9307   77.8277  233.4015 H   0  0  0  0  0
   -8.9821   76.9457  236.3387 H   0  0  0  0  0
  -10.2482   78.0863  235.8725 H   0  0  0  0  0
  -12.2727   79.0484  232.1820 H   0  0  0  0  0
  -14.8691   79.1123  233.1895 H   0  0  0  0  0
  -13.3031   80.9152  233.5600 H   0  0  0  0  0
  -12.1663   80.9976  231.4093 H   0  0  0  0  0
  -13.6369   81.6295  230.6288 H   0  0  0  0  0
  -12.7793   82.6130  231.8406 H   0  0  0  0  0
  -15.7502   81.8891  232.0615 H   0  0  0  0  0
  -15.6638   81.4566  233.7868 H   0  0  0  0  0
  -14.7656   82.8680  233.1766 H   0  0  0  0  0
  -13.9760   79.0639  229.7810 H   0  0  0  0  0
  -16.6671   79.9549  229.0954 H   0  0  0  0  0
  -15.8739   79.3776  226.6938 H   0  0  0  0  0
  -14.2861   78.9721  227.4648 H   0  0  0  0  0
  -14.3133   81.3306  228.3955 H   0  0  0  0  0
  -12.9269   80.5935  226.5050 H   0  0  0  0  0
  -14.2746   80.9192  225.3876 H   0  0  0  0  0
  -13.5066   82.2609  226.2713 H   0  0  0  0  0
  -16.5366   81.6423  226.3712 H   0  0  0  0  0
  -16.6964   81.7567  228.1411 H   0  0  0  0  0
  -15.7208   82.9549  227.2559 H   0  0  0  0  0
  -15.4858   76.9762  229.9849 H   0  0  0  0  0
  -17.7013   75.6842  228.4232 H   0  0  0  0  0
  -15.4327   75.0502  227.6815 H   0  0  0  0  0
  -16.4180   73.6474  228.3912 H   0  0  0  0  0
  -13.6726   73.2583  229.0085 H   0  0  0  0  0
  -17.2119   76.8554  231.3337 H   0  0  0  0  0
  -18.9067   74.6464  232.4040 H   0  0  0  0  0
  -19.2892   76.4593  232.5638 H   0  0  0  0  0
  -19.5062   75.4576  234.6966 H   0  0  0  0  0
  1  2  1  0  0  0
  2  3  1  0  0  0
  2  5  1  0  0  0
  3  4  2  0  0  0
  3  6  1  0  0  0
  6  7  1  0  0  0
  7  8  1  0  0  0
  7 10  1  0  0  0
  8  9  2  0  0  0
  8 12  1  0  0  0
 10 11  1  0  0  0
 12 13  1  0  0  0
 12 18  1  0  0  0
 13 14  1  0  0  0
 13 16  1  0  0  0
 14 15  2  0  0  0
 14 19  1  0  0  0
 16 17  1  0  0  0
 17 18  1  0  0  0
 19 20  1  0  0  0
 19 25  1  0  0  0
 20 21  1  0  0  0
 20 23  1  0  0  0
 21 22  2  0  0  0
 21 26  1  0  0  0
 23 24  1  0  0  0
 24 25  1  0  0  0
 26 27  1  0  0  0
 27 28  1  0  0  0
 27 30  1  0  0  0
 28 29  2  0  0  0
 28 32  1  0  0  0
 30 31  1  0  0  0
 32 33  1  0  0  0
 33 34  1  0  0  0
 33 36  1  0  0  0
 34 35  2  0  0  0
 34 40  1  0  0  0
 36 37  1  0  0  0
 37 38  1  0  0  0
 37 39  1  0  0  0
 40 41  1  0  0  0
 41 42  1  0  0  0
 41 44  1  0  0  0
 42 43  2  0  0  0
 42 54  1  0  0  0
 44 45  1  0  0  0
 45 46  4  0  0  0
 45 47  4  0  0  0
 46 48  4  0  0  0
 47 49  4  0  0  0
 47 50  4  0  0  0
 48 49  4  0  0  0
 49 51  4  0  0  0
 50 52  4  0  0  0
 51 53  4  0  0  0
 52 53  4  0  0  0
 54 55  1  0  0  0
 55 56  1  0  0  0
 55 58  1  0  0  0
 56 57  2  0  0  0
 56 63  1  0  0  0
 58 59  1  0  0  0
 59 60  1  0  0  0
 60 61  2  0  0  0
 60 62  1  0  0  0
 63 64  1  0  0  0
 64 65  1  0  0  0
 64 67  1  0  0  0
 65 66  2  0  0  0
 65 70  1  0  0  0
 67 68  1  0  0  0
 67 69  1  0  0  0
 70 71  1  0  0  0
 71 72  1  0  0  0
 71 74  1  0  0  0
 72 73  2  0  0  0
 72 78  1  0  0  0
 74 75  1  0  0  0
 75 76  1  0  0  0
 75 77  1  0  0  0
 78 79  1  0  0  0
 79 80  1  0  0  0
 79 82  1  0  0  0
 80 81  2  0  0  0
 80 84  1  0  0  0
 82 83  1  0  0  0
 84 85  1  0  0  0
 85 86  1  0  0  0
 86 87  1  0  0  0
 86 88  2  0  0  0
  1 89  1  0  0  0
  1 90  1  0  0  0
  1 91  1  0  0  0
  2 92  1  0  0  0
  5 93  1  0  0  0
  5 94  1  0  0  0
  5 95  1  0  0  0
  6 96  1  0  0  0
  7 97  1  0  0  0
 10 98  1  0  0  0
 10 99  1  0  0  0
 11100  1  0  0  0
 13101  1  0  0  0
 16102  1  0  0  0
 16103  1  0  0  0
 17104  1  0  0  0
 17105  1  0  0  0
 18106  1  0  0  0
 18107  1  0  0  0
 20108  1  0  0  0
 23109  1  0  0  0
 23110  1  0  0  0
 24111  1  0  0  0
 24112  1  0  0  0
 25113  1  0  0  0
 25114  1  0  0  0
 26115  1  0  0  0
 27116  1  0  0  0
 30117  1  0  0  0
 30118  1  0  0  0
 31119  1  0  0  0
 32120  1  0  0  0
 33121  1  0  0  0
 36122  1  0  0  0
 36123  1  0  0  0
 37124  1  0  0  0
 38125  1  0  0  0
 38126  1  0  0  0
 38127  1  0  0  0
 39128  1  0  0  0
 39129  1  0  0  0
 39130  1  0  0  0
 40131  1  0  0  0
 41132  1  0  0  0
 44133  1  0  0  0
 44134  1  0  0  0
 46135  1  0  0  0
 50136  1  0  0  0
 51137  1  0  0  0
 52138  1  0  0  0
 53139  1  0  0  0
 54140  1  0  0  0
 55141  1  0  0  0
 58142  1  0  0  0
 58143  1  0  0  0
 59144  1  0  0  0
 59145  1  0  0  0
 62146  1  0  0  0
 62147  1  0  0  0
 63148  1  0  0  0
 64149  1  0  0  0
 67150  1  0  0  0
 68151  1  0  0  0
 68152  1  0  0  0
 68153  1  0  0  0
 69154  1  0  0  0
 69155  1  0  0  0
 69156  1  0  0  0
 70157  1  0  0  0
 71158  1  0  0  0
 74159  1  0  0  0
 74160  1  0  0  0
 75161  1  0  0  0
 76162  1  0  0  0
 76163  1  0  0  0
 76164  1  0  0  0
 77165  1  0  0  0
 77166  1  0  0  0
 77167  1  0  0  0
 78168  1  0  0  0
 79169  1  0  0  0
 82170  1  0  0  0
 82171  1  0  0  0
 83172  1  0  0  0
 84173  1  0  0  0
 85174  1  0  0  0
 85175  1  0  0  0
 87176  1  0  0  0
M  END
$$$$
