6quv_ligand
  -I-interpret- 

 52 56  0  0  0  0  0  0  0  0999 V2000
   -5.1410  -16.5550   23.6760 C   0  0  0  0  0
   -5.1530  -16.7280   25.0590 C   0  0  0  0  0
   -6.1890  -17.4220   25.6820 C   0  0  0  0  0
   -4.8860  -16.2790   27.3040 C   0  0  0  0  0
   -6.7580  -14.7390   27.9670 C   0  0  0  0  0
   -7.1840  -17.2080   28.0210 C   0  0  0  0  0
   -9.0230  -18.0830   29.3180 C   0  0  0  0  0
   -8.6480  -15.7120   29.2530 C   0  0  0  0  0
   -4.3310  -16.5630   29.9140 C   0  0  0  0  0
   -3.2990  -16.6690   31.0300 C   0  0  0  0  0
   -2.9820  -17.8540   28.4290 C   0  0  0  0  0
   -1.3220  -17.8820   31.8920 C   0  0  0  0  0
   -6.1520  -17.1450   22.9260 C   0  0  0  0  0
   -7.1760  -17.8550   23.5460 C   0  0  0  0  0
   -7.1760  -18.0310   24.9210 C   0  0  0  0  0
   -4.2450  -16.2490   25.9900 N   0  0  0  0  0
   -5.9400  -17.4240   27.1800 C   0  0  0  0  0
   -5.5110  -14.9760   27.5210 N   0  0  0  0  0
   -7.5350  -15.9080   28.4260 C   0  0  0  0  0
   -7.9220  -18.2870   28.5010 C   0  0  0  0  0
   -9.3920  -16.8010   29.6840 C   0  0  0  0  0
   -7.2240  -13.6030   27.9870 O   0  0  0  0  0
   -3.7530  -16.5180   28.4850 C   0  0  0  0  0
   -2.4260  -17.8880   30.8890 N   0  3  0  0  0
   -1.8910  -18.0070   29.4890 C   0  0  0  0  0
   -2.7630  -15.3490   28.3790 C   0  0  0  0  0
   -4.3573  -15.9708   23.1938 H   0  0  0  0  0
   -9.6005  -18.9363   29.6736 H   0  0  0  0  0
   -8.9298  -14.7042   29.5580 H   0  0  0  0  0
   -4.8605  -15.6226   30.0665 H   0  0  0  0  0
   -4.9483  -17.4594   29.9732 H   0  0  0  0  0
   -3.8327  -16.7436   31.9775 H   0  0  0  0  0
   -2.6590  -15.7880   30.9829 H   0  0  0  0  0
   -2.4888  -17.8952   27.4579 H   0  0  0  0  0
   -3.7086  -18.6472   28.6049 H   0  0  0  0  0
   -0.7060  -16.9945   31.7470 H   0  0  0  0  0
   -1.7454  -17.8719   32.8964 H   0  0  0  0  0
   -0.7108  -18.7752   31.7630 H   0  0  0  0  0
   -6.1426  -17.0505   21.8401 H   0  0  0  0  0
   -7.9833  -18.2755   22.9464 H   0  0  0  0  0
   -7.9427  -18.6409   25.3987 H   0  0  0  0  0
   -3.2960  -15.9312   25.7932 H   0  0  0  0  0
   -5.6015  -18.3853   27.5665 H   0  0  0  0  0
   -4.9398  -14.1573   27.3116 H   0  0  0  0  0
   -7.6309  -19.3023   28.2315 H   0  0  0  0  0
  -10.2691  -16.6460   30.3123 H   0  0  0  0  0
   -3.0030  -18.7086   31.0735 H   0  0  0  0  0
   -1.1628  -17.2100   29.3389 H   0  0  0  0  0
   -1.4535  -18.9994   29.3799 H   0  0  0  0  0
   -3.2815  -14.4148   28.5947 H   0  0  0  0  0
   -1.9556  -15.4921   29.0971 H   0  0  0  0  0
   -2.3517  -15.3132   27.3702 H   0  0  0  0  0
  2  1  4  0  0  0
  1 13  4  0  0  0
  3  2  4  0  0  0
 16  2  1  0  0  0
  3 15  4  0  0  0
 17  3  1  0  0  0
  4 16  1  0  0  0
  4 17  1  0  0  0
  4 18  1  0  0  0
 23  4  1  0  0  0
 18  5  1  0  0  0
  5 19  1  0  0  0
  5 22  2  0  0  0
 17  6  1  0  0  0
  6 19  4  0  0  0
  6 20  4  0  0  0
 20  7  4  0  0  0
  7 21  4  0  0  0
 19  8  4  0  0  0
  8 21  4  0  0  0
  9 10  1  0  0  0
  9 23  1  0  0  0
 10 24  1  0  0  0
 23 11  1  0  0  0
 11 25  1  0  0  0
 24 12  1  0  0  0
 13 14  4  0  0  0
 14 15  4  0  0  0
 23 26  1  0  0  0
 24 25  1  0  0  0
  1 27  1  0  0  0
  7 28  1  0  0  0
  8 29  1  0  0  0
  9 30  1  0  0  0
  9 31  1  0  0  0
 10 32  1  0  0  0
 10 33  1  0  0  0
 11 34  1  0  0  0
 11 35  1  0  0  0
 12 36  1  0  0  0
 12 37  1  0  0  0
 12 38  1  0  0  0
 13 39  1  0  0  0
 14 40  1  0  0  0
 15 41  1  0  0  0
 16 42  1  0  0  0
 17 43  1  0  0  0
 18 44  1  0  0  0
 20 45  1  0  0  0
 21 46  1  0  0  0
 24 47  1  0  0  0
 25 48  1  0  0  0
 25 49  1  0  0  0
 26 50  1  0  0  0
 26 51  1  0  0  0
 26 52  1  0  0  0
M  END
$$$$
