4wbg_ligand
  -I-interpret- 

 47 47  0  0  0  0  0  0  0  0999 V2000
   15.5950   -7.6930   20.9690 C   0  0  0  0  0
   23.0840  -10.4430   17.6920 S   0  0  0  0  0
   19.0270   -5.4280   19.1620 O   0  0  0  0  0
   18.1730   -9.9280   18.4110 O   0  0  0  0  0
   18.5240  -10.3470   21.9480 O   0  0  0  0  0
   16.1700   -5.4010   20.1400 N   0  0  0  0  0
   18.5270   -8.1270   19.7280 N   0  0  0  0  0
   19.5700  -10.5190   21.2420 N   0  0  0  0  0
   22.0860  -11.0860   20.0220 N   0  0  0  0  0
   24.3070  -11.8390   19.6690 N   0  0  0  0  0
   16.0450   -4.3510   21.2830 S   0  0  0  0  0
   16.6930   -6.7300   20.5040 C   0  0  0  0  0
   17.4760   -7.2240   19.2840 C   0  0  0  0  0
   17.9800   -5.9390   18.7480 C   0  0  0  0  0
   18.7560   -9.3770   19.3160 C   0  0  0  0  0
   19.7710  -10.1330   20.0390 C   0  0  0  0  0
   18.4040  -10.8680   23.3020 C   0  0  0  0  0
   21.0810  -10.4080   19.3960 C   0  0  0  0  0
   21.4580   -9.9710   18.1270 C   0  0  0  0  0
   23.1860  -11.1940   19.2480 C   0  0  0  0  0
   19.4640  -10.2400   24.2240 C   0  0  0  0  0
   17.0050  -10.5120   23.8310 C   0  0  0  0  0
   18.5380  -12.3960   23.2580 C   0  0  0  0  0
   17.5850  -13.0600   22.7750 O   0  0  0  0  0
   19.5780  -12.9680   23.6850 O   0  0  0  0  0
   15.1690   -3.2970   20.8760 O   0  0  0  0  0
   15.4300   -5.0990   22.6070 O   0  0  0  0  0
   17.3550   -3.8450   21.6450 O   0  0  0  0  0
   14.8771   -7.8403   20.1621 H   0  0  0  0  0
   16.0426   -8.6498   21.2380 H   0  0  0  0  0
   15.0872   -7.2714   21.8364 H   0  0  0  0  0
   15.9017   -5.1788   19.1813 H   0  0  0  0  0
   19.1636   -7.7629   20.4370 H   0  0  0  0  0
   25.1240  -11.8916   19.0606 H   0  0  0  0  0
   24.3307  -12.2701   20.5931 H   0  0  0  0  0
   17.3497   -6.6724   21.3721 H   0  0  0  0  0
   16.9217   -7.7967   18.5404 H   0  0  0  0  0
   17.4132   -5.4303   17.9682 H   0  0  0  0  0
   20.8051   -9.3936   17.4724 H   0  0  0  0  0
   19.3392   -9.1572   24.2343 H   0  0  0  0  0
   19.3423  -10.6307   25.2343 H   0  0  0  0  0
   20.4587  -10.4888   23.8542 H   0  0  0  0  0
   16.8903  -10.9019   24.8424 H   0  0  0  0  0
   16.8872   -9.4284   23.8424 H   0  0  0  0  0
   16.2492  -10.9541   23.1819 H   0  0  0  0  0
   20.1925  -12.3081   24.0143 H   0  0  0  0  0
   16.0208   -5.8058   22.8772 H   0  0  0  0  0
 12  1  1  0  0  0
  2 19  4  0  0  0
 20  2  4  0  0  0
 14  3  2  0  0  0
 15  4  2  0  0  0
  8  5  1  0  0  0
  5 17  1  0  0  0
  6 11  1  0  0  0
 12  6  1  0  0  0
  7 13  1  0  0  0
 15  7  1  0  0  0
 16  8  2  0  0  0
 18  9  4  0  0  0
  9 20  4  0  0  0
 20 10  1  0  0  0
 11 26  2  0  0  0
 11 27  1  0  0  0
 11 28  2  0  0  0
 13 12  1  0  0  0
 13 14  1  0  0  0
 16 15  1  0  0  0
 16 18  1  0  0  0
 17 21  1  0  0  0
 17 22  1  0  0  0
 17 23  1  0  0  0
 18 19  4  0  0  0
 23 24  2  0  0  0
 23 25  1  0  0  0
  1 29  1  0  0  0
  1 30  1  0  0  0
  1 31  1  0  0  0
  6 32  1  0  0  0
  7 33  1  0  0  0
 10 34  1  0  0  0
 10 35  1  0  0  0
 12 36  1  0  0  0
 13 37  1  0  0  0
 14 38  1  0  0  0
 19 39  1  0  0  0
 21 40  1  0  0  0
 21 41  1  0  0  0
 21 42  1  0  0  0
 22 43  1  0  0  0
 22 44  1  0  0  0
 22 45  1  0  0  0
 25 46  1  0  0  0
 27 47  1  0  0  0
M  END
$$$$
