6aaq_ligand
  -I-interpret- 

 50 51  0  0  0  0  0  0  0  0999 V2000
   28.1600   47.7640   11.6920 C   0  0  0  0  0
   28.3670   50.1050   12.9180 C   0  0  0  0  0
   28.7430   51.6340   10.3830 C   0  0  0  0  0
   29.5950   49.6090   10.2060 C   0  0  0  0  0
   28.3370   48.8360   10.5860 C   0  0  0  0  0
   21.7200   50.1480   17.8160 C   0  0  0  0  0
   23.0350   49.3480   17.8100 C   0  0  0  0  0
   22.8690   47.8410   17.5040 C   0  0  0  0  0
   22.8800   47.5000   15.9980 C   0  0  0  0  0
   24.1920   46.8420   15.5920 C   0  0  0  0  0
   24.7890   47.4640   14.3270 C   0  0  0  0  0
   27.1290   46.6020   14.3630 C   0  0  0  0  0
   29.0030   47.3540   12.8990 C   0  0  0  0  0
   27.6210   49.2020   11.8970 C   0  0  0  0  0
   28.0360   51.6010   12.7760 C   0  0  0  0  0
   28.3790   51.8750   11.4800 C   0  0  0  0  0
   29.2240   50.8580    9.3740 C   0  0  0  0  0
   23.6630   49.5730   19.0890 N   0  3  0  0  0
   26.2130   47.7020   14.4340 N   0  0  0  0  0
   21.6740   51.3300   18.5070 O   0  0  0  0  0
   20.6200   49.7080   17.1310 O   0  0  0  0  0
   26.6150   45.5190   14.5530 O   0  0  0  0  0
   28.5370   46.7180   14.1000 O   0  0  0  0  0
   27.9132   46.7148   11.5299 H   0  0  0  0  0
   29.4355   49.9885   12.7370 H   0  0  0  0  0
   28.0562   49.7952   13.9158 H   0  0  0  0  0
   30.2436   48.9649    9.6123 H   0  0  0  0  0
   30.1074   49.9251   11.1147 H   0  0  0  0  0
   28.1374   48.7924    9.5153 H   0  0  0  0  0
   23.6587   49.7019   16.9891 H   0  0  0  0  0
   21.8990   47.5365   17.8970 H   0  0  0  0  0
   23.7143   47.3241   17.9584 H   0  0  0  0  0
   22.7640   48.4238   15.4312 H   0  0  0  0  0
   22.0647   46.8065   15.7923 H   0  0  0  0  0
   23.9932   45.7896   15.3892 H   0  0  0  0  0
   24.9048   46.9805   16.4049 H   0  0  0  0  0
   24.3019   48.4259   14.1673 H   0  0  0  0  0
   24.6291   46.7658   13.5054 H   0  0  0  0  0
   29.3276   48.3233   13.2775 H   0  0  0  0  0
   29.6332   46.5748   12.4702 H   0  0  0  0  0
   26.6533   49.6396   12.1421 H   0  0  0  0  0
   28.5738   52.2208   13.4935 H   0  0  0  0  0
   26.9905   51.8227   12.9903 H   0  0  0  0  0
   30.0417   51.2947    8.8006 H   0  0  0  0  0
   28.5300   50.6803    8.5525 H   0  0  0  0  0
   23.7529   50.5761   19.2505 H   0  0  0  0  0
   23.0909   49.1588   19.8249 H   0  0  0  0  0
   24.5877   49.1426   19.0928 H   0  0  0  0  0
   26.5640   48.6514   14.5598 H   0  0  0  0  0
   22.5230   51.4874   18.9265 H   0  0  0  0  0
  1  5  1  0  0  0
 13  1  1  0  0  0
  1 14  1  0  0  0
 14  2  1  0  0  0
  2 15  1  0  0  0
  3 16  3  0  0  0
 17  3  1  0  0  0
  5  4  1  0  0  0
  4 17  1  0  0  0
 14  5  1  0  0  0
  7  6  1  0  0  0
  6 20  1  0  0  0
  6 21  2  0  0  0
  8  7  1  0  0  0
  7 18  1  0  0  0
  9  8  1  0  0  0
 10  9  1  0  0  0
 11 10  1  0  0  0
 19 11  1  0  0  0
 12 19  1  0  0  0
 12 22  2  0  0  0
 23 12  1  0  0  0
 13 23  1  0  0  0
 15 16  1  0  0  0
  1 24  1  0  0  0
  2 25  1  0  0  0
  2 26  1  0  0  0
  4 27  1  0  0  0
  4 28  1  0  0  0
  5 29  1  0  0  0
  7 30  1  0  0  0
  8 31  1  0  0  0
  8 32  1  0  0  0
  9 33  1  0  0  0
  9 34  1  0  0  0
 10 35  1  0  0  0
 10 36  1  0  0  0
 11 37  1  0  0  0
 11 38  1  0  0  0
 13 39  1  0  0  0
 13 40  1  0  0  0
 14 41  1  0  0  0
 15 42  1  0  0  0
 15 43  1  0  0  0
 17 44  1  0  0  0
 17 45  1  0  0  0
 18 46  1  0  0  0
 18 47  1  0  0  0
 18 48  1  0  0  0
 19 49  1  0  0  0
 20 50  1  0  0  0
M  END
$$$$
