### 
### Created by X-TOOL on Mon Sep 10 21:12:47 2018
### 

@<TRIPOS>MOLECULE
1c29_ligand
   27    27     1     0     0
SMALL
GAST_HUCK


@<TRIPOS>ATOM
      1 P1         47.9710   29.1420    9.8220 P.3       1 HE1         0.0579
      2 O1         48.2770   28.2420    8.5310 O.co2     1 HE1        -0.5669
      3 O2         49.1540   30.1860   10.0580 O.co2     1 HE1        -0.5669
      4 O3         46.5790   29.9440    9.6730 O.co2     1 HE1        -0.5669
      5 C1         47.8760   28.1660   11.2010 C.2       1 HE1        -0.0178
      6 C2         47.8940   28.6370   12.4270 C.2       1 HE1        -0.0624
      7 C3         48.8170   28.2050   14.6670 C.3       1 HE1         0.0172
      8 C4         47.8010   27.8110   13.6360 C.3       1 HE1        -0.0072
      9 S1         48.7110   26.9190   15.8920 S.3       1 HE1        -0.1043
     10 OH         51.7340   27.1470   15.3740 O.3       1 HE1        -0.3360
     11 C5         51.4960   23.5420   14.6870 C.ar      1 HE1        -0.0776
     12 C6         52.0130   24.8370   14.8560 C.ar      1 HE1        -0.0390
     13 C7         51.1830   25.8930   15.2230 C.ar      1 HE1         0.0996
     14 C8         49.8190   25.6440   15.4280 C.ar      1 HE1         0.0441
     15 C9         49.2850   24.3650   15.2630 C.ar      1 HE1        -0.0583
     16 C10        50.1300   23.3050   14.8900 C.ar      1 HE1        -0.0789
     17 H1         47.7955   27.0886   11.0646 H         1 HE1         0.0484
     18 H2         47.9841   29.7147   12.5549 H         1 HE1         0.0787
     19 H3         48.5700   29.1832   15.1052 H         1 HE1         0.0428
     20 H4         49.8247   28.2439   14.2276 H         1 HE1         0.0428
     21 H5         47.9648   26.7588   13.3604 H         1 HE1         0.0480
     22 H6         46.7954   27.9249   14.0671 H         1 HE1         0.0480
     23 H7         52.1242   27.4212   14.5524 H         1 HE1         0.2456
     24 H8         52.1520   22.7281   14.4003 H         1 HE1         0.0531
     25 H9         53.0704   25.0164   14.6989 H         1 HE1         0.0521
     26 H10        48.2269   24.1903   15.4212 H         1 HE1         0.0534
     27 H11        49.7260   22.3075   14.7599 H         1 HE1         0.0505
@<TRIPOS>BOND
     1    1    2 ar 
     2    1    3 ar 
     3    1    4 ar 
     4    5    1 1  
     5    6    5 2  
     6    8    6 1  
     7    7    8 1  
     8    9    7 1  
     9   14    9 1  
    10   13   10 1  
    11   12   11 ar 
    12   11   16 ar 
    13   13   12 ar 
    14   13   14 ar 
    15   14   15 ar 
    16   15   16 ar 
    17    5   17 1  
    18    6   18 1  
    19    7   19 1  
    20    7   20 1  
    21    8   21 1  
    22    8   22 1  
    23   10   23 1  
    24   11   24 1  
    25   12   25 1  
    26   15   26 1  
    27   16   27 1  
@<TRIPOS>SUBSTRUCTURE
     1 HE1         1

