1c29_ligand
  -I-interpret- 

 29 29  0  0  0  0  0  0  0  0999 V2000
   47.9710   29.1420    9.8220 P   0  0  0  0  0
   48.2770   28.2420    8.5310 O   0  0  0  0  0
   49.1540   30.1860   10.0580 O   0  0  0  0  0
   46.5790   29.9440    9.6730 O   0  0  0  0  0
   47.8760   28.1660   11.2010 C   0  0  0  0  0
   47.8940   28.6370   12.4270 C   0  0  0  0  0
   48.8170   28.2050   14.6670 C   0  0  0  0  0
   47.8010   27.8110   13.6360 C   0  0  0  0  0
   48.7110   26.9190   15.8920 S   0  0  0  0  0
   51.7340   27.1470   15.3740 O   0  0  0  0  0
   51.4960   23.5420   14.6870 C   0  0  0  0  0
   52.0130   24.8370   14.8560 C   0  0  0  0  0
   51.1830   25.8930   15.2230 C   0  0  0  0  0
   49.8190   25.6440   15.4280 C   0  0  0  0  0
   49.2850   24.3650   15.2630 C   0  0  0  0  0
   50.1300   23.3050   14.8900 C   0  0  0  0  0
   47.5590   27.6185    8.3995 H   0  0  0  0  0
   45.8645   29.3189    9.5308 H   0  0  0  0  0
   47.7955   27.0876   11.0645 H   0  0  0  0  0
   47.9842   29.7157   12.5550 H   0  0  0  0  0
   48.6183   29.1914   15.0861 H   0  0  0  0  0
   49.8188   28.2927   14.2465 H   0  0  0  0  0
   47.9858   26.7742   13.3549 H   0  0  0  0  0
   46.8089   27.9479   14.0662 H   0  0  0  0  0
   51.0475   27.7686   15.6267 H   0  0  0  0  0
   52.1557   22.7236   14.3987 H   0  0  0  0  0
   53.0763   25.0174   14.6980 H   0  0  0  0  0
   48.2211   24.1893   15.4221 H   0  0  0  0  0
   49.7238   22.3020   14.7592 H   0  0  0  0  0
  1  2  1  0  0  0
  1  3  2  0  0  0
  1  4  1  0  0  0
  5  1  1  0  0  0
  6  5  2  0  0  0
  8  6  1  0  0  0
  7  8  1  0  0  0
  9  7  1  0  0  0
 14  9  1  0  0  0
 13 10  1  0  0  0
 12 11  4  0  0  0
 11 16  4  0  0  0
 13 12  4  0  0  0
 13 14  4  0  0  0
 14 15  4  0  0  0
 15 16  4  0  0  0
  2 17  1  0  0  0
  4 18  1  0  0  0
  5 19  1  0  0  0
  6 20  1  0  0  0
  7 21  1  0  0  0
  7 22  1  0  0  0
  8 23  1  0  0  0
  8 24  1  0  0  0
 10 25  1  0  0  0
 11 26  1  0  0  0
 12 27  1  0  0  0
 15 28  1  0  0  0
 16 29  1  0  0  0
M  END
$$$$
