5e4w_ligand
  -I-interpret- 

164163  0  0  0  0  0  0  0  0999 V2000
  -12.8140   54.7960  -29.6500 N   0  3  0  0  0
  -13.7310   53.8570  -29.0140 C   0  0  0  0  0
  -15.1780   54.3200  -29.1680 C   0  0  0  0  0
  -15.5600   54.8400  -30.2200 O   0  0  0  0  0
  -13.3890   53.6930  -27.5320 C   0  0  0  0  0
  -13.5740   52.2760  -27.0070 C   0  0  0  0  0
  -13.8050   52.2660  -25.5040 C   0  0  0  0  0
  -15.1270   52.9280  -25.1530 C   0  0  0  0  0
  -15.4230   52.8650  -23.6970 N   0  3  0  0  0
  -15.9780   54.1460  -28.1160 N   0  0  0  0  0
  -17.4000   54.4930  -28.1840 C   0  0  0  0  0
  -17.6890   55.9410  -27.8050 C   0  0  0  0  0
  -17.1040   56.5080  -26.8800 O   0  0  0  0  0
  -18.2360   53.5800  -27.2780 C   0  0  0  0  0
  -18.4250   52.1310  -27.7230 C   0  0  0  0  0
  -19.1830   51.3970  -26.6180 C   0  0  0  0  0
  -20.5040   50.8490  -26.9190 N   0  0  0  0  0
  -21.2430   50.2390  -25.9930 C   0  0  0  0  0
  -20.7700   50.1330  -24.7580 N   0  0  0  0  0
  -22.4390   49.7420  -26.2820 N   0  0  0  0  0
  -18.6300   56.5100  -28.5440 N   0  0  0  0  0
  -19.1330   57.8600  -28.3530 C   0  0  0  0  0
  -20.5840   57.8260  -27.8860 C   0  0  0  0  0
  -21.3070   56.8740  -28.1670 O   0  0  0  0  0
  -19.0010   58.6620  -29.6460 C   0  0  0  0  0
  -17.6920   58.5470  -30.1790 O   0  0  0  0  0
  -21.0240   58.8560  -27.1780 N   0  0  0  0  0
  -22.4000   58.8620  -26.6980 C   0  0  0  0  0
  -23.2490   59.7550  -27.5930 C   0  0  0  0  0
  -22.7390   60.6490  -28.2830 O   0  0  0  0  0
  -22.4980   59.3620  -25.2610 C   0  0  0  0  0
  -21.4300   58.8660  -24.3210 C   0  0  0  0  0
  -21.4670   59.7080  -23.0620 C   0  0  0  0  0
  -20.4650   59.2490  -22.0090 C   0  0  0  0  0
  -20.9380   59.4750  -20.6090 N   0  3  0  0  0
  -24.5510   59.4950  -27.5780 N   0  0  0  0  0
  -25.4760   60.2250  -28.4170 C   0  0  0  0  0
  -26.8780   60.2250  -27.8230 C   0  0  0  0  0
  -27.2990   59.2530  -27.1950 O   0  0  0  0  0
  -25.4770   59.6020  -29.8160 C   0  0  0  0  0
  -26.7070   59.8800  -30.6520 C   0  0  0  0  0
  -26.7270   58.9780  -31.8650 C   0  0  0  0  0
  -26.6450   57.5680  -31.4940 N   0  0  0  0  0
  -26.5870   56.5750  -32.3720 C   0  0  0  0  0
  -26.6020   56.8420  -33.6670 N   0  0  0  0  0
  -26.5160   55.3140  -31.9630 N   0  0  0  0  0
  -27.5930   61.3230  -28.0440 N   0  0  0  0  0
  -28.9580   61.4900  -27.5720 C   0  0  0  0  0
  -29.8720   60.4410  -28.2010 C   0  0  0  0  0
  -29.5840   59.9350  -29.2840 O   0  0  0  0  0
  -29.4500   62.9040  -27.8710 C   0  0  0  0  0
  -28.7860   63.9560  -26.9890 C   0  0  0  0  0
  -29.0800   65.3720  -27.4540 C   0  0  0  0  0
  -28.3260   66.3840  -26.6000 C   0  0  0  0  0
  -28.5050   67.7810  -27.0840 N   0  3  0  0  0
  -30.9760   60.1240  -27.5280 N   0  0  0  0  0
  -31.8120   58.9640  -27.8600 C   0  0  0  0  0
  -32.3630   58.9870  -29.3010 C   0  0  0  0  0
  -33.1090   58.0890  -29.7040 O   0  0  0  0  0
  -32.9680   58.8740  -26.8530 C   0  0  0  0  0
  -33.7540   57.5640  -26.8580 C   0  0  0  0  0
  -33.0880   56.5060  -25.9940 C   0  0  0  0  0
  -33.2630   56.7790  -24.5710 N   0  0  0  0  0
  -32.2840   56.7320  -23.6730 C   0  0  0  0  0
  -31.0510   56.4200  -24.0490 N   0  0  0  0  0
  -32.5380   56.9960  -22.3980 N   0  0  0  0  0
  -31.9920   60.0150  -30.0660 N   0  0  0  0  0
  -32.2980   60.1300  -31.4970 C   0  0  0  0  0
  -33.7870   60.3660  -31.7240 C   0  0  0  0  0
  -34.1830   60.9590  -32.7290 O   0  0  0  0  0
  -31.8460   58.8850  -32.3140 C   0  0  0  0  0
  -32.6250   57.7400  -31.9430 O   0  0  0  0  0
  -30.3680   58.5910  -32.0920 C   0  0  0  0  0
  -34.6180   59.9670  -30.9060 O   0  0  0  0  0
  -13.0574   54.8922  -30.6359 H   0  0  0  0  0
  -12.8862   55.7038  -29.1906 H   0  0  0  0  0
  -11.8594   54.4464  -29.5667 H   0  0  0  0  0
  -13.6216   52.8925  -29.5099 H   0  0  0  0  0
  -14.0662   54.3368  -26.9707 H   0  0  0  0  0
  -12.3357   53.9469  -27.4132 H   0  0  0  0  0
  -12.6696   51.7068  -27.2217 H   0  0  0  0  0
  -14.4453   51.8378  -27.4937 H   0  0  0  0  0
  -12.9981   52.8181  -25.0221 H   0  0  0  0  0
  -13.8292   51.2319  -25.1604 H   0  0  0  0  0
  -15.9200   52.3992  -25.6817 H   0  0  0  0  0
  -15.0653   53.9778  -25.4397 H   0  0  0  0  0
  -16.3168   53.3207  -23.5129 H   0  0  0  0  0
  -15.4704   51.8895  -23.4028 H   0  0  0  0  0
  -14.6841   53.3417  -23.1801 H   0  0  0  0  0
  -15.5945   53.7656  -27.2507 H   0  0  0  0  0
  -17.6783   54.3539  -29.2287 H   0  0  0  0  0
  -19.2350   54.0158  -27.2623 H   0  0  0  0  0
  -17.6962   53.5295  -26.3324 H   0  0  0  0  0
  -17.4576   51.6593  -27.8954 H   0  0  0  0  0
  -18.9865   52.0924  -28.6565 H   0  0  0  0  0
  -19.3562   52.1471  -25.8464 H   0  0  0  0  0
  -18.5653   50.5319  -26.3768 H   0  0  0  0  0
  -20.8714   50.9361  -27.8665 H   0  0  0  0  0
  -19.8527   50.5156  -24.5286 H   0  0  0  0  0
  -22.9889   49.2818  -25.5566 H   0  0  0  0  0
  -22.8084   49.8202  -27.2295 H   0  0  0  0  0
  -19.0312   55.9597  -29.3033 H   0  0  0  0  0
  -18.5373   58.3490  -27.5822 H   0  0  0  0  0
  -19.2016   59.7115  -29.4305 H   0  0  0  0  0
  -19.7124   58.2733  -30.3747 H   0  0  0  0  0
  -17.6318   59.0578  -30.9896 H   0  0  0  0  0
  -20.4041   59.6390  -26.9705 H   0  0  0  0  0
  -22.7638   57.8349  -26.7267 H   0  0  0  0  0
  -23.4470   58.9943  -24.8708 H   0  0  0  0  0
  -22.3917   60.4460  -25.3039 H   0  0  0  0  0
  -20.4514   58.9477  -24.7941 H   0  0  0  0  0
  -21.6093   57.8197  -24.0737 H   0  0  0  0  0
  -22.4647   59.6190  -22.6322 H   0  0  0  0  0
  -21.2124   60.7310  -23.3390 H   0  0  0  0  0
  -19.5519   59.8280  -22.1470 H   0  0  0  0  0
  -20.3167   58.1770  -22.1388 H   0  0  0  0  0
  -20.2270   59.1489  -19.9544 H   0  0  0  0  0
  -21.1041   60.4709  -20.4641 H   0  0  0  0  0
  -21.8045   58.9589  -20.4567 H   0  0  0  0  0
  -24.9067   58.7645  -26.9614 H   0  0  0  0  0
  -25.1544   61.2645  -28.4816 H   0  0  0  0  0
  -25.4353   58.5220  -29.6748 H   0  0  0  0  0
  -24.6333   60.0383  -30.3506 H   0  0  0  0  0
  -26.6887   60.9193  -30.9799 H   0  0  0  0  0
  -27.5971   59.6913  -30.0518 H   0  0  0  0  0
  -25.8642   59.2196  -32.4858 H   0  0  0  0  0
  -27.6654   59.1385  -32.3958 H   0  0  0  0  0
  -26.6315   57.3327  -30.5016 H   0  0  0  0  0
  -26.6580   57.8086  -33.9878 H   0  0  0  0  0
  -26.4734   54.5579  -32.6463 H   0  0  0  0  0
  -26.5040   55.1013  -30.9655 H   0  0  0  0  0
  -27.1640   62.0846  -28.5696 H   0  0  0  0  0
  -28.9788   61.3460  -26.4918 H   0  0  0  0  0
  -30.5224   62.9334  -27.6779 H   0  0  0  0  0
  -29.2035   63.1322  -28.9080 H   0  0  0  0  0
  -27.7078   63.8030  -27.0357 H   0  0  0  0  0
  -29.1786   63.8449  -25.9783 H   0  0  0  0  0
  -30.1498   65.5592  -27.3617 H   0  0  0  0  0
  -28.7605   65.4769  -28.4908 H   0  0  0  0  0
  -27.2641   66.1431  -26.6505 H   0  0  0  0  0
  -28.7175   66.3263  -25.5844 H   0  0  0  0  0
  -27.9830   68.4177  -26.4818 H   0  0  0  0  0
  -28.1587   67.8552  -28.0405 H   0  0  0  0  0
  -29.4954   68.0236  -27.0599 H   0  0  0  0  0
  -31.2541   60.7151  -26.7446 H   0  0  0  0  0
  -31.1739   58.0824  -27.7985 H   0  0  0  0  0
  -33.6748   59.6580  -27.1250 H   0  0  0  0  0
  -32.5209   58.9608  -25.8627 H   0  0  0  0  0
  -33.7978   57.1935  -27.8822 H   0  0  0  0  0
  -34.7487   57.7587  -26.4571 H   0  0  0  0  0
  -32.0204   56.5063  -26.2141 H   0  0  0  0  0
  -33.5472   55.5429  -26.2170 H   0  0  0  0  0
  -34.1981   57.0219  -24.2440 H   0  0  0  0  0
  -30.8528   56.2157  -25.0285 H   0  0  0  0  0
  -31.7860   56.9587  -21.7098 H   0  0  0  0  0
  -33.4853   57.2362  -22.1058 H   0  0  0  0  0
  -31.4621   60.7689  -29.6288 H   0  0  0  0  0
  -31.7306   60.9893  -31.8545 H   0  0  0  0  0
  -32.0012   59.1028  -33.3707 H   0  0  0  0  0
  -32.3370   56.9795  -32.4532 H   0  0  0  0  0
  -29.7765   59.4501  -32.4084 H   0  0  0  0  0
  -30.1924   58.3971  -31.0339 H   0  0  0  0  0
  -30.0813   57.7161  -32.6755 H   0  0  0  0  0
  -34.1668   59.5275  -30.1815 H   0  0  0  0  0
  1  2  1  0  0  0
  2  3  1  0  0  0
  2  5  1  0  0  0
  3  4  2  0  0  0
  3 10  1  0  0  0
  5  6  1  0  0  0
  6  7  1  0  0  0
  7  8  1  0  0  0
  8  9  1  0  0  0
 10 11  1  0  0  0
 11 12  1  0  0  0
 11 14  1  0  0  0
 12 13  2  0  0  0
 12 21  1  0  0  0
 14 15  1  0  0  0
 15 16  1  0  0  0
 16 17  1  0  0  0
 17 18  1  0  0  0
 18 19  2  0  0  0
 18 20  1  0  0  0
 21 22  1  0  0  0
 22 23  1  0  0  0
 22 25  1  0  0  0
 23 24  2  0  0  0
 23 27  1  0  0  0
 25 26  1  0  0  0
 27 28  1  0  0  0
 28 29  1  0  0  0
 28 31  1  0  0  0
 29 30  2  0  0  0
 29 36  1  0  0  0
 31 32  1  0  0  0
 32 33  1  0  0  0
 33 34  1  0  0  0
 34 35  1  0  0  0
 36 37  1  0  0  0
 37 38  1  0  0  0
 37 40  1  0  0  0
 38 39  2  0  0  0
 38 47  1  0  0  0
 40 41  1  0  0  0
 41 42  1  0  0  0
 42 43  1  0  0  0
 43 44  1  0  0  0
 44 45  2  0  0  0
 44 46  1  0  0  0
 47 48  1  0  0  0
 48 49  1  0  0  0
 48 51  1  0  0  0
 49 50  2  0  0  0
 49 56  1  0  0  0
 51 52  1  0  0  0
 52 53  1  0  0  0
 53 54  1  0  0  0
 54 55  1  0  0  0
 56 57  1  0  0  0
 57 58  1  0  0  0
 57 60  1  0  0  0
 58 59  2  0  0  0
 58 67  1  0  0  0
 60 61  1  0  0  0
 61 62  1  0  0  0
 62 63  1  0  0  0
 63 64  1  0  0  0
 64 65  2  0  0  0
 64 66  1  0  0  0
 67 68  1  0  0  0
 68 69  1  0  0  0
 68 71  1  0  0  0
 69 70  2  0  0  0
 69 74  1  0  0  0
 71 72  1  0  0  0
 71 73  1  0  0  0
  1 75  1  0  0  0
  1 76  1  0  0  0
  1 77  1  0  0  0
  2 78  1  0  0  0
  5 79  1  0  0  0
  5 80  1  0  0  0
  6 81  1  0  0  0
  6 82  1  0  0  0
  7 83  1  0  0  0
  7 84  1  0  0  0
  8 85  1  0  0  0
  8 86  1  0  0  0
  9 87  1  0  0  0
  9 88  1  0  0  0
  9 89  1  0  0  0
 10 90  1  0  0  0
 11 91  1  0  0  0
 14 92  1  0  0  0
 14 93  1  0  0  0
 15 94  1  0  0  0
 15 95  1  0  0  0
 16 96  1  0  0  0
 16 97  1  0  0  0
 17 98  1  0  0  0
 19 99  1  0  0  0
 20100  1  0  0  0
 20101  1  0  0  0
 21102  1  0  0  0
 22103  1  0  0  0
 25104  1  0  0  0
 25105  1  0  0  0
 26106  1  0  0  0
 27107  1  0  0  0
 28108  1  0  0  0
 31109  1  0  0  0
 31110  1  0  0  0
 32111  1  0  0  0
 32112  1  0  0  0
 33113  1  0  0  0
 33114  1  0  0  0
 34115  1  0  0  0
 34116  1  0  0  0
 35117  1  0  0  0
 35118  1  0  0  0
 35119  1  0  0  0
 36120  1  0  0  0
 37121  1  0  0  0
 40122  1  0  0  0
 40123  1  0  0  0
 41124  1  0  0  0
 41125  1  0  0  0
 42126  1  0  0  0
 42127  1  0  0  0
 43128  1  0  0  0
 45129  1  0  0  0
 46130  1  0  0  0
 46131  1  0  0  0
 47132  1  0  0  0
 48133  1  0  0  0
 51134  1  0  0  0
 51135  1  0  0  0
 52136  1  0  0  0
 52137  1  0  0  0
 53138  1  0  0  0
 53139  1  0  0  0
 54140  1  0  0  0
 54141  1  0  0  0
 55142  1  0  0  0
 55143  1  0  0  0
 55144  1  0  0  0
 56145  1  0  0  0
 57146  1  0  0  0
 60147  1  0  0  0
 60148  1  0  0  0
 61149  1  0  0  0
 61150  1  0  0  0
 62151  1  0  0  0
 62152  1  0  0  0
 63153  1  0  0  0
 65154  1  0  0  0
 66155  1  0  0  0
 66156  1  0  0  0
 67157  1  0  0  0
 68158  1  0  0  0
 71159  1  0  0  0
 72160  1  0  0  0
 73161  1  0  0  0
 73162  1  0  0  0
 73163  1  0  0  0
 74164  1  0  0  0
M  END
$$$$
