### 
### Created by X-TOOL on Mon Sep 10 21:13:25 2018
### 

@<TRIPOS>MOLECULE
5e4w_ligand
  166   165     1     0     0
SMALL
GAST_HUCK


@<TRIPOS>ATOM
      1 N         -12.8140   54.7960  -29.6500 N.4       1 LYS         0.2379
      2 CA        -13.7310   53.8570  -29.0140 C.3       1 LYS         0.0650
      3 C         -15.1780   54.3200  -29.1680 C.2       1 LYS         0.2267
      4 O         -15.5600   54.8400  -30.2200 O.2       1 LYS        -0.3907
      5 CB        -13.3890   53.6930  -27.5320 C.3       1 LYS         0.0080
      6 CG        -13.5740   52.2760  -27.0070 C.3       1 LYS        -0.0410
      7 CD        -13.8050   52.2660  -25.5040 C.3       1 LYS        -0.0123
      8 CE        -15.1270   52.9280  -25.1530 C.3       1 LYS        -0.0354
      9 NZ        -15.4230   52.8650  -23.6970 N.4       1 LYS         0.2185
     10 N         -15.9780   54.1460  -28.1160 N.am      1 ARG        -0.2610
     11 CA        -17.4000   54.4930  -28.1840 C.3       1 ARG         0.1312
     12 C         -17.6890   55.9410  -27.8050 C.2       1 ARG         0.2040
     13 O         -17.1040   56.5080  -26.8800 O.2       1 ARG        -0.3944
     14 CB        -18.2360   53.5800  -27.2780 C.3       1 ARG        -0.0092
     15 CG        -18.4250   52.1310  -27.7230 C.3       1 ARG        -0.0156
     16 CD        -19.1830   51.3970  -26.6180 C.3       1 ARG         0.0627
     17 NE        -20.5040   50.8490  -26.9190 N.pl3     1 ARG        -0.2723
     18 CZ        -21.2430   50.2390  -25.9930 C.cat     1 ARG         0.2882
     19 NH1       -20.7700   50.1330  -24.7580 N.pl3     1 ARG        -0.2849
     20 NH2       -22.4390   49.7420  -26.2820 N.pl3     1 ARG        -0.2849
     21 N         -18.6300   56.5100  -28.5440 N.am      1 SER        -0.2616
     22 CA        -19.1330   57.8600  -28.3530 C.3       1 SER         0.1539
     23 C         -20.5840   57.8260  -27.8860 C.2       1 SER         0.2062
     24 O         -21.3070   56.8740  -28.1670 O.2       1 SER        -0.3943
     25 CB        -19.0010   58.6620  -29.6460 C.3       1 SER         0.0843
     26 OG        -17.6920   58.5470  -30.1790 O.3       1 SER        -0.3903
     27 N         -21.0240   58.8560  -27.1780 N.am      1 LYS        -0.2637
     28 CA        -22.4000   58.8620  -26.6980 C.3       1 LYS         0.1310
     29 C         -23.2490   59.7550  -27.5930 C.2       1 LYS         0.2039
     30 O         -22.7390   60.6490  -28.2830 O.2       1 LYS        -0.3944
     31 CB        -22.4980   59.3620  -25.2610 C.3       1 LYS        -0.0122
     32 CG        -21.4300   58.8660  -24.3210 C.3       1 LYS        -0.0440
     33 CD        -21.4670   59.7080  -23.0620 C.3       1 LYS        -0.0124
     34 CE        -20.4650   59.2490  -22.0090 C.3       1 LYS        -0.0354
     35 NZ        -20.9380   59.4750  -20.6090 N.4       1 LYS         0.2185
     36 N         -24.5510   59.4950  -27.5780 N.am      1 ARG        -0.2637
     37 CA        -25.4760   60.2250  -28.4170 C.3       1 ARG         0.1311
     38 C         -26.8780   60.2250  -27.8230 C.2       1 ARG         0.2039
     39 O         -27.2990   59.2530  -27.1950 O.2       1 ARG        -0.3944
     40 CB        -25.4770   59.6020  -29.8160 C.3       1 ARG        -0.0092
     41 CG        -26.7070   59.8800  -30.6520 C.3       1 ARG        -0.0156
     42 CD        -26.7270   58.9780  -31.8650 C.3       1 ARG         0.0627
     43 NE        -26.6450   57.5680  -31.4940 N.pl3     1 ARG        -0.2723
     44 CZ        -26.5870   56.5750  -32.3720 C.cat     1 ARG         0.2882
     45 NH1       -26.6020   56.8420  -33.6670 N.pl3     1 ARG        -0.2849
     46 NH2       -26.5160   55.3140  -31.9630 N.pl3     1 ARG        -0.2849
     47 N         -27.5930   61.3230  -28.0440 N.am      1 LYS        -0.2637
     48 CA        -28.9580   61.4900  -27.5720 C.3       1 LYS         0.1310
     49 C         -29.8720   60.4410  -28.2010 C.2       1 LYS         0.2039
     50 O         -29.5840   59.9350  -29.2840 O.2       1 LYS        -0.3944
     51 CB        -29.4500   62.9040  -27.8710 C.3       1 LYS        -0.0122
     52 CG        -28.7860   63.9560  -26.9890 C.3       1 LYS        -0.0440
     53 CD        -29.0800   65.3720  -27.4540 C.3       1 LYS        -0.0124
     54 CE        -28.3260   66.3840  -26.6000 C.3       1 LYS        -0.0354
     55 NZ        -28.5050   67.7810  -27.0840 N.4       1 LYS         0.2185
     56 N         -30.9760   60.1240  -27.5280 N.am      1 ARG        -0.2637
     57 CA        -31.8120   58.9640  -27.8600 C.3       1 ARG         0.1310
     58 C         -32.3630   58.9870  -29.3010 C.2       1 ARG         0.2034
     59 O         -33.1090   58.0890  -29.7040 O.2       1 ARG        -0.3944
     60 CB        -32.9680   58.8740  -26.8530 C.3       1 ARG        -0.0092
     61 CG        -33.7540   57.5640  -26.8580 C.3       1 ARG        -0.0156
     62 CD        -33.0880   56.5060  -25.9940 C.3       1 ARG         0.0627
     63 NE        -33.2630   56.7790  -24.5710 N.pl3     1 ARG        -0.2723
     64 CZ        -32.2840   56.7320  -23.6730 C.cat     1 ARG         0.2882
     65 NH1       -31.0510   56.4200  -24.0490 N.pl3     1 ARG        -0.2849
     66 NH2       -32.5380   56.9960  -22.3980 N.pl3     1 ARG        -0.2849
     67 N         -31.9920   60.0150  -30.0660 N.am      1 THR        -0.2670
     68 CA        -32.2980   60.1300  -31.4970 C.3       1 THR         0.1198
     69 C         -33.7870   60.3660  -31.7240 C.2       1 THR         0.0626
     70 O         -34.1830   60.9590  -32.7290 O.co2     1 THR        -0.5665
     71 CB        -31.8460   58.8850  -32.3140 C.3       1 THR         0.0869
     72 OG1       -32.6250   57.7400  -31.9430 O.3       1 THR        -0.3880
     73 CG2       -30.3680   58.5910  -32.0920 C.3       1 THR        -0.0352
     74 OXT       -34.6180   59.9670  -30.9060 O.co2     1 THR        -0.5665
     75 H1        -11.8669   54.4703  -29.5357 H         1 LYS         0.2015
     76 H2        -12.9113   55.7032  -29.2215 H         1 LYS         0.2015
     77 H3        -13.0299   54.8634  -30.6323 H         1 LYS         0.2015
     78 H4        -13.6236   52.8799  -29.5076 H         1 LYS         0.1098
     79 H5        -14.0380   54.3646  -26.9508 H         1 LYS         0.0346
     80 H6        -12.3377   53.9816  -27.3856 H         1 LYS         0.0346
     81 H7        -12.6714   51.6897  -27.2341 H         1 LYS         0.0270
     82 H8        -14.4423   51.8203  -27.5054 H         1 LYS         0.0270
     83 H9        -12.9872   52.8115  -25.0105 H         1 LYS         0.0317
     84 H10       -13.8183   51.2250  -25.1488 H         1 LYS         0.0317
     85 H11       -15.9337   52.4181  -25.6999 H         1 LYS         0.0813
     86 H12       -15.0861   53.9835  -25.4599 H         1 LYS         0.0813
     87 H13       -16.3061   53.3151  -23.5139 H         1 LYS         0.1994
     88 H14       -14.6934   53.3359  -23.1851 H         1 LYS         0.1994
     89 H15       -15.4702   51.9014  -23.4051 H         1 LYS         0.1994
     90 H16       -15.6021   53.7731  -27.2677 H         1 ARG         0.1884
     91 H17       -17.7260   54.3432  -29.2238 H         1 ARG         0.0800
     92 H18       -19.2355   54.0304  -27.1875 H         1 ARG         0.0313
     93 H19       -17.7514   53.5614  -26.2907 H         1 ARG         0.0313
     94 H20       -17.4449   51.6577  -27.8821 H         1 ARG         0.0301
     95 H21       -19.0036   52.0993  -28.6580 H         1 ARG         0.0301
     96 H22       -19.3081   52.1050  -25.7855 H         1 ARG         0.0689
     97 H23       -18.5504   50.5576  -26.2936 H         1 ARG         0.0689
     98 H24       -20.8750   50.9370  -27.8758 H         1 ARG         0.2642
     99 H25       -21.3290   49.6643  -24.0309 H         1 ARG         0.2615
    100 H26       -19.8437   50.5194  -24.5263 H         1 ARG         0.2615
    101 H27       -22.8120   49.8210  -27.2388 H         1 ARG         0.2615
    102 H28       -22.9943   49.2773  -25.5495 H         1 ARG         0.2615
    103 H29       -19.0233   55.9705  -29.2885 H         1 SER         0.1884
    104 H30       -18.5290   58.3509  -27.5757 H         1 SER         0.0823
    105 H31       -19.2133   59.7208  -29.4368 H         1 SER         0.0606
    106 H32       -19.7246   58.2813  -30.3819 H         1 SER         0.0606
    107 H33       -17.5057   57.6340  -30.3641 H         1 SER         0.2097
    108 H34       -20.4163   59.6236  -26.9745 H         1 LYS         0.1883
    109 H35       -22.7899   57.8343  -26.7404 H         1 LYS         0.0800
    110 H36       -23.4730   59.0482  -24.8600 H         1 LYS         0.0312
    111 H37       -22.4462   60.4606  -25.2814 H         1 LYS         0.0312
    112 H38       -20.4436   58.9572  -24.7992 H         1 LYS         0.0269
    113 H39       -21.6189   57.8123  -24.0680 H         1 LYS         0.0269
    114 H40       -22.4779   59.6515  -22.6321 H         1 LYS         0.0317
    115 H41       -21.2405   60.7504  -23.3306 H         1 LYS         0.0317
    116 H42       -19.5260   59.8032  -22.1546 H         1 LYS         0.0813
    117 H43       -20.2811   58.1733  -22.1466 H         1 LYS         0.0813
    118 H44       -20.2361   59.1530  -19.9611 H         1 LYS         0.1994
    119 H45       -21.7943   58.9654  -20.4572 H         1 LYS         0.1994
    120 H46       -21.1024   60.4589  -20.4646 H         1 LYS         0.1994
    121 H47       -24.8998   58.7788  -26.9734 H         1 ARG         0.1883
    122 H48       -25.1337   61.2675  -28.4944 H         1 ARG         0.0800
    123 H49       -25.3843   58.5119  -29.7016 H         1 ARG         0.0313
    124 H50       -24.6029   59.9892  -30.3601 H         1 ARG         0.0313
    125 H51       -26.6941   60.9299  -30.9799 H         1 ARG         0.0301
    126 H52       -27.6071   59.6957  -30.0471 H         1 ARG         0.0301
    127 H53       -25.8702   59.2272  -32.5082 H         1 ARG         0.0689
    128 H54       -27.6624   59.1466  -32.4187 H         1 ARG         0.0689
    129 H55       -26.6314   57.3304  -30.4919 H         1 ARG         0.2642
    130 H56       -26.5571   56.0739  -34.3518 H         1 ARG         0.2615
    131 H57       -26.6586   57.8181  -33.9910 H         1 ARG         0.2615
    132 H58       -26.5039   55.0992  -30.9557 H         1 ARG         0.2615
    133 H59       -26.4730   54.5504  -32.6530 H         1 ARG         0.2615
    134 H60       -27.1724   62.0697  -28.5593 H         1 LYS         0.1883
    135 H61       -28.9686   61.3452  -26.4816 H         1 LYS         0.0800
    136 H62       -30.5368   62.9410  -27.7055 H         1 LYS         0.0312
    137 H63       -29.2311   63.1378  -28.9233 H         1 LYS         0.0312
    138 H64       -27.6977   63.7969  -27.0080 H         1 LYS         0.0269
    139 H65       -29.1559   63.8384  -25.9598 H         1 LYS         0.0269
    140 H66       -30.1602   65.5628  -27.3714 H         1 LYS         0.0317
    141 H67       -28.7676   65.4803  -28.5031 H         1 LYS         0.0317
    142 H68       -27.2544   66.1369  -26.6230 H         1 LYS         0.0813
    143 H69       -28.6953   66.3184  -25.5659 H         1 LYS         0.0813
    144 H70       -27.9896   68.4111  -26.4896 H         1 LYS         0.1994
    145 H71       -29.4835   68.0219  -27.0606 H         1 LYS         0.1994
    146 H72       -28.1630   67.8555  -28.0293 H         1 LYS         0.1994
    147 H73       -31.2487   60.7035  -26.7600 H         1 ARG         0.1883
    148 H74       -31.1901   58.0625  -27.7576 H         1 ARG         0.0800
    149 H75       -33.6716   59.6904  -27.0730 H         1 ARG         0.0313
    150 H76       -32.5493   59.0124  -25.8453 H         1 ARG         0.0313
    151 H77       -33.8194   57.1914  -27.8909 H         1 ARG         0.0301
    152 H78       -34.7663   57.7541  -26.4719 H         1 ARG         0.0301
    153 H79       -32.0123   56.4850  -26.2227 H         1 ARG         0.0689
    154 H80       -33.5314   55.5263  -26.2257 H         1 ARG         0.0689
    155 H81       -34.2073   57.0242  -24.2408 H         1 ARG         0.2642
    156 H82       -30.2936   56.3840  -23.3519 H         1 ARG         0.2615
    157 H83       -30.8509   56.2137  -25.0381 H         1 ARG         0.2615
    158 H84       -33.4946   57.2386  -22.1030 H         1 ARG         0.2615
    159 H85       -31.7787   56.9584  -21.7031 H         1 ARG         0.2615
    160 H86       -31.4725   60.7542  -29.6374 H         1 THR         0.1876
    161 H87       -31.7499   61.0024  -31.8823 H         1 THR         0.0752
    162 H88       -32.0063   59.0916  -33.3824 H         1 THR         0.0632
    163 H89       -32.5068   57.5646  -31.0168 H         1 THR         0.2100
    164 H90       -30.0774   57.7082  -32.6804 H         1 THR         0.0256
    165 H91       -30.1894   58.3951  -31.0244 H         1 THR         0.0256
    166 H92       -29.7699   59.4573  -32.4109 H         1 THR         0.0256
@<TRIPOS>BOND
     1    1    2 1  
     2    2    3 1  
     3    2    5 1  
     4    3    4 2  
     5    3   10 am 
     6    5    6 1  
     7    6    7 1  
     8    7    8 1  
     9    8    9 1  
    10   10   11 1  
    11   11   12 1  
    12   11   14 1  
    13   12   13 2  
    14   12   21 am 
    15   14   15 1  
    16   15   16 1  
    17   16   17 1  
    18   17   18 ar 
    19   18   19 ar 
    20   18   20 ar 
    21   21   22 1  
    22   22   23 1  
    23   22   25 1  
    24   23   24 2  
    25   23   27 am 
    26   25   26 1  
    27   27   28 1  
    28   28   29 1  
    29   28   31 1  
    30   29   30 2  
    31   29   36 am 
    32   31   32 1  
    33   32   33 1  
    34   33   34 1  
    35   34   35 1  
    36   36   37 1  
    37   37   38 1  
    38   37   40 1  
    39   38   39 2  
    40   38   47 am 
    41   40   41 1  
    42   41   42 1  
    43   42   43 1  
    44   43   44 ar 
    45   44   45 ar 
    46   44   46 ar 
    47   47   48 1  
    48   48   49 1  
    49   48   51 1  
    50   49   50 2  
    51   49   56 am 
    52   51   52 1  
    53   52   53 1  
    54   53   54 1  
    55   54   55 1  
    56   56   57 1  
    57   57   58 1  
    58   57   60 1  
    59   58   59 2  
    60   58   67 am 
    61   60   61 1  
    62   61   62 1  
    63   62   63 1  
    64   63   64 ar 
    65   64   65 ar 
    66   64   66 ar 
    67   67   68 1  
    68   68   69 1  
    69   68   71 1  
    70   69   70 ar 
    71   69   74 ar 
    72   71   72 1  
    73   71   73 1  
    74    1   75 1  
    75    1   76 1  
    76    1   77 1  
    77    2   78 1  
    78    5   79 1  
    79    5   80 1  
    80    6   81 1  
    81    6   82 1  
    82    7   83 1  
    83    7   84 1  
    84    8   85 1  
    85    8   86 1  
    86    9   87 1  
    87    9   88 1  
    88    9   89 1  
    89   10   90 1  
    90   11   91 1  
    91   14   92 1  
    92   14   93 1  
    93   15   94 1  
    94   15   95 1  
    95   16   96 1  
    96   16   97 1  
    97   17   98 1  
    98   19   99 1  
    99   19  100 1  
   100   20  101 1  
   101   20  102 1  
   102   21  103 1  
   103   22  104 1  
   104   25  105 1  
   105   25  106 1  
   106   26  107 1  
   107   27  108 1  
   108   28  109 1  
   109   31  110 1  
   110   31  111 1  
   111   32  112 1  
   112   32  113 1  
   113   33  114 1  
   114   33  115 1  
   115   34  116 1  
   116   34  117 1  
   117   35  118 1  
   118   35  119 1  
   119   35  120 1  
   120   36  121 1  
   121   37  122 1  
   122   40  123 1  
   123   40  124 1  
   124   41  125 1  
   125   41  126 1  
   126   42  127 1  
   127   42  128 1  
   128   43  129 1  
   129   45  130 1  
   130   45  131 1  
   131   46  132 1  
   132   46  133 1  
   133   47  134 1  
   134   48  135 1  
   135   51  136 1  
   136   51  137 1  
   137   52  138 1  
   138   52  139 1  
   139   53  140 1  
   140   53  141 1  
   141   54  142 1  
   142   54  143 1  
   143   55  144 1  
   144   55  145 1  
   145   55  146 1  
   146   56  147 1  
   147   57  148 1  
   148   60  149 1  
   149   60  150 1  
   150   61  151 1  
   151   61  152 1  
   152   62  153 1  
   153   62  154 1  
   154   63  155 1  
   155   65  156 1  
   156   65  157 1  
   157   66  158 1  
   158   66  159 1  
   159   67  160 1  
   160   68  161 1  
   161   71  162 1  
   162   72  163 1  
   163   73  164 1  
   164   73  165 1  
   165   73  166 1  
@<TRIPOS>SUBSTRUCTURE
     1 LYS         1

