4o70_ligand
  -I-interpret- 

 59 62  0  0  0  0  0  0  0  0999 V2000
   30.6940  -33.6340  -21.5740 C   0  0  0  0  0
   32.7460  -33.3250  -20.2740 N   0  0  0  0  0
   33.5870  -33.9860  -21.2810 C   0  0  0  0  0
   35.6690  -33.2690  -22.6150 C   0  0  0  0  0
   35.4880  -31.5170  -24.1930 C   0  0  0  0  0
   28.9730  -34.7240  -23.6780 C   0  0  0  0  0
   27.9000  -33.3870  -25.4350 C   0  0  0  0  0
   27.2530  -33.0690  -23.0590 C   0  0  0  0  0
   26.0780  -34.5620  -21.4040 C   0  0  0  0  0
   27.5290  -30.1470  -17.1970 C   0  0  0  0  0
   27.6610  -31.2050  -18.1890 C   0  0  0  0  0
   29.0410  -31.6240  -18.4340 C   0  0  0  0  0
   30.1710  -31.4360  -17.6750 C   0  0  0  0  0
   31.2070  -32.0210  -18.3370 N   0  0  0  0  0
   30.7020  -32.5010  -19.5000 N   0  0  0  0  0
   29.3960  -32.3060  -19.5700 C   0  0  0  0  0
   28.6850  -32.7170  -20.6390 N   0  0  0  0  0
   29.3660  -33.3860  -21.6120 C   0  0  0  0  0
   31.3600  -33.1920  -20.4750 C   0  0  0  0  0
   34.2860  -33.0700  -22.3200 C   0  0  0  0  0
   36.2380  -32.4770  -23.5790 C   0  0  0  0  0
   34.1570  -31.3320  -23.9310 N   0  0  0  0  0
   33.5950  -32.0980  -23.0000 C   0  0  0  0  0
   33.4870  -30.3870  -24.5870 O   0  0  0  0  0
   28.5080  -33.7420  -22.7410 N   0  0  0  0  0
   29.1330  -34.0640  -25.0050 C   0  0  0  0  0
   27.3260  -32.4880  -24.4130 C   0  0  0  0  0
   26.0770  -33.9890  -22.7950 C   0  0  0  0  0
   25.9600  -33.6400  -20.3980 O   0  0  0  0  0
   31.2034  -34.1602  -22.3813 H   0  0  0  0  0
   33.1707  -32.9593  -19.4217 H   0  0  0  0  0
   32.9189  -34.6305  -21.8522 H   0  0  0  0  0
   34.3880  -34.4754  -20.7270 H   0  0  0  0  0
   36.2531  -34.0256  -22.0911 H   0  0  0  0  0
   35.9698  -30.8685  -24.9247 H   0  0  0  0  0
   28.2556  -35.5414  -23.7505 H   0  0  0  0  0
   29.9267  -35.1352  -23.3470 H   0  0  0  0  0
   27.1596  -34.1600  -25.6407 H   0  0  0  0  0
   28.1503  -32.7757  -26.3020 H   0  0  0  0  0
   27.0842  -32.2199  -22.3967 H   0  0  0  0  0
   27.0404  -35.0551  -21.2675 H   0  0  0  0  0
   25.2102  -35.2177  -21.3332 H   0  0  0  0  0
   27.9349  -30.4903  -16.2454 H   0  0  0  0  0
   28.0781  -29.2667  -17.5313 H   0  0  0  0  0
   26.4756  -29.8949  -17.0745 H   0  0  0  0  0
   27.2698  -30.8165  -19.1293 H   0  0  0  0  0
   27.1227  -32.0732  -17.8086 H   0  0  0  0  0
   30.2275  -30.9148  -16.7194 H   0  0  0  0  0
   37.2840  -32.6138  -23.8533 H   0  0  0  0  0
   33.3299  -31.3866  -22.2179 H   0  0  0  0  0
   32.8510  -32.6654  -23.5591 H   0  0  0  0  0
   34.0746  -29.9541  -25.2107 H   0  0  0  0  0
   29.3753  -34.8311  -25.7405 H   0  0  0  0  0
   29.9214  -33.3160  -24.9211 H   0  0  0  0  0
   26.3041  -32.2664  -24.7207 H   0  0  0  0  0
   27.9783  -31.6169  -24.3517 H   0  0  0  0  0
   26.1428  -34.8208  -23.4963 H   0  0  0  0  0
   25.1651  -33.4034  -22.9117 H   0  0  0  0  0
   25.9696  -34.0902  -19.5501 H   0  0  0  0  0
 18  1  4  0  0  0
  1 19  4  0  0  0
  2  3  1  0  0  0
 19  2  1  0  0  0
  3 20  1  0  0  0
 20  4  2  0  0  0
  4 21  1  0  0  0
 21  5  2  0  0  0
  5 22  1  0  0  0
 25  6  1  0  0  0
  6 26  1  0  0  0
 26  7  1  0  0  0
 27  7  1  0  0  0
 25  8  1  0  0  0
  8 27  1  0  0  0
  8 28  1  0  0  0
 28  9  1  0  0  0
  9 29  1  0  0  0
 11 10  1  0  0  0
 12 11  1  0  0  0
 12 13  4  0  0  0
 16 12  4  0  0  0
 14 13  4  0  0  0
 15 14  4  0  0  0
 16 15  4  0  0  0
 19 15  4  0  0  0
 17 16  4  0  0  0
 18 17  4  0  0  0
 18 25  1  0  0  0
 20 23  1  0  0  0
 22 23  1  0  0  0
 22 24  1  0  0  0
  1 30  1  0  0  0
  2 31  1  0  0  0
  3 32  1  0  0  0
  3 33  1  0  0  0
  4 34  1  0  0  0
  5 35  1  0  0  0
  6 36  1  0  0  0
  6 37  1  0  0  0
  7 38  1  0  0  0
  7 39  1  0  0  0
  8 40  1  0  0  0
  9 41  1  0  0  0
  9 42  1  0  0  0
 10 43  1  0  0  0
 10 44  1  0  0  0
 10 45  1  0  0  0
 11 46  1  0  0  0
 11 47  1  0  0  0
 13 48  1  0  0  0
 21 49  1  0  0  0
 23 50  1  0  0  0
 23 51  1  0  0  0
 24 52  1  0  0  0
 26 53  1  0  0  0
 26 54  1  0  0  0
 27 55  1  0  0  0
 27 56  1  0  0  0
 28 57  1  0  0  0
 28 58  1  0  0  0
 29 59  1  0  0  0
M  END
$$$$
