6jn4_ligand

Created by X-TOOL on Mon Aug  2 16:10:25 2021
 36 36  0  0  0  0  0  0  0  0999 V2000
  125.9260  -61.1970  124.8060  C 0  0  0  3  0  5
  124.8620  -61.9050  125.4750  N 0  0  0  2  0  3
  125.1070  -63.1750  126.0740  C 0  0  0  1  0  3
  126.2230  -63.6030  126.0920  O 0  0  0  1  0  1
  123.8670  -63.8840  126.6570  C 0  0  0  2  0  4
  123.3180  -64.9700  125.6780  C 0  0  0  3  0  4
  121.7310  -64.6390  124.7820  S 0  0  0  2  0  2
  124.2720  -64.4010  128.0290  C 0  0  0  4  0  4
  125.6190  -59.6610  124.9360  B 0  0  0  1  0  3
  124.4430  -59.1780  124.4790  O 0  0  0  3  0  3
  126.1370  -59.1050  126.0440  O 0  0  0  3  0  3
  125.8470  -61.7840  123.4100  C 0  0  0  1  0  3
  124.6150  -62.0400  122.8650  C 0  0  0  2  0  3
  124.4690  -62.5590  121.5880  C 0  0  0  2  0  3
  125.5840  -62.8800  120.8520  C 0  0  0  1  0  3
  126.8280  -62.6610  121.4070  C 0  0  0  2  0  3
  126.9640  -62.1070  122.6650  C 0  0  0  2  0  3
  125.4290  -63.4120  119.6110  F 0  0  0  1  0  1
  126.9007  -61.4010  125.2733  H 0  0  0  1  0  1
  125.7436  -60.1123  124.7969  H 0  0  0  1  0  1
  123.9476  -61.5026  125.5188  H 0  0  0  1  0  1
  123.0677  -63.1411  126.7958  H 0  0  0  1  0  1
  123.1736  -65.8902  126.2632  H 0  0  0  1  0  1
  124.0917  -65.1386  124.9145  H 0  0  0  1  0  1
  121.5090  -65.4258  124.1924  H 0  0  0  1  0  1
  124.6431  -63.5655  128.6408  H 0  0  0  1  0  1
  125.0656  -65.1544  127.9174  H 0  0  0  1  0  1
  123.4002  -64.8568  128.5211  H 0  0  0  1  0  1
  123.7763  -59.2865  125.1471  H 0  0  0  1  0  1
  123.7763  -59.2865  125.1470  H 0  0  0  1  0  1
  126.9583  -59.5323  126.2571  H 0  0  0  1  0  1
  126.9583  -59.5322  126.2571  H 0  0  0  1  0  1
  123.7276  -61.8300  123.4511  H 0  0  0  1  0  1
  123.4796  -62.7109  121.1719  H 0  0  0  1  0  1
  127.7155  -62.9288  120.8451  H 0  0  0  1  0  1
  127.9530  -61.9248  123.0697  H 0  0  0  1  0  1
  1  2  1  0  0  2
  1  9  1  0  0  2
  1 12  1  0  0  2
  2  3  1  0  0  2
  3  4  2  0  0  2
  3  5  1  0  0  2
  5  6  1  0  0  2
  5  8  1  0  0  2
  6  7  1  0  0  2
  9 10  1  0  0  2
  9 11  1  0  0  2
 12 13  4  0  0  1
 12 17  4  0  0  1
 13 14  4  0  0  1
 14 15  4  0  0  1
 15 16  4  0  0  1
 15 18  1  0  0  2
 16 17  4  0  0  1
  1 19  1  0  0  2
  1 20  1  0  0  2
  2 21  1  0  0  2
  5 22  1  0  0  2
  6 23  1  0  0  2
  6 24  1  0  0  2
  7 25  1  0  0  2
  8 26  1  0  0  2
  8 27  1  0  0  2
  8 28  1  0  0  2
 10 29  1  0  0  2
 10 30  1  0  0  2
 11 31  1  0  0  2
 11 32  1  0  0  2
 13 33  1  0  0  2
 14 34  1  0  0  2
 16 35  1  0  0  2
 17 36  1  0  0  2
M  END
> <MOLECULAR_FORMULA>
C11H18NO3SFB

> <MOLECULAR_WEIGHT>
274.0

> <NUM_HB_ATOMS>
5  

> <NUM_ROTOR>
5  

> <XLOGP2>
1.04 

$$$$
