#	Name:			6jn4_ligand
#	Creating user name:	wangrx
#	Creation time:		Thu Aug  5 17:23:25 2021

#	Modifying user name:	wangrx
#	Modification time:	Thu Aug  5 17:23:43 2021

@<TRIPOS>MOLECULE
6jn4_ligand
   35    35     1     0     0
SMALL
GAST_HUCK


@<TRIPOS>ATOM
      1 C1        125.9260  -61.1970  124.8060 C.3       1 BX9         0.0866 
      2 N2        124.8620  -61.9050  125.4750 N.am      1 BX9        -0.2705 
      3 C3        125.1070  -63.1750  126.0740 C.2       1 BX9         0.1817 
      4 O4        126.2230  -63.6030  126.0920 O.2       1 BX9        -0.3966 
      5 C5        123.8670  -63.8840  126.6570 C.3       1 BX9         0.0547 
      6 C6        123.3180  -64.9700  125.6780 C.3       1 BX9         0.0101 
      7 S7        121.7310  -64.6390  124.7820 S.3       1 BX9        -0.1756 
      8 C8        124.2720  -64.4010  128.0290 C.3       1 BX9        -0.0446 
      9 B9        125.6190  -59.6610  124.9360 B         1 BX9         3.0000 
     10 O10       124.4430  -59.1780  124.4790 O.3       1 BX9        -0.4105 
     11 O11       126.1370  -59.1050  126.0440 O.3       1 BX9        -0.4105 
     12 C12       125.8470  -61.7840  123.4100 C.ar      1 BX9        -0.1168 
     13 C13       124.6150  -62.0400  122.8650 C.ar      1 BX9        -0.1745 
     14 C14       124.4690  -62.5590  121.5880 C.ar      1 BX9        -0.1500 
     15 C15       125.5840  -62.8800  120.8520 C.ar      1 BX9         0.0277 
     16 C16       126.8280  -62.6610  121.4070 C.ar      1 BX9        -0.1500 
     17 C17       126.9640  -62.1070  122.6650 C.ar      1 BX9        -0.1745 
     18 F18       125.4290  -63.4120  119.6110 F         1 BX9        -0.2121 
     19 H1        126.9007  -61.4010  125.2733 H         1 BX9         0.0741 
     20 H3        123.9476  -61.5026  125.5188 H         1 BX9         0.1882 
     21 H4        123.0677  -63.1411  126.7958 H         1 BX9         0.0543 
     22 H5        123.1736  -65.8902  126.2632 H         1 BX9         0.0401 
     23 H6        124.0917  -65.1386  124.9145 H         1 BX9         0.0401 
     24 H7        121.5090  -65.4258  124.1924 H         1 BX9         0.1018 
     25 H8        124.6431  -63.5655  128.6408 H         1 BX9         0.0257 
     26 H9        125.0656  -65.1544  127.9174 H         1 BX9         0.0257 
     27 H10       123.4002  -64.8568  128.5211 H         1 BX9         0.0257 
     28 H11       123.7763  -59.2865  125.1471 H         1 BX9         0.2052 
     29 H12       123.7763  -59.2865  125.1470 H         1 BX9         0.2052 
     30 H13       126.9583  -59.5323  126.2571 H         1 BX9         0.2052 
     31 H14       126.9583  -59.5322  126.2571 H         1 BX9         0.2052 
     32 H15       123.7276  -61.8300  123.4511 H         1 BX9        -0.0197 
     33 H16       123.4796  -62.7109  121.1719 H         1 BX9        -0.0160 
     34 H17       127.7155  -62.9288  120.8451 H         1 BX9        -0.0160 
     35 H18       127.9530  -61.9248  123.0697 H         1 BX9        -0.0197 
@<TRIPOS>BOND
     1    1    2 1    
     2    1    9 1    
     3    1   12 1    
     4    2    3 am   
     5    3    4 2    
     6    3    5 1    
     7    5    6 1    
     8    5    8 1    
     9    6    7 1    
    10    9   10 1    
    11    9   11 1    
    12   12   13 ar   
    13   12   17 ar   
    14   13   14 ar   
    15   14   15 ar   
    16   15   16 ar   
    17   15   18 1    
    18   16   17 ar   
    19    1   19 1    
    20    2   20 1    
    21    5   21 1    
    22    6   22 1    
    23    6   23 1    
    24    7   24 1    
    25    8   25 1    
    26    8   26 1    
    27    8   27 1    
    28   10   28 1    
    29   10   29 1    
    30   11   30 1    
    31   11   31 1    
    32   13   32 1    
    33   14   33 1    
    34   16   34 1    
    35   17   35 1    
@<TRIPOS>SUBSTRUCTURE
     1 BX9         1 PERM              0 ****  ****    0 ROOT 
