5d7x_ligand
  -I-interpret- 

 30 32  0  0  0  0  0  0  0  0999 V2000
    9.3250  -13.9880    2.6650 C   0  0  0  0  0
    8.0730  -13.1060    2.7690 C   0  0  0  0  0
    7.2670  -13.0750    1.8240 O   0  0  0  0  0
    7.9060  -12.5080    3.9800 N   0  0  0  0  0
    8.7760  -12.5390    5.0140 C   0  0  0  0  0
    8.2700  -11.8480    6.0500 C   0  0  0  0  0
    8.8530  -11.6640    7.2910 C   0  0  0  0  0
    9.4600  -12.5780    8.0640 C   0  0  0  0  0
    9.6760  -14.0680    7.7800 C   0  0  0  0  0
    9.8770  -12.0220    9.2020 N   0  0  0  0  0
    9.5810  -10.8270    9.1870 N   0  0  0  0  0
    8.9460  -10.5510    8.0430 C   0  0  0  0  0
    8.5360   -9.4190    7.7680 O   0  0  0  0  0
    7.0640  -11.3880    5.6670 C   0  0  0  0  0
    6.1450  -10.6570    6.3090 C   0  0  0  0  0
    4.9560  -10.2870    5.6870 C   0  0  0  0  0
    4.7300  -10.7030    4.3810 C   0  0  0  0  0
    5.7100  -11.4660    3.7540 C   0  0  0  0  0
    6.8440  -11.7930    4.3950 C   0  0  0  0  0
    9.0255  -15.0276    2.5321 H   0  0  0  0  0
    9.9228  -13.6688    1.8113 H   0  0  0  0  0
    9.9126  -13.8917    3.5780 H   0  0  0  0  0
    9.7405  -13.0467    5.0086 H   0  0  0  0  0
    8.7098  -14.5557    7.6505 H   0  0  0  0  0
   10.2664  -14.1814    6.8708 H   0  0  0  0  0
   10.2049  -14.5232    8.6173 H   0  0  0  0  0
    6.3309  -10.3459    7.3370 H   0  0  0  0  0
    4.2173   -9.6831    6.2140 H   0  0  0  0  0
    3.8091  -10.4386    3.8612 H   0  0  0  0  0
    5.5554  -11.8028    2.7290 H   0  0  0  0  0
  1  2  1  0  0  0
  2  3  2  0  0  0
  2  4  1  0  0  0
  4  5  4  0  0  0
  4 19  4  0  0  0
  5  6  4  0  0  0
  6  7  1  0  0  0
  6 14  4  0  0  0
  7  8  2  0  0  0
  7 12  1  0  0  0
  8  9  1  0  0  0
  8 10  1  0  0  0
 10 11  2  0  0  0
 11 12  1  0  0  0
 12 13  2  0  0  0
 14 15  4  0  0  0
 14 19  4  0  0  0
 15 16  4  0  0  0
 16 17  4  0  0  0
 17 18  4  0  0  0
 18 19  4  0  0  0
  1 20  1  0  0  0
  1 21  1  0  0  0
  1 22  1  0  0  0
  5 23  1  0  0  0
  9 24  1  0  0  0
  9 25  1  0  0  0
  9 26  1  0  0  0
 15 27  1  0  0  0
 16 28  1  0  0  0
 17 29  1  0  0  0
 18 30  1  0  0  0
M  END
$$$$
