4qh7_ligand
  -I-interpret- 

168169  0  0  0  0  0  0  0  0999 V2000
  -26.1200  -25.2110   10.0410 N   0  3  0  0  0
  -26.8090  -23.9550   10.3250 C   0  0  0  0  0
  -25.8110  -22.8500   10.6790 C   0  0  0  0  0
  -25.1520  -22.9130   11.7200 O   0  0  0  0  0
  -27.8180  -24.1490   11.4550 C   0  0  0  0  0
  -25.7000  -21.8480    9.8040 N   0  0  0  0  0
  -24.7430  -20.7600    9.9860 C   0  0  0  0  0
  -25.4270  -19.4050   10.0640 C   0  0  0  0  0
  -24.8110  -18.3840    9.7350 O   0  0  0  0  0
  -23.7510  -20.7050    8.8220 C   0  0  0  0  0
  -23.0640  -22.0060    8.5180 C   0  0  0  0  0
  -22.3160  -22.6540    9.4860 C   0  0  0  0  0
  -23.1380  -22.5740    7.2460 C   0  0  0  0  0
  -21.6750  -23.8370    9.2140 C   0  0  0  0  0
  -22.4960  -23.7610    6.9600 C   0  0  0  0  0
  -21.7670  -24.3880    7.9500 C   0  0  0  0  0
  -21.1180  -25.5750    7.6970 O   0  0  0  0  0
  -26.6840  -19.3780   10.4970 N   0  0  0  0  0
  -27.4340  -18.1190   10.4730 C   0  0  0  0  0
  -27.8800  -17.6230   11.8480 C   0  0  0  0  0
  -28.0490  -18.4010   12.7870 O   0  0  0  0  0
  -28.6410  -18.1760    9.5030 C   0  0  0  0  0
  -29.5850  -19.1520    9.9500 O   0  0  0  0  0
  -28.1760  -18.5220    8.0810 C   0  0  0  0  0
  -28.0570  -16.3090   11.9480 N   0  0  0  0  0
  -28.5270  -15.6640   13.1780 C   0  0  0  0  0
  -29.3030  -14.4180   12.7700 C   0  0  0  0  0
  -29.1170  -13.9070   11.6730 O   0  0  0  0  0
  -27.3460  -15.3000   14.1230 C   0  0  0  0  0
  -27.8390  -14.9220   15.5250 C   0  0  0  0  0
  -26.4810  -14.1800   13.5440 C   0  0  0  0  0
  -28.4530  -16.0890   16.2670 C   0  0  0  0  0
  -30.1880  -13.9430   13.6370 N   0  0  0  0  0
  -30.9440  -12.7300   13.3530 C   0  0  0  0  0
  -30.2540  -11.5070   13.9510 C   0  0  0  0  0
  -29.5920  -11.6010   14.9880 O   0  0  0  0  0
  -32.3540  -12.8520   13.9300 C   0  0  0  0  0
  -33.3320  -14.1610   13.1900 S   0  0  0  0  0
  -30.4000  -10.3630   13.2900 N   0  0  0  0  0
  -29.8870   -9.0960   13.8210 C   0  0  0  0  0
  -30.7990   -7.9660   13.3970 C   0  0  0  0  0
  -31.4440   -8.0500   12.3520 O   0  0  0  0  0
  -28.4640   -8.8230   13.3350 C   0  0  0  0  0
  -30.8380   -6.9080   14.2020 N   0  0  0  0  0
  -31.6130   -5.7260   13.8610 C   0  0  0  0  0
  -30.7670   -4.4670   13.8020 C   0  0  0  0  0
  -29.7260   -4.3990   14.4520 O   0  0  0  0  0
  -31.1970   -3.4710   13.0240 N   0  0  0  0  0
  -30.4910   -2.1850   12.9700 C   0  0  0  0  0
  -31.4710   -1.0290   13.0970 C   0  0  0  0  0
  -32.6540   -1.1740   12.7770 O   0  0  0  0  0
  -29.6710   -1.9880   11.6740 C   0  0  0  0  0
  -30.5520   -1.8570   10.5520 O   0  0  0  0  0
  -28.7130   -3.1510   11.4380 C   0  0  0  0  0
  -30.9720    0.1150   13.5590 N   0  0  0  0  0
  -31.7720    1.3250   13.6650 C   0  0  0  0  0
  -30.8680    2.5010   13.3140 C   0  0  0  0  0
  -29.7390    2.5700   13.8020 O   0  0  0  0  0
  -32.2990    1.4650   15.1030 C   0  0  0  0  0
  -33.1040    2.7360   15.3780 C   0  0  0  0  0
  -34.4540    2.7680   14.6790 C   0  0  0  0  0
  -34.9920    1.7340   14.2690 O   0  0  0  0  0
  -35.0150    3.9700   14.5420 N   0  0  0  0  0
  -31.3400    3.4140   12.4660 N   0  0  0  0  0
  -30.5700    4.6180   12.1450 C   0  0  0  0  0
  -30.6100    5.5890   13.3250 C   0  0  0  0  0
  -31.5480    5.5560   14.1270 O   0  0  0  0  0
  -31.0860    5.3320   10.8610 C   0  0  0  0  0
  -32.5200    5.3750   10.8790 O   0  0  0  0  0
  -30.6150    4.5940    9.5730 C   0  0  0  0  0
  -29.5850    6.4330   13.4270 N   0  0  0  0  0
  -29.4950    7.4300   14.4920 C   0  0  0  0  0
  -30.5790    8.4880   14.3070 C   0  0  0  0  0
  -31.0600    8.6860   13.1900 O   0  0  0  0  0
  -28.1090    8.0870   14.4580 C   0  0  0  0  0
  -27.0180    7.1620   14.9400 C   0  0  0  0  0
  -27.3490    6.1750   15.6250 O   0  0  0  0  0
  -25.8350    7.4350   14.6430 O   0  0  0  0  0
  -30.9670    9.1720   15.4030 N   0  0  0  0  0
  -32.0550   10.1620   15.3740 C   0  0  0  0  0
  -31.8220   11.2770   14.3550 C   0  0  0  0  0
  -30.6840   11.6920   14.1140 O   0  0  0  0  0
  -32.0380   10.7540   16.7900 C   0  0  0  0  0
  -31.4030    9.7300   17.6400 C   0  0  0  0  0
  -30.4210    8.9860   16.7600 C   0  0  0  0  0
  -32.7680   11.7880   13.7460 O   0  0  0  0  0
  -25.4502  -25.0667    9.2854 H   0  0  0  0  0
  -25.6281  -25.5243   10.8778 H   0  0  0  0  0
  -26.8022  -25.9161    9.7621 H   0  0  0  0  0
  -27.3448  -23.6485    9.4266 H   0  0  0  0  0
  -27.2906  -24.4272   12.3675 H   0  0  0  0  0
  -28.3626  -23.2189   11.6178 H   0  0  0  0  0
  -28.5184  -24.9388   11.1834 H   0  0  0  0  0
  -26.3032  -21.8421    8.9815 H   0  0  0  0  0
  -24.2284  -20.9654   10.9247 H   0  0  0  0  0
  -22.9734  -19.9943    9.1021 H   0  0  0  0  0
  -24.3205  -20.4326    7.9334 H   0  0  0  0  0
  -22.2346  -22.2173   10.4814 H   0  0  0  0  0
  -23.7116  -22.0725    6.4666 H   0  0  0  0  0
  -21.0970  -24.3386    9.9902 H   0  0  0  0  0
  -22.5637  -24.1985    5.9640 H   0  0  0  0  0
  -21.2704  -25.8337    6.7852 H   0  0  0  0  0
  -27.1244  -20.2299   10.8444 H   0  0  0  0  0
  -26.7173  -17.3867   10.1011 H   0  0  0  0  0
  -29.1156  -17.1948    9.4887 H   0  0  0  0  0
  -30.3278  -19.1789    9.3424 H   0  0  0  0  0
  -27.4782  -17.7604    7.7329 H   0  0  0  0  0
  -27.6818  -19.4935    8.0880 H   0  0  0  0  0
  -29.0391  -18.5568    7.4163 H   0  0  0  0  0
  -27.8576  -15.7256   11.1354 H   0  0  0  0  0
  -29.1652  -16.3487   13.7366 H   0  0  0  0  0
  -26.7282  -16.1939   14.2092 H   0  0  0  0  0
  -28.6073  -14.1570   15.4130 H   0  0  0  0  0
  -26.9788  -14.5776   16.0990 H   0  0  0  0  0
  -26.0687  -14.4990   12.5867 H   0  0  0  0  0
  -27.0918  -13.2889   13.3992 H   0  0  0  0  0
  -25.6680  -13.9565   14.2348 H   0  0  0  0  0
  -29.3068  -16.4669   15.7045 H   0  0  0  0  0
  -27.7103  -16.8792   16.3771 H   0  0  0  0  0
  -28.7827  -15.7587   17.2520 H   0  0  0  0  0
  -30.3418  -14.4352   14.5171 H   0  0  0  0  0
  -30.9982  -12.6056   12.2715 H   0  0  0  0  0
  -32.8680  -11.9116   13.7311 H   0  0  0  0  0
  -32.2513  -13.0840   14.9901 H   0  0  0  0  0
  -34.5355  -14.1868   13.7554 H   0  0  0  0  0
  -30.8811  -10.3665   12.3906 H   0  0  0  0  0
  -29.8625   -9.1658   14.9085 H   0  0  0  0  0
  -27.8078   -9.6282   13.6654 H   0  0  0  0  0
  -28.4570   -8.7706   12.2463 H   0  0  0  0  0
  -28.1158   -7.8762   13.7479 H   0  0  0  0  0
  -30.3134   -6.9262   15.0766 H   0  0  0  0  0
  -32.3675   -5.5860   14.6351 H   0  0  0  0  0
  -32.0469   -5.8839   12.8737 H   0  0  0  0  0
  -32.0330   -3.6063   12.4555 H   0  0  0  0  0
  -29.7955   -2.1985   13.8092 H   0  0  0  0  0
  -29.0817   -1.0781   11.7877 H   0  0  0  0  0
  -30.0344   -1.7352    9.7527 H   0  0  0  0  0
  -28.0213   -3.2263   12.2771 H   0  0  0  0  0
  -29.2819   -4.0766   11.3502 H   0  0  0  0  0
  -28.1535   -2.9783   10.5186 H   0  0  0  0  0
  -29.9945    0.1442   13.8488 H   0  0  0  0  0
  -32.6272    1.2923   12.9899 H   0  0  0  0  0
  -31.4263    1.4990   15.7552 H   0  0  0  0  0
  -32.9715    0.6244   15.2740 H   0  0  0  0  0
  -32.5224    3.5778   15.0021 H   0  0  0  0  0
  -33.2916    2.7771   16.4510 H   0  0  0  0  0
  -35.9221    4.0603   14.0844 H   0  0  0  0  0
  -34.5370    4.7991   14.8949 H   0  0  0  0  0
  -32.2527    3.2721   12.0332 H   0  0  0  0  0
  -29.5447    4.3025   11.9517 H   0  0  0  0  0
  -30.6767    6.3422   10.8497 H   0  0  0  0  0
  -32.8358    5.8155   10.0866 H   0  0  0  0  0
  -29.5255    4.5745    9.5448 H   0  0  0  0  0
  -30.9979    3.5735    9.5799 H   0  0  0  0  0
  -30.9930    5.1193    8.6960 H   0  0  0  0  0
  -28.8356    6.3819   12.7369 H   0  0  0  0  0
  -29.6404    6.9439   15.4567 H   0  0  0  0  0
  -28.1315    8.9533   15.1192 H   0  0  0  0  0
  -27.8897    8.3555   13.4246 H   0  0  0  0  0
  -25.8159    8.2348   14.1124 H   0  0  0  0  0
  -32.9991    9.6995   15.0859 H   0  0  0  0  0
  -33.0445   10.9904   17.1353 H   0  0  0  0  0
  -31.4888   11.6950   16.8220 H   0  0  0  0  0
  -32.1481    9.0502   18.0532 H   0  0  0  0  0
  -30.8954   10.1885   18.4887 H   0  0  0  0  0
  -29.4032    9.3641   16.8567 H   0  0  0  0  0
  -30.3282    7.9348   17.0329 H   0  0  0  0  0
  -33.5881   11.3756   14.0269 H   0  0  0  0  0
  1  2  1  0  0  0
  2  3  1  0  0  0
  2  5  1  0  0  0
  3  4  2  0  0  0
  3  6  1  0  0  0
  6  7  1  0  0  0
  7  8  1  0  0  0
  7 10  1  0  0  0
  8  9  2  0  0  0
  8 18  1  0  0  0
 10 11  1  0  0  0
 11 12  4  0  0  0
 11 13  4  0  0  0
 12 14  4  0  0  0
 13 15  4  0  0  0
 14 16  4  0  0  0
 15 16  4  0  0  0
 16 17  1  0  0  0
 18 19  1  0  0  0
 19 20  1  0  0  0
 19 22  1  0  0  0
 20 21  2  0  0  0
 20 25  1  0  0  0
 22 23  1  0  0  0
 22 24  1  0  0  0
 25 26  1  0  0  0
 26 27  1  0  0  0
 26 29  1  0  0  0
 27 28  2  0  0  0
 27 33  1  0  0  0
 29 30  1  0  0  0
 29 31  1  0  0  0
 30 32  1  0  0  0
 33 34  1  0  0  0
 34 35  1  0  0  0
 34 37  1  0  0  0
 35 36  2  0  0  0
 35 39  1  0  0  0
 37 38  1  0  0  0
 39 40  1  0  0  0
 40 41  1  0  0  0
 40 43  1  0  0  0
 41 42  2  0  0  0
 41 44  1  0  0  0
 44 45  1  0  0  0
 45 46  1  0  0  0
 46 47  2  0  0  0
 46 48  1  0  0  0
 48 49  1  0  0  0
 49 50  1  0  0  0
 49 52  1  0  0  0
 50 51  2  0  0  0
 50 55  1  0  0  0
 52 53  1  0  0  0
 52 54  1  0  0  0
 55 56  1  0  0  0
 56 57  1  0  0  0
 56 59  1  0  0  0
 57 58  2  0  0  0
 57 64  1  0  0  0
 59 60  1  0  0  0
 60 61  1  0  0  0
 61 62  2  0  0  0
 61 63  1  0  0  0
 64 65  1  0  0  0
 65 66  1  0  0  0
 65 68  1  0  0  0
 66 67  2  0  0  0
 66 71  1  0  0  0
 68 69  1  0  0  0
 68 70  1  0  0  0
 71 72  1  0  0  0
 72 73  1  0  0  0
 72 75  1  0  0  0
 73 74  2  0  0  0
 73 79  1  0  0  0
 75 76  1  0  0  0
 76 77  2  0  0  0
 76 78  1  0  0  0
 79 80  1  0  0  0
 79 85  1  0  0  0
 80 81  1  0  0  0
 80 83  1  0  0  0
 81 82  2  0  0  0
 81 86  1  0  0  0
 83 84  1  0  0  0
 84 85  1  0  0  0
  1 87  1  0  0  0
  1 88  1  0  0  0
  1 89  1  0  0  0
  2 90  1  0  0  0
  5 91  1  0  0  0
  5 92  1  0  0  0
  5 93  1  0  0  0
  6 94  1  0  0  0
  7 95  1  0  0  0
 10 96  1  0  0  0
 10 97  1  0  0  0
 12 98  1  0  0  0
 13 99  1  0  0  0
 14100  1  0  0  0
 15101  1  0  0  0
 17102  1  0  0  0
 18103  1  0  0  0
 19104  1  0  0  0
 22105  1  0  0  0
 23106  1  0  0  0
 24107  1  0  0  0
 24108  1  0  0  0
 24109  1  0  0  0
 25110  1  0  0  0
 26111  1  0  0  0
 29112  1  0  0  0
 30113  1  0  0  0
 30114  1  0  0  0
 31115  1  0  0  0
 31116  1  0  0  0
 31117  1  0  0  0
 32118  1  0  0  0
 32119  1  0  0  0
 32120  1  0  0  0
 33121  1  0  0  0
 34122  1  0  0  0
 37123  1  0  0  0
 37124  1  0  0  0
 38125  1  0  0  0
 39126  1  0  0  0
 40127  1  0  0  0
 43128  1  0  0  0
 43129  1  0  0  0
 43130  1  0  0  0
 44131  1  0  0  0
 45132  1  0  0  0
 45133  1  0  0  0
 48134  1  0  0  0
 49135  1  0  0  0
 52136  1  0  0  0
 53137  1  0  0  0
 54138  1  0  0  0
 54139  1  0  0  0
 54140  1  0  0  0
 55141  1  0  0  0
 56142  1  0  0  0
 59143  1  0  0  0
 59144  1  0  0  0
 60145  1  0  0  0
 60146  1  0  0  0
 63147  1  0  0  0
 63148  1  0  0  0
 64149  1  0  0  0
 65150  1  0  0  0
 68151  1  0  0  0
 69152  1  0  0  0
 70153  1  0  0  0
 70154  1  0  0  0
 70155  1  0  0  0
 71156  1  0  0  0
 72157  1  0  0  0
 75158  1  0  0  0
 75159  1  0  0  0
 78160  1  0  0  0
 80161  1  0  0  0
 83162  1  0  0  0
 83163  1  0  0  0
 84164  1  0  0  0
 84165  1  0  0  0
 85166  1  0  0  0
 85167  1  0  0  0
 86168  1  0  0  0
M  END
$$$$
