### 
### Created by X-TOOL on Mon Sep 10 21:13:17 2018
### 

@<TRIPOS>MOLECULE
4qh7_ligand
  166   167     1     0     0
SMALL
GAST_HUCK


@<TRIPOS>ATOM
      1 N         -26.1200  -25.2110   10.0410 N.4       1 ASN         0.2377
      2 CA        -26.8090  -23.9550   10.3250 C.3       1 ASN         0.0621
      3 C         -25.8110  -22.8500   10.6790 C.2       1 ASN         0.2265
      4 O         -25.1520  -22.9130   11.7200 O.2       1 ASN        -0.3907
      5 CB        -27.8180  -24.1490   11.4550 C.3       1 ASN        -0.0040
      6 N         -25.7000  -21.8480    9.8040 N.am      1 TYR        -0.2594
      7 CA        -24.7430  -20.7600    9.9860 C.3       1 TYR         0.1391
      8 C         -25.4270  -19.4050   10.0640 C.2       1 TYR         0.2058
      9 O         -24.8110  -18.3840    9.7350 O.2       1 TYR        -0.3942
     10 CB        -23.7510  -20.7050    8.8220 C.3       1 TYR         0.0164
     11 CG        -23.0640  -22.0060    8.5180 C.ar      1 TYR        -0.0493
     12 CD1       -22.3160  -22.6540    9.4860 C.ar      1 TYR        -0.0685
     13 CD2       -23.1380  -22.5740    7.2460 C.ar      1 TYR        -0.0685
     14 CE1       -21.6750  -23.8370    9.2140 C.ar      1 TYR        -0.0398
     15 CE2       -22.4960  -23.7610    6.9600 C.ar      1 TYR        -0.0398
     16 CZ        -21.7670  -24.3880    7.9500 C.ar      1 TYR         0.0805
     17 OH        -21.1180  -25.5750    7.6970 O.3       1 TYR        -0.3376
     18 N         -26.6840  -19.3780   10.4970 N.am      1 THR        -0.2612
     19 CA        -27.4340  -18.1190   10.4730 C.3       1 THR         0.1565
     20 C         -27.8800  -17.6230   11.8480 C.2       1 THR         0.2065
     21 O         -28.0490  -18.4010   12.7870 O.2       1 THR        -0.3943
     22 CB        -28.6410  -18.1760    9.5030 C.3       1 THR         0.0924
     23 OG1       -29.5850  -19.1520    9.9500 O.3       1 THR        -0.3874
     24 CG2       -28.1760  -18.5220    8.0810 C.3       1 THR        -0.0346
     25 N         -28.0570  -16.3090   11.9480 N.am      1 ILE        -0.2634
     26 CA        -28.5270  -15.6640   13.1780 C.3       1 ILE         0.1335
     27 C         -29.3030  -14.4180   12.7700 C.2       1 ILE         0.2042
     28 O         -29.1170  -13.9070   11.6730 O.2       1 ILE        -0.3944
     29 CB        -27.3460  -15.3000   14.1230 C.3       1 ILE        -0.0037
     30 CG1       -27.8390  -14.9220   15.5250 C.3       1 ILE        -0.0491
     31 CG2       -26.4810  -14.1800   13.5440 C.3       1 ILE        -0.0582
     32 CD1       -28.4530  -16.0890   16.2670 C.3       1 ILE        -0.0648
     33 N         -30.1880  -13.9430   13.6370 N.am      1 CYS        -0.2629
     34 CA        -30.9440  -12.7300   13.3530 C.3       1 CYS         0.1396
     35 C         -30.2540  -11.5070   13.9510 C.2       1 CYS         0.2047
     36 O         -29.5920  -11.6010   14.9880 O.2       1 CYS        -0.3944
     37 CB        -32.3540  -12.8520   13.9300 C.3       1 CYS         0.0311
     38 SG        -33.3320  -14.1610   13.1900 S.3       1 CYS        -0.1735
     39 N         -30.4000  -10.3630   13.2900 N.am      1 ALA        -0.2640
     40 CA        -29.8870   -9.0960   13.8210 C.3       1 ALA         0.1282
     41 C         -30.7990   -7.9660   13.3970 C.2       1 ALA         0.2034
     42 O         -31.4440   -8.0500   12.3520 O.2       1 ALA        -0.3944
     43 CB        -28.4640   -8.8230   13.3350 C.3       1 ALA        -0.0244
     44 N         -30.8380   -6.9080   14.2020 N.am      1 GLY        -0.2664
     45 CA        -31.6130   -5.7260   13.8610 C.3       1 GLY         0.1201
     46 C         -30.7670   -4.4670   13.8020 C.2       1 GLY         0.2008
     47 O         -29.7260   -4.3990   14.4520 O.2       1 GLY        -0.3947
     48 N         -31.1970   -3.4710   13.0240 N.am      1 THR        -0.2616
     49 CA        -30.4910   -2.1850   12.9700 C.3       1 THR         0.1565
     50 C         -31.4710   -1.0290   13.0970 C.2       1 THR         0.2065
     51 O         -32.6540   -1.1740   12.7770 O.2       1 THR        -0.3943
     52 CB        -29.6710   -1.9880   11.6740 C.3       1 THR         0.0924
     53 OG1       -30.5520   -1.8570   10.5520 O.3       1 THR        -0.3874
     54 CG2       -28.7130   -3.1510   11.4380 C.3       1 THR        -0.0346
     55 N         -30.9720    0.1150   13.5590 N.am      1 GLN        -0.2635
     56 CA        -31.7720    1.3250   13.6650 C.3       1 GLN         0.1330
     57 C         -30.8680    2.5010   13.3140 C.2       1 GLN         0.2041
     58 O         -29.7390    2.5700   13.8020 O.2       1 GLN        -0.3944
     59 CB        -32.2990    1.4650   15.1030 C.3       1 GLN         0.0045
     60 CG        -33.1040    2.7360   15.3780 C.3       1 GLN         0.0412
     61 CD        -34.4540    2.7680   14.6790 C.2       1 GLN         0.1737
     62 OE1       -34.9920    1.7340   14.2690 O.2       1 GLN        -0.3973
     63 NE2       -35.0150    3.9700   14.5420 N.am      1 GLN        -0.3009
     64 N         -31.3400    3.4140   12.4660 N.am      1 THR        -0.2613
     65 CA        -30.5700    4.6180   12.1450 C.3       1 THR         0.1565
     66 C         -30.6100    5.5890   13.3250 C.2       1 THR         0.2066
     67 O         -31.5480    5.5560   14.1270 O.2       1 THR        -0.3943
     68 CB        -31.0860    5.3320   10.8610 C.3       1 THR         0.0924
     69 OG1       -32.5200    5.3750   10.8790 O.3       1 THR        -0.3874
     70 CG2       -30.6150    4.5940    9.5730 C.3       1 THR        -0.0346
     71 N         -29.5850    6.4330   13.4270 N.am      1 ASP        -0.2621
     72 CA        -29.4950    7.4300   14.4920 C.3       1 ASP         0.1424
     73 C         -30.5790    8.4880   14.3070 C.2       1 ASP         0.2075
     74 O         -31.0600    8.6860   13.1900 O.2       1 ASP        -0.3941
     75 CB        -28.1090    8.0870   14.4580 C.3       1 ASP         0.0406
     76 CG        -27.0180    7.1620   14.9400 C.2       1 ASP         0.0393
     77 OD1       -27.3490    6.1750   15.6250 O.co2     1 ASP        -0.5688
     78 OD2       -25.8350    7.4350   14.6430 O.co2     1 ASP        -0.5688
     79 N         -30.9670    9.1720   15.4030 N.am      1 PRO        -0.2555
     80 CA        -32.0550   10.1620   15.3740 C.3       1 PRO         0.0972
     81 C         -31.8220   11.2770   14.3550 C.2       1 PRO         0.0603
     82 O         -30.6840   11.6920   14.1140 O.co2     1 PRO        -0.5666
     83 CB        -32.0380   10.7540   16.7900 C.3       1 PRO        -0.0159
     84 CG        -31.4030    9.7300   17.6400 C.3       1 PRO        -0.0288
     85 CD        -30.4210    8.9860   16.7600 C.3       1 PRO         0.0362
     86 OXT       -32.7680   11.7880   13.7460 O.co2     1 PRO        -0.5666
     87 H         -26.7973  -25.9212    9.8111 H         1 ASN         0.2015
     88 H         -25.5952  -25.4973   10.8526 H         1 ASN         0.2015
     89 H         -25.4920  -25.0814    9.2633 H         1 ASN         0.2015
     90 H         -27.3555  -23.6487    9.4208 H         1 ASN         0.1095
     91 H         -28.3288  -23.1962   11.6580 H         1 ASN         0.0310
     92 H         -27.2931  -24.4840   12.3618 H         1 ASN         0.0310
     93 H         -28.5588  -24.9064   11.1591 H         1 ASN         0.0310
     94 H         -26.2914  -21.8422    8.9976 H         1 TYR         0.1886
     95 H         -24.1930  -20.9373   10.9220 H         1 TYR         0.0821
     96 H         -22.9797  -19.9592    9.0646 H         1 TYR         0.0453
     97 H         -24.2973  -20.3879    7.9214 H         1 TYR         0.0453
     98 H         -22.2351  -22.2197   10.4759 H         1 TYR         0.0530
     99 H         -23.7084  -22.0752    6.4708 H         1 TYR         0.0530
    100 H         -21.1002  -24.3359    9.9859 H         1 TYR         0.0525
    101 H         -22.5633  -24.1961    5.9694 H         1 TYR         0.0525
    102 H         -20.6692  -25.8631    8.4832 H         1 TYR         0.2458
    103 H         -27.1158  -20.2132   10.8376 H         1 THR         0.1884
    104 H         -26.7426  -17.3601   10.0779 H         1 THR         0.0826
    105 H         -29.1280  -17.1898    9.4869 H         1 THR         0.0639
    106 H         -29.8927  -18.9190   10.8180 H         1 THR         0.2101
    107 H         -29.0463  -18.5575    7.4091 H         1 THR         0.0257
    108 H         -27.6770  -19.5023    8.0867 H         1 THR         0.0257
    109 H         -27.4717  -17.7541    7.7285 H         1 THR         0.0257
    110 H         -27.8615  -15.7370   11.1514 H         1 ILE         0.1883
    111 H         -29.1995  -16.3519   13.7114 H         1 ILE         0.0803
    112 H         -26.7136  -16.1947   14.2203 H         1 ILE         0.0345
    113 H         -28.5958  -14.1295   15.4293 H         1 ILE         0.0267
    114 H         -26.9854  -14.5454   16.1077 H         1 ILE         0.0267
    115 H         -26.1355  -14.4656   12.5395 H         1 ILE         0.0235
    116 H         -25.6117  -14.0131   14.1971 H         1 ILE         0.0235
    117 H         -27.0735  -13.2555   13.4788 H         1 ILE         0.0235
    118 H         -28.7861  -15.7569   17.2613 H         1 ILE         0.0230
    119 H         -27.7044  -16.8872   16.3788 H         1 ILE         0.0230
    120 H         -29.3148  -16.4713   15.7004 H         1 ILE         0.0230
    121 H         -30.3387  -14.4255   14.4998 H         1 CYS         0.1884
    122 H         -31.0119  -12.6021   12.2626 H         1 CYS         0.0808
    123 H         -32.8768  -11.8973   13.7714 H         1 CYS         0.0422
    124 H         -32.2707  -13.0497   15.0089 H         1 CYS         0.0422
    125 H         -34.2442  -14.1806   13.6186 H         1 CYS         0.1019
    126 H         -30.8717  -10.3665   12.4082 H         1 ALA         0.1883
    127 H         -29.8767   -9.1538   14.9194 H         1 ALA         0.0797
    128 H         -28.1114   -7.8677   13.7510 H         1 ALA         0.0277
    129 H         -28.4556   -8.7698   12.2363 H         1 ALA         0.0277
    130 H         -27.8007   -9.6349   13.6679 H         1 ALA         0.0277
    131 H         -30.3237   -6.9258   15.0594 H         1 GLY         0.1881
    132 H         -32.3966   -5.5879   14.6205 H         1 GLY         0.0763
    133 H         -32.0794   -5.8828   12.8772 H         1 GLY         0.0763
    134 H         -32.0167   -3.6036   12.4667 H         1 THR         0.1884
    135 H         -29.7958   -2.1511   13.8217 H         1 THR         0.0826
    136 H         -29.0818   -1.0643   11.7721 H         1 THR         0.0639
    137 H         -31.0801   -2.6426   10.4720 H         1 THR         0.2101
    138 H         -28.1477   -2.9779   10.5104 H         1 THR         0.0257
    139 H         -29.2859   -4.0858   11.3492 H         1 THR         0.0257
    140 H         -28.0143   -3.2281   12.2841 H         1 THR         0.0257
    141 H         -30.0136    0.1436   13.8432 H         1 GLN         0.1883
    142 H         -32.6195    1.2813   12.9652 H         1 GLN         0.0801
    143 H         -31.4359    1.4541   15.7849 H         1 GLN         0.0337
    144 H         -32.9448    0.6001   15.3150 H         1 GLN         0.0337
    145 H         -32.5156    3.6004   15.0365 H         1 GLN         0.0504
    146 H         -33.2726    2.8125   16.4623 H         1 GLN         0.0504
    147 H         -35.9031    4.0588   14.0909 H         1 GLN         0.1814
    148 H         -34.5476    4.7825   14.8903 H         1 GLN         0.1814
    149 H         -32.2348    3.2749   12.0417 H         1 THR         0.1884
    150 H         -29.5258    4.3184   11.9723 H         1 THR         0.0826
    151 H         -30.6932    6.3594   10.8455 H         1 THR         0.0639
    152 H         -32.8118    5.8533   11.6462 H         1 THR         0.2101
    153 H         -30.9959    5.1233    8.6871 H         1 THR         0.0257
    154 H         -31.0008    3.5639    9.5787 H         1 THR         0.0257
    155 H         -29.5156    4.5736    9.5433 H         1 THR         0.0257
    156 H         -28.8503    6.3829   12.7505 H         1 ASP         0.1884
    157 H         -29.6372    6.9353   15.4641 H         1 ASP         0.0819
    158 H         -28.1255    8.9785   15.1021 H         1 ASP         0.0478
    159 H         -27.8859    8.3863   13.4233 H         1 ASP         0.0478
    160 H         -33.0155    9.6703   15.1605 H         1 PRO         0.0728
    161 H         -33.0630   10.9567   17.1338 H         1 PRO         0.0306
    162 H         -31.4536   11.6857   16.8097 H         1 PRO         0.0306
    163 H         -32.1625    9.0371   18.0312 H         1 PRO         0.0286
    164 H         -30.8750   10.2071   18.4788 H         1 PRO         0.0286
    165 H         -29.4133    9.4194   16.8414 H         1 PRO         0.0524
    166 H         -30.3840    7.9194   17.0264 H         1 PRO         0.0524
@<TRIPOS>BOND
     1    1    2 1  
     2    2    3 1  
     3    2    5 1  
     4    3    4 2  
     5    3    6 am 
     6    6    7 1  
     7    7    8 1  
     8    7   10 1  
     9    8    9 2  
    10    8   18 am 
    11   10   11 1  
    12   11   12 ar 
    13   11   13 ar 
    14   12   14 ar 
    15   13   15 ar 
    16   14   16 ar 
    17   15   16 ar 
    18   16   17 1  
    19   18   19 1  
    20   19   20 1  
    21   19   22 1  
    22   20   21 2  
    23   20   25 am 
    24   22   23 1  
    25   22   24 1  
    26   25   26 1  
    27   26   27 1  
    28   26   29 1  
    29   27   28 2  
    30   27   33 am 
    31   29   30 1  
    32   29   31 1  
    33   30   32 1  
    34   33   34 1  
    35   34   35 1  
    36   34   37 1  
    37   35   36 2  
    38   35   39 am 
    39   37   38 1  
    40   39   40 1  
    41   40   41 1  
    42   40   43 1  
    43   41   42 2  
    44   41   44 am 
    45   44   45 1  
    46   45   46 1  
    47   46   47 2  
    48   46   48 am 
    49   48   49 1  
    50   49   50 1  
    51   49   52 1  
    52   50   51 2  
    53   50   55 am 
    54   52   53 1  
    55   52   54 1  
    56   55   56 1  
    57   56   57 1  
    58   56   59 1  
    59   57   58 2  
    60   57   64 am 
    61   59   60 1  
    62   60   61 1  
    63   61   62 2  
    64   61   63 am 
    65   64   65 1  
    66   65   66 1  
    67   65   68 1  
    68   66   67 2  
    69   66   71 am 
    70   68   69 1  
    71   68   70 1  
    72   71   72 1  
    73   72   73 1  
    74   72   75 1  
    75   73   74 2  
    76   73   79 am 
    77   75   76 1  
    78   76   77 ar 
    79   76   78 ar 
    80   79   80 1  
    81   79   85 1  
    82   80   81 1  
    83   80   83 1  
    84   81   82 ar 
    85   81   86 ar 
    86   83   84 1  
    87   84   85 1  
    88    1   87 1  
    89    1   88 1  
    90    1   89 1  
    91    2   90 1  
    92    5   91 1  
    93    5   92 1  
    94    5   93 1  
    95    6   94 1  
    96    7   95 1  
    97   10   96 1  
    98   10   97 1  
    99   12   98 1  
   100   13   99 1  
   101   14  100 1  
   102   15  101 1  
   103   17  102 1  
   104   18  103 1  
   105   19  104 1  
   106   22  105 1  
   107   23  106 1  
   108   24  107 1  
   109   24  108 1  
   110   24  109 1  
   111   25  110 1  
   112   26  111 1  
   113   29  112 1  
   114   30  113 1  
   115   30  114 1  
   116   31  115 1  
   117   31  116 1  
   118   31  117 1  
   119   32  118 1  
   120   32  119 1  
   121   32  120 1  
   122   33  121 1  
   123   34  122 1  
   124   37  123 1  
   125   37  124 1  
   126   38  125 1  
   127   39  126 1  
   128   40  127 1  
   129   43  128 1  
   130   43  129 1  
   131   43  130 1  
   132   44  131 1  
   133   45  132 1  
   134   45  133 1  
   135   48  134 1  
   136   49  135 1  
   137   52  136 1  
   138   53  137 1  
   139   54  138 1  
   140   54  139 1  
   141   54  140 1  
   142   55  141 1  
   143   56  142 1  
   144   59  143 1  
   145   59  144 1  
   146   60  145 1  
   147   60  146 1  
   148   63  147 1  
   149   63  148 1  
   150   64  149 1  
   151   65  150 1  
   152   68  151 1  
   153   69  152 1  
   154   70  153 1  
   155   70  154 1  
   156   70  155 1  
   157   71  156 1  
   158   72  157 1  
   159   75  158 1  
   160   75  159 1  
   161   80  160 1  
   162   83  161 1  
   163   83  162 1  
   164   84  163 1  
   165   84  164 1  
   166   85  165 1  
   167   85  166 1  
@<TRIPOS>SUBSTRUCTURE
     1 ASN         1

