### 
### Created by X-TOOL on Mon Sep 10 21:12:55 2018
### 

@<TRIPOS>MOLECULE
2bzz_ligand
   81    86     1     0     0
SMALL
GAST_HUCK


@<TRIPOS>ATOM
      1 PA         11.4810   13.6220    9.9930 P.3       1 AP5         0.2978
      2 O1A        11.2930   14.8900   10.6840 O.co2     1 AP5        -0.6127
      3 O2A        10.5050   13.3540    8.8770 O.co2     1 AP5        -0.6127
      4 O3A        12.9610   13.4700    9.3800 O.3       1 AP5        -0.1265
      5 PB         14.0530   14.5600    9.0850 P.3       1 AP5         0.3361
      6 O1B        14.8170   14.9430   10.2740 O.co2     1 AP5        -0.6079
      7 O2B        13.3910   15.6640    8.3610 O.co2     1 AP5        -0.6079
      8 O3B        14.9880   13.7080    8.1460 O.3       1 AP5        -0.1210
      9 PG         15.7740   12.4100    8.2010 P.3       1 AP5         0.3367
     10 O1G        14.7760   11.3780    7.8820 O.co2     1 AP5        -0.6078
     11 O2G        16.2110   12.0650    9.5470 O.co2     1 AP5        -0.6078
     12 O3G        16.8900   12.4620    7.1820 O.3       1 AP5        -0.1210
     13 PD         18.0110   13.3590    6.5860 P.3       1 AP5         0.3361
     14 O1D        17.9530   14.6660    7.1520 O.co2     1 AP5        -0.6079
     15 O2D        19.2620   12.6370    6.9760 O.co2     1 AP5        -0.6079
     16 O3D        18.0120   13.5890    5.1300 O.3       1 AP5        -0.1265
     17 PE         17.3780   13.7490    3.8130 P.3       1 AP5         0.2978
     18 O1E        17.8580   14.8780    3.0270 O.co2     1 AP5        -0.6127
     19 O2E        17.0450   12.6020    2.8370 O.co2     1 AP5        -0.6127
     20 AO5        11.3860   12.3570   10.8920 O.3       1 AP5        -0.2476
     21 AC5        12.0730   12.3370   12.2250 C.3       1 AP5         0.1128
     22 AC4        12.6920   10.9500   12.4750 C.3       1 AP5         0.1189
     23 AO4        11.4700   10.0510   12.5420 O.3       1 AP5        -0.3364
     24 AC3        13.3800   10.2210   11.2590 C.3       1 AP5         0.1149
     25 AO3        14.7740   10.6720   11.3040 O.3       1 AP5        -0.3864
     26 AC2        13.3800    8.7910   11.8510 C.3       1 AP5         0.1385
     27 AO2        14.3710    8.4730   12.8050 O.3       1 AP5        -0.3836
     28 AC1        11.9390    8.7920   12.4580 C.3       1 AP5         0.2010
     29 AN9        10.9090    7.9330   11.6740 N.pl3     1 AP5        -0.1919
     30 AC8        10.7300    7.6440   10.2340 C.2       1 AP5         0.1123
     31 AN7         9.5750    6.9720   10.0840 N.2       1 AP5        -0.2958
     32 AC5         8.8690    6.9220   11.3580 C.ar      1 AP5         0.1045
     33 AC6         7.6930    6.4330   11.6680 C.ar      1 AP5         0.1298
     34 AN6         6.7780    5.7990   10.9100 N.pl3     1 AP5        -0.3152
     35 AN1         7.3460    6.5620   12.9920 N.ar      1 AP5        -0.2698
     36 AC2         8.1320    7.1490   13.9390 C.ar      1 AP5         0.0533
     37 AN3         9.3560    7.6650   13.6260 N.ar      1 AP5        -0.2714
     38 AC4         9.7120    7.4570   12.2730 C.ar      1 AP5         0.1613
     39 BO5        15.6750   14.2570    3.9910 O.3       1 AP5        -0.2476
     40 BC5        15.4860   15.5340    4.5460 C.3       1 AP5         0.1128
     41 BC4        14.1430   15.7290    4.6840 C.3       1 AP5         0.1189
     42 BO4        13.6370   16.0730    3.3490 O.3       1 AP5        -0.3364
     43 BC3        13.2950   14.4760    5.3440 C.3       1 AP5         0.1149
     44 BO3        12.0460   14.9720    5.9930 O.3       1 AP5        -0.3864
     45 BC2        12.4620   14.1120    3.9280 C.3       1 AP5         0.1385
     46 BO2        11.3500   13.4230    4.2810 O.3       1 AP5        -0.3836
     47 BC1        12.3930   15.2560    3.1830 C.3       1 AP5         0.2010
     48 BN9        12.4650   14.9620    1.6400 N.pl3     1 AP5        -0.1919
     49 BC8        13.3120   14.1870    0.9190 C.2       1 AP5         0.1123
     50 BN7        13.0970   14.1770   -0.3660 N.2       1 AP5        -0.2958
     51 BC5        12.0040   15.0160   -0.6110 C.ar      1 AP5         0.1045
     52 BC6        11.3760   15.3570   -1.7860 C.ar      1 AP5         0.1298
     53 BN6        11.7110   14.8930   -2.9740 N.pl3     1 AP5        -0.3152
     54 BN1        10.2830   16.3390   -1.6260 N.ar      1 AP5        -0.2698
     55 BC2         9.9910   16.8210   -0.4730 C.ar      1 AP5         0.0533
     56 BN3        10.6140   16.4040    0.7030 N.ar      1 AP5        -0.2714
     57 BC4        11.6250   15.5570    0.6600 C.ar      1 AP5         0.1613
     58 H1         11.3410   12.5575   13.0159 H         1 AP5         0.0648
     59 H2         12.8669   13.0982   12.2376 H         1 AP5         0.0648
     60 H3         13.3290   10.9559   13.3718 H         1 AP5         0.0651
     61 H4         12.8918   10.3381   10.2803 H         1 AP5         0.0648
     62 H5         15.1606   10.4198   12.1343 H         1 AP5         0.2100
     63 H6         13.4631    8.0527   11.0398 H         1 AP5         0.0676
     64 H7         15.2305    8.5812   12.4152 H         1 AP5         0.2101
     65 H8         12.0122    8.3785   13.4747 H         1 AP5         0.0996
     66 H9         11.4142    7.9262    9.4351 H         1 AP5         0.1349
     67 H10         5.8938    5.4788   11.3302 H         1 AP5         0.1820
     68 H11         6.9624    5.6343    9.9101 H         1 AP5         0.1820
     69 H12         7.7773    7.2070   14.9617 H         1 AP5         0.0996
     70 H13        15.9095   16.2993    3.8790 H         1 AP5         0.0648
     71 H14        15.9764   15.5922    5.5289 H         1 AP5         0.0648
     72 H15        13.9976   16.5937    5.3481 H         1 AP5         0.0651
     73 H16        13.8754   13.7093    5.8781 H         1 AP5         0.0648
     74 H17        11.5718   14.2385    6.3666 H         1 AP5         0.2100
     75 H18        13.0693   13.4111    3.3365 H         1 AP5         0.0676
     76 H19        10.8154   13.9592    4.8546 H         1 AP5         0.2101
     77 H20        11.4874   15.8200    3.4508 H         1 AP5         0.0996
     78 H21        14.1146   13.6139    1.3808 H         1 AP5         0.1349
     79 H22        11.1918   15.1959   -3.8104 H         1 AP5         0.1820
     80 H23        12.4919   14.2276   -3.0656 H         1 AP5         0.1820
     81 H24         9.2260   17.5864   -0.4104 H         1 AP5         0.0996
@<TRIPOS>BOND
     1    1    2 ar 
     2    1    3 ar 
     3    1    4 1  
     4    1   20 1  
     5    4    5 1  
     6    5    6 ar 
     7    5    7 ar 
     8    5    8 1  
     9    8    9 1  
    10    9   10 ar 
    11    9   11 ar 
    12    9   12 1  
    13   12   13 1  
    14   13   14 ar 
    15   13   15 ar 
    16   13   16 1  
    17   16   17 1  
    18   17   18 ar 
    19   17   19 ar 
    20   17   39 1  
    21   20   21 1  
    22   21   22 1  
    23   22   23 1  
    24   22   24 1  
    25   23   28 1  
    26   24   25 1  
    27   24   26 1  
    28   26   27 1  
    29   26   28 1  
    30   28   29 1  
    31   29   30 1  
    32   29   38 1  
    33   30   31 2  
    34   31   32 1  
    35   32   33 ar 
    36   32   38 ar 
    37   33   34 1  
    38   33   35 ar 
    39   35   36 ar 
    40   36   37 ar 
    41   37   38 ar 
    42   39   40 1  
    43   40   41 1  
    44   41   42 1  
    45   41   43 1  
    46   42   47 1  
    47   43   44 1  
    48   43   45 1  
    49   45   46 1  
    50   45   47 1  
    51   47   48 1  
    52   48   49 1  
    53   48   57 1  
    54   49   50 2  
    55   50   51 1  
    56   51   52 ar 
    57   51   57 ar 
    58   52   53 1  
    59   52   54 ar 
    60   54   55 ar 
    61   55   56 ar 
    62   56   57 ar 
    63   21   58 1  
    64   21   59 1  
    65   22   60 1  
    66   24   61 1  
    67   25   62 1  
    68   26   63 1  
    69   27   64 1  
    70   28   65 1  
    71   30   66 1  
    72   34   67 1  
    73   34   68 1  
    74   36   69 1  
    75   40   70 1  
    76   40   71 1  
    77   41   72 1  
    78   43   73 1  
    79   44   74 1  
    80   45   75 1  
    81   46   76 1  
    82   47   77 1  
    83   49   78 1  
    84   53   79 1  
    85   53   80 1  
    86   55   81 1  
@<TRIPOS>SUBSTRUCTURE
     1 AP5         1

