5y53_ligand
  -I-interpret- 

138137  0  0  0  0  0  0  0  0999 V2000
   -5.8580   15.5570  -11.7530 N   0  3  0  0  0
   -5.7180   14.1260  -11.4940 C   0  0  0  0  0
   -6.2640   13.7730  -10.1080 C   0  0  0  0  0
   -6.1840   14.5690   -9.1710 O   0  0  0  0  0
   -4.2460   13.6560  -11.5870 C   0  0  0  0  0
   -3.4260   14.4520  -10.7140 O   0  0  0  0  0
   -3.7350   13.7710  -13.0270 C   0  0  0  0  0
   -6.8240   12.5690   -9.9940 N   0  0  0  0  0
   -7.3040   12.0340   -8.7250 C   0  0  0  0  0
   -6.5830   10.7470   -8.3460 C   0  0  0  0  0
   -7.0000   10.0610   -7.4030 O   0  0  0  0  0
   -8.8140   11.8000   -8.7840 C   0  0  0  0  0
   -9.1280   11.0230   -9.9410 O   0  0  0  0  0
   -9.5640   13.1270   -8.8490 C   0  0  0  0  0
   -5.5160   10.4060   -9.0670 N   0  0  0  0  0
   -4.6390    9.2940   -8.7350 C   0  0  0  0  0
   -3.2230    9.6900   -9.1130 C   0  0  0  0  0
   -3.0220   10.5010  -10.0200 O   0  0  0  0  0
   -5.0010    8.0150   -9.4930 C   0  0  0  0  0
   -6.2130    7.2950   -9.0040 C   0  0  0  0  0
   -6.5120    6.0910   -9.8730 C   0  0  0  0  0
   -6.4500    6.1750  -11.1020 O   0  0  0  0  0
   -6.8220    4.9630   -9.2450 N   0  0  0  0  0
   -2.2460    9.1050   -8.4170 N   0  0  0  0  0
   -0.8430    9.1970   -8.8050 C   0  0  0  0  0
   -0.1690    7.8470   -8.6010 C   0  0  0  0  0
   -0.7140    6.9460   -7.9550 O   0  0  0  0  0
   -0.0900   10.2560   -8.0030 C   0  0  0  0  0
   -0.6200   11.6540   -8.1290 C   0  0  0  0  0
    0.2740   12.5660   -7.3310 C   0  0  0  0  0
   -0.4470   13.7120   -6.8150 N   0  0  0  0  0
   -0.0420   14.4110   -5.7630 C   0  0  0  0  0
    1.0780   14.0690   -5.1410 N   0  0  0  0  0
   -0.7510   15.4470   -5.3420 N   0  0  0  0  0
    1.0390    7.7180   -9.1490 N   0  0  0  0  0
    1.8130    6.5040   -8.9360 C   0  0  0  0  0
    2.0980    6.3140   -7.4490 C   0  0  0  0  0
    2.3710    7.2760   -6.7210 O   0  0  0  0  0
    3.1200    6.5610   -9.7310 C   0  0  0  0  0
    2.9960    6.0790  -11.1640 C   0  0  0  0  0
    4.3570    6.0670  -11.8570 C   0  0  0  0  0
    5.4410    5.4650  -10.9590 C   0  0  0  0  0
    5.1980    4.0290  -10.6110 N   0  3  0  0  0
    2.0140    5.0690   -6.9890 N   0  0  0  0  0
    2.2440    4.8120   -5.5750 C   0  0  0  0  0
    3.6750    5.1880   -5.2010 C   0  0  0  0  0
    4.6050    5.0770   -6.0060 O   0  0  0  0  0
    1.9380    3.3510   -5.2260 C   0  0  0  0  0
    3.0180    2.3370   -5.4450 C   0  0  0  0  0
    2.6230    1.0480   -4.7150 C   0  0  0  0  0
    1.2250    0.7420   -4.9850 N   0  0  0  0  0
    0.3910    0.1280   -4.1520 C   0  0  0  0  0
    0.7900   -0.2970   -2.9510 N   0  0  0  0  0
   -0.8570   -0.0670   -4.5400 N   0  0  0  0  0
    3.8310    5.6950   -3.9850 N   0  0  0  0  0
    5.1290    6.1710   -3.5310 C   0  0  0  0  0
    6.1140    5.0130   -3.4350 C   0  0  0  0  0
    5.7440    3.8950   -3.0680 O   0  0  0  0  0
    4.9890    6.8690   -2.1780 C   0  0  0  0  0
    3.9620    7.8590   -2.2580 O   0  0  0  0  0
    7.3710    5.2880   -3.7820 N   0  0  0  0  0
    8.4270    4.2720   -3.7600 C   0  0  0  0  0
    8.7170    3.7820   -2.3420 C   0  0  0  0  0
    8.8850    4.5820   -1.4180 O   0  0  0  0  0
    9.7000    4.8200   -4.3950 C   0  0  0  0  0
    8.7890    2.5760   -2.0920 O   0  0  0  0  0
   -6.8409   15.8198  -11.6810 H   0  0  0  0  0
   -5.3138   16.0803  -11.0671 H   0  0  0  0  0
   -5.5166   15.7665  -12.6911 H   0  0  0  0  0
   -6.2929   13.6124  -12.2645 H   0  0  0  0  0
   -4.1931   12.6111  -11.2814 H   0  0  0  0  0
   -3.7510   14.3758   -9.8139 H   0  0  0  0  0
   -3.7764   14.8132  -13.3437 H   0  0  0  0  0
   -2.7056   13.4158  -13.0753 H   0  0  0  0  0
   -4.3608   13.1656  -13.6827 H   0  0  0  0  0
   -6.9213   11.9958  -10.8321 H   0  0  0  0  0
   -7.0876   12.7724   -7.9530 H   0  0  0  0  0
   -9.1199   11.2694   -7.8823 H   0  0  0  0  0
  -10.0759   10.8758   -9.9786 H   0  0  0  0  0
   -9.3330   13.7172   -7.9622 H   0  0  0  0  0
   -9.2567   13.6732   -9.7408 H   0  0  0  0  0
  -10.6362   12.9352   -8.8903 H   0  0  0  0  0
   -5.3018   10.9558   -9.8990 H   0  0  0  0  0
   -4.7411    9.0865   -7.6698 H   0  0  0  0  0
   -4.1621    7.3312   -9.3634 H   0  0  0  0  0
   -5.2124    8.3137  -10.5197 H   0  0  0  0  0
   -7.0641    7.9749   -9.0413 H   0  0  0  0  0
   -6.0321    6.9556   -7.9841 H   0  0  0  0  0
   -7.0209    4.1186   -9.7816 H   0  0  0  0  0
   -6.8612    4.9408   -8.2260 H   0  0  0  0  0
   -2.4898    8.5731   -7.5815 H   0  0  0  0  0
   -0.8134    9.4878   -9.8551 H   0  0  0  0  0
    0.9293   10.2730   -8.3888 H   0  0  0  0  0
   -0.1867    9.9793   -6.9532 H   0  0  0  0  0
   -1.6414   11.7043   -7.7518 H   0  0  0  0  0
   -0.6307   11.9592   -9.1754 H   0  0  0  0  0
    1.0667   12.9272   -7.9862 H   0  0  0  0  0
    0.6708   12.0028   -6.4863 H   0  0  0  0  0
   -1.3078   13.9949   -7.2835 H   0  0  0  0  0
    1.3973   14.6049   -4.3340 H   0  0  0  0  0
    1.6203   13.2700   -5.4696 H   0  0  0  0  0
   -1.6096   15.7083   -5.8268 H   0  0  0  0  0
    1.4221    8.4720   -9.7192 H   0  0  0  0  0
    1.2323    5.6515   -9.2885 H   0  0  0  0  0
    3.8305    5.9033   -9.2303 H   0  0  0  0  0
    3.4292    7.6056   -9.7681 H   0  0  0  0  0
    2.3342    6.7557  -11.7046 H   0  0  0  0  0
    2.5974    5.0645  -11.1585 H   0  0  0  0  0
    4.6342    7.0952  -12.0897 H   0  0  0  0  0
    4.2793    5.4589  -12.7582 H   0  0  0  0  0
    5.4471    6.0315  -10.0278 H   0  0  0  0  0
    6.3835    5.5152  -11.5042 H   0  0  0  0  0
    5.9536    3.6925  -10.0141 H   0  0  0  0  0
    4.3098    3.9458  -10.1165 H   0  0  0  0  0
    5.1657    3.4739  -11.4661 H   0  0  0  0  0
    1.7903    4.3008   -7.6217 H   0  0  0  0  0
    1.5647    5.4328   -4.9909 H   0  0  0  0  0
    1.1260    3.0579   -5.8914 H   0  0  0  0  0
    1.7464    3.3433   -4.1530 H   0  0  0  0  0
    3.9659    2.7107   -5.0577 H   0  0  0  0  0
    3.1371    2.1417   -6.5107 H   0  0  0  0  0
    2.7637    1.1817   -3.6424 H   0  0  0  0  0
    3.2478    0.2269   -5.0665 H   0  0  0  0  0
    0.8536    1.0234   -5.8923 H   0  0  0  0  0
    0.1316   -0.7720   -2.3334 H   0  0  0  0  0
    1.7532   -0.1468   -2.6509 H   0  0  0  0  0
   -1.1606    0.2513   -5.4603 H   0  0  0  0  0
    3.0283    5.7521   -3.3583 H   0  0  0  0  0
    5.5128    6.8894   -4.2554 H   0  0  0  0  0
    5.9335    7.3452   -1.9149 H   0  0  0  0  0
    4.7282    6.1352   -1.4154 H   0  0  0  0  0
    3.8744    8.2970   -1.4082 H   0  0  0  0  0
    7.6059    6.2371   -4.0725 H   0  0  0  0  0
    8.0724    3.4189   -4.3385 H   0  0  0  0  0
    9.4970    5.1015   -5.4283 H   0  0  0  0  0
   10.0349    5.6949   -3.8378 H   0  0  0  0  0
   10.4751    4.0540   -4.3713 H   0  0  0  0  0
    8.6391    2.0741   -2.8965 H   0  0  0  0  0
  1  2  1  0  0  0
  2  3  1  0  0  0
  2  5  1  0  0  0
  3  4  2  0  0  0
  3  8  1  0  0  0
  5  6  1  0  0  0
  5  7  1  0  0  0
  8  9  1  0  0  0
  9 10  1  0  0  0
  9 12  1  0  0  0
 10 11  2  0  0  0
 10 15  1  0  0  0
 12 13  1  0  0  0
 12 14  1  0  0  0
 15 16  1  0  0  0
 16 17  1  0  0  0
 16 19  1  0  0  0
 17 18  2  0  0  0
 17 24  1  0  0  0
 19 20  1  0  0  0
 20 21  1  0  0  0
 21 22  2  0  0  0
 21 23  1  0  0  0
 24 25  1  0  0  0
 25 26  1  0  0  0
 25 28  1  0  0  0
 26 27  2  0  0  0
 26 35  1  0  0  0
 28 29  1  0  0  0
 29 30  1  0  0  0
 30 31  1  0  0  0
 31 32  1  0  0  0
 32 33  1  0  0  0
 32 34  2  0  0  0
 35 36  1  0  0  0
 36 37  1  0  0  0
 36 39  1  0  0  0
 37 38  2  0  0  0
 37 44  1  0  0  0
 39 40  1  0  0  0
 40 41  1  0  0  0
 41 42  1  0  0  0
 42 43  1  0  0  0
 44 45  1  0  0  0
 45 46  1  0  0  0
 45 48  1  0  0  0
 46 47  2  0  0  0
 46 55  1  0  0  0
 48 49  1  0  0  0
 49 50  1  0  0  0
 50 51  1  0  0  0
 51 52  1  0  0  0
 52 53  1  0  0  0
 52 54  2  0  0  0
 55 56  1  0  0  0
 56 57  1  0  0  0
 56 59  1  0  0  0
 57 58  2  0  0  0
 57 61  1  0  0  0
 59 60  1  0  0  0
 61 62  1  0  0  0
 62 63  1  0  0  0
 62 65  1  0  0  0
 63 64  2  0  0  0
 63 66  1  0  0  0
  1 67  1  0  0  0
  1 68  1  0  0  0
  1 69  1  0  0  0
  2 70  1  0  0  0
  5 71  1  0  0  0
  6 72  1  0  0  0
  7 73  1  0  0  0
  7 74  1  0  0  0
  7 75  1  0  0  0
  8 76  1  0  0  0
  9 77  1  0  0  0
 12 78  1  0  0  0
 13 79  1  0  0  0
 14 80  1  0  0  0
 14 81  1  0  0  0
 14 82  1  0  0  0
 15 83  1  0  0  0
 16 84  1  0  0  0
 19 85  1  0  0  0
 19 86  1  0  0  0
 20 87  1  0  0  0
 20 88  1  0  0  0
 23 89  1  0  0  0
 23 90  1  0  0  0
 24 91  1  0  0  0
 25 92  1  0  0  0
 28 93  1  0  0  0
 28 94  1  0  0  0
 29 95  1  0  0  0
 29 96  1  0  0  0
 30 97  1  0  0  0
 30 98  1  0  0  0
 31 99  1  0  0  0
 33100  1  0  0  0
 33101  1  0  0  0
 34102  1  0  0  0
 35103  1  0  0  0
 36104  1  0  0  0
 39105  1  0  0  0
 39106  1  0  0  0
 40107  1  0  0  0
 40108  1  0  0  0
 41109  1  0  0  0
 41110  1  0  0  0
 42111  1  0  0  0
 42112  1  0  0  0
 43113  1  0  0  0
 43114  1  0  0  0
 43115  1  0  0  0
 44116  1  0  0  0
 45117  1  0  0  0
 48118  1  0  0  0
 48119  1  0  0  0
 49120  1  0  0  0
 49121  1  0  0  0
 50122  1  0  0  0
 50123  1  0  0  0
 51124  1  0  0  0
 53125  1  0  0  0
 53126  1  0  0  0
 54127  1  0  0  0
 55128  1  0  0  0
 56129  1  0  0  0
 59130  1  0  0  0
 59131  1  0  0  0
 60132  1  0  0  0
 61133  1  0  0  0
 62134  1  0  0  0
 65135  1  0  0  0
 65136  1  0  0  0
 65137  1  0  0  0
 66138  1  0  0  0
M  END
$$$$
