### 
### Created by X-TOOL on Mon Aug  2 16:17:02 2021
### 

@<TRIPOS>MOLECULE
5y53_ligand
  139   138     1     0     0
SMALL
GAST_HUCK


@<TRIPOS>ATOM
      1 N          -5.8580   15.5570  -11.7530 N.4       1 THR         0.2398
      2 CA         -5.7180   14.1260  -11.4940 C.3       1 THR         0.0910
      3 C          -6.2640   13.7730  -10.1080 C.2       1 THR         0.2293
      4 O          -6.1840   14.5690   -9.1710 O.2       1 THR        -0.3906
      5 CB         -4.2460   13.6560  -11.5870 C.3       1 THR         0.1120
      6 OG1        -3.4260   14.4520  -10.7140 O.3       1 THR        -0.3840
      7 CG2        -3.7350   13.7710  -13.0270 C.3       1 THR        -0.0314
      8 N          -6.8240   12.5690   -9.9940 N.am      1 THR        -0.2585
      9 CA         -7.3040   12.0340   -8.7250 C.3       1 THR         0.1566
     10 C          -6.5830   10.7470   -8.3460 C.2       1 THR         0.2065
     11 O          -7.0000   10.0610   -7.4030 O.2       1 THR        -0.3943
     12 CB         -8.8140   11.8000   -8.7840 C.3       1 THR         0.0924
     13 OG1        -9.1280   11.0230   -9.9410 O.3       1 THR        -0.3874
     14 CG2        -9.5640   13.1270   -8.8490 C.3       1 THR        -0.0346
     15 N          -5.5160   10.4060   -9.0670 N.am      1 THR        -0.2635
     16 CA         -4.6390    9.2940   -8.7350 C.3       1 THR         0.1330
     17 C          -3.2230    9.6900   -9.1130 C.2       1 THR         0.2040
     18 O          -3.0220   10.5010  -10.0200 O.2       1 THR        -0.3944
     19 CB         -5.0010    8.0150   -9.4930 C.3       1 THR         0.0045
     20 CG         -6.2130    7.2950   -9.0040 C.3       1 THR         0.0412
     21 CD         -6.5120    6.0910   -9.8730 C.2       1 THR         0.1737
     22 OE1        -6.4500    6.1750  -11.1020 O.2       1 THR        -0.3973
     23 NE2        -6.8220    4.9630   -9.2450 N.am      1 THR        -0.3009
     24 N          -2.2460    9.1050   -8.4170 N.am      1 THR        -0.2637
     25 CA         -0.8430    9.1970   -8.8050 C.3       1 THR         0.1311
     26 C          -0.1690    7.8470   -8.6010 C.2       1 THR         0.2039
     27 O          -0.7140    6.9460   -7.9550 O.2       1 THR        -0.3944
     28 CB         -0.0900   10.2560   -8.0030 C.3       1 THR        -0.0092
     29 CG         -0.6200   11.6540   -8.1290 C.3       1 THR        -0.0156
     30 CD          0.2740   12.5660   -7.3310 C.3       1 THR         0.0627
     31 NE         -0.4470   13.7120   -6.8150 N.pl3     1 THR        -0.2723
     32 CZ         -0.0420   14.4110   -5.7630 C.cat     1 THR         0.2882
     33 NH1         1.0780   14.0690   -5.1410 N.pl3     1 THR        -0.2849
     34 NH2        -0.7510   15.4470   -5.3420 N.pl3     1 THR        -0.2849
     35 N           1.0390    7.7180   -9.1490 N.am      1 THR        -0.2637
     36 CA          1.8130    6.5040   -8.9360 C.3       1 THR         0.1310
     37 C           2.0980    6.3140   -7.4490 C.2       1 THR         0.2039
     38 O           2.3710    7.2760   -6.7210 O.2       1 THR        -0.3944
     39 CB          3.1200    6.5610   -9.7310 C.3       1 THR        -0.0122
     40 CG          2.9960    6.0790  -11.1640 C.3       1 THR        -0.0440
     41 CD          4.3570    6.0670  -11.8570 C.3       1 THR        -0.0124
     42 CE          5.4410    5.4650  -10.9590 C.3       1 THR        -0.0354
     43 NZ          5.1980    4.0290  -10.6110 N.4       1 THR         0.2185
     44 N           2.0140    5.0690   -6.9890 N.am      1 THR        -0.2637
     45 CA          2.2440    4.8120   -5.5750 C.3       1 THR         0.1311
     46 C           3.6750    5.1880   -5.2010 C.2       1 THR         0.2040
     47 O           4.6050    5.0770   -6.0060 O.2       1 THR        -0.3944
     48 CB          1.9380    3.3510   -5.2260 C.3       1 THR        -0.0092
     49 CG          3.0180    2.3370   -5.4450 C.3       1 THR        -0.0156
     50 CD          2.6230    1.0480   -4.7150 C.3       1 THR         0.0627
     51 NE          1.2250    0.7420   -4.9850 N.pl3     1 THR        -0.2723
     52 CZ          0.3910    0.1280   -4.1520 C.cat     1 THR         0.2882
     53 NH1         0.7900   -0.2970   -2.9510 N.pl3     1 THR        -0.2849
     54 NH2        -0.8570   -0.0670   -4.5400 N.pl3     1 THR        -0.2849
     55 N           3.8310    5.6950   -3.9850 N.am      1 THR        -0.2616
     56 CA          5.1290    6.1710   -3.5310 C.3       1 THR         0.1539
     57 C           6.1140    5.0130   -3.4350 C.2       1 THR         0.2056
     58 O           5.7440    3.8950   -3.0680 O.2       1 THR        -0.3943
     59 CB          4.9890    6.8690   -2.1780 C.3       1 THR         0.0843
     60 OG          3.9620    7.8590   -2.2580 O.3       1 THR        -0.3903
     61 N           7.3710    5.2880   -3.7820 N.am      1 THR        -0.2697
     62 CA          8.4270    4.2720   -3.7600 C.3       1 THR         0.0916
     63 C           8.7170    3.7820   -2.3420 C.2       1 THR         0.0598
     64 O           8.8850    4.5820   -1.4180 O.co2     1 THR        -0.5666
     65 CB          9.7000    4.8200   -4.3950 C.3       1 THR        -0.0300
     66 OXT         8.7890    2.5760   -2.0920 O.co2     1 THR        -0.5666
     67 H1         -6.8291   15.8178  -11.6821 H         1 THR         0.2016
     68 H2         -5.5210   15.7653  -12.6799 H         1 THR         0.2016
     69 H3         -5.3207   16.0752  -11.0757 H         1 THR         0.2016
     70 H4         -6.3032   13.5842  -12.2516 H         1 THR         0.1125
     71 H5         -4.1880   12.6036  -11.2723 H         1 THR         0.0674
     72 H6         -3.7316   14.3560   -9.8196 H         1 THR         0.2102
     73 H7         -2.6892   13.4331  -13.0730 H         1 THR         0.0258
     74 H8         -3.7965   14.8191  -13.3553 H         1 THR         0.0258
     75 H9         -4.3524   13.1434  -13.6864 H         1 THR         0.0258
     76 H10        -6.9194   12.0071  -10.8157 H         1 THR         0.1885
     77 H11        -7.1009   12.7803   -7.9429 H         1 THR         0.0826
     78 H12        -9.1281   11.2538   -7.8823 H         1 THR         0.0639
     79 H13       -10.0660   10.8773   -9.9782 H         1 THR         0.2101
     80 H14       -10.6463   12.9348   -8.8907 H         1 THR         0.0257
     81 H15        -9.2548   13.6793   -9.7486 H         1 THR         0.0257
     82 H16        -9.3318   13.7237   -7.9545 H         1 THR         0.0257
     83 H17        -5.3060   10.9450   -9.8827 H         1 THR         0.1883
     84 H18        -4.6983    9.0987   -7.6541 H         1 THR         0.0801
     85 H19        -4.1465    7.3260   -9.4211 H         1 THR         0.0337
     86 H20        -5.1688    8.2824  -10.5467 H         1 THR         0.0337
     87 H21        -7.0735    7.9798   -9.0286 H         1 THR         0.0504
     88 H22        -6.0406    6.9597   -7.9706 H         1 THR         0.0504
     89 H23        -7.0283    4.1381   -9.7713 H         1 THR         0.1814
     90 H24        -6.8492    4.9383   -8.2457 H         1 THR         0.1814
     91 H25        -2.4851    8.5835   -7.5979 H         1 THR         0.1883
     92 H26        -0.7940    9.4656   -9.8706 H         1 THR         0.0800
     93 H27         0.9567   10.2578   -8.3413 H         1 THR         0.0313
     94 H28        -0.1317    9.9714   -6.9413 H         1 THR         0.0313
     95 H29        -1.6464   11.7006   -7.7362 H         1 THR         0.0301
     96 H30        -0.6174   11.9601   -9.1855 H         1 THR         0.0301
     97 H31         1.0894   12.9208   -7.9785 H         1 THR         0.0689
     98 H32         0.6956   12.0012   -6.4865 H         1 THR         0.0689
     99 H33        -1.3162   13.9977   -7.2881 H         1 THR         0.2642
    100 H34         1.3981   14.6076   -4.3235 H         1 THR         0.2615
    101 H35         1.6278   13.2648   -5.4754 H         1 THR         0.2615
    102 H36        -1.6202   15.7082   -5.8289 H         1 THR         0.2615
    103 H37        -0.4333   15.9917   -4.5276 H         1 THR         0.2615
    104 H38         1.4146    8.4573   -9.7080 H         1 THR         0.1883
    105 H39         1.2244    5.6456   -9.2920 H         1 THR         0.0800
    106 H40         3.8635    5.9328   -9.2186 H         1 THR         0.0312
    107 H41         3.4694    7.6039   -9.7466 H         1 THR         0.0312
    108 H42         2.3191    6.7508  -11.7122 H         1 THR         0.0269
    109 H43         2.5822    5.0598  -11.1662 H         1 THR         0.0269
    110 H44         4.6372    7.0998  -12.1115 H         1 THR         0.0317
    111 H45         4.2837    5.4695  -12.7776 H         1 THR         0.0317
    112 H46         5.4836    6.0469  -10.0265 H         1 THR         0.0813
    113 H47         6.4063    5.5382  -11.4813 H         1 THR         0.0813
    114 H48         5.9442    3.6954  -10.0211 H         1 THR         0.1994
    115 H49         5.1659    3.4794  -11.4554 H         1 THR         0.1994
    116 H50         4.3204    3.9456  -10.1222 H         1 THR         0.1994
    117 H51         1.7947    4.3159   -7.6093 H         1 THR         0.1883
    118 H52         1.5604    5.4489   -4.9944 H         1 THR         0.0800
    119 H53         1.0727    3.0439   -5.8317 H         1 THR         0.0313
    120 H54         1.6694    3.3183   -4.1598 H         1 THR         0.0313
    121 H55         3.9700    2.7149   -5.0438 H         1 THR         0.0301
    122 H56         3.1274    2.1365   -6.5210 H         1 THR         0.0301
    123 H57         2.7659    1.1819   -3.6326 H         1 THR         0.0689
    124 H58         3.2539    0.2191   -5.0684 H         1 THR         0.0689
    125 H59         0.8500    1.0261   -5.9012 H         1 THR         0.2642
    126 H60         0.1233   -0.7701   -2.3245 H         1 THR         0.2615
    127 H61         1.7646   -0.1518   -2.6509 H         1 THR         0.2615
    128 H62        -1.1654    0.2607   -5.4665 H         1 THR         0.2615
    129 H63        -1.5214   -0.5467   -3.9159 H         1 THR         0.2615
    130 H64         3.0440    5.7509   -3.3706 H         1 THR         0.1884
    131 H65         5.5127    6.8973   -4.2626 H         1 THR         0.0823
    132 H66         5.9421    7.3498   -1.9129 H         1 THR         0.0606
    133 H67         4.7254    6.1284   -1.4086 H         1 THR         0.0606
    134 H68         4.1907    8.4980   -2.9228 H         1 THR         0.2097
    135 H69         7.6013    6.2185   -4.0668 H         1 THR         0.1875
    136 H70         8.0848    3.4122   -4.3547 H         1 THR         0.0723
    137 H71        10.4831    4.0478   -4.3717 H         1 THR         0.0270
    138 H72        10.0390    5.7031   -3.8336 H         1 THR         0.0270
    139 H73         9.4965    5.1044   -5.4379 H         1 THR         0.0270
@<TRIPOS>BOND
     1    1    2 1  
     2    2    3 1  
     3    2    5 1  
     4    3    4 2  
     5    3    8 am 
     6    5    6 1  
     7    5    7 1  
     8    8    9 1  
     9    9   10 1  
    10    9   12 1  
    11   10   11 2  
    12   10   15 am 
    13   12   13 1  
    14   12   14 1  
    15   15   16 1  
    16   16   17 1  
    17   16   19 1  
    18   17   18 2  
    19   17   24 am 
    20   19   20 1  
    21   20   21 1  
    22   21   22 2  
    23   21   23 am 
    24   24   25 1  
    25   25   26 1  
    26   25   28 1  
    27   26   27 2  
    28   26   35 am 
    29   28   29 1  
    30   29   30 1  
    31   30   31 1  
    32   31   32 ar 
    33   32   33 ar 
    34   32   34 ar 
    35   35   36 1  
    36   36   37 1  
    37   36   39 1  
    38   37   38 2  
    39   37   44 am 
    40   39   40 1  
    41   40   41 1  
    42   41   42 1  
    43   42   43 1  
    44   44   45 1  
    45   45   46 1  
    46   45   48 1  
    47   46   47 2  
    48   46   55 am 
    49   48   49 1  
    50   49   50 1  
    51   50   51 1  
    52   51   52 ar 
    53   52   53 ar 
    54   52   54 ar 
    55   55   56 1  
    56   56   57 1  
    57   56   59 1  
    58   57   58 2  
    59   57   61 am 
    60   59   60 1  
    61   61   62 1  
    62   62   63 1  
    63   62   65 1  
    64   63   64 ar 
    65   63   66 ar 
    66    1   67 1  
    67    1   68 1  
    68    1   69 1  
    69    2   70 1  
    70    5   71 1  
    71    6   72 1  
    72    7   73 1  
    73    7   74 1  
    74    7   75 1  
    75    8   76 1  
    76    9   77 1  
    77   12   78 1  
    78   13   79 1  
    79   14   80 1  
    80   14   81 1  
    81   14   82 1  
    82   15   83 1  
    83   16   84 1  
    84   19   85 1  
    85   19   86 1  
    86   20   87 1  
    87   20   88 1  
    88   23   89 1  
    89   23   90 1  
    90   24   91 1  
    91   25   92 1  
    92   28   93 1  
    93   28   94 1  
    94   29   95 1  
    95   29   96 1  
    96   30   97 1  
    97   30   98 1  
    98   31   99 1  
    99   33  100 1  
   100   33  101 1  
   101   34  102 1  
   102   34  103 1  
   103   35  104 1  
   104   36  105 1  
   105   39  106 1  
   106   39  107 1  
   107   40  108 1  
   108   40  109 1  
   109   41  110 1  
   110   41  111 1  
   111   42  112 1  
   112   42  113 1  
   113   43  114 1  
   114   43  115 1  
   115   43  116 1  
   116   44  117 1  
   117   45  118 1  
   118   48  119 1  
   119   48  120 1  
   120   49  121 1  
   121   49  122 1  
   122   50  123 1  
   123   50  124 1  
   124   51  125 1  
   125   53  126 1  
   126   53  127 1  
   127   54  128 1  
   128   54  129 1  
   129   55  130 1  
   130   56  131 1  
   131   59  132 1  
   132   59  133 1  
   133   60  134 1  
   134   61  135 1  
   135   62  136 1  
   136   65  137 1  
   137   65  138 1  
   138   65  139 1  
@<TRIPOS>SUBSTRUCTURE
     1 THR         1

