2q8m_ligand
  -I-interpret- 

 37 39  0  0  0  0  0  0  0  0999 V2000
  114.2750   58.8120   21.5190 P   0  0  0  0  0
  113.7420   59.8080   20.5090 O   0  0  0  0  0
  113.2740   57.7190   21.8450 O   0  0  0  0  0
  114.8280   59.4900   22.7630 O   0  0  0  0  0
  115.5370   58.0680   20.7980 O   0  0  0  0  0
  116.6740   58.8230   20.3280 C   0  0  0  0  0
  117.3150   58.1320   19.1420 C   0  0  0  0  0
  117.9040   56.8670   19.5580 O   0  0  0  0  0
  116.3680   57.7450   18.0180 C   0  0  0  0  0
  116.1330   58.8340   17.1370 O   0  0  0  0  0
  117.1570   56.6390   17.3340 C   0  0  0  0  0
  118.2330   57.1650   16.5820 O   0  0  0  0  0
  117.7000   55.8880   18.5490 C   0  0  0  0  0
  116.7240   54.9200   19.0510 N   0  0  0  0  0
  115.9210   55.0400   20.1590 C   0  0  0  0  0
  115.1170   54.0190   20.3430 N   0  0  0  0  0
  115.4150   53.1660   19.2910 C   0  0  0  0  0
  114.9050   51.9130   18.9190 C   0  0  0  0  0
  113.9380   51.2760   19.5890 N   0  0  0  0  0
  115.4230   51.3290   17.8170 N   0  0  0  0  0
  116.3820   51.9700   17.1420 C   0  0  0  0  0
  116.9410   53.1500   17.3900 N   0  0  0  0  0
  116.4080   53.7040   18.4910 C   0  0  0  0  0
  113.6575   57.1163   22.4863 H   0  0  0  0  0
  115.1530   58.8228   23.3720 H   0  0  0  0  0
  117.4060   58.8990   21.1321 H   0  0  0  0  0
  116.3394   59.8143   20.0223 H   0  0  0  0  0
  118.0269   58.8723   18.7770 H   0  0  0  0  0
  115.3752   57.4458   18.3540 H   0  0  0  0  0
  115.5329   58.5571   16.4408 H   0  0  0  0  0
  116.5709   56.0429   16.6345 H   0  0  0  0  0
  118.7111   56.4455   16.1632 H   0  0  0  0  0
  118.6098   55.3505   18.2817 H   0  0  0  0  0
  115.9489   55.9033   20.8239 H   0  0  0  0  0
  113.5292   51.7009   20.4213 H   0  0  0  0  0
  113.6095   50.3654   19.2675 H   0  0  0  0  0
  116.7600   51.4503   16.2616 H   0  0  0  0  0
  1  2  2  0  0  0
  1  3  1  0  0  0
  1  4  1  0  0  0
  1  5  1  0  0  0
  5  6  1  0  0  0
  6  7  1  0  0  0
  7  8  1  0  0  0
  7  9  1  0  0  0
  8 13  1  0  0  0
  9 10  1  0  0  0
  9 11  1  0  0  0
 11 12  1  0  0  0
 11 13  1  0  0  0
 13 14  1  0  0  0
 14 15  4  0  0  0
 14 23  4  0  0  0
 15 16  4  0  0  0
 16 17  4  0  0  0
 17 18  4  0  0  0
 17 23  4  0  0  0
 18 19  1  0  0  0
 18 20  4  0  0  0
 20 21  4  0  0  0
 21 22  4  0  0  0
 22 23  4  0  0  0
  3 24  1  0  0  0
  4 25  1  0  0  0
  6 26  1  0  0  0
  6 27  1  0  0  0
  7 28  1  0  0  0
  9 29  1  0  0  0
 10 30  1  0  0  0
 11 31  1  0  0  0
 12 32  1  0  0  0
 13 33  1  0  0  0
 15 34  1  0  0  0
 19 35  1  0  0  0
 19 36  1  0  0  0
 21 37  1  0  0  0
M  END
$$$$
