3v8t_ligand
  -I-interpret- 

 43 46  0  0  0  0  0  0  0  0999 V2000
  -49.3900  -18.1100   32.4560 C   0  0  0  0  0
  -50.1340  -16.9080   33.0390 C   0  0  0  0  0
  -51.6530  -17.0340   32.8670 C   0  0  0  0  0
  -52.3090  -15.8280   33.5540 C   0  0  0  0  0
  -53.8290  -15.9750   33.6420 C   0  0  0  0  0
  -52.1010  -18.2380   33.5080 O   0  0  0  0  0
  -52.0240  -17.0410   31.3690 C   0  0  0  0  0
  -51.5370  -16.0360   30.5260 C   0  0  0  0  0
  -52.8510  -18.0370   30.8330 C   0  0  0  0  0
  -53.1790  -18.0330   29.4710 C   0  0  0  0  0
  -52.6960  -17.0200   28.6390 C   0  0  0  0  0
  -52.8320  -16.7610   27.3360 C   0  0  0  0  0
  -51.8570  -16.0440   29.1650 C   0  0  0  0  0
  -51.5590  -15.2180   28.1690 N   0  0  0  0  0
  -52.1400  -15.6510   27.0490 C   0  0  0  0  0
  -52.0070  -15.0210   25.8070 C   0  0  0  0  0
  -51.2590  -13.9590   25.5000 N   0  0  0  0  0
  -51.3870  -13.6690   24.3010 N   0  0  0  0  0
  -52.2090  -14.5130   23.6650 C   0  0  0  0  0
  -52.7320  -14.7610   22.4410 C   0  0  0  0  0
  -52.6350  -15.4170   24.6420 C   0  0  0  0  0
  -53.6950  -16.5030   23.9020 S   0  0  0  0  0
  -53.5750  -15.8020   22.3880 C   0  0  0  0  0
  -54.3280  -16.2820   21.1450 C   0  0  0  0  0
  -54.0670  -15.4300   20.0860 F   0  0  0  0  0
  -53.9360  -17.5710   20.8240 F   0  0  0  0  0
  -49.7164  -19.0183   32.9625 H   0  0  0  0  0
  -49.6073  -18.1884   31.3908 H   0  0  0  0  0
  -48.3178  -17.9771   32.6006 H   0  0  0  0  0
  -49.8041  -16.0137   32.5103 H   0  0  0  0  0
  -49.9148  -16.8559   34.1055 H   0  0  0  0  0
  -52.0863  -14.9379   32.9655 H   0  0  0  0  0
  -51.9143  -15.7570   34.5676 H   0  0  0  0  0
  -54.2431  -16.0619   32.6375 H   0  0  0  0  0
  -54.0737  -16.8688   34.2158 H   0  0  0  0  0
  -54.2495  -15.0986   34.1352 H   0  0  0  0  0
  -51.8606  -18.2131   34.4371 H   0  0  0  0  0
  -50.9064  -15.2447   30.9314 H   0  0  0  0  0
  -53.2423  -18.8213   31.4810 H   0  0  0  0  0
  -53.8111  -18.8204   29.0604 H   0  0  0  0  0
  -53.4090  -17.3533   26.6258 H   0  0  0  0  0
  -52.4863  -14.1600   21.5654 H   0  0  0  0  0
  -55.3985  -16.2804   21.3503 H   0  0  0  0  0
  1  2  1  0  0  0
  2  3  1  0  0  0
  3  4  1  0  0  0
  3  6  1  0  0  0
  3  7  1  0  0  0
  4  5  1  0  0  0
  7  8  4  0  0  0
  7  9  4  0  0  0
  8 13  4  0  0  0
  9 10  4  0  0  0
 10 11  4  0  0  0
 11 12  4  0  0  0
 11 13  4  0  0  0
 12 15  4  0  0  0
 13 14  4  0  0  0
 14 15  4  0  0  0
 15 16  1  0  0  0
 16 17  4  0  0  0
 16 21  4  0  0  0
 17 18  4  0  0  0
 18 19  4  0  0  0
 19 20  4  0  0  0
 19 21  4  0  0  0
 20 23  4  0  0  0
 21 22  4  0  0  0
 22 23  4  0  0  0
 23 24  1  0  0  0
 24 25  1  0  0  0
 24 26  1  0  0  0
  1 27  1  0  0  0
  1 28  1  0  0  0
  1 29  1  0  0  0
  2 30  1  0  0  0
  2 31  1  0  0  0
  4 32  1  0  0  0
  4 33  1  0  0  0
  5 34  1  0  0  0
  5 35  1  0  0  0
  5 36  1  0  0  0
  6 37  1  0  0  0
  8 38  1  0  0  0
  9 39  1  0  0  0
 10 40  1  0  0  0
 12 41  1  0  0  0
 20 42  1  0  0  0
 24 43  1  0  0  0
M  END
$$$$
