6kjd_ligand
  -I-interpret- 

 68 69  0  0  0  0  0  0  0  0999 V2000
   10.8500   39.7040   11.1860 O   0  0  0  0  0
   11.1610   37.2020   10.5580 O   0  0  0  0  0
    8.9530   40.1950   12.2090 O   0  0  0  0  0
   10.1450   38.0880    6.5360 O   0  0  0  0  0
   10.1070   32.2810    6.1940 O   0  0  0  0  0
    6.2290   32.9760    4.2110 C   0  0  0  0  0
    7.6620   32.7920    3.8510 C   0  0  0  0  0
   10.0030   37.2310    7.6760 C   0  0  0  0  0
    5.8630   34.0090    4.9770 C   0  0  0  0  0
    8.7690   33.6150    4.4730 C   0  0  0  0  0
    9.6250   39.3710   11.6040 C   0  0  0  0  0
    6.8790   35.0740    5.3640 C   0  0  0  0  0
    8.2500   34.4370    5.6520 C   0  0  0  0  0
    9.7740   37.2880   10.2130 C   0  0  0  0  0
    7.9970   31.8810    2.9380 C   0  0  0  0  0
   10.0430   32.7940    4.8280 C   0  0  0  0  0
    8.9600   36.1690    7.3350 C   0  0  0  0  0
    9.5610   38.0410    8.8990 C   0  0  0  0  0
    9.3050   35.4740    6.0200 C   0  0  0  0  0
   10.2960   31.6840    3.7960 C   0  0  0  0  0
    6.9350   36.1410    4.2670 C   0  0  0  0  0
    9.0490   37.9980   11.3530 C   0  0  0  0  0
    9.4450   31.8100    2.5320 C   0  0  0  0  0
    9.6230   30.6110    1.6100 C   0  0  0  0  0
   11.1350   32.8790    7.1800 C   0  0  0  0  0
   10.8360   33.1030    8.6360 C   0  0  0  0  0
   12.3150   33.2280    6.9770 O   0  0  0  0  0
   12.1530   33.5940    9.2810 C   0  0  0  0  0
   10.3020   31.8200    9.2620 C   0  0  0  0  0
   12.0050   34.1510   10.6870 C   0  0  0  0  0
   11.2461   38.9567   10.7318 H   0  0  0  0  0
   11.2547   36.7244   11.3855 H   0  0  0  0  0
   10.7974   38.7661    6.7261 H   0  0  0  0  0
    5.4802   32.2704    3.8510 H   0  0  0  0  0
   10.9560   36.7600    7.9168 H   0  0  0  0  0
    4.8333   34.0886    5.3255 H   0  0  0  0  0
    9.0996   34.3125    3.7034 H   0  0  0  0  0
    6.5727   35.5654    6.2875 H   0  0  0  0  0
    8.0829   33.7769    6.5032 H   0  0  0  0  0
    9.3772   36.2831   10.0689 H   0  0  0  0  0
    7.2527   31.2142    2.5027 H   0  0  0  0  0
   10.8543   33.5204    4.7807 H   0  0  0  0  0
    7.9875   36.6508    7.2337 H   0  0  0  0  0
    8.9417   35.4253    8.1317 H   0  0  0  0  0
    8.4949   38.2445    8.7986 H   0  0  0  0  0
   10.1608   38.9505    8.9331 H   0  0  0  0  0
    9.3463   36.2240    5.2302 H   0  0  0  0  0
   10.2643   34.9693    6.1342 H   0  0  0  0  0
   10.0376   30.7363    4.2684 H   0  0  0  0  0
   11.3406   31.7545    3.4926 H   0  0  0  0  0
    7.2312   35.6776    3.3259 H   0  0  0  0  0
    5.9514   36.5972    4.1551 H   0  0  0  0  0
    7.6621   36.9051    4.5419 H   0  0  0  0  0
    7.9996   38.1082   11.0796 H   0  0  0  0  0
    9.1648   37.4037   12.2594 H   0  0  0  0  0
    9.7592   32.7062    1.9970 H   0  0  0  0  0
    9.3368   29.7019    2.1389 H   0  0  0  0  0
    8.9923   30.7345    0.7296 H   0  0  0  0  0
   10.6668   30.5415    1.3039 H   0  0  0  0  0
   10.0584   33.8507    8.7924 H   0  0  0  0  0
   12.5277   34.4054    8.6570 H   0  0  0  0  0
   12.8127   32.7291    9.3511 H   0  0  0  0  0
    9.3878   31.5203    8.7495 H   0  0  0  0  0
   11.0490   31.0320    9.1658 H   0  0  0  0  0
   10.0886   31.9933   10.3168 H   0  0  0  0  0
   11.3262   35.0036   10.6691 H   0  0  0  0  0
   11.6026   33.3783   11.3420 H   0  0  0  0  0
   12.9804   34.4692   11.0549 H   0  0  0  0  0
 11  1  1  0  0  0
 14  2  1  0  0  0
 11  3  2  0  0  0
  8  4  1  0  0  0
 16  5  1  0  0  0
  5 25  1  0  0  0
  7  6  1  0  0  0
  9  6  2  0  0  0
 10  7  1  0  0  0
  7 15  2  0  0  0
 17  8  1  0  0  0
  8 18  1  0  0  0
 12  9  1  0  0  0
 13 10  1  0  0  0
 10 16  1  0  0  0
 22 11  1  0  0  0
 13 12  1  0  0  0
 12 21  1  0  0  0
 19 13  1  0  0  0
 18 14  1  0  0  0
 14 22  1  0  0  0
 15 23  1  0  0  0
 16 20  1  0  0  0
 17 19  1  0  0  0
 20 23  1  0  0  0
 23 24  1  0  0  0
 25 26  1  0  0  0
 25 27  2  0  0  0
 26 28  1  0  0  0
 26 29  1  0  0  0
 28 30  1  0  0  0
  1 31  1  0  0  0
  2 32  1  0  0  0
  4 33  1  0  0  0
  6 34  1  0  0  0
  8 35  1  0  0  0
  9 36  1  0  0  0
 10 37  1  0  0  0
 12 38  1  0  0  0
 13 39  1  0  0  0
 14 40  1  0  0  0
 15 41  1  0  0  0
 16 42  1  0  0  0
 17 43  1  0  0  0
 17 44  1  0  0  0
 18 45  1  0  0  0
 18 46  1  0  0  0
 19 47  1  0  0  0
 19 48  1  0  0  0
 20 49  1  0  0  0
 20 50  1  0  0  0
 21 51  1  0  0  0
 21 52  1  0  0  0
 21 53  1  0  0  0
 22 54  1  0  0  0
 22 55  1  0  0  0
 23 56  1  0  0  0
 24 57  1  0  0  0
 24 58  1  0  0  0
 24 59  1  0  0  0
 26 60  1  0  0  0
 28 61  1  0  0  0
 28 62  1  0  0  0
 29 63  1  0  0  0
 29 64  1  0  0  0
 29 65  1  0  0  0
 30 66  1  0  0  0
 30 67  1  0  0  0
 30 68  1  0  0  0
M  END
$$$$
