2p83_ligand
  -I-interpret- 

 85 87  0  0  0  0  0  0  0  0999 V2000
  -23.1910   56.9660   64.0390 N   0  0  0  0  0
  -25.6080   57.0410   64.4350 C   0  0  0  0  0
  -25.4090   57.5420   65.7700 C   0  0  0  0  0
  -26.3000   58.1290   68.1220 C   0  0  0  0  0
  -29.2860   56.1760   64.4740 C   0  0  0  0  0
  -24.4760   56.9980   63.4910 C   0  0  0  0  0
  -25.3990   60.6170   67.7380 C   0  0  0  0  0
  -26.6470   61.2590   67.0870 C   0  0  0  0  0
  -21.8950   56.9600   63.2570 C   0  0  0  0  0
  -20.9590   57.9280   64.0340 C   0  0  0  0  0
  -22.4840   53.3060   59.6490 C   0  0  0  0  0
  -23.7590   53.5870   59.0400 C   0  0  0  0  0
  -23.8240   54.3330   57.7990 C   0  0  0  0  0
  -21.3010   54.5330   57.7590 C   0  0  0  0  0
  -22.9390   61.2620   63.4260 C   0  0  0  0  0
  -21.6530   59.3000   64.3070 C   0  0  0  0  0
  -26.5170   57.6040   66.7220 C   0  0  0  0  0
  -27.8120   57.1570   66.3130 C   0  0  0  0  0
  -27.9810   56.6560   64.9600 C   0  0  0  0  0
  -26.8830   56.6020   64.0360 C   0  0  0  0  0
  -26.8860   57.5070   69.0410 O   0  0  0  0  0
  -25.4990   59.2770   68.4870 N   0  0  0  0  0
  -24.7090   59.1130   69.7700 C   0  0  0  0  0
  -23.2720   59.7260   69.7060 C   0  0  0  0  0
  -22.2190   58.6630   69.2690 C   0  0  0  0  0
  -27.7990   61.2990   68.1000 C   0  0  0  0  0
  -24.6430   57.0100   62.2660 O   0  0  0  0  0
  -21.2460   55.6060   62.9840 C   0  0  0  0  0
  -22.1630   54.7100   62.1750 C   0  0  0  0  0
  -21.5070   53.3930   61.8670 N   0  3  0  0  0
  -22.3780   52.5320   60.9960 C   0  0  0  0  0
  -22.6000   54.7960   57.1770 C   0  0  0  0  0
  -21.2660   53.7940   58.9810 C   0  0  0  0  0
  -20.2220   55.0470   57.0450 O   0  0  0  0  0
  -22.2810   60.0060   63.2270 C   0  0  0  0  0
  -21.6930   59.8860   65.6460 C   0  0  0  0  0
  -22.3580   61.1590   65.8560 C   0  0  0  0  0
  -22.9810   61.8370   64.7340 C   0  0  0  0  0
  -20.0390   55.8500   62.2320 O   0  0  0  0  0
  -18.8620   54.8920   57.4650 C   0  0  0  0  0
  -30.4530   56.7200   65.0170 N   0  0  0  0  0
  -29.3280   55.2790   63.5670 O   0  0  0  0  0
  -22.3990   61.6920   67.0530 F   0  0  0  0  0
  -23.5100   61.8900   62.4130 F   0  0  0  0  0
  -23.1200   56.9448   65.0563 H   0  0  0  0  0
  -24.4186   57.8798   66.0752 H   0  0  0  0  0
  -25.1058   61.3300   68.5086 H   0  0  0  0  0
  -24.7421   60.4011   66.8954 H   0  0  0  0  0
  -26.9475   60.6669   66.2226 H   0  0  0  0  0
  -26.4075   62.2750   66.7732 H   0  0  0  0  0
  -22.1037   57.2778   62.2355 H   0  0  0  0  0
  -20.0687   58.1056   63.4307 H   0  0  0  0  0
  -20.7086   57.4714   64.9916 H   0  0  0  0  0
  -24.6766   53.2379   59.5134 H   0  0  0  0  0
  -24.7880   54.5445   57.3364 H   0  0  0  0  0
  -28.6555   57.1914   67.0025 H   0  0  0  0  0
  -27.0377   56.2211   63.0265 H   0  0  0  0  0
  -24.5994   58.0437   69.9509 H   0  0  0  0  0
  -25.2522   59.6370   70.5564 H   0  0  0  0  0
  -23.0060   60.0889   70.6988 H   0  0  0  0  0
  -23.2726   60.5338   68.9742 H   0  0  0  0  0
  -22.2139   57.8423   69.9863 H   0  0  0  0  0
  -22.4775   58.2822   68.2810 H   0  0  0  0  0
  -21.2318   59.1239   69.2353 H   0  0  0  0  0
  -28.0386   60.2837   68.4161 H   0  0  0  0  0
  -27.4994   61.8894   68.9659 H   0  0  0  0  0
  -28.6745   61.7522   67.6350 H   0  0  0  0  0
  -21.0372   55.1041   63.9288 H   0  0  0  0  0
  -22.3959   55.2100   61.2349 H   0  0  0  0  0
  -23.0651   54.5207   62.7568 H   0  0  0  0  0
  -21.3430   52.9012   62.7454 H   0  0  0  0  0
  -20.6348   53.5755   61.3707 H   0  0  0  0  0
  -21.9565   51.5361   60.8593 H   0  0  0  0  0
  -23.3570   52.3616   61.4439 H   0  0  0  0  0
  -22.6590   55.3580   56.2449 H   0  0  0  0  0
  -20.2988   53.5829   59.4372 H   0  0  0  0  0
  -22.2564   59.5738   62.2267 H   0  0  0  0  0
  -21.2251   59.3687   66.4836 H   0  0  0  0  0
  -23.4843   62.7912   64.8899 H   0  0  0  0  0
  -19.6060   55.0141   62.0439 H   0  0  0  0  0
  -18.7316   55.3493   58.4458 H   0  0  0  0  0
  -18.6195   53.8309   57.5223 H   0  0  0  0  0
  -18.2032   55.3783   56.7455 H   0  0  0  0  0
  -31.3648   56.4012   64.6893 H   0  0  0  0  0
  -30.3931   57.4359   65.7411 H   0  0  0  0  0
  1  6  1  0  0  0
  9  1  1  0  0  0
  2  3  4  0  0  0
  6  2  1  0  0  0
  2 20  4  0  0  0
  3 17  4  0  0  0
 17  4  1  0  0  0
  4 21  2  0  0  0
  4 22  1  0  0  0
 19  5  1  0  0  0
  5 41  1  0  0  0
  5 42  2  0  0  0
  6 27  2  0  0  0
  7  8  1  0  0  0
 22  7  1  0  0  0
  8 26  1  0  0  0
  9 10  1  0  0  0
 28  9  1  0  0  0
 10 16  1  0  0  0
 11 12  4  0  0  0
 31 11  1  0  0  0
 11 33  4  0  0  0
 12 13  4  0  0  0
 13 32  4  0  0  0
 14 32  4  0  0  0
 33 14  4  0  0  0
 14 34  1  0  0  0
 35 15  4  0  0  0
 15 38  4  0  0  0
 15 44  1  0  0  0
 16 35  4  0  0  0
 16 36  4  0  0  0
 17 18  4  0  0  0
 19 18  4  0  0  0
 20 19  4  0  0  0
 22 23  1  0  0  0
 23 24  1  0  0  0
 24 25  1  0  0  0
 29 28  1  0  0  0
 28 39  1  0  0  0
 30 29  1  0  0  0
 30 31  1  0  0  0
 34 40  1  0  0  0
 36 37  4  0  0  0
 37 38  4  0  0  0
 37 43  1  0  0  0
  1 45  1  0  0  0
  3 46  1  0  0  0
  7 47  1  0  0  0
  7 48  1  0  0  0
  8 49  1  0  0  0
  8 50  1  0  0  0
  9 51  1  0  0  0
 10 52  1  0  0  0
 10 53  1  0  0  0
 12 54  1  0  0  0
 13 55  1  0  0  0
 18 56  1  0  0  0
 20 57  1  0  0  0
 23 58  1  0  0  0
 23 59  1  0  0  0
 24 60  1  0  0  0
 24 61  1  0  0  0
 25 62  1  0  0  0
 25 63  1  0  0  0
 25 64  1  0  0  0
 26 65  1  0  0  0
 26 66  1  0  0  0
 26 67  1  0  0  0
 28 68  1  0  0  0
 29 69  1  0  0  0
 29 70  1  0  0  0
 30 71  1  0  0  0
 30 72  1  0  0  0
 31 73  1  0  0  0
 31 74  1  0  0  0
 32 75  1  0  0  0
 33 76  1  0  0  0
 35 77  1  0  0  0
 36 78  1  0  0  0
 38 79  1  0  0  0
 39 80  1  0  0  0
 40 81  1  0  0  0
 40 82  1  0  0  0
 40 83  1  0  0  0
 41 84  1  0  0  0
 41 85  1  0  0  0
M  END
$$$$
