6bbx_ligand
  -I-interpret- 

 62 67  0  0  0  0  0  0  0  0999 V2000
   -5.3930   -9.3350    5.7450 C   0  0  0  0  0
   -6.5750   -8.5130    5.5630 O   0  0  0  0  0
   -7.0890   -7.9760    6.7320 C   0  0  0  0  0
   -6.3580   -7.7480    7.7050 O   0  0  0  0  0
   -8.6680   -7.6930    6.8480 C   0  0  0  0  0
   -9.4570   -8.8610    6.6500 O   0  0  0  0  0
   -9.3130   -6.4990    5.9830 C   0  0  0  0  0
   -8.2850   -5.8240    5.2770 C   0  0  0  0  0
  -10.2640   -7.0540    4.8930 O   0  0  0  0  0
  -10.0450   -5.5480    6.9650 C   0  0  0  0  0
  -10.5160   -6.0350    8.1480 O   0  0  0  0  0
   -9.6580   -4.9640    8.3440 C   0  0  0  0  0
  -10.2680   -3.7610    8.8260 C   0  0  0  0  0
   -9.7020   -3.1180    9.9350 C   0  0  0  0  0
  -10.1880   -1.9360   10.4560 C   0  0  0  0  0
   -9.5850   -1.3880   11.5460 O   0  0  0  0  0
  -11.3020   -1.3020    9.8760 C   0  0  0  0  0
  -11.7880   -0.0800   10.4020 C   0  0  0  0  0
  -11.2680    0.4520   11.3900 O   0  0  0  0  0
  -12.8830    0.5340    9.7900 C   0  0  0  0  0
  -13.3720    1.7480   10.3010 C   0  0  0  0  0
  -14.4690    2.3740    9.7140 C   0  0  0  0  0
  -15.0720    1.7950    8.6010 C   0  0  0  0  0
  -16.1350    2.3720    7.9940 O   0  0  0  0  0
  -14.5900    0.5870    8.0860 C   0  0  0  0  0
  -15.2030    0.0260    6.9980 O   0  0  0  0  0
  -13.4950   -0.0670    8.6700 C   0  0  0  0  0
  -13.0220   -1.2840    8.1430 C   0  0  0  0  0
  -13.6000   -1.7800    7.1690 O   0  0  0  0  0
  -11.9090   -1.9240    8.7340 C   0  0  0  0  0
  -11.3920   -3.1580    8.2150 C   0  0  0  0  0
  -11.9530   -3.8120    7.0690 N   0  0  0  0  0
  -11.0690   -4.5390    6.1180 C   0  0  0  0  0
  -10.2000   -3.5540    5.5270 C   0  0  0  0  0
   -9.3690   -2.7090    5.0740 C   0  0  0  0  0
   -8.2850   -1.6960    4.6300 C   0  0  0  0  0
   -7.1260   -1.8100    5.4630 C   0  0  0  0  0
   -7.3280   -2.8820    6.5280 C   0  0  0  0  0
   -7.6450   -3.8040    7.3520 C   0  0  0  0  0
   -8.0940   -4.9230    8.2570 C   0  0  0  0  0
   -7.2640   -4.7350    9.5270 O   0  0  0  0  0
   -4.6007   -8.7356    6.1935 H   0  0  0  0  0
   -5.6319  -10.1726    6.4003 H   0  0  0  0  0
   -5.0617   -9.7120    4.7774 H   0  0  0  0  0
   -8.7047   -7.3423    7.8794 H   0  0  0  0  0
   -9.0870   -9.5858    7.1592 H   0  0  0  0  0
   -7.7733   -6.5285    4.6213 H   0  0  0  0  0
   -8.7212   -5.0222    4.6813 H   0  0  0  0  0
   -7.5731   -5.4043    5.9877 H   0  0  0  0  0
  -10.9877   -7.5260    5.3115 H   0  0  0  0  0
   -8.8338   -3.5746   10.4103 H   0  0  0  0  0
  -10.0360   -0.5749   11.7848 H   0  0  0  0  0
  -12.8884    2.2041   11.1648 H   0  0  0  0  0
  -14.8520    3.3091   10.1226 H   0  0  0  0  0
  -16.4104    1.8305    7.2507 H   0  0  0  0  0
  -14.7581   -0.7932    6.7685 H   0  0  0  0  0
  -12.9592   -3.7789    6.9054 H   0  0  0  0  0
  -11.6757   -5.0919    5.4008 H   0  0  0  0  0
   -8.3895   -0.9958    3.8012 H   0  0  0  0  0
   -6.2219   -1.2115    5.3509 H   0  0  0  0  0
   -7.9035   -5.9388    7.9108 H   0  0  0  0  0
   -6.3310   -4.7326    9.3008 H   0  0  0  0  0
  1  2  1  0  0  0
  2  3  1  0  0  0
  3  4  2  0  0  0
  3  5  1  0  0  0
  5  6  1  0  0  0
  5  7  1  0  0  0
  7  8  1  0  0  0
  7  9  1  0  0  0
  7 10  1  0  0  0
 10 11  1  0  0  0
 10 12  1  0  0  0
 10 33  1  0  0  0
 11 12  1  0  0  0
 12 13  1  0  0  0
 12 40  1  0  0  0
 13 14  4  0  0  0
 13 31  4  0  0  0
 14 15  4  0  0  0
 15 16  1  0  0  0
 15 17  4  0  0  0
 17 18  1  0  0  0
 17 30  4  0  0  0
 18 19  2  0  0  0
 18 20  1  0  0  0
 20 21  4  0  0  0
 20 27  4  0  0  0
 21 22  4  0  0  0
 22 23  4  0  0  0
 23 24  1  0  0  0
 23 25  4  0  0  0
 25 26  1  0  0  0
 25 27  4  0  0  0
 27 28  1  0  0  0
 28 29  2  0  0  0
 28 30  1  0  0  0
 30 31  4  0  0  0
 31 32  1  0  0  0
 32 33  1  0  0  0
 33 34  1  0  0  0
 34 35  3  0  0  0
 35 36  1  0  0  0
 36 37  2  0  0  0
 37 38  1  0  0  0
 38 39  3  0  0  0
 39 40  1  0  0  0
 40 41  1  0  0  0
  1 42  1  0  0  0
  1 43  1  0  0  0
  1 44  1  0  0  0
  5 45  1  0  0  0
  6 46  1  0  0  0
  8 47  1  0  0  0
  8 48  1  0  0  0
  8 49  1  0  0  0
  9 50  1  0  0  0
 14 51  1  0  0  0
 16 52  1  0  0  0
 21 53  1  0  0  0
 22 54  1  0  0  0
 24 55  1  0  0  0
 26 56  1  0  0  0
 32 57  1  0  0  0
 33 58  1  0  0  0
 36 59  1  0  0  0
 37 60  1  0  0  0
 40 61  1  0  0  0
 41 62  1  0  0  0
M  END
$$$$
