4ddy_ligand
  -I-interpret- 

 33 35  0  0  0  0  0  0  0  0999 V2000
  -11.6650   60.6230   12.0830 F   0  0  0  0  0
  -12.3940   59.5840   11.6020 C   0  0  0  0  0
  -13.2820   59.8910   10.6590 F   0  0  0  0  0
  -13.0950   59.0460   12.5880 F   0  0  0  0  0
  -11.4100   58.5750   11.0490 C   0  0  0  0  0
  -11.1870   58.5210    9.6860 C   0  0  0  0  0
  -10.6660   57.7330   11.8940 C   0  0  0  0  0
   -9.7500   56.7960   11.3880 C   0  0  0  0  0
   -9.5550   56.7830    9.9860 C   0  0  0  0  0
  -10.2940   57.6200    9.1320 C   0  0  0  0  0
   -8.9580   55.9070   12.3460 C   0  0  0  0  0
   -9.3930   55.8160   13.5050 O   0  0  0  0  0
   -7.8410   55.2870   11.8990 N   0  0  0  0  0
   -6.9980   54.5020   12.7140 C   0  0  0  0  0
   -7.4730   53.7920   13.8030 C   0  0  0  0  0
   -6.5480   53.0840   14.5770 C   0  0  0  0  0
   -5.2130   53.0540   14.2180 C   0  0  0  0  0
   -4.7610   53.7190   13.1030 C   0  0  0  0  0
   -5.6600   54.4710   12.3580 C   0  0  0  0  0
   -3.4010   53.6620   12.7650 C   0  0  0  0  0
   -2.8540   54.2250   11.6950 N   0  0  0  0  0
   -1.4790   54.0080   11.6210 N   0  0  0  0  0
   -1.1950   53.2680   12.7760 N   0  0  0  0  0
   -2.3690   53.0960   13.4750 N   0  0  0  0  0
  -11.7275   59.2046    9.0313 H   0  0  0  0  0
  -10.8039   57.8095   12.9725 H   0  0  0  0  0
   -8.8140   56.1077    9.5583 H   0  0  0  0  0
  -10.1659   57.5605    8.0512 H   0  0  0  0  0
   -7.5940   55.3935   10.9151 H   0  0  0  0  0
   -8.5347   53.7849   14.0497 H   0  0  0  0  0
   -6.8814   52.5527   15.4685 H   0  0  0  0  0
   -4.5065   52.4931   14.8299 H   0  0  0  0  0
   -5.3126   55.0366   11.4934 H   0  0  0  0  0
  1  2  1  0  0  0
  2  3  1  0  0  0
  2  4  1  0  0  0
  2  5  1  0  0  0
  5  6  4  0  0  0
  5  7  4  0  0  0
  6 10  4  0  0  0
  7  8  4  0  0  0
  8  9  4  0  0  0
  8 11  1  0  0  0
  9 10  4  0  0  0
 11 12  2  0  0  0
 11 13  1  0  0  0
 13 14  1  0  0  0
 14 15  4  0  0  0
 14 19  4  0  0  0
 15 16  4  0  0  0
 16 17  4  0  0  0
 17 18  4  0  0  0
 18 19  4  0  0  0
 18 20  1  0  0  0
 20 21  4  0  0  0
 20 24  4  0  0  0
 21 22  4  0  0  0
 22 23  4  0  0  0
 23 24  4  0  0  0
  6 25  1  0  0  0
  7 26  1  0  0  0
  9 27  1  0  0  0
 10 28  1  0  0  0
 13 29  1  0  0  0
 15 30  1  0  0  0
 16 31  1  0  0  0
 17 32  1  0  0  0
 19 33  1  0  0  0
M  END
$$$$
