5fnd_ligand
  -I-interpret- 

 26 27  0  0  0  0  0  0  0  0999 V2000
   34.0820    7.6630   28.0380 C   0  0  0  0  0
   32.9150    8.1890   27.5910 C   0  0  0  0  0
   32.8980    8.8200   26.3450 C   0  0  0  0  0
   31.7660    9.3900   25.8670 C   0  0  0  0  0
   31.5270   10.2220   24.3280 S   0  0  0  0  0
   29.7530   10.4560   24.7710 C   0  0  0  0  0
   28.8280   11.0270   24.0400 N   0  0  0  0  0
   29.5160   10.0030   26.0140 N   0  0  0  0  0
   30.5910    9.3760   26.5990 C   0  0  0  0  0
   30.5830    8.7360   27.7880 C   0  0  0  0  0
   31.7200    8.1140   28.3200 C   0  0  0  0  0
   31.6910    7.6140   29.5850 N   0  0  0  0  0
   31.8820    6.3130   29.9880 C   0  0  0  0  0
   32.0770    5.3730   29.2400 O   0  0  0  0  0
   31.7590    6.0890   31.4960 C   0  0  0  0  0
   34.4284    6.9031   27.3376 H   0  0  0  0  0
   34.8285    8.4533   28.1172 H   0  0  0  0  0
   33.9239    7.2113   29.0173 H   0  0  0  0  0
   33.8095    8.8543   25.7482 H   0  0  0  0  0
   29.0625   11.3984   23.1194 H   0  0  0  0  0
   27.8732   11.1002   24.3914 H   0  0  0  0  0
   29.6540    8.7019   28.3571 H   0  0  0  0  0
   31.5043    8.2883   30.3272 H   0  0  0  0  0
   30.9223    5.4196   31.6955 H   0  0  0  0  0
   32.6800    5.6436   31.8722 H   0  0  0  0  0
   31.5874    7.0447   31.9912 H   0  0  0  0  0
  1  2  1  0  0  0
  2  3  4  0  0  0
  2 11  4  0  0  0
  3  4  4  0  0  0
  4  5  4  0  0  0
  4  9  4  0  0  0
  5  6  4  0  0  0
  6  7  1  0  0  0
  6  8  4  0  0  0
  8  9  4  0  0  0
  9 10  4  0  0  0
 10 11  4  0  0  0
 11 12  1  0  0  0
 12 13  1  0  0  0
 13 14  2  0  0  0
 13 15  1  0  0  0
  1 16  1  0  0  0
  1 17  1  0  0  0
  1 18  1  0  0  0
  3 19  1  0  0  0
  7 20  1  0  0  0
  7 21  1  0  0  0
 10 22  1  0  0  0
 12 23  1  0  0  0
 15 24  1  0  0  0
 15 25  1  0  0  0
 15 26  1  0  0  0
M  END
$$$$
