2b1r_ligand
  -I-interpret- 

 45 46  0  0  0  0  0  0  0  0999 V2000
   45.7290    1.5490   95.4550 C   0  0  0  0  0
   44.8060    1.8090   94.2280 C   0  0  0  0  0
   45.1740    0.7740   93.1490 C   0  0  0  0  0
   46.6390    0.9740   92.7770 C   0  0  0  0  0
   47.5290    0.7800   94.0210 C   0  0  0  0  0
   49.0070    1.0060   93.7360 C   0  0  0  0  0
   43.4360    1.6480   94.6050 O   0  0  0  0  0
   44.3470    0.9780   92.0030 O   0  0  0  0  0
   47.0230    0.0310   91.7920 O   0  0  0  0  0
   47.1380    1.6990   95.0830 O   0  0  0  0  0
   49.2380    2.2590   93.0900 O   0  0  0  0  0
   44.5260    0.6180  100.3880 C   0  0  0  0  0
   43.3780    1.0620   99.4300 C   0  0  0  0  0
   43.7270    0.8800   97.9360 C   0  0  0  0  0
   45.0850    1.5050   97.5720 C   0  0  0  0  0
   46.1610    0.8650   98.5160 C   0  0  0  0  0
   47.5980    1.3360   98.3330 C   0  0  0  0  0
   44.5830   -0.7450  100.3340 O   0  0  0  0  0
   42.2120    0.2960   99.7070 O   0  0  0  0  0
   42.7170    1.4600   97.1180 O   0  0  0  0  0
   45.4480    2.4450   96.4980 O   0  0  0  0  0
   45.8190    1.0960   99.9270 O   0  0  0  0  0
   47.7470    2.7370   98.5750 O   0  0  0  0  0
   45.5393    0.5294   95.7905 H   0  0  0  0  0
   44.9407    2.8239   93.8539 H   0  0  0  0  0
   45.0211   -0.2397   93.5195 H   0  0  0  0  0
   46.7623    1.9846   92.3876 H   0  0  0  0  0
   47.3851   -0.2567   94.3253 H   0  0  0  0  0
   49.3537    0.2113   93.0754 H   0  0  0  0  0
   49.5425    1.0065   94.6854 H   0  0  0  0  0
   43.2121    2.2954   95.2775 H   0  0  0  0  0
   43.4273    0.8501   92.2466 H   0  0  0  0  0
   46.4745    0.1432   91.0122 H   0  0  0  0  0
   50.1781    2.3653   92.9272 H   0  0  0  0  0
   44.3257    1.0128  101.3840 H   0  0  0  0  0
   43.2174    2.1252   99.6086 H   0  0  0  0  0
   43.7880   -0.1934   97.7566 H   0  0  0  0  0
   44.8289    2.4051   97.0131 H   0  0  0  0  0
   46.1315   -0.1865   98.2303 H   0  0  0  0  0
   47.8887    1.1391   97.3011 H   0  0  0  0  0
   48.2220    0.8017   99.0494 H   0  0  0  0  0
   45.2814   -1.0582  100.9135 H   0  0  0  0  0
   41.5044    0.5681   99.1181 H   0  0  0  0  0
   42.9470    1.3395   96.1938 H   0  0  0  0  0
   48.6653    2.9866   98.4481 H   0  0  0  0  0
  1  2  1  0  0  0
  1 10  1  0  0  0
 21  1  1  0  0  0
  2  3  1  0  0  0
  2  7  1  0  0  0
  3  4  1  0  0  0
  3  8  1  0  0  0
  5  4  1  0  0  0
  4  9  1  0  0  0
  5  6  1  0  0  0
 10  5  1  0  0  0
  6 11  1  0  0  0
 13 12  1  0  0  0
 12 18  1  0  0  0
 12 22  1  0  0  0
 14 13  1  0  0  0
 13 19  1  0  0  0
 15 14  1  0  0  0
 14 20  1  0  0  0
 15 16  1  0  0  0
 15 21  1  0  0  0
 16 17  1  0  0  0
 16 22  1  0  0  0
 17 23  1  0  0  0
  1 24  1  0  0  0
  2 25  1  0  0  0
  3 26  1  0  0  0
  4 27  1  0  0  0
  5 28  1  0  0  0
  6 29  1  0  0  0
  6 30  1  0  0  0
  7 31  1  0  0  0
  8 32  1  0  0  0
  9 33  1  0  0  0
 11 34  1  0  0  0
 12 35  1  0  0  0
 13 36  1  0  0  0
 14 37  1  0  0  0
 15 38  1  0  0  0
 16 39  1  0  0  0
 17 40  1  0  0  0
 17 41  1  0  0  0
 18 42  1  0  0  0
 19 43  1  0  0  0
 20 44  1  0  0  0
 23 45  1  0  0  0
M  END
$$$$
