### 
### Created by X-TOOL on Mon Sep 10 21:13:09 2018
### 

@<TRIPOS>MOLECULE
4ec0_ligand
   57    60     1     0     0
SMALL
GAST_HUCK


@<TRIPOS>ATOM
      1 C1         19.6950    0.2230   18.5160 C.ar      1 7PQ        -0.0517
      2 C2         21.0960    0.1340   18.4770 C.ar      1 7PQ        -0.0438
      3 C3         21.8570    1.1100   17.7750 C.ar      1 7PQ         0.0474
      4 C4         21.1820    2.1640   17.1200 C.ar      1 7PQ        -0.0438
      5 C5         19.7810    2.2550   17.1520 C.ar      1 7PQ        -0.0517
      6 C6         19.0130    1.2890   17.8460 C.ar      1 7PQ        -0.0192
      7 C7         17.4880    1.3680   17.9130 C.ar      1 7PQ        -0.0017
      8 C8         23.3520    1.0380   17.7200 C.2       1 7PQ         0.2030
      9 O9         23.9440    0.0490   18.1510 O.2       1 7PQ        -0.3859
     10 N10        24.0490    2.0730   17.1750 N.am      1 7PQ        -0.2885
     11 C11        25.4410    2.3590   17.5410 C.3       1 7PQ         0.0118
     12 C12        25.9160    3.5810   16.7350 C.3       1 7PQ        -0.0922
     13 N13        27.3240    3.9100   17.0440 N.4       1 7PQ         0.4073
     14 C14        27.5390    5.3110   16.5720 C.3       1 7PQ        -0.0888
     15 C15        29.0480    5.6580   16.6200 C.3       1 7PQ         0.0291
     16 O16        29.7900    4.7350   15.7860 O.3       1 7PQ        -0.3838
     17 C17        29.6670    3.4090   16.3420 C.3       1 7PQ         0.0291
     18 C18        28.1910    2.9690   16.2720 C.3       1 7PQ        -0.0888
     19 C19        16.6320    0.3060   17.3550 C.ar      1 7PQ        -0.0159
     20 C20        15.1700    0.4240   17.4790 C.ar      1 7PQ        -0.0203
     21 C21        14.5970    1.5560   18.1010 C.ar      1 7PQ        -0.0552
     22 C22        15.4080    2.5500   18.6040 C.ar      1 7PQ        -0.0489
     23 C23        16.8310    2.4920   18.5330 C.ar      1 7PQ         0.0132
     24 C24        17.1580   -0.8630   16.7010 C.ar      1 7PQ        -0.0566
     25 C25        16.3040   -1.8350   16.2040 C.ar      1 7PQ        -0.0632
     26 C26        14.9100   -1.7130   16.3370 C.ar      1 7PQ        -0.0630
     27 C27        14.3420   -0.6110   16.9560 C.ar      1 7PQ        -0.0562
     28 C28        17.6450    3.6350   19.1320 C.3       1 7PQ         0.0007
     29 N29        16.9440    4.2920   20.2120 N.4       1 7PQ         0.2317
     30 H          19.1214   -0.5264   19.0614 H         1 7PQ         0.0617
     31 H          21.6023   -0.6859   18.9864 H         1 7PQ         0.0663
     32 H          21.7570    2.9176   16.5819 H         1 7PQ         0.0663
     33 H          19.2808    3.0760   16.6384 H         1 7PQ         0.0617
     34 H          23.5877    2.6701   16.4887 H         1 7PQ         0.1842
     35 H          26.0696    1.4974   17.3161 H         1 7PQ         0.0499
     36 H          25.5099    2.5675   18.6086 H         1 7PQ         0.0499
     37 H          25.2928    4.4356   16.9986 H         1 7PQ         0.0037
     38 H          25.8376    3.3494   15.6728 H         1 7PQ         0.0037
     39 H          26.9918    5.9963   17.2193 H         1 7PQ         0.0040
     40 H          27.1813    5.4037   15.5465 H         1 7PQ         0.0040
     41 H          29.4032    5.5809   17.6476 H         1 7PQ         0.0539
     42 H          29.1962    6.6739   16.2538 H         1 7PQ         0.0539
     43 H          29.9999    3.4138   17.3799 H         1 7PQ         0.0539
     44 H          30.2847    2.7138   15.7735 H         1 7PQ         0.0539
     45 H          27.8716    2.9691   15.2298 H         1 7PQ         0.0040
     46 H          28.0993    1.9714   16.7016 H         1 7PQ         0.0040
     47 H          13.5136    1.6429   18.1829 H         1 7PQ         0.0631
     48 H          14.9429    3.4158   19.0753 H         1 7PQ         0.0590
     49 H          18.2360   -0.9849   16.5957 H         1 7PQ         0.0606
     50 H          16.7202   -2.7083   15.7018 H         1 7PQ         0.0614
     51 H          14.2642   -2.4993   15.9462 H         1 7PQ         0.0600
     52 H          13.2581   -0.5356   17.0431 H         1 7PQ         0.0622
     53 H          17.8283    4.3699   18.3481 H         1 7PQ         0.0991
     54 H          18.5718    3.2213   19.5294 H         1 7PQ         0.0991
     55 H          17.5222    5.0466   20.5817 H         1 7PQ         0.2009
     56 H          16.0657    4.6751   19.8623 H         1 7PQ         0.2009
     57 H          16.7511    3.6163   20.9513 H         1 7PQ         0.2009
@<TRIPOS>BOND
     1    1    2 ar 
     2    1    6 ar 
     3    2    3 ar 
     4    3    4 ar 
     5    3    8 1  
     6    4    5 ar 
     7    5    6 ar 
     8    6    7 1  
     9    7   19 ar 
    10    7   23 ar 
    11    8    9 2  
    12    8   10 am 
    13   10   11 1  
    14   11   12 1  
    15   12   13 1  
    16   13   14 1  
    17   13   18 1  
    18   14   15 1  
    19   15   16 1  
    20   16   17 1  
    21   17   18 1  
    22   19   20 ar 
    23   19   24 ar 
    24   20   21 ar 
    25   20   27 ar 
    26   21   22 ar 
    27   22   23 ar 
    28   23   28 1  
    29   24   25 ar 
    30   25   26 ar 
    31   26   27 ar 
    32   28   29 1  
    33    1   30 1  
    34    2   31 1  
    35    4   32 1  
    36    5   33 1  
    37   10   34 1  
    38   11   35 1  
    39   11   36 1  
    40   12   37 1  
    41   12   38 1  
    42   14   39 1  
    43   14   40 1  
    44   15   41 1  
    45   15   42 1  
    46   17   43 1  
    47   17   44 1  
    48   18   45 1  
    49   18   46 1  
    50   21   47 1  
    51   22   48 1  
    52   24   49 1  
    53   25   50 1  
    54   26   51 1  
    55   27   52 1  
    56   28   53 1  
    57   28   54 1  
    58   29   55 1  
    59   29   56 1  
    60   29   57 1  
@<TRIPOS>SUBSTRUCTURE
     1 7PQ         1

