4ec0_ligand
  -I-interpret- 

 58 61  0  0  0  0  0  0  0  0999 V2000
   19.6950    0.2230   18.5160 C   0  0  0  0  0
   21.0960    0.1340   18.4770 C   0  0  0  0  0
   21.8570    1.1100   17.7750 C   0  0  0  0  0
   21.1820    2.1640   17.1200 C   0  0  0  0  0
   19.7810    2.2550   17.1520 C   0  0  0  0  0
   19.0130    1.2890   17.8460 C   0  0  0  0  0
   17.4880    1.3680   17.9130 C   0  0  0  0  0
   23.3520    1.0380   17.7200 C   0  0  0  0  0
   23.9440    0.0490   18.1510 O   0  0  0  0  0
   24.0490    2.0730   17.1750 N   0  0  0  0  0
   25.4410    2.3590   17.5410 C   0  0  0  0  0
   25.9160    3.5810   16.7350 C   0  0  0  0  0
   27.3240    3.9100   17.0440 N   0  3  0  0  0
   27.5390    5.3110   16.5720 C   0  0  0  0  0
   29.0480    5.6580   16.6200 C   0  0  0  0  0
   29.7900    4.7350   15.7860 O   0  0  0  0  0
   29.6670    3.4090   16.3420 C   0  0  0  0  0
   28.1910    2.9690   16.2720 C   0  0  0  0  0
   16.6320    0.3060   17.3550 C   0  0  0  0  0
   15.1700    0.4240   17.4790 C   0  0  0  0  0
   14.5970    1.5560   18.1010 C   0  0  0  0  0
   15.4080    2.5500   18.6040 C   0  0  0  0  0
   16.8310    2.4920   18.5330 C   0  0  0  0  0
   17.1580   -0.8630   16.7010 C   0  0  0  0  0
   16.3040   -1.8350   16.2040 C   0  0  0  0  0
   14.9100   -1.7130   16.3370 C   0  0  0  0  0
   14.3420   -0.6110   16.9560 C   0  0  0  0  0
   17.6450    3.6350   19.1320 C   0  0  0  0  0
   16.9440    4.2920   20.2120 N   0  3  0  0  0
   19.1214   -0.5264   19.0614 H   0  0  0  0  0
   21.6023   -0.6859   18.9864 H   0  0  0  0  0
   21.7570    2.9176   16.5819 H   0  0  0  0  0
   19.2808    3.0760   16.6384 H   0  0  0  0  0
   23.5877    2.6701   16.4887 H   0  0  0  0  0
   26.0696    1.4974   17.3161 H   0  0  0  0  0
   25.5099    2.5675   18.6086 H   0  0  0  0  0
   25.2928    4.4356   16.9986 H   0  0  0  0  0
   25.8376    3.3494   15.6728 H   0  0  0  0  0
   27.5416    3.8284   18.0372 H   0  0  0  0  0
   26.9918    5.9963   17.2193 H   0  0  0  0  0
   27.1813    5.4037   15.5465 H   0  0  0  0  0
   29.4032    5.5809   17.6476 H   0  0  0  0  0
   29.1962    6.6739   16.2538 H   0  0  0  0  0
   29.9999    3.4138   17.3799 H   0  0  0  0  0
   30.2847    2.7138   15.7735 H   0  0  0  0  0
   27.8716    2.9691   15.2298 H   0  0  0  0  0
   28.0993    1.9714   16.7016 H   0  0  0  0  0
   13.5136    1.6429   18.1829 H   0  0  0  0  0
   14.9429    3.4158   19.0753 H   0  0  0  0  0
   18.2360   -0.9849   16.5957 H   0  0  0  0  0
   16.7202   -2.7083   15.7018 H   0  0  0  0  0
   14.2642   -2.4993   15.9462 H   0  0  0  0  0
   13.2581   -0.5356   17.0431 H   0  0  0  0  0
   17.8283    4.3699   18.3481 H   0  0  0  0  0
   18.5718    3.2213   19.5294 H   0  0  0  0  0
   17.5222    5.0466   20.5817 H   0  0  0  0  0
   16.0657    4.6751   19.8623 H   0  0  0  0  0
   16.7511    3.6163   20.9513 H   0  0  0  0  0
  1  2  4  0  0  0
  1  6  4  0  0  0
  2  3  4  0  0  0
  3  4  4  0  0  0
  3  8  1  0  0  0
  4  5  4  0  0  0
  5  6  4  0  0  0
  6  7  1  0  0  0
  7 19  4  0  0  0
  7 23  4  0  0  0
  8  9  2  0  0  0
  8 10  1  0  0  0
 10 11  1  0  0  0
 11 12  1  0  0  0
 12 13  1  0  0  0
 13 14  1  0  0  0
 13 18  1  0  0  0
 14 15  1  0  0  0
 15 16  1  0  0  0
 16 17  1  0  0  0
 17 18  1  0  0  0
 19 20  4  0  0  0
 19 24  4  0  0  0
 20 21  4  0  0  0
 20 27  4  0  0  0
 21 22  4  0  0  0
 22 23  4  0  0  0
 23 28  1  0  0  0
 24 25  4  0  0  0
 25 26  4  0  0  0
 26 27  4  0  0  0
 28 29  1  0  0  0
  1 30  1  0  0  0
  2 31  1  0  0  0
  4 32  1  0  0  0
  5 33  1  0  0  0
 10 34  1  0  0  0
 11 35  1  0  0  0
 11 36  1  0  0  0
 12 37  1  0  0  0
 12 38  1  0  0  0
 13 39  1  0  0  0
 14 40  1  0  0  0
 14 41  1  0  0  0
 15 42  1  0  0  0
 15 43  1  0  0  0
 17 44  1  0  0  0
 17 45  1  0  0  0
 18 46  1  0  0  0
 18 47  1  0  0  0
 21 48  1  0  0  0
 22 49  1  0  0  0
 24 50  1  0  0  0
 25 51  1  0  0  0
 26 52  1  0  0  0
 27 53  1  0  0  0
 28 54  1  0  0  0
 28 55  1  0  0  0
 29 56  1  0  0  0
 29 57  1  0  0  0
 29 58  1  0  0  0
M  END
$$$$
