3hmo_ligand
  -I-interpret- 

 62 69  0  0  0  0  0  0  0  0999 V2000
  -37.9990  -13.1420  -11.2830 O   0  0  0  0  0
  -36.7560  -13.0270  -10.6490 C   0  0  0  0  0
  -35.7640  -12.0900  -11.3400 C   0  0  0  0  0
  -36.4490  -11.4710  -12.5740 C   0  0  0  0  0
  -37.0540  -12.5740  -13.4870 C   0  0  0  0  0
  -38.0170  -13.4410  -12.6470 C   0  0  0  0  0
  -39.4210  -12.9600  -13.0210 C   0  0  0  0  0
  -37.9740  -14.8920  -12.8960 N   0  0  0  0  0
  -37.2940  -15.7700  -12.0520 C   0  0  0  0  0
  -36.5400  -15.5270  -10.8870 C   0  0  0  0  0
  -35.9310  -16.5890  -10.2040 C   0  0  0  0  0
  -36.0860  -17.9110  -10.7100 C   0  0  0  0  0
  -36.8300  -18.1340  -11.8690 C   0  0  0  0  0
  -37.4270  -17.0820  -12.5340 C   0  0  0  0  0
  -38.2430  -17.0040  -13.7320 C   0  0  0  0  0
  -38.5580  -15.6330  -13.9200 C   0  0  0  0  0
  -39.3450  -15.2720  -15.0240 C   0  0  0  0  0
  -39.7770  -16.2830  -15.8780 C   0  0  0  0  0
  -39.4550  -17.6160  -15.6760 C   0  0  0  0  0
  -38.6810  -18.0110  -14.5980 C   0  0  0  0  0
  -36.8130  -19.6120  -12.1550 C   0  0  0  0  0
  -36.0150  -20.1960  -11.0800 N   0  0  0  0  0
  -35.6000  -19.2170  -10.2560 C   0  0  0  0  0
  -34.9140  -19.3920   -9.2770 O   0  0  0  0  0
  -35.2440  -15.9790   -9.0590 C   0  0  0  0  0
  -35.4880  -14.5810   -9.1290 C   0  0  0  0  0
  -34.9680  -13.7070   -8.1690 C   0  0  0  0  0
  -34.2100  -14.2620   -7.1490 C   0  0  0  0  0
  -33.9690  -15.6260   -7.0780 C   0  0  0  0  0
  -34.4740  -16.5130   -8.0190 C   0  0  0  0  0
  -36.2650  -14.3520  -10.2610 N   0  0  0  0  0
  -36.0150  -13.2920  -14.2070 O   0  0  0  0  0
  -35.1680  -14.1320  -13.4170 C   0  0  0  0  0
  -35.5100  -10.6420  -13.3460 N   0  3  0  0  0
  -36.0310   -9.6830  -14.3290 C   0  0  0  0  0
  -36.8958  -12.4817   -9.7156 H   0  0  0  0  0
  -34.8795  -12.6478  -11.6476 H   0  0  0  0  0
  -35.4571  -11.3022  -10.6520 H   0  0  0  0  0
  -37.2557  -10.8337  -12.2118 H   0  0  0  0  0
  -37.6566  -12.1402  -14.2850 H   0  0  0  0  0
  -39.6092  -13.1752  -14.0728 H   0  0  0  0  0
  -40.1569  -13.4775  -12.4056 H   0  0  0  0  0
  -39.4933  -11.8859  -12.8500 H   0  0  0  0  0
  -39.6103  -14.2308  -15.2076 H   0  0  0  0  0
  -40.3916  -16.0163  -16.7378 H   0  0  0  0  0
  -39.8176  -18.3666  -16.3783 H   0  0  0  0  0
  -38.4251  -19.0575  -14.4322 H   0  0  0  0  0
  -36.3897  -19.8288  -13.1358 H   0  0  0  0  0
  -37.8195  -20.0295  -12.1835 H   0  0  0  0  0
  -35.8057  -21.1884  -10.9714 H   0  0  0  0  0
  -35.1510  -12.6337   -8.2204 H   0  0  0  0  0
  -33.7925  -13.6089   -6.3827 H   0  0  0  0  0
  -33.3644  -16.0135   -6.2580 H   0  0  0  0  0
  -34.2786  -17.5832   -7.9507 H   0  0  0  0  0
  -34.6552  -13.5278  -12.6686 H   0  0  0  0  0
  -35.7723  -14.8914  -12.9208 H   0  0  0  0  0
  -34.4335  -14.6145  -14.0618 H   0  0  0  0  0
  -34.9687  -11.3086  -13.8965 H   0  0  0  0  0
  -35.0386  -10.0667  -12.6480 H   0  0  0  0  0
  -36.6043  -10.2168  -15.0869 H   0  0  0  0  0
  -36.6749   -8.9620  -13.8253 H   0  0  0  0  0
  -35.1990   -9.1610  -14.8017 H   0  0  0  0  0
  1  2  1  0  0  0
  1  6  1  0  0  0
  2  3  1  0  0  0
  2 31  1  0  0  0
  3  4  1  0  0  0
  4  5  1  0  0  0
  4 34  1  0  0  0
  5  6  1  0  0  0
  5 32  1  0  0  0
  6  7  1  0  0  0
  6  8  1  0  0  0
  8  9  4  0  0  0
  8 16  4  0  0  0
  9 10  4  0  0  0
  9 14  4  0  0  0
 10 11  4  0  0  0
 10 31  4  0  0  0
 11 12  4  0  0  0
 11 25  4  0  0  0
 12 13  4  0  0  0
 12 23  1  0  0  0
 13 14  4  0  0  0
 13 21  1  0  0  0
 14 15  4  0  0  0
 15 16  4  0  0  0
 15 20  4  0  0  0
 16 17  4  0  0  0
 17 18  4  0  0  0
 18 19  4  0  0  0
 19 20  4  0  0  0
 21 22  1  0  0  0
 22 23  1  0  0  0
 23 24  2  0  0  0
 25 26  4  0  0  0
 25 30  4  0  0  0
 26 27  4  0  0  0
 26 31  4  0  0  0
 27 28  4  0  0  0
 28 29  4  0  0  0
 29 30  4  0  0  0
 32 33  1  0  0  0
 34 35  1  0  0  0
  2 36  1  0  0  0
  3 37  1  0  0  0
  3 38  1  0  0  0
  4 39  1  0  0  0
  5 40  1  0  0  0
  7 41  1  0  0  0
  7 42  1  0  0  0
  7 43  1  0  0  0
 17 44  1  0  0  0
 18 45  1  0  0  0
 19 46  1  0  0  0
 20 47  1  0  0  0
 21 48  1  0  0  0
 21 49  1  0  0  0
 22 50  1  0  0  0
 27 51  1  0  0  0
 28 52  1  0  0  0
 29 53  1  0  0  0
 30 54  1  0  0  0
 33 55  1  0  0  0
 33 56  1  0  0  0
 33 57  1  0  0  0
 34 58  1  0  0  0
 34 59  1  0  0  0
 35 60  1  0  0  0
 35 61  1  0  0  0
 35 62  1  0  0  0
M  END
$$$$
