3s8x_ligand
  -I-interpret- 

 35 36  0  0  0  0  0  0  0  0999 V2000
   -1.9890    7.7790   12.5390 N   0  0  0  0  0
   -2.0060    9.0790   12.2850 C   0  0  0  0  0
   -1.4590    9.9610   13.2080 C   0  0  0  0  0
   -0.9080    9.4310   14.3640 C   0  0  0  0  0
   -0.9190    8.1210   14.5580 N   0  0  0  0  0
   -1.4520    7.3040   13.6570 C   0  0  0  0  0
   -2.5130    9.4880   11.2380 O   0  0  0  0  0
   -0.2950   10.3210   15.4000 C   0  0  0  0  0
   -1.4550    5.5430   13.9410 S   0  0  0  0  0
   -2.7780    5.1190   12.8240 C   0  0  0  0  0
   -4.1380    5.3830   13.3650 C   0  0  0  0  0
   -4.8120    6.3920   13.1130 O   0  0  0  0  0
   -4.6130    4.3130   14.2310 C   0  0  0  0  0
   -5.9040    4.2950   14.7230 C   0  0  0  0  0
   -6.3010    3.2410   15.5320 C   0  0  0  0  0
   -5.4070    2.2240   15.8380 C   0  0  0  0  0
   -4.1150    2.2360   15.3410 C   0  0  0  0  0
   -3.7180    3.2900   14.5340 C   0  0  0  0  0
   -5.9240    0.8880   16.8540 S   0  0  0  0  0
   -7.4380    0.8780   16.8250 O   0  0  0  0  0
   -5.3880    1.0580   18.2580 O   0  0  0  0  0
   -5.3310   -0.5770   16.1390 N   0  0  0  0  0
   -2.3955    7.1313   11.8640 H   0  0  0  0  0
   -1.4629   11.0362   13.0288 H   0  0  0  0  0
    0.5296   10.8788   14.9561 H   0  0  0  0  0
   -1.0478   11.0165   15.7711 H   0  0  0  0  0
    0.0779    9.7134   16.2245 H   0  0  0  0  0
   -2.7089    4.0479   12.6342 H   0  0  0  0  0
   -2.6594    5.7374   11.9343 H   0  0  0  0  0
   -6.6001    5.0974   14.4788 H   0  0  0  0  0
   -7.3161    3.2110   15.9280 H   0  0  0  0  0
   -3.4216    1.4298   15.5805 H   0  0  0  0  0
   -2.7038    3.3185   14.1358 H   0  0  0  0  0
   -5.9867   -1.2732   15.7843 H   0  0  0  0  0
   -4.3266   -0.7422   16.0732 H   0  0  0  0  0
  1  2  1  0  0  0
  1  6  1  0  0  0
  2  3  1  0  0  0
  2  7  2  0  0  0
  3  4  2  0  0  0
  4  5  1  0  0  0
  4  8  1  0  0  0
  5  6  2  0  0  0
  6  9  1  0  0  0
  9 10  1  0  0  0
 10 11  1  0  0  0
 11 12  2  0  0  0
 11 13  1  0  0  0
 13 14  4  0  0  0
 13 18  4  0  0  0
 14 15  4  0  0  0
 15 16  4  0  0  0
 16 17  4  0  0  0
 16 19  1  0  0  0
 17 18  4  0  0  0
 19 20  2  0  0  0
 19 21  2  0  0  0
 19 22  1  0  0  0
  1 23  1  0  0  0
  3 24  1  0  0  0
  8 25  1  0  0  0
  8 26  1  0  0  0
  8 27  1  0  0  0
 10 28  1  0  0  0
 10 29  1  0  0  0
 14 30  1  0  0  0
 15 31  1  0  0  0
 17 32  1  0  0  0
 18 33  1  0  0  0
 22 34  1  0  0  0
 22 35  1  0  0  0
M  END
$$$$
