5ne3_ligand
  -I-interpret- 

 31 31  0  0  0  0  0  0  0  0999 V2000
  154.9220  162.7150  289.3250 O   0  0  0  0  0
  156.0450  162.3810  289.0940 C   0  0  0  0  0
  156.3280  161.2100  288.6030 N   0  0  0  0  0
  157.6370  160.8310  288.1620 C   0  0  0  0  0
  155.3510  160.1790  288.5280 C   0  0  0  0  0
  155.5100  159.1410  289.5940 C   0  0  0  0  0
  156.4410  159.1280  290.3390 O   0  0  0  0  0
  154.6440  158.1980  289.7240 N   0  0  0  0  0
  155.3270  159.4830  287.1510 C   0  0  0  0  0
  156.6910  159.1010  286.6490 C   0  0  0  0  0
  157.7100  160.2280  286.7460 C   0  0  0  0  0
  157.4890  161.2510  285.6720 N   0  3  0  0  0
  156.3410  161.6310  285.5350 O   0  0  0  0  0
  156.1850  163.3350  285.3610 S   0  0  0  0  0
  156.5930  163.7910  286.5920 O   0  0  0  0  0
  156.9980  163.5290  284.3300 O   0  0  0  0  0
  154.8500  163.5440  285.2090 O   0  0  0  0  0
  156.8571  163.0780  289.3007 H   0  0  0  0  0
  157.9840  160.0577  288.8473 H   0  0  0  0  0
  158.2345  161.7425  288.1428 H   0  0  0  0  0
  154.4017  160.6916  288.6833 H   0  0  0  0  0
  154.7718  157.4834  290.4405 H   0  0  0  0  0
  153.8298  158.1652  289.1105 H   0  0  0  0  0
  154.8996  160.1859  286.4359 H   0  0  0  0  0
  154.7482  158.5656  287.2575 H   0  0  0  0  0
  156.5913  158.8386  285.5958 H   0  0  0  0  0
  157.0504  158.2795  287.2687 H   0  0  0  0  0
  158.7157  159.8401  286.5841 H   0  0  0  0  0
  157.7543  160.8087  284.7920 H   0  0  0  0  0
  158.0355  162.0707  285.9363 H   0  0  0  0  0
  155.9197  163.5893  287.2459 H   0  0  0  0  0
  1  2  2  0  0  0
  2  3  1  0  0  0
  3  4  1  0  0  0
  3  5  1  0  0  0
  4 11  1  0  0  0
  5  6  1  0  0  0
  5  9  1  0  0  0
  6  7  2  0  0  0
  6  8  1  0  0  0
  9 10  1  0  0  0
 10 11  1  0  0  0
 11 12  1  0  0  0
 12 13  1  0  0  0
 13 14  1  0  0  0
 14 15  1  0  0  0
 14 16  2  0  0  0
 14 17  2  0  0  0
  2 18  1  0  0  0
  4 19  1  0  0  0
  4 20  1  0  0  0
  5 21  1  0  0  0
  8 22  1  0  0  0
  8 23  1  0  0  0
  9 24  1  0  0  0
  9 25  1  0  0  0
 10 26  1  0  0  0
 10 27  1  0  0  0
 11 28  1  0  0  0
 12 29  1  0  0  0
 12 30  1  0  0  0
 15 31  1  0  0  0
M  END
$$$$
