3tv7_ligand
  -I-interpret- 

 43 45  0  0  0  0  0  0  0  0999 V2000
    1.0910  -46.9370   12.9000 O   0  0  0  0  0
    2.2820  -46.6240   12.8010 C   0  0  0  0  0
    2.8900  -46.5020   11.4730 N   0  0  0  0  0
    2.9890  -45.2190   10.7360 C   0  0  0  0  0
    3.7970  -44.1850   11.5090 C   0  0  0  0  0
    1.6520  -44.6180   10.2890 C   0  0  0  0  0
    1.2570  -43.3310   10.6920 C   0  0  0  0  0
    0.0310  -42.7870   10.2780 C   0  0  0  0  0
   -0.8170  -43.5370    9.4460 C   0  0  0  0  0
   -0.4410  -44.8230    9.0310 C   0  0  0  0  0
   -1.2680  -45.5880    8.2160 O   0  0  0  0  0
   -1.4460  -46.9390    8.5250 C   0  0  0  0  0
    0.7970  -45.3660    9.4550 C   0  0  0  0  0
    3.1010  -46.3650   14.0090 N   0  0  0  0  0
    2.6190  -46.5280   15.3960 C   0  0  0  0  0
    3.2850  -45.9580   16.5080 N   0  0  0  0  0
    2.6020  -46.2620   17.8140 C   0  0  0  0  0
    3.0800  -45.7950   19.1800 C   0  0  0  0  0
    4.0880  -44.7950   19.3060 C   0  0  0  0  0
    4.5170  -44.3870   20.5820 C   0  0  0  0  0
    3.9790  -44.9420   21.6830 N   0  0  0  0  0
    3.0070  -45.9080   21.6010 C   0  0  0  0  0
    2.5480  -46.3550   20.3540 C   0  0  0  0  0
    1.4510  -47.0750   17.5560 C   0  0  0  0  0
    1.3000  -47.3560   15.9480 S   0  0  0  0  0
    3.2643  -47.3428   11.0331 H   0  0  0  0  0
    3.5148  -45.4839    9.8187 H   0  0  0  0  0
    3.9881  -43.3231   10.8697 H   0  0  0  0  0
    3.2348  -43.8695   12.3880 H   0  0  0  0  0
    4.7443  -44.6250   11.8206 H   0  0  0  0  0
    1.9131  -42.7458   11.3364 H   0  0  0  0  0
   -0.2616  -41.7877   10.6004 H   0  0  0  0  0
   -1.7698  -43.1183    9.1221 H   0  0  0  0  0
   -0.4818  -47.4466    8.4981 H   0  0  0  0  0
   -1.8775  -47.0286    9.5219 H   0  0  0  0  0
   -2.1170  -47.3920    7.7952 H   0  0  0  0  0
    1.0893  -46.3661    9.1349 H   0  0  0  0  0
    4.0626  -46.0531   13.8735 H   0  0  0  0  0
    4.5261  -44.3468   18.4142 H   0  0  0  0  0
    5.2860  -43.6205   20.6787 H   0  0  0  0  0
    2.5882  -46.3314   22.5139 H   0  0  0  0  0
    1.7845  -47.1308   20.2955 H   0  0  0  0  0
    0.7721  -47.4531   18.3203 H   0  0  0  0  0
  1  2  2  0  0  0
  2  3  1  0  0  0
  2 14  1  0  0  0
  3  4  1  0  0  0
  4  5  1  0  0  0
  4  6  1  0  0  0
  6  7  4  0  0  0
  6 13  4  0  0  0
  7  8  4  0  0  0
  8  9  4  0  0  0
  9 10  4  0  0  0
 10 11  1  0  0  0
 10 13  4  0  0  0
 11 12  1  0  0  0
 14 15  1  0  0  0
 15 16  4  0  0  0
 15 25  4  0  0  0
 16 17  4  0  0  0
 17 18  1  0  0  0
 17 24  4  0  0  0
 18 19  4  0  0  0
 18 23  4  0  0  0
 19 20  4  0  0  0
 20 21  4  0  0  0
 21 22  4  0  0  0
 22 23  4  0  0  0
 24 25  4  0  0  0
  3 26  1  0  0  0
  4 27  1  0  0  0
  5 28  1  0  0  0
  5 29  1  0  0  0
  5 30  1  0  0  0
  7 31  1  0  0  0
  8 32  1  0  0  0
  9 33  1  0  0  0
 12 34  1  0  0  0
 12 35  1  0  0  0
 12 36  1  0  0  0
 13 37  1  0  0  0
 14 38  1  0  0  0
 19 39  1  0  0  0
 20 40  1  0  0  0
 22 41  1  0  0  0
 23 42  1  0  0  0
 24 43  1  0  0  0
M  END
$$$$
