3ur9_ligand
  -I-interpret- 

 50 50  0  0  0  0  0  0  0  0999 V2000
  -23.0180  -20.6780   36.1800 C   0  0  0  0  0
  -22.3290  -21.5920   35.3260 O   0  0  0  0  0
  -21.2430  -21.1160   34.5040 C   0  0  0  0  0
  -21.1030  -19.8990   34.3600 O   0  0  0  0  0
  -20.4240  -22.0460   33.9220 N   0  0  0  0  0
  -19.2690  -21.6330   33.1050 C   0  0  0  0  0
  -19.7460  -21.0130   31.8260 C   0  0  0  0  0
  -20.7350  -21.4520   31.2460 O   0  0  0  0  0
  -18.3920  -22.8180   32.7030 C   0  0  0  0  0
  -17.8300  -23.5600   33.9060 C   0  0  0  0  0
  -17.1830  -24.8510   33.4220 C   0  0  0  0  0
  -16.8190  -22.7220   34.6610 C   0  0  0  0  0
  -19.0370  -19.9270   31.3240 N   0  0  0  0  0
  -19.4460  -19.2110   30.1160 C   0  0  0  0  0
  -18.2490  -19.0270   29.1660 C   0  0  0  0  0
  -17.8140  -20.2860   28.6450 O   0  0  0  0  0
  -20.0190  -17.8420   30.4270 C   0  0  0  0  0
  -21.2120  -17.9050   31.3670 C   0  0  0  0  0
  -22.4150  -18.6230   30.7400 C   0  0  0  0  0
  -23.6280  -17.8360   31.2290 C   0  0  0  0  0
  -23.1600  -16.4850   31.6250 N   0  0  0  0  0
  -21.7830  -16.5490   31.5740 C   0  0  0  0  0
  -21.1070  -15.5430   31.6970 O   0  0  0  0  0
  -22.3135  -20.2444   36.8898 H   0  0  0  0  0
  -23.4634  -19.8858   35.5782 H   0  0  0  0  0
  -23.8011  -21.2086   36.7215 H   0  0  0  0  0
  -20.6159  -23.0388   34.0557 H   0  0  0  0  0
  -18.6955  -20.9354   33.7153 H   0  0  0  0  0
  -17.5532  -22.4343   32.1222 H   0  0  0  0  0
  -19.0079  -23.5152   32.1350 H   0  0  0  0  0
  -18.6460  -23.7783   34.5949 H   0  0  0  0  0
  -17.9316  -25.4660   32.9225 H   0  0  0  0  0
  -16.3806  -24.6141   32.7234 H   0  0  0  0  0
  -16.7754  -25.3936   34.2750 H   0  0  0  0  0
  -15.9922  -22.4676   33.9979 H   0  0  0  0  0
  -17.2975  -21.8085   35.0142 H   0  0  0  0  0
  -16.4424  -23.2890   35.5124 H   0  0  0  0  0
  -18.1994  -19.6179   31.8173 H   0  0  0  0  0
  -20.2194  -19.8176   29.6449 H   0  0  0  0  0
  -17.4273  -18.5739   29.7206 H   0  0  0  0  0
  -18.5546  -18.3903   28.3357 H   0  0  0  0  0
  -17.0684  -20.1471   28.0565 H   0  0  0  0  0
  -20.3547  -17.3989   29.4894 H   0  0  0  0  0
  -19.2397  -17.2558   30.9141 H   0  0  0  0  0
  -20.8260  -18.3948   32.2610 H   0  0  0  0  0
  -22.4632  -19.6716   31.0336 H   0  0  0  0  0
  -22.3549  -18.6463   29.6519 H   0  0  0  0  0
  -24.0906  -18.3407   32.0772 H   0  0  0  0  0
  -24.3754  -17.7619   30.4391 H   0  0  0  0  0
  -23.7336  -15.6811   31.8803 H   0  0  0  0  0
  1  2  1  0  0  0
  2  3  1  0  0  0
  3  4  2  0  0  0
  3  5  1  0  0  0
  5  6  1  0  0  0
  6  7  1  0  0  0
  6  9  1  0  0  0
  7  8  2  0  0  0
  7 13  1  0  0  0
  9 10  1  0  0  0
 10 11  1  0  0  0
 10 12  1  0  0  0
 13 14  1  0  0  0
 14 15  1  0  0  0
 14 17  1  0  0  0
 15 16  1  0  0  0
 17 18  1  0  0  0
 18 19  1  0  0  0
 18 22  1  0  0  0
 19 20  1  0  0  0
 20 21  1  0  0  0
 21 22  1  0  0  0
 22 23  2  0  0  0
  1 24  1  0  0  0
  1 25  1  0  0  0
  1 26  1  0  0  0
  5 27  1  0  0  0
  6 28  1  0  0  0
  9 29  1  0  0  0
  9 30  1  0  0  0
 10 31  1  0  0  0
 11 32  1  0  0  0
 11 33  1  0  0  0
 11 34  1  0  0  0
 12 35  1  0  0  0
 12 36  1  0  0  0
 12 37  1  0  0  0
 13 38  1  0  0  0
 14 39  1  0  0  0
 15 40  1  0  0  0
 15 41  1  0  0  0
 16 42  1  0  0  0
 17 43  1  0  0  0
 17 44  1  0  0  0
 18 45  1  0  0  0
 19 46  1  0  0  0
 19 47  1  0  0  0
 20 48  1  0  0  0
 20 49  1  0  0  0
 21 50  1  0  0  0
M  END
$$$$
