4i11_ligand
  -I-interpret- 

 46 48  0  0  0  0  0  0  0  0999 V2000
   11.8020  -21.2750    8.0160 O   0  0  0  0  0
   11.4320  -20.1590    7.5660 C   0  0  0  0  0
   11.5610  -19.8490    6.3610 O   0  0  0  0  0
   10.7090  -19.1670    8.4250 C   0  0  0  0  0
    9.3610  -19.6940    8.9380 C   0  0  0  0  0
    8.9190  -18.7200   10.0370 C   0  0  0  0  0
    7.8710  -17.8000    9.8080 C   0  0  0  0  0
    7.4970  -16.8750   10.8160 C   0  0  0  0  0
    8.1500  -16.8960   12.0530 C   0  0  0  0  0
    9.2030  -17.8160   12.2810 C   0  0  0  0  0
    9.5750  -18.7170   11.2720 C   0  0  0  0  0
   10.4870  -17.9640    7.6280 N   0  0  0  0  0
   10.8020  -16.7090    8.0040 C   0  0  0  0  0
   11.3770  -16.4300    9.1270 N   0  0  0  0  0
   11.6190  -15.0480    9.5440 C   0  0  0  0  0
   10.3000  -14.3980   10.0430 C   0  0  0  0  0
   12.6380  -14.9880   10.6630 C   0  0  0  0  0
   12.1300  -14.1820    8.3740 C   0  0  0  0  0
   11.1250  -14.2810    7.2370 C   0  0  0  0  0
   10.4430  -15.5840    7.0550 C   0  0  0  0  0
    9.5170  -15.7250    6.0010 C   0  0  0  0  0
    9.2580  -14.6340    5.1430 C   0  0  0  0  0
    9.9070  -13.4040    5.3200 C   0  0  0  0  0
   10.8420  -13.2200    6.3690 C   0  0  0  0  0
   11.6173  -21.3164    8.9572 H   0  0  0  0  0
   11.3214  -18.9641    9.3035 H   0  0  0  0  0
    9.4542  -20.7093    9.3235 H   0  0  0  0  0
    8.6251  -19.7451    8.1355 H   0  0  0  0  0
    7.3475  -17.8013    8.8519 H   0  0  0  0  0
    6.7043  -16.1510   10.6277 H   0  0  0  0  0
    7.8490  -16.2052   12.8406 H   0  0  0  0  0
    9.7233  -17.8238   13.2388 H   0  0  0  0  0
   10.3852  -19.4233   11.4529 H   0  0  0  0  0
   10.0578  -18.0835    6.7104 H   0  0  0  0  0
    9.5659  -14.4043    9.2373 H   0  0  0  0  0
    9.9154  -14.9645   10.8911 H   0  0  0  0  0
   10.4961  -13.3706   10.3496 H   0  0  0  0  0
   12.2689  -15.5522   11.5195 H   0  0  0  0  0
   13.5783  -15.4196   10.3199 H   0  0  0  0  0
   12.7976  -13.9492   10.9521 H   0  0  0  0  0
   13.1064  -14.5362    8.0436 H   0  0  0  0  0
   12.2350  -13.1449    8.6927 H   0  0  0  0  0
    9.0025  -16.6738    5.8490 H   0  0  0  0  0
    8.5417  -14.7500    4.3296 H   0  0  0  0  0
    9.6897  -12.5786    4.6421 H   0  0  0  0  0
   11.3378  -12.2580    6.4991 H   0  0  0  0  0
  1  2  1  0  0  0
  2  3  2  0  0  0
  2  4  1  0  0  0
  4  5  1  0  0  0
  4 12  1  0  0  0
  5  6  1  0  0  0
  6  7  4  0  0  0
  6 11  4  0  0  0
  7  8  4  0  0  0
  8  9  4  0  0  0
  9 10  4  0  0  0
 10 11  4  0  0  0
 12 13  1  0  0  0
 13 14  2  0  0  0
 13 20  1  0  0  0
 14 15  1  0  0  0
 15 16  1  0  0  0
 15 17  1  0  0  0
 15 18  1  0  0  0
 18 19  1  0  0  0
 19 20  4  0  0  0
 19 24  4  0  0  0
 20 21  4  0  0  0
 21 22  4  0  0  0
 22 23  4  0  0  0
 23 24  4  0  0  0
  1 25  1  0  0  0
  4 26  1  0  0  0
  5 27  1  0  0  0
  5 28  1  0  0  0
  7 29  1  0  0  0
  8 30  1  0  0  0
  9 31  1  0  0  0
 10 32  1  0  0  0
 11 33  1  0  0  0
 12 34  1  0  0  0
 16 35  1  0  0  0
 16 36  1  0  0  0
 16 37  1  0  0  0
 17 38  1  0  0  0
 17 39  1  0  0  0
 17 40  1  0  0  0
 18 41  1  0  0  0
 18 42  1  0  0  0
 21 43  1  0  0  0
 22 44  1  0  0  0
 23 45  1  0  0  0
 24 46  1  0  0  0
M  END
$$$$
