4k4f_ligand
  -I-interpret- 

 56 60  0  0  0  0  0  0  0  0999 V2000
   -7.5140   46.0660   28.4820 C   0  0  0  0  0
   -7.5470   46.6210   29.7850 C   0  0  0  0  0
   -6.5030   46.3180   30.6910 C   0  0  0  0  0
   -5.4280   45.4740   30.3420 C   0  0  0  0  0
   -5.3990   44.9160   29.0130 C   0  0  0  0  0
   -6.4770   45.2380   28.0660 C   0  0  0  0  0
   -6.2760   44.7260   26.8210 C   0  0  0  0  0
   -5.3700   45.4230   25.7590 C   0  0  0  0  0
   -4.7810   46.7780   26.2500 C   0  0  0  0  0
   -5.8300   45.4710   24.3530 C   0  0  0  0  0
   -4.2470   44.4790   25.9170 O   0  0  0  0  0
   -4.7070   43.1480   26.2380 C   0  0  0  0  0
   -3.9800   42.1640   26.2070 O   0  0  0  0  0
   -6.0450   43.2570   26.5880 N   0  0  0  0  0
   -6.9170   42.2530   26.8480 C   0  0  0  0  0
   -8.2030   42.4940   27.4420 C   0  0  0  0  0
   -9.1300   41.4420   27.6410 C   0  0  0  0  0
   -6.6060   40.9230   26.4840 C   0  0  0  0  0
   -7.5400   39.8630   26.6860 C   0  0  0  0  0
   -8.7950   40.1210   27.2530 C   0  0  0  0  0
   -9.7190   38.9460   27.3750 C   0  0  0  0  0
   -9.4490   37.8360   26.8680 O   0  0  0  0  0
  -10.8920   39.1760   28.0790 N   0  0  0  0  0
  -11.9410   38.3300   28.4060 C   0  0  0  0  0
  -11.9930   36.9590   28.0140 C   0  0  0  0  0
  -13.1370   36.1600   28.3120 C   0  0  0  0  0
  -14.2350   36.7270   29.0030 C   0  0  0  0  0
  -13.0330   38.8710   29.0970 C   0  0  0  0  0
  -14.2160   38.0500   29.4010 C   0  0  0  0  0
  -15.2820   38.6130   30.0790 C   0  0  0  0  0
  -15.2180   39.9680   30.4770 C   0  0  0  0  0
  -14.0580   40.7520   30.1750 C   0  0  0  0  0
  -13.0130   40.1800   29.5020 N   0  0  0  0  0
   -8.3225   46.2939   27.7874 H   0  0  0  0  0
   -8.3666   47.2735   30.0860 H   0  0  0  0  0
   -6.5304   46.7508   31.6910 H   0  0  0  0  0
   -4.6387   45.2493   31.0594 H   0  0  0  0  0
   -4.5828   44.2593   28.7119 H   0  0  0  0  0
   -7.3218   44.9990   26.6797 H   0  0  0  0  0
   -4.4647   46.6802   27.2885 H   0  0  0  0  0
   -3.9243   47.0457   25.6316 H   0  0  0  0  0
   -5.5431   47.5534   26.1725 H   0  0  0  0  0
   -5.0084   45.7947   23.7141 H   0  0  0  0  0
   -6.1612   44.4789   24.0464 H   0  0  0  0  0
   -6.6580   46.1746   24.2668 H   0  0  0  0  0
   -8.4703   43.5063   27.7453 H   0  0  0  0  0
  -10.1005   41.6483   28.0923 H   0  0  0  0  0
   -5.6348   40.7029   26.0408 H   0  0  0  0  0
   -7.2752   38.8458   26.3972 H   0  0  0  0  0
  -11.0019   40.1331   28.4141 H   0  0  0  0  0
  -11.1504   36.5177   27.4816 H   0  0  0  0  0
  -13.1656   35.1137   28.0078 H   0  0  0  0  0
  -15.1070   36.1115   29.2240 H   0  0  0  0  0
  -16.1655   38.0159   30.3049 H   0  0  0  0  0
  -16.0531   40.4170   31.0147 H   0  0  0  0  0
  -14.0080   41.7975   30.4793 H   0  0  0  0  0
  1  2  4  0  0  0
  1  6  4  0  0  0
  2  3  4  0  0  0
  3  4  4  0  0  0
  4  5  4  0  0  0
  5  6  4  0  0  0
  6  7  1  0  0  0
  7  8  1  0  0  0
  7 14  1  0  0  0
  8  9  1  0  0  0
  8 10  1  0  0  0
  8 11  1  0  0  0
 11 12  1  0  0  0
 12 13  2  0  0  0
 12 14  1  0  0  0
 14 15  1  0  0  0
 15 16  4  0  0  0
 15 18  4  0  0  0
 16 17  4  0  0  0
 17 20  4  0  0  0
 18 19  4  0  0  0
 19 20  4  0  0  0
 20 21  1  0  0  0
 21 22  2  0  0  0
 21 23  1  0  0  0
 23 24  1  0  0  0
 24 25  4  0  0  0
 24 28  4  0  0  0
 25 26  4  0  0  0
 26 27  4  0  0  0
 27 29  4  0  0  0
 28 29  4  0  0  0
 28 33  4  0  0  0
 29 30  4  0  0  0
 30 31  4  0  0  0
 31 32  4  0  0  0
 32 33  4  0  0  0
  1 34  1  0  0  0
  2 35  1  0  0  0
  3 36  1  0  0  0
  4 37  1  0  0  0
  5 38  1  0  0  0
  7 39  1  0  0  0
  9 40  1  0  0  0
  9 41  1  0  0  0
  9 42  1  0  0  0
 10 43  1  0  0  0
 10 44  1  0  0  0
 10 45  1  0  0  0
 16 46  1  0  0  0
 17 47  1  0  0  0
 18 48  1  0  0  0
 19 49  1  0  0  0
 23 50  1  0  0  0
 25 51  1  0  0  0
 26 52  1  0  0  0
 27 53  1  0  0  0
 30 54  1  0  0  0
 31 55  1  0  0  0
 32 56  1  0  0  0
M  END
$$$$
