3kce_ligand
  -I-interpret- 

 21 22  0  0  0  0  0  0  0  0999 V2000
    4.6570   44.5260   11.5760 C   0  0  0  0  0
    4.3070   43.5550   10.7230 N   0  0  0  0  0
    5.0860   44.0210   12.7380 C   0  0  0  0  0
    5.0100   42.6880   12.6280 C   0  0  0  0  0
    4.5220   42.3910   11.3480 C   0  0  0  0  0
    4.5490   46.0040   11.2330 C   0  0  0  0  0
    5.3230   41.6450   13.5020 C   0  0  0  0  0
    3.9740   46.2840   10.1500 O   0  0  0  0  0
    4.3650   41.0640   10.9470 C   0  0  0  0  0
    5.0260   46.8500   12.0290 O   0  0  0  0  0
    5.1470   40.3080   13.1010 C   0  0  0  0  0
    4.6680   40.0180   11.8210 C   0  0  0  0  0
    5.4800   39.1640   14.0680 C   0  0  0  0  0
    5.4303   44.5843   13.6053 H   0  0  0  0  0
    5.7050   41.8674   14.4983 H   0  0  0  0  0
    3.6966   45.4732    9.7173 H   0  0  0  0  0
    4.0028   40.8419    9.9432 H   0  0  0  0  0
    4.5319   38.9831   11.5070 H   0  0  0  0  0
    6.5327   39.2191   14.3452 H   0  0  0  0  0
    4.8625   39.2540   14.9617 H   0  0  0  0  0
    5.2805   38.2092   13.5816 H   0  0  0  0  0
  1  2  4  0  0  0
  1  3  4  0  0  0
  1  6  1  0  0  0
  2  5  4  0  0  0
  3  4  4  0  0  0
  4  5  4  0  0  0
  4  7  4  0  0  0
  5  9  4  0  0  0
  6  8  1  0  0  0
  6 10  2  0  0  0
  7 11  4  0  0  0
  9 12  4  0  0  0
 11 12  4  0  0  0
 11 13  1  0  0  0
  3 14  1  0  0  0
  7 15  1  0  0  0
  8 16  1  0  0  0
  9 17  1  0  0  0
 12 18  1  0  0  0
 13 19  1  0  0  0
 13 20  1  0  0  0
 13 21  1  0  0  0
M  END
$$$$
