5eef_ligand
  -I-interpret- 

 44 44  0  0  0  0  0  0  0  0999 V2000
  -17.0420  -35.1790  -11.4350 O   0  0  0  0  0
  -16.1850  -37.6000  -11.7880 O   0  0  0  0  0
  -17.1660  -44.1550  -14.6320 O   0  0  0  0  0
  -17.8850  -36.2440  -11.5740 N   0  0  0  0  0
  -19.6510  -48.7420  -11.0320 N   0  0  0  0  0
  -18.5460  -45.3900  -13.2140 C   0  0  0  0  0
  -17.6170  -46.3610  -12.9480 C   0  0  0  0  0
  -17.9660  -47.4790  -12.2290 C   0  0  0  0  0
  -19.2550  -47.6120  -11.7660 C   0  0  0  0  0
  -20.1610  -46.6260  -12.0390 C   0  0  0  0  0
  -19.8210  -45.5150  -12.7500 C   0  0  0  0  0
  -18.1630  -44.1830  -13.9710 C   0  0  0  0  0
  -19.0630  -43.0010  -13.8670 C   0  0  0  0  0
  -18.2970  -41.7960  -13.3970 C   0  0  0  0  0
  -18.7470  -40.8830  -12.5470 C   0  0  0  0  0
  -17.8340  -39.7660  -12.2600 C   0  0  0  0  0
  -18.2750  -38.5520  -12.0070 C   0  0  0  0  0
  -17.3680  -37.4350  -11.7620 C   0  0  0  0  0
  -19.7030  -42.7710  -15.2260 C   0  0  0  0  0
  -20.1000  -40.9830  -11.9440 C   0  0  0  0  0
  -18.7730  -49.8740  -10.9060 C   0  0  0  0  0
  -20.9400  -48.8130  -10.3820 C   0  0  0  0  0
  -17.5571  -34.3794  -11.3050 H   0  0  0  0  0
  -18.8961  -36.1162  -11.5325 H   0  0  0  0  0
  -16.5949  -46.2462  -13.3088 H   0  0  0  0  0
  -17.2273  -48.2546  -12.0270 H   0  0  0  0  0
  -21.1840  -46.7315  -11.6778 H   0  0  0  0  0
  -20.5587  -44.7367  -12.9451 H   0  0  0  0  0
  -19.8461  -43.1811  -13.1305 H   0  0  0  0  0
  -17.2881  -41.6616  -13.7872 H   0  0  0  0  0
  -16.7595  -39.9492  -12.2568 H   0  0  0  0  0
  -19.3503  -38.3754  -11.9796 H   0  0  0  0  0
  -18.9245  -42.5860  -15.9662 H   0  0  0  0  0
  -20.2747  -43.6542  -15.5111 H   0  0  0  0  0
  -20.3672  -41.9084  -15.1721 H   0  0  0  0  0
  -20.8501  -40.9776  -12.7348 H   0  0  0  0  0
  -20.1756  -41.9102  -11.3760 H   0  0  0  0  0
  -20.2641  -40.1343  -11.2800 H   0  0  0  0  0
  -18.5513  -50.2722  -11.8961 H   0  0  0  0  0
  -17.8471  -49.5620  -10.4228 H   0  0  0  0  0
  -19.2574  -50.6427  -10.3039 H   0  0  0  0  0
  -21.0241  -48.0049   -9.6554 H   0  0  0  0  0
  -21.7279  -48.7153  -11.1288 H   0  0  0  0  0
  -21.0366  -49.7722   -9.8734 H   0  0  0  0  0
  4  1  1  0  0  0
 18  2  2  0  0  0
 12  3  2  0  0  0
 18  4  1  0  0  0
  9  5  1  0  0  0
  5 21  1  0  0  0
  5 22  1  0  0  0
  6  7  4  0  0  0
  6 11  4  0  0  0
 12  6  1  0  0  0
  7  8  4  0  0  0
  8  9  4  0  0  0
 10  9  4  0  0  0
 11 10  4  0  0  0
 13 12  1  0  0  0
 14 13  1  0  0  0
 13 19  1  0  0  0
 15 14  2  0  0  0
 16 15  1  0  0  0
 15 20  1  0  0  0
 17 16  2  0  0  0
 17 18  1  0  0  0
  1 23  1  0  0  0
  4 24  1  0  0  0
  7 25  1  0  0  0
  8 26  1  0  0  0
 10 27  1  0  0  0
 11 28  1  0  0  0
 13 29  1  0  0  0
 14 30  1  0  0  0
 16 31  1  0  0  0
 17 32  1  0  0  0
 19 33  1  0  0  0
 19 34  1  0  0  0
 19 35  1  0  0  0
 20 36  1  0  0  0
 20 37  1  0  0  0
 20 38  1  0  0  0
 21 39  1  0  0  0
 21 40  1  0  0  0
 21 41  1  0  0  0
 22 42  1  0  0  0
 22 43  1  0  0  0
 22 44  1  0  0  0
M  END
$$$$
