2qhz_ligand
  -I-interpret- 

 64 66  0  0  0  0  0  0  0  0999 V2000
   25.2620   26.9290   12.7400 F   0  0  0  0  0
   24.6570   27.0110   11.5600 C   0  0  0  0  0
   25.5470   27.4360   10.6820 F   0  0  0  0  0
   24.2440   25.7940   11.2190 F   0  0  0  0  0
   23.5210   28.0080   11.5820 C   0  0  0  0  0
   23.2270   28.7490   10.3010 C   0  0  0  0  0
   22.9110   28.2230   12.7580 C   0  0  0  0  0
   21.7270   29.1070   13.0060 C   0  0  0  0  0
   21.4020   29.9610   12.2010 O   0  0  0  0  0
   21.0300   28.8440   14.1270 N   0  0  0  0  0
   19.8110   29.5400   14.5450 C   0  0  0  0  0
   18.6310   28.5810   14.3080 C   0  0  0  0  0
   18.3980   28.3290   12.8150 C   0  0  0  0  0
   17.6950   29.2480   12.0440 C   0  0  0  0  0
   17.4840   29.0180   10.6870 C   0  0  0  0  0
   17.9710   27.8640   10.0880 C   0  0  0  0  0
   18.6690   26.9400   10.8530 C   0  0  0  0  0
   18.8840   27.1730   12.2140 C   0  0  0  0  0
   20.0080   29.8740   16.0290 C   0  0  0  0  0
   19.9900   28.6690   16.8200 O   0  0  0  0  0
   18.9480   30.8630   16.5560 C   0  0  0  0  0
   19.2510   32.1740   15.9310 N   0  0  0  0  0
   18.0430   32.8250   15.0540 S   0  0  0  0  0
   18.6680   33.6150   14.0430 O   0  0  0  0  0
   17.3130   31.7570   14.4250 O   0  0  0  0  0
   17.0000   33.7310   15.9270 C   0  0  0  0  0
   17.0960   35.1230   15.9180 C   0  0  0  0  0
   16.2170   35.9290   16.6520 C   0  0  0  0  0
   16.3270   37.2680   16.6400 F   0  0  0  0  0
   15.9850   33.1700   16.7190 C   0  0  0  0  0
   15.8330   31.8390   16.7860 F   0  0  0  0  0
   15.1030   33.9730   17.4620 C   0  0  0  0  0
   15.2190   35.3620   17.4250 C   0  0  0  0  0
   14.3920   36.1720   18.1260 F   0  0  0  0  0
   20.0220   33.1220   16.7870 C   0  0  0  0  0
   21.4750   33.1020   16.2940 C   0  0  0  0  0
   22.5310   33.1580   17.1400 C   0  0  0  0  0
   23.7330   33.0700   16.3800 C   0  0  0  0  0
   23.5010   32.9670   15.0600 C   0  0  0  0  0
   21.8830   32.9830   14.6610 S   0  0  0  0  0
   22.1825   28.5992   10.0276 H   0  0  0  0  0
   23.4170   29.8125   10.4461 H   0  0  0  0  0
   23.8698   28.3688    9.5071 H   0  0  0  0  0
   23.3195   27.7000   13.6227 H   0  0  0  0  0
   21.3782   28.1013   14.7333 H   0  0  0  0  0
   19.6087   30.4585   13.9941 H   0  0  0  0  0
   17.7312   29.0335   14.7248 H   0  0  0  0  0
   18.8608   27.6286   14.7856 H   0  0  0  0  0
   17.3060   30.1556   12.5055 H   0  0  0  0  0
   16.9340   29.7473   10.0923 H   0  0  0  0  0
   17.8065   27.6851    9.0254 H   0  0  0  0  0
   19.0507   26.0297   10.3908 H   0  0  0  0  0
   19.4358   26.4444   12.8079 H   0  0  0  0  0
   20.9803   30.3583   16.1196 H   0  0  0  0  0
   20.1142   28.8930   17.7452 H   0  0  0  0  0
   18.9826   30.9307   17.6433 H   0  0  0  0  0
   17.9418   30.5310   16.3002 H   0  0  0  0  0
   17.8771   35.5963   15.3230 H   0  0  0  0  0
   14.3259   33.5086   18.0691 H   0  0  0  0  0
   19.9683   32.8235   17.8340 H   0  0  0  0  0
   19.6068   34.1273   16.7156 H   0  0  0  0  0
   22.4712   33.2545   18.2241 H   0  0  0  0  0
   24.7301   33.0846   16.8202 H   0  0  0  0  0
   24.2966   32.8811   14.3199 H   0  0  0  0  0
  1  2  1  0  0  0
  2  3  1  0  0  0
  2  4  1  0  0  0
  2  5  1  0  0  0
  5  6  1  0  0  0
  5  7  2  0  0  0
  7  8  1  0  0  0
  8  9  2  0  0  0
  8 10  1  0  0  0
 10 11  1  0  0  0
 11 12  1  0  0  0
 11 19  1  0  0  0
 12 13  1  0  0  0
 13 14  4  0  0  0
 13 18  4  0  0  0
 14 15  4  0  0  0
 15 16  4  0  0  0
 16 17  4  0  0  0
 17 18  4  0  0  0
 19 20  1  0  0  0
 19 21  1  0  0  0
 21 22  1  0  0  0
 22 23  1  0  0  0
 22 35  1  0  0  0
 23 24  2  0  0  0
 23 25  2  0  0  0
 23 26  1  0  0  0
 26 27  4  0  0  0
 26 30  4  0  0  0
 27 28  4  0  0  0
 28 29  1  0  0  0
 28 33  4  0  0  0
 30 31  1  0  0  0
 30 32  4  0  0  0
 32 33  4  0  0  0
 33 34  1  0  0  0
 35 36  1  0  0  0
 36 37  4  0  0  0
 36 40  4  0  0  0
 37 38  4  0  0  0
 38 39  4  0  0  0
 39 40  4  0  0  0
  6 41  1  0  0  0
  6 42  1  0  0  0
  6 43  1  0  0  0
  7 44  1  0  0  0
 10 45  1  0  0  0
 11 46  1  0  0  0
 12 47  1  0  0  0
 12 48  1  0  0  0
 14 49  1  0  0  0
 15 50  1  0  0  0
 16 51  1  0  0  0
 17 52  1  0  0  0
 18 53  1  0  0  0
 19 54  1  0  0  0
 20 55  1  0  0  0
 21 56  1  0  0  0
 21 57  1  0  0  0
 27 58  1  0  0  0
 32 59  1  0  0  0
 35 60  1  0  0  0
 35 61  1  0  0  0
 37 62  1  0  0  0
 38 63  1  0  0  0
 39 64  1  0  0  0
M  END
$$$$
