6d1h_ligand
  -I-interpret- 

 26 27  0  0  0  0  0  0  0  0999 V2000
    0.4210  -13.6950   15.0380 C   0  0  0  0  0
    0.8140  -12.3700   15.3240 C   0  0  0  0  0
    2.0790  -11.9720   15.0350 C   0  0  0  0  0
    2.4800  -10.5170   15.3260 C   0  0  0  0  0
    2.9490  -12.8280   14.4090 C   0  0  0  0  0
    4.2210  -12.4490   14.0770 C   0  0  0  0  0
    5.0760  -13.3770   13.4880 C   0  0  0  0  0
    4.6530  -14.6600   13.2410 C   0  0  0  0  0
    3.3870  -15.0040   13.5750 C   0  0  0  0  0
    2.5110  -14.1180   14.1610 C   0  0  0  0  0
    1.2820  -14.4900   14.4750 N   0  0  0  0  0
   -0.6260  -14.0480   15.2920 O   0  0  0  0  0
    1.3010   -9.9150   12.8670 O   0  0  0  0  0
    2.1210   -7.9900   14.2430 O   0  0  0  0  0
    3.7590   -9.4920   13.2090 O   0  0  0  0  0
    2.4150   -9.4340   13.7990 P   0  0  0  0  0
    0.1075  -11.6721   15.7733 H   0  0  0  0  0
    3.5063  -10.5186   15.6931 H   0  0  0  0  0
    1.7759  -10.1138   16.0538 H   0  0  0  0  0
    4.5614  -11.4319   14.2714 H   0  0  0  0  0
    6.0907  -13.0823   13.2204 H   0  0  0  0  0
    5.3240  -15.3877   12.7846 H   0  0  0  0  0
    3.0486  -16.0201   13.3725 H   0  0  0  0  0
    0.9955  -15.4463   14.2656 H   0  0  0  0  0
    0.4565   -9.8484   13.3186 H   0  0  0  0  0
    1.2432   -7.9476   14.6293 H   0  0  0  0  0
  1  2  1  0  0  0
  1 11  1  0  0  0
  1 12  2  0  0  0
  2  3  2  0  0  0
  3  4  1  0  0  0
  3  5  1  0  0  0
  4 16  1  0  0  0
  5  6  4  0  0  0
  5 10  4  0  0  0
  6  7  4  0  0  0
  7  8  4  0  0  0
  8  9  4  0  0  0
  9 10  4  0  0  0
 10 11  1  0  0  0
 16 13  1  0  0  0
 16 14  1  0  0  0
 16 15  2  0  0  0
  2 17  1  0  0  0
  4 18  1  0  0  0
  4 19  1  0  0  0
  6 20  1  0  0  0
  7 21  1  0  0  0
  8 22  1  0  0  0
  9 23  1  0  0  0
 11 24  1  0  0  0
 13 25  1  0  0  0
 14 26  1  0  0  0
M  END
$$$$
