### 
### Created by X-TOOL on Mon Aug  2 16:12:52 2021
### 

@<TRIPOS>MOLECULE
6d1h_ligand
   24    25     1     0     0
SMALL
GAST_HUCK


@<TRIPOS>ATOM
      1 C02         0.4210  -13.6950   15.0380 C.2       1 KED         0.1918
      2 C03         0.8140  -12.3700   15.3240 C.2       1 KED         0.0001
      3 C04         2.0790  -11.9720   15.0350 C.2       1 KED        -0.0115
      4 C05         2.4800  -10.5170   15.3260 C.3       1 KED         0.0581
      5 C10         2.9490  -12.8280   14.4090 C.ar      1 KED         0.0207
      6 C11         4.2210  -12.4490   14.0770 C.ar      1 KED        -0.0587
      7 C12         5.0760  -13.3770   13.4880 C.ar      1 KED        -0.0705
      8 C13         4.6530  -14.6600   13.2410 C.ar      1 KED        -0.0696
      9 C14         3.3870  -15.0040   13.5750 C.ar      1 KED        -0.0320
     10 C15         2.5110  -14.1180   14.1610 C.ar      1 KED         0.0891
     11 N16         1.2820  -14.4900   14.4750 N.am      1 KED        -0.2320
     12 O01        -0.6260  -14.0480   15.2920 O.2       1 KED        -0.4131
     13 O07         1.3010   -9.9150   12.8670 O.co2     1 KED        -0.5604
     14 O08         2.1210   -7.9900   14.2430 O.co2     1 KED        -0.5604
     15 O09         3.7590   -9.4920   13.2090 O.co2     1 KED        -0.5604
     16 P06         2.4150   -9.4340   13.7990 P.3       1 KED         0.0728
     17 H1          0.1081  -11.6727   15.7728 H         1 KED         0.0425
     18 H2          3.5062  -10.5066   15.7220 H         1 KED         0.0651
     19 H3          1.7920  -10.1057   16.0793 H         1 KED         0.0651
     20 H4          4.5595  -11.4375   14.2703 H         1 KED         0.0619
     21 H5          6.0851  -13.0839   13.2219 H         1 KED         0.0515
     22 H6          5.3203  -15.3837   12.7871 H         1 KED         0.0614
     23 H7          3.0504  -16.0146   13.3736 H         1 KED         0.0527
     24 H8          1.0011  -15.4275   14.2697 H         1 KED         0.2361
@<TRIPOS>BOND
     1    1    2 1  
     2    1   11 am 
     3    1   12 2  
     4    2    3 2  
     5    3    4 1  
     6    3    5 1  
     7    4   16 1  
     8    5    6 ar 
     9    5   10 ar 
    10    6    7 ar 
    11    7    8 ar 
    12    8    9 ar 
    13    9   10 ar 
    14   10   11 1  
    15   16   13 ar 
    16   16   14 ar 
    17   16   15 ar 
    18    2   17 1  
    19    4   18 1  
    20    4   19 1  
    21    6   20 1  
    22    7   21 1  
    23    8   22 1  
    24    9   23 1  
    25   11   24 1  
@<TRIPOS>SUBSTRUCTURE
     1 KED         1

