1oau_ligand
  -I-interpret- 

 28 28  0  0  0  0  0  0  0  0999 V2000
   36.2750   53.5920   76.6750 N   0  0  0  0  0
   36.4050   52.5790   75.6240 C   0  0  0  0  0
   35.8450   53.2040   74.3130 C   0  0  0  0  0
   35.1510   54.2280   74.3400 O   0  0  0  0  0
   35.5690   51.3450   75.9790 C   0  0  0  0  0
   36.2090   50.0880   76.0970 O   0  0  0  0  0
   36.2180   53.3960   73.0660 O   0  0  0  0  0
   37.3080   53.5380   77.7330 C   0  0  0  0  0
   37.2630   54.4970   78.7670 C   0  0  0  0  0
   36.2710   55.5460   78.7740 N   0  0  0  0  0
   35.4190   55.6980   77.9220 O   0  0  0  0  0
   36.2910   56.3300   79.7090 O   0  0  0  0  0
   38.1430   54.4930   79.8200 C   0  0  0  0  0
   39.0820   53.5040   79.8180 C   0  0  0  0  0
   40.0540   53.4610   80.9330 N   0  0  0  0  0
   39.9390   54.3220   81.7520 O   0  0  0  0  0
   40.8610   52.5570   80.8960 O   0  0  0  0  0
   39.2270   52.4810   78.8480 C   0  0  0  0  0
   38.3230   52.5440   77.8250 C   0  0  0  0  0
   35.5262   54.2846   76.6770 H   0  0  0  0  0
   37.4466   52.2779   75.5123 H   0  0  0  0  0
   34.8759   51.2282   75.1459 H   0  0  0  0  0
   35.1745   51.5519   76.9738 H   0  0  0  0  0
   35.5584   49.4188   76.3217 H   0  0  0  0  0
   36.8020   52.6840   72.7946 H   0  0  0  0  0
   38.0942   55.2386   80.6136 H   0  0  0  0  0
   39.9943   51.7095   78.9124 H   0  0  0  0  0
   38.3823   51.7929   77.0373 H   0  0  0  0  0
  2  1  1  0  0  0
  2  5  1  0  0  0
  2  3  1  0  0  0
  3  4  2  0  0  0
  3  7  1  0  0  0
  5  6  1  0  0  0
  1  8  1  0  0  0
  8  9  4  0  0  0
  8 19  4  0  0  0
  9 10  1  0  0  0
  9 13  4  0  0  0
 10 11  2  0  0  0
 10 12  2  0  0  0
 13 14  4  0  0  0
 14 15  1  0  0  0
 14 18  4  0  0  0
 15 16  2  0  0  0
 15 17  2  0  0  0
 18 19  4  0  0  0
  1 20  1  0  0  0
  2 21  1  0  0  0
  5 22  1  0  0  0
  5 23  1  0  0  0
  6 24  1  0  0  0
  7 25  1  0  0  0
 13 26  1  0  0  0
 18 27  1  0  0  0
 19 28  1  0  0  0
M  END
$$$$
