5drs_ligand
  -I-interpret- 

 46 48  0  0  0  0  0  0  0  0999 V2000
   20.9090    8.9020   11.0370 O   0  0  0  0  0
   19.3310    7.6020   12.3000 C   0  0  0  0  0
   17.4140    4.4410   15.6930 C   0  0  0  0  0
   18.1630    3.4370   16.1890 F   0  0  0  0  0
   16.0240    4.2830   15.7330 C   0  0  0  0  0
   19.4310    5.5580   15.1420 F   0  0  0  0  0
   14.0760    5.3480   15.1260 F   0  0  0  0  0
   19.3860    8.3590   14.7200 O   0  0  0  0  0
   18.3510    7.9020   13.8040 S   0  0  0  0  0
   17.4070    8.9730   13.3510 O   0  0  0  0  0
   19.6190    8.9180   11.5880 C   0  0  0  0  0
   17.3870    6.5980   14.5090 C   0  0  0  0  0
   18.0730    5.4980   15.0910 C   0  0  0  0  0
   15.9490    6.5030   14.4820 C   0  0  0  0  0
   15.3710    5.3800   15.1470 C   0  0  0  0  0
   15.3090    2.8580   16.5970 S   0  0  0  0  0
   13.7650    2.8330   16.7420 O   0  0  0  0  0
   15.6800    1.4970   15.9050 N   0  0  0  0  0
   15.7570    2.8960   17.9850 O   0  0  0  0  0
   15.1050    7.4750   14.0340 N   0  0  0  0  0
   14.5720    7.4910   12.7210 C   0  0  0  0  0
   13.8860    8.7700   12.2060 C   0  0  0  0  0
   14.8830    9.3660   11.2430 C   0  0  0  0  0
   15.5050    8.1410   10.7400 C   0  0  0  0  0
   16.2600    7.9790    9.5560 C   0  0  0  0  0
   16.8080    6.6900    9.3330 C   0  0  0  0  0
   16.6540    5.5770   10.1970 C   0  0  0  0  0
   15.9290    5.7480   11.3300 C   0  0  0  0  0
   15.3940    7.0380   11.5970 C   0  0  0  0  0
   21.0762    9.7362   10.5923 H   0  0  0  0  0
   18.7681    6.9506   11.6315 H   0  0  0  0  0
   20.2748    7.1324   12.5771 H   0  0  0  0  0
   18.8921    9.0558   10.7876 H   0  0  0  0  0
   19.5496    9.7341   12.3072 H   0  0  0  0  0
   14.9458    0.8325   15.6602 H   0  0  0  0  0
   16.6550    1.2779   15.7005 H   0  0  0  0  0
   14.8449    8.2258   14.6736 H   0  0  0  0  0
   13.8373    6.7296   12.9830 H   0  0  0  0  0
   13.6366    9.4562   13.0154 H   0  0  0  0  0
   12.9296    8.5585   11.7278 H   0  0  0  0  0
   15.5783   10.0750   11.6925 H   0  0  0  0  0
   14.4446   10.0002   10.4725 H   0  0  0  0  0
   16.4125    8.7987    8.8538 H   0  0  0  0  0
   17.3938    6.5437    8.4255 H   0  0  0  0  0
   17.1044    4.6136    9.9581 H   0  0  0  0  0
   15.7609    4.9190   12.0175 H   0  0  0  0  0
 11  1  1  0  0  0
  9  2  1  0  0  0
  2 11  1  0  0  0
  3  4  1  0  0  0
  3  5  4  0  0  0
 13  3  4  0  0  0
  5 15  4  0  0  0
  5 16  1  0  0  0
 13  6  1  0  0  0
 15  7  1  0  0  0
  9  8  2  0  0  0
  9 10  2  0  0  0
 12  9  1  0  0  0
 12 13  4  0  0  0
 12 14  4  0  0  0
 14 15  4  0  0  0
 14 20  1  0  0  0
 16 17  2  0  0  0
 16 18  1  0  0  0
 16 19  2  0  0  0
 20 21  1  0  0  0
 21 22  1  0  0  0
 21 29  1  0  0  0
 22 23  1  0  0  0
 23 24  1  0  0  0
 24 25  4  0  0  0
 24 29  4  0  0  0
 25 26  4  0  0  0
 26 27  4  0  0  0
 27 28  4  0  0  0
 28 29  4  0  0  0
  1 30  1  0  0  0
  2 31  1  0  0  0
  2 32  1  0  0  0
 11 33  1  0  0  0
 11 34  1  0  0  0
 18 35  1  0  0  0
 18 36  1  0  0  0
 20 37  1  0  0  0
 21 38  1  0  0  0
 22 39  1  0  0  0
 22 40  1  0  0  0
 23 41  1  0  0  0
 23 42  1  0  0  0
 25 43  1  0  0  0
 26 44  1  0  0  0
 27 45  1  0  0  0
 28 46  1  0  0  0
M  END
$$$$
