2r6w_ligand
  -I-interpret- 

 65 69  0  0  0  0  0  0  0  0999 V2000
   10.7080   53.3480   59.6360 C   0  0  0  0  0
   10.2010   54.6090   60.1340 C   0  0  0  0  0
    8.7920   54.8130   60.2910 C   0  0  0  0  0
   11.7390   56.6550   71.3940 C   0  0  0  0  0
   13.2350   53.9520   59.7510 C   0  0  0  0  0
   14.1970   55.0950   63.7940 C   0  0  0  0  0
   14.8140   55.7760   62.7110 C   0  0  0  0  0
   14.4950   55.3920   61.3700 C   0  0  0  0  0
   15.2480   56.4120   65.4630 C   0  0  0  0  0
   13.8880   54.4290   58.8390 O   0  0  0  0  0
   12.1240   53.0060   59.4430 C   0  0  0  0  0
   12.2990   51.6840   58.9650 C   0  0  0  0  0
   13.6050   51.0450   58.6540 C   0  0  0  0  0
   14.6140   50.9770   59.6100 C   0  0  0  0  0
   15.8550   50.3780   59.2780 C   0  0  0  0  0
   16.0650   49.8660   57.9880 C   0  0  0  0  0
   17.2630   49.2760   57.6190 O   0  0  0  0  0
   15.0450   49.9230   57.0100 C   0  0  0  0  0
   13.8060   50.5260   57.3600 C   0  0  0  0  0
   10.7740   50.9350   58.7570 S   0  0  0  0  0
    9.8470   52.3010   59.2910 C   0  0  0  0  0
    8.4540   52.4840   59.4420 C   0  0  0  0  0
    7.9420   53.7470   59.9390 C   0  0  0  0  0
    6.5930   53.8990   60.0350 O   0  0  0  0  0
   13.5620   54.3280   61.1600 C   0  0  0  0  0
   13.2770   54.0730   63.5960 C   0  0  0  0  0
   12.9500   53.6820   62.2850 C   0  0  0  0  0
   14.4150   55.3460   65.1190 O   0  0  0  0  0
   15.4330   56.3180   66.9750 C   0  0  0  0  0
   14.3510   56.6080   67.9170 N   0  3  0  0  0
   13.5420   55.3660   68.1680 C   0  0  0  0  0
   12.4690   55.4960   69.2680 C   0  0  0  0  0
   12.9630   56.2400   70.5520 C   0  0  0  0  0
   13.7750   57.4960   70.2600 C   0  0  0  0  0
   14.8430   57.2060   69.1970 C   0  0  0  0  0
   10.8959   55.4084   60.3912 H   0  0  0  0  0
    8.3939   55.7552   60.6677 H   0  0  0  0  0
   11.1031   57.3172   70.8065 H   0  0  0  0  0
   11.1761   55.7656   71.6774 H   0  0  0  0  0
   12.0760   57.1744   72.2911 H   0  0  0  0  0
   15.5228   56.5824   62.8993 H   0  0  0  0  0
   14.9549   55.9013   60.5231 H   0  0  0  0  0
   14.8112   57.3679   65.1740 H   0  0  0  0  0
   16.2031   56.3556   64.9408 H   0  0  0  0  0
   14.4509   51.3822   60.6087 H   0  0  0  0  0
   16.6466   50.3149   60.0247 H   0  0  0  0  0
   17.2097   48.9915   56.7037 H   0  0  0  0  0
   15.2049   49.5145   56.0122 H   0  0  0  0  0
   13.0062   50.5871   56.6220 H   0  0  0  0  0
    7.7660   51.6783   59.1857 H   0  0  0  0  0
    6.1603   53.0873   59.7603 H   0  0  0  0  0
   12.8126   53.5784   64.4492 H   0  0  0  0  0
   12.2267   52.8828   62.1229 H   0  0  0  0  0
   16.1689   57.0932   67.1885 H   0  0  0  0  0
   15.6351   55.2596   67.1398 H   0  0  0  0  0
   13.7520   57.3138   67.4887 H   0  0  0  0  0
   14.2406   54.5980   68.5000 H   0  0  0  0  0
   13.0152   55.1416   67.2405 H   0  0  0  0  0
   12.1878   54.4862   69.5669 H   0  0  0  0  0
   11.6476   56.0792   68.8517 H   0  0  0  0  0
   13.6141   55.5426   71.0791 H   0  0  0  0  0
   14.2656   57.8232   71.1767 H   0  0  0  0  0
   13.1066   58.2732   69.8895 H   0  0  0  0  0
   15.2830   58.1683   68.9354 H   0  0  0  0  0
   15.5201   56.4734   69.6361 H   0  0  0  0  0
  1  2  4  0  0  0
 11  1  4  0  0  0
  1 21  4  0  0  0
  2  3  4  0  0  0
  3 23  4  0  0  0
 33  4  1  0  0  0
  5 10  2  0  0  0
  5 11  1  0  0  0
 25  5  1  0  0  0
  6  7  4  0  0  0
  6 26  4  0  0  0
 28  6  1  0  0  0
  7  8  4  0  0  0
  8 25  4  0  0  0
  9 28  1  0  0  0
 29  9  1  0  0  0
 11 12  4  0  0  0
 12 13  1  0  0  0
 12 20  4  0  0  0
 13 14  4  0  0  0
 13 19  4  0  0  0
 14 15  4  0  0  0
 15 16  4  0  0  0
 16 17  1  0  0  0
 18 16  4  0  0  0
 19 18  4  0  0  0
 20 21  4  0  0  0
 21 22  4  0  0  0
 22 23  4  0  0  0
 23 24  1  0  0  0
 27 25  4  0  0  0
 26 27  4  0  0  0
 30 29  1  0  0  0
 31 30  1  0  0  0
 30 35  1  0  0  0
 32 31  1  0  0  0
 32 33  1  0  0  0
 33 34  1  0  0  0
 34 35  1  0  0  0
  2 36  1  0  0  0
  3 37  1  0  0  0
  4 38  1  0  0  0
  4 39  1  0  0  0
  4 40  1  0  0  0
  7 41  1  0  0  0
  8 42  1  0  0  0
  9 43  1  0  0  0
  9 44  1  0  0  0
 14 45  1  0  0  0
 15 46  1  0  0  0
 17 47  1  0  0  0
 18 48  1  0  0  0
 19 49  1  0  0  0
 22 50  1  0  0  0
 24 51  1  0  0  0
 26 52  1  0  0  0
 27 53  1  0  0  0
 29 54  1  0  0  0
 29 55  1  0  0  0
 30 56  1  0  0  0
 31 57  1  0  0  0
 31 58  1  0  0  0
 32 59  1  0  0  0
 32 60  1  0  0  0
 33 61  1  0  0  0
 34 62  1  0  0  0
 34 63  1  0  0  0
 35 64  1  0  0  0
 35 65  1  0  0  0
M  END
$$$$
