3su0_ligand
  -I-interpret- 

 95100  0  0  0  0  0  0  0  0999 V2000
  -12.5030   -6.3010   17.1930 C   0  0  0  0  0
  -15.4590  -15.0730   18.3660 F   0  0  0  0  0
  -18.1840   -9.4280   14.7240 N   0  0  0  0  0
  -19.2500  -10.8890   16.1840 O   0  0  0  0  0
   -8.8460   -6.3000   13.8030 S   0  0  0  0  0
  -12.1450   -6.7890   15.7940 C   0  0  0  0  0
  -12.4210   -8.1780   15.5140 N   0  0  0  0  0
  -17.9170  -11.6560   14.4490 O   0  0  0  0  0
  -13.4200   -5.9580   16.0210 C   0  0  0  0  0
  -10.1410   -6.9470   14.4670 N   0  0  0  0  0
  -15.5670   -8.4720   15.3330 O   0  0  0  0  0
  -10.9280   -6.1470   15.1940 C   0  0  0  0  0
  -13.2500  -14.5970   14.7470 N   0  0  0  0  0
   -7.9070   -5.7900   14.8000 O   0  0  0  0  0
  -13.4810   -4.4990   15.6360 C   0  0  0  0  0
  -14.9210   -9.9330   13.7790 N   0  0  0  0  0
  -12.3420  -13.9500   12.8390 O   0  0  0  0  0
  -18.4980  -13.0390   16.9990 C   0  0  0  0  0
   -9.2460   -5.2800   12.8230 O   0  0  0  0  0
  -20.5850  -11.9420   17.8370 C   0  0  0  0  0
  -13.1360   -7.7580   13.4200 O   0  0  0  0  0
  -20.4910  -12.8340   15.4940 C   0  0  0  0  0
  -14.0710  -12.7110   13.7440 O   0  0  0  0  0
  -19.6960  -12.1740   16.6220 C   0  0  0  0  0
  -10.6660   -4.9660   15.4030 O   0  0  0  0  0
  -14.4280   -4.0260   14.8000 C   0  0  0  0  0
  -12.9970   -8.5310   14.3630 C   0  0  0  0  0
  -12.5350  -15.8720   14.8210 C   0  0  0  0  0
  -15.5010   -4.9020   14.1650 C   0  0  0  0  0
  -13.4050  -18.0570   17.7950 C   0  0  0  0  0
  -13.5400   -9.9230   14.2870 C   0  0  0  0  0
  -12.7730  -17.6960   16.6090 C   0  0  0  0  0
  -14.3200  -17.1890   18.4040 C   0  0  0  0  0
  -15.3800   -4.8860   12.6370 C   0  0  0  0  0
  -16.5300   -5.6460   11.9650 C   0  0  0  0  0
  -18.3950  -10.6940   15.0440 C   0  0  0  0  0
  -14.5980  -15.9460   17.8250 C   0  0  0  0  0
  -16.4500   -7.1570   12.2070 C   0  0  0  0  0
   -8.1200   -7.5520   12.9370 C   0  0  0  0  0
  -13.0850  -16.4590   16.0700 C   0  0  0  0  0
  -17.4720   -7.6100   13.2580 C   0  0  0  0  0
  -13.9600  -15.6210   16.6620 C   0  0  0  0  0
  -12.7990  -10.7600   13.2580 C   0  0  0  0  0
  -17.2140   -9.0440   13.7220 C   0  0  0  0  0
   -6.6750   -7.3450   12.4910 C   0  0  0  0  0
  -13.8470  -11.7150   12.7560 C   0  0  0  0  0
  -14.1240  -14.3470   15.8930 C   0  0  0  0  0
   -6.9850   -8.3160   13.6260 C   0  0  0  0  0
  -15.8380   -9.1310   14.3320 C   0  0  0  0  0
  -15.1070  -10.8880   12.6770 C   0  0  0  0  0
  -13.1420  -13.7930   13.7410 C   0  0  0  0  0
  -12.0186   -5.7874   18.0234 H   0  0  0  0  0
  -12.5889   -6.7105   18.1995 H   0  0  0  0  0
  -18.7209   -8.7014   15.1976 H   0  0  0  0  0
  -12.1747   -8.8927   16.1988 H   0  0  0  0  0
  -14.4640   -6.1094   15.7466 H   0  0  0  0  0
  -10.3618   -7.9350   14.3423 H   0  0  0  0  0
  -12.7409   -3.8106   16.0441 H   0  0  0  0  0
  -17.9184  -12.5369   17.7737 H   0  0  0  0  0
  -18.8492  -14.0010   17.3722 H   0  0  0  0  0
  -17.8731  -13.1951   16.1196 H   0  0  0  0  0
  -20.9422  -12.9008   18.2126 H   0  0  0  0  0
  -20.0115  -11.4368   18.6141 H   0  0  0  0  0
  -21.4352  -11.3230   17.5506 H   0  0  0  0  0
  -19.8491  -12.9549   14.6214 H   0  0  0  0  0
  -20.8454  -13.8105   15.8241 H   0  0  0  0  0
  -21.3430  -12.2052   15.2356 H   0  0  0  0  0
  -14.4256   -2.9613   14.5664 H   0  0  0  0  0
  -11.7923  -16.2837   14.1376 H   0  0  0  0  0
  -16.4814   -4.5164   14.4447 H   0  0  0  0  0
  -15.3742   -5.9256   14.5176 H   0  0  0  0  0
  -13.1865  -19.0216   18.2531 H   0  0  0  0  0
  -13.4483  -10.3120   15.3011 H   0  0  0  0  0
  -12.0596  -18.3614   16.1228 H   0  0  0  0  0
  -14.8158  -17.4820   19.3295 H   0  0  0  0  0
  -14.4432   -5.3712   12.3630 H   0  0  0  0  0
  -15.4134   -3.8493   12.3021 H   0  0  0  0  0
  -16.4674   -5.4722   10.8908 H   0  0  0  0  0
  -17.4669   -5.2851   12.3895 H   0  0  0  0  0
  -15.4506   -7.3972   12.5697 H   0  0  0  0  0
  -16.6665   -7.6698   11.2698 H   0  0  0  0  0
   -9.0492   -7.8323   12.4410 H   0  0  0  0  0
  -18.4647   -7.5689   12.8098 H   0  0  0  0  0
  -17.3892   -6.9507   14.1221 H   0  0  0  0  0
  -11.9364  -11.2738   13.6823 H   0  0  0  0  0
  -12.3705  -10.1546   12.4593 H   0  0  0  0  0
  -17.2934   -9.7095   12.8624 H   0  0  0  0  0
   -5.9947   -6.5178   12.2886 H   0  0  0  0  0
   -6.1019   -7.3306   11.5639 H   0  0  0  0  0
  -13.5614  -12.1803   11.8126 H   0  0  0  0  0
  -14.7301  -13.4710   16.1243 H   0  0  0  0  0
   -6.7453   -9.3389   13.9162 H   0  0  0  0  0
   -6.6386   -8.5305   14.6370 H   0  0  0  0  0
  -15.2450  -10.4061   11.7091 H   0  0  0  0  0
  -16.0169  -11.4808   12.7707 H   0  0  0  0  0
  6  1  1  0  0  0
  9  1  1  0  0  0
 37  2  1  0  0  0
  3 36  1  0  0  0
 44  3  1  0  0  0
  4 24  1  0  0  0
 36  4  1  0  0  0
 10  5  1  0  0  0
  5 14  2  0  0  0
  5 19  2  0  0  0
  5 39  1  0  0  0
  7  6  1  0  0  0
  6  9  1  0  0  0
  6 12  1  0  0  0
 27  7  1  0  0  0
 36  8  2  0  0  0
  9 15  1  0  0  0
 12 10  1  0  0  0
 49 11  2  0  0  0
 12 25  2  0  0  0
 13 28  4  0  0  0
 13 47  4  0  0  0
 51 13  1  0  0  0
 15 26  2  0  0  0
 31 16  1  0  0  0
 16 49  1  0  0  0
 16 50  1  0  0  0
 51 17  2  0  0  0
 24 18  1  0  0  0
 24 20  1  0  0  0
 27 21  2  0  0  0
 24 22  1  0  0  0
 46 23  1  0  0  0
 23 51  1  0  0  0
 26 29  1  0  0  0
 31 27  1  0  0  0
 28 40  4  0  0  0
 29 34  1  0  0  0
 32 30  4  0  0  0
 33 30  4  0  0  0
 43 31  1  0  0  0
 40 32  4  0  0  0
 37 33  4  0  0  0
 34 35  1  0  0  0
 35 38  1  0  0  0
 42 37  4  0  0  0
 38 41  1  0  0  0
 39 45  1  0  0  0
 39 48  1  0  0  0
 42 40  4  0  0  0
 41 44  1  0  0  0
 47 42  4  0  0  0
 43 46  1  0  0  0
 44 49  1  0  0  0
 45 48  1  0  0  0
 46 50  1  0  0  0
  1 52  1  0  0  0
  1 53  1  0  0  0
  3 54  1  0  0  0
  7 55  1  0  0  0
  9 56  1  0  0  0
 10 57  1  0  0  0
 15 58  1  0  0  0
 18 59  1  0  0  0
 18 60  1  0  0  0
 18 61  1  0  0  0
 20 62  1  0  0  0
 20 63  1  0  0  0
 20 64  1  0  0  0
 22 65  1  0  0  0
 22 66  1  0  0  0
 22 67  1  0  0  0
 26 68  1  0  0  0
 28 69  1  0  0  0
 29 70  1  0  0  0
 29 71  1  0  0  0
 30 72  1  0  0  0
 31 73  1  0  0  0
 32 74  1  0  0  0
 33 75  1  0  0  0
 34 76  1  0  0  0
 34 77  1  0  0  0
 35 78  1  0  0  0
 35 79  1  0  0  0
 38 80  1  0  0  0
 38 81  1  0  0  0
 39 82  1  0  0  0
 41 83  1  0  0  0
 41 84  1  0  0  0
 43 85  1  0  0  0
 43 86  1  0  0  0
 44 87  1  0  0  0
 45 88  1  0  0  0
 45 89  1  0  0  0
 46 90  1  0  0  0
 47 91  1  0  0  0
 48 92  1  0  0  0
 48 93  1  0  0  0
 50 94  1  0  0  0
 50 95  1  0  0  0
M  END
$$$$
