6beb_ligand
  -I-interpret- 

 99102  0  0  0  0  0  0  0  0999 V2000
   87.8340  101.8440   41.6330 C   0  0  0  0  0
   88.3550  100.9370   42.5700 C   0  0  0  0  0
   89.4070  101.3420   43.3910 C   0  0  0  0  0
   89.6540  102.6760   43.6010 C   0  0  0  0  0
   88.7410  105.0680   43.4320 C   0  0  0  0  0
   87.9800  105.9650   42.7170 C   0  0  0  0  0
   87.1650  105.6160   41.6360 C   0  0  0  0  0
   87.1170  104.2520   41.2330 C   0  0  0  0  0
   87.9290  103.2510   41.9460 C   0  0  0  0  0
   88.7830  103.6770   43.0460 C   0  0  0  0  0
   89.2120  105.8010   44.6640 C   0  0  0  0  0
   89.0450  107.2880   44.2390 C   0  0  0  0  0
   88.4960  108.1990   45.3040 C   0  0  0  0  0
   86.3370  106.6540   40.9160 C   0  0  0  0  0
   88.2250   98.4930   43.1140 C   0  0  0  0  0
   88.3770   97.1500   42.4440 C   0  0  0  0  0
   89.4870   96.8060   41.7200 C   0  0  0  0  0
   90.6980   97.5600   41.5700 C   0  0  0  0  0
   91.7550   97.1810   40.8360 C   0  0  0  0  0
   93.0780   97.9000   40.7220 C   0  0  0  0  0
   93.0000   99.2270   39.9390 C   0  0  0  0  0
   94.3110  100.0570   39.8930 C   0  0  0  0  0
   94.0620  101.6000   39.6380 C   0  0  0  0  0
   93.3070  102.4040   40.7780 C   0  0  0  0  0
   93.3880  103.9490   40.5010 C   0  0  0  0  0
   92.1370  104.7900   40.9510 C   0  0  0  0  0
   92.3330  106.3250   40.9940 C   0  0  0  0  0
   91.2350  107.0660   41.7220 C   0  0  0  0  0
   91.2560  107.2870   43.0230 C   0  0  0  0  0
   87.1840   96.2550   42.5830 C   0  0  0  0  0
   93.6630   98.1060   42.1220 C   0  0  0  0  0
   95.3280   99.4760   38.9060 C   0  0  0  0  0
   93.7880  102.0360   42.1850 C   0  0  0  0  0
   90.8930  104.3970   40.1470 C   0  0  0  0  0
   95.6340  104.8150   40.3540 C   0  0  0  0  0
   96.7630  105.3200   41.1830 C   0  0  0  0  0
   93.6070  107.6140   39.4370 C   0  0  0  0  0
   88.2030   99.5610   42.2660 N   0  0  0  0  0
   87.7620  101.4690   40.3150 O   0  0  0  0  0
   86.3360  103.8250   40.1900 O   0  0  0  0  0
   88.1040  107.2680   43.1310 O   0  0  0  0  0
   90.5200  105.4650   45.1100 O   0  0  0  0  0
   90.1620  108.0220   43.5970 O   0  0  0  0  0
   92.4610  106.7960   39.6430 O   0  0  0  0  0
   94.5750  104.4810   41.1350 O   0  0  0  0  0
   95.6390  104.7100   39.1580 O   0  0  0  0  0
   93.3820  101.7790   38.3990 O   0  0  0  0  0
   92.4890   99.0060   38.6270 O   0  0  0  0  0
   88.1580   98.5840   44.3410 O   0  0  0  0  0
   90.7750  103.0570   44.2620 O   0  0  0  0  0
   90.0382  100.5934   43.8698 H   0  0  0  0  0
   88.6396  105.5333   45.5521 H   0  0  0  0  0
   87.5093  107.8486   45.6068 H   0  0  0  0  0
   89.1647  108.1939   46.1647 H   0  0  0  0  0
   88.4178  109.2119   44.9090 H   0  0  0  0  0
   85.6422  107.1140   41.6187 H   0  0  0  0  0
   86.9948  107.4176   40.5009 H   0  0  0  0  0
   85.7786  106.1768   40.1107 H   0  0  0  0  0
   89.4457   95.8500   41.1980 H   0  0  0  0  0
   90.7645   98.5143   42.0926 H   0  0  0  0  0
   91.6479   96.2598   40.2633 H   0  0  0  0  0
   93.7425   97.2673   40.1336 H   0  0  0  0  0
   92.3082   99.8465   40.5097 H   0  0  0  0  0
   94.7450   99.9795   40.8898 H   0  0  0  0  0
   95.0635  102.0300   39.6254 H   0  0  0  0  0
   92.2578  102.1099   40.7486 H   0  0  0  0  0
   93.4199  104.0463   39.4158 H   0  0  0  0  0
   91.9899  104.5220   41.9973 H   0  0  0  0  0
   93.2359  106.5300   41.5692 H   0  0  0  0  0
   90.3865  107.4350   41.1458 H   0  0  0  0  0
   92.0763  106.9240   43.6422 H   0  0  0  0  0
   86.7665   96.0524   41.5967 H   0  0  0  0  0
   87.4869   95.3179   43.0502 H   0  0  0  0  0
   86.4336   96.7456   43.2029 H   0  0  0  0  0
   92.9727   98.7023   42.7187 H   0  0  0  0  0
   93.8130   97.1369   42.5979 H   0  0  0  0  0
   94.6182   98.6249   42.0425 H   0  0  0  0  0
   95.5806   98.4583   39.2035 H   0  0  0  0  0
   94.8966   99.4668   37.9051 H   0  0  0  0  0
   96.2280  100.0909   38.9095 H   0  0  0  0  0
   93.6186  100.9734   42.3592 H   0  0  0  0  0
   94.8522  102.2547   42.2725 H   0  0  0  0  0
   93.2342  102.6189   42.9210 H   0  0  0  0  0
   91.0743  104.5785   39.0876 H   0  0  0  0  0
   90.6792  103.3398   40.3044 H   0  0  0  0  0
   90.0437  104.9941   40.4791 H   0  0  0  0  0
   97.6349  104.6831   41.0338 H   0  0  0  0  0
   97.0021  106.3410   40.8856 H   0  0  0  0  0
   96.4756  105.3043   42.2343 H   0  0  0  0  0
   93.5491  108.4882   40.0855 H   0  0  0  0  0
   94.5057  107.0441   39.6726 H   0  0  0  0  0
   93.6409  107.9341   38.3956 H   0  0  0  0  0
   88.0577   99.3398   41.2809 H   0  0  0  0  0
   87.3877  102.1869   39.7992 H   0  0  0  0  0
   86.4433  102.8776   40.0784 H   0  0  0  0  0
   90.5452  104.5367   45.3535 H   0  0  0  0  0
   93.2335  102.7155   38.2491 H   0  0  0  0  0
   92.4478   99.8415   38.1559 H   0  0  0  0  0
   90.7983  104.0147   44.3246 H   0  0  0  0  0
  1  2  4  0  0  0
  9  1  4  0  0  0
  1 39  1  0  0  0
  3  2  4  0  0  0
 38  2  1  0  0  0
  4  3  4  0  0  0
 10  4  4  0  0  0
  4 50  1  0  0  0
  6  5  4  0  0  0
  5 10  4  0  0  0
 11  5  1  0  0  0
  6  7  4  0  0  0
 41  6  1  0  0  0
  7  8  4  0  0  0
  7 14  1  0  0  0
  8  9  4  0  0  0
  8 40  1  0  0  0
 10  9  4  0  0  0
 12 11  1  0  0  0
 11 42  1  0  0  0
 12 13  1  0  0  0
 12 41  1  0  0  0
 43 12  1  0  0  0
 16 15  1  0  0  0
 15 38  1  0  0  0
 15 49  2  0  0  0
 17 16  2  0  0  0
 16 30  1  0  0  0
 18 17  1  0  0  0
 19 18  2  0  0  0
 20 19  1  0  0  0
 21 20  1  0  0  0
 20 31  1  0  0  0
 22 21  1  0  0  0
 21 48  1  0  0  0
 23 22  1  0  0  0
 22 32  1  0  0  0
 24 23  1  0  0  0
 23 47  1  0  0  0
 25 24  1  0  0  0
 24 33  1  0  0  0
 25 26  1  0  0  0
 45 25  1  0  0  0
 26 27  1  0  0  0
 26 34  1  0  0  0
 27 28  1  0  0  0
 27 44  1  0  0  0
 28 29  2  0  0  0
 29 43  1  0  0  0
 35 36  1  0  0  0
 35 45  1  0  0  0
 35 46  2  0  0  0
 44 37  1  0  0  0
  3 51  1  0  0  0
 11 52  1  0  0  0
 13 53  1  0  0  0
 13 54  1  0  0  0
 13 55  1  0  0  0
 14 56  1  0  0  0
 14 57  1  0  0  0
 14 58  1  0  0  0
 17 59  1  0  0  0
 18 60  1  0  0  0
 19 61  1  0  0  0
 20 62  1  0  0  0
 21 63  1  0  0  0
 22 64  1  0  0  0
 23 65  1  0  0  0
 24 66  1  0  0  0
 25 67  1  0  0  0
 26 68  1  0  0  0
 27 69  1  0  0  0
 28 70  1  0  0  0
 29 71  1  0  0  0
 30 72  1  0  0  0
 30 73  1  0  0  0
 30 74  1  0  0  0
 31 75  1  0  0  0
 31 76  1  0  0  0
 31 77  1  0  0  0
 32 78  1  0  0  0
 32 79  1  0  0  0
 32 80  1  0  0  0
 33 81  1  0  0  0
 33 82  1  0  0  0
 33 83  1  0  0  0
 34 84  1  0  0  0
 34 85  1  0  0  0
 34 86  1  0  0  0
 36 87  1  0  0  0
 36 88  1  0  0  0
 36 89  1  0  0  0
 37 90  1  0  0  0
 37 91  1  0  0  0
 37 92  1  0  0  0
 38 93  1  0  0  0
 39 94  1  0  0  0
 40 95  1  0  0  0
 42 96  1  0  0  0
 47 97  1  0  0  0
 48 98  1  0  0  0
 50 99  1  0  0  0
M  END
$$$$
