3r91_ligand
  -I-interpret- 

 64 67  0  0  0  0  0  0  0  0999 V2000
   40.7610    9.2630   23.2300 C   0  0  0  0  0
   39.6460   10.1790   23.6160 C   0  0  0  0  0
   38.2930    9.8400   23.7190 C   0  0  0  0  0
   37.6010   10.9970   24.1100 N   0  0  0  0  0
   38.5140   12.0330   24.2570 C   0  0  0  0  0
   39.7700   11.5590   23.9660 C   0  0  0  0  0
   40.9310   12.4320   24.0550 C   0  0  0  0  0
   42.0610   11.9580   24.0030 O   0  0  0  0  0
   40.7050   13.8740   24.5180 C   0  0  0  0  0
   39.4430   14.0580   25.4000 C   0  0  0  0  0
   38.2070   13.4380   24.6860 C   0  0  0  0  0
   39.1770   15.5560   25.6470 C   0  0  0  0  0
   39.6720   13.4070   26.7770 C   0  0  0  0  0
   36.2060   11.1230   24.3430 C   0  0  0  0  0
   35.4000   12.0590   23.6870 C   0  0  0  0  0
   34.0240   12.0620   23.9260 C   0  0  0  0  0
   33.4440   11.1450   24.8190 C   0  0  0  0  0
   34.2440   10.1930   25.5000 C   0  0  0  0  0
   35.6300   10.2330   25.2610 C   0  0  0  0  0
   33.6670    9.2980   26.3930 N   0  0  0  0  0
   34.3480    8.3170   27.2560 C   0  0  0  0  0
   35.4730    7.5450   26.5380 C   0  0  0  0  0
   36.4980    7.3130   27.1740 O   0  0  0  0  0
   35.3730    7.1430   25.1980 N   0  0  0  0  0
   36.5510    6.4650   24.6300 C   0  0  0  0  0
   37.7460    7.4550   24.5610 C   0  0  0  0  0
   37.6360    8.4980   23.4280 C   0  0  0  0  0
   34.2200    7.3170   24.2980 C   0  0  0  0  0
   33.3280    7.3750   27.8890 C   0  0  0  0  0
   31.9710   11.2010   25.0570 C   0  0  0  0  0
   31.4860   10.7600   26.0930 O   0  0  0  0  0
   31.2090   11.7780   24.0740 N   0  0  0  0  0
   40.8153    8.4389   23.9414 H   0  0  0  0  0
   40.5770    8.8700   22.2301 H   0  0  0  0  0
   41.7014    9.8140   23.2379 H   0  0  0  0  0
   40.5692   14.4844   23.6252 H   0  0  0  0  0
   41.5670   14.1607   25.1204 H   0  0  0  0  0
   37.3628   13.4263   25.3755 H   0  0  0  0  0
   37.9625   14.0359   23.8080 H   0  0  0  0  0
   40.0345   15.9970   26.1552 H   0  0  0  0  0
   39.0210   16.0583   24.6923 H   0  0  0  0  0
   38.2880   15.6683   26.2676 H   0  0  0  0  0
   39.8699   12.3431   26.6461 H   0  0  0  0  0
   40.5254   13.8795   27.2634 H   0  0  0  0  0
   38.7822   13.5393   27.3925 H   0  0  0  0  0
   35.8409   12.7782   22.9968 H   0  0  0  0  0
   33.3910   12.7858   23.4126 H   0  0  0  0  0
   36.2783    9.5487   25.8082 H   0  0  0  0  0
   32.6494    9.3233   26.4589 H   0  0  0  0  0
   34.8459    8.8786   28.0465 H   0  0  0  0  0
   36.3152    6.1143   23.6252 H   0  0  0  0  0
   36.8199    5.6193   25.2629 H   0  0  0  0  0
   38.6427    6.8653   24.3705 H   0  0  0  0  0
   37.7655    8.0030   25.5030 H   0  0  0  0  0
   38.1505    8.0778   22.5638 H   0  0  0  0  0
   36.5734    8.6937   23.2839 H   0  0  0  0  0
   33.3541    6.8031   24.7154 H   0  0  0  0  0
   33.9986    8.3792   24.1944 H   0  0  0  0  0
   34.4571    6.8970   23.3205 H   0  0  0  0  0
   32.6255    7.9528   28.4897 H   0  0  0  0  0
   32.7875    6.8462   27.1039 H   0  0  0  0  0
   33.8449    6.6555   28.5240 H   0  0  0  0  0
   30.1984   11.8527   24.1899 H   0  0  0  0  0
   31.6527   12.1325   23.2268 H   0  0  0  0  0
  1  2  1  0  0  0
  2  3  4  0  0  0
  2  6  4  0  0  0
  3  4  4  0  0  0
  3 27  1  0  0  0
  4  5  4  0  0  0
  4 14  1  0  0  0
  5  6  4  0  0  0
  5 11  1  0  0  0
  6  7  1  0  0  0
  7  8  2  0  0  0
  7  9  1  0  0  0
  9 10  1  0  0  0
 10 11  1  0  0  0
 10 12  1  0  0  0
 10 13  1  0  0  0
 14 15  4  0  0  0
 14 19  4  0  0  0
 15 16  4  0  0  0
 16 17  4  0  0  0
 17 18  4  0  0  0
 17 30  1  0  0  0
 18 19  4  0  0  0
 18 20  1  0  0  0
 20 21  1  0  0  0
 21 22  1  0  0  0
 21 29  1  0  0  0
 22 23  2  0  0  0
 22 24  1  0  0  0
 24 25  1  0  0  0
 24 28  1  0  0  0
 25 26  1  0  0  0
 26 27  1  0  0  0
 30 31  2  0  0  0
 30 32  1  0  0  0
  1 33  1  0  0  0
  1 34  1  0  0  0
  1 35  1  0  0  0
  9 36  1  0  0  0
  9 37  1  0  0  0
 11 38  1  0  0  0
 11 39  1  0  0  0
 12 40  1  0  0  0
 12 41  1  0  0  0
 12 42  1  0  0  0
 13 43  1  0  0  0
 13 44  1  0  0  0
 13 45  1  0  0  0
 15 46  1  0  0  0
 16 47  1  0  0  0
 19 48  1  0  0  0
 20 49  1  0  0  0
 21 50  1  0  0  0
 25 51  1  0  0  0
 25 52  1  0  0  0
 26 53  1  0  0  0
 26 54  1  0  0  0
 27 55  1  0  0  0
 27 56  1  0  0  0
 28 57  1  0  0  0
 28 58  1  0  0  0
 28 59  1  0  0  0
 29 60  1  0  0  0
 29 61  1  0  0  0
 29 62  1  0  0  0
 32 63  1  0  0  0
 32 64  1  0  0  0
M  END
$$$$
