2a58_ligand
  -I-interpret- 

 48 50  0  0  0  0  0  0  0  0999 V2000
   76.1540   45.2280   42.4980 N   0  0  0  0  0
   76.0470   44.0100   43.1670 C   0  0  0  0  0
   77.0560   43.3740   43.3100 O   0  0  0  0  0
   74.7920   43.6730   43.5870 N   0  0  0  0  0
   73.5830   44.3830   43.4390 C   0  0  0  0  0
   72.5370   43.9460   43.8720 O   0  0  0  0  0
   73.7540   45.7120   42.6950 C   0  0  0  0  0
   72.6860   46.4790   42.4870 N   0  0  0  0  0
   72.8540   47.7060   41.7940 C   0  0  0  0  0
   71.6510   48.5030   41.5940 C   0  0  0  0  0
   71.8400   49.7080   40.8990 C   0  0  0  0  0
   70.6900   50.6690   40.5960 C   0  0  0  0  0
   73.1840   50.0970   40.4240 C   0  0  0  0  0
   73.3610   51.4400   39.6380 C   0  0  0  0  0
   74.3410   49.3710   40.6030 C   0  0  0  0  0
   74.1400   48.1270   41.3190 C   0  0  0  0  0
   75.2780   47.2440   41.5840 N   0  0  0  0  0
   75.0790   46.0690   42.2520 C   0  0  0  0  0
   76.5600   47.7730   41.0680 C   0  0  0  0  0
   76.9170   47.0860   39.7380 C   0  0  0  0  0
   77.3580   45.7210   40.0100 O   0  0  0  0  0
   78.1270   47.6410   39.1070 C   0  0  0  0  0
   79.2400   47.5820   40.0110 O   0  0  0  0  0
   77.9720   49.0720   38.6530 C   0  0  0  0  0
   76.9170   49.4020   37.7450 O   0  0  0  0  0
   79.3930   49.4260   38.0620 C   0  0  0  0  0
   80.1680   49.9960   39.1380 O   0  0  0  0  0
   77.0757   45.5174   42.1706 H   0  0  0  0  0
   74.7190   42.7815   44.0771 H   0  0  0  0  0
   70.6737   48.1862   41.9581 H   0  0  0  0  0
   69.9412   50.1581   39.9907 H   0  0  0  0  0
   70.2388   51.0000   41.5314 H   0  0  0  0  0
   71.0731   51.5315   40.0507 H   0  0  0  0  0
   72.7516   51.4138   38.7346 H   0  0  0  0  0
   73.0448   52.2721   40.2671 H   0  0  0  0  0
   74.4093   51.5655   39.3671 H   0  0  0  0  0
   75.3147   49.7007   40.2407 H   0  0  0  0  0
   77.3475   47.5762   41.7955 H   0  0  0  0  0
   76.4640   48.8461   40.9024 H   0  0  0  0  0
   76.0279   47.1975   39.1174 H   0  0  0  0  0
   77.5821   45.2876   39.1832 H   0  0  0  0  0
   78.2998   47.0238   38.2254 H   0  0  0  0  0
   80.0179   47.9473   39.5833 H   0  0  0  0  0
   77.6520   49.6676   39.5080 H   0  0  0  0  0
   76.9462   50.3416   37.5501 H   0  0  0  0  0
   79.3022   50.1319   37.2364 H   0  0  0  0  0
   79.8794   48.5340   37.6671 H   0  0  0  0  0
   81.0425   50.2247   38.8147 H   0  0  0  0  0
  1  2  1  0  0  0
  1 18  1  0  0  0
  2  3  2  0  0  0
  2  4  1  0  0  0
  4  5  1  0  0  0
  5  6  2  0  0  0
  5  7  1  0  0  0
  7  8  4  0  0  0
  7 18  4  0  0  0
  8  9  4  0  0  0
  9 10  4  0  0  0
  9 16  4  0  0  0
 10 11  4  0  0  0
 11 12  1  0  0  0
 11 13  4  0  0  0
 13 14  1  0  0  0
 13 15  4  0  0  0
 15 16  4  0  0  0
 16 17  4  0  0  0
 17 18  4  0  0  0
 17 19  1  0  0  0
 19 20  1  0  0  0
 20 21  1  0  0  0
 20 22  1  0  0  0
 22 23  1  0  0  0
 22 24  1  0  0  0
 24 25  1  0  0  0
 24 26  1  0  0  0
 26 27  1  0  0  0
  1 28  1  0  0  0
  4 29  1  0  0  0
 10 30  1  0  0  0
 12 31  1  0  0  0
 12 32  1  0  0  0
 12 33  1  0  0  0
 14 34  1  0  0  0
 14 35  1  0  0  0
 14 36  1  0  0  0
 15 37  1  0  0  0
 19 38  1  0  0  0
 19 39  1  0  0  0
 20 40  1  0  0  0
 21 41  1  0  0  0
 22 42  1  0  0  0
 23 43  1  0  0  0
 24 44  1  0  0  0
 25 45  1  0  0  0
 26 46  1  0  0  0
 26 47  1  0  0  0
 27 48  1  0  0  0
M  END
$$$$
