4q4q_ligand
  -I-interpret- 

 31 34  0  0  0  0  0  0  0  0999 V2000
  -17.3590   17.9880  -23.8880 N   0  0  0  0  0
  -15.8210   17.5840  -22.1360 N   0  0  0  0  0
  -16.8350   17.8710  -21.2240 C   0  0  0  0  0
  -18.1340   18.2150  -21.6380 C   0  0  0  0  0
  -18.4210   18.2900  -23.0750 C   0  0  0  0  0
  -19.1080   18.5050  -20.6880 C   0  0  0  0  0
  -18.7900   18.4910  -19.3440 C   0  0  0  0  0
  -16.5220   17.8430  -19.8580 C   0  0  0  0  0
  -19.4920   18.8140  -18.1990 N   0  0  0  0  0
  -18.6240   18.7050  -17.1680 C   0  0  0  0  0
  -16.1160   17.6480  -23.4320 C   0  0  0  0  0
  -17.5010   18.1720  -18.9160 C   0  0  0  0  0
  -17.4170   18.3140  -17.5290 N   0  0  0  0  0
  -19.0190   18.9910  -15.9230 N   0  0  0  0  0
  -19.5060   18.6270  -23.5410 O   0  0  0  0  0
  -18.1080   18.9300  -14.8030 C   0  0  0  0  0
  -17.3830   20.2290  -14.6990 C   0  0  0  0  0
  -18.2280   21.7100  -14.5990 S   0  0  0  0  0
  -16.7810   22.6060  -14.5510 C   0  0  0  0  0
  -15.6900   21.8190  -14.6070 C   0  0  0  0  0
  -16.0230   20.4360  -14.6930 C   0  0  0  0  0
  -17.5058   18.0190  -24.8969 H   0  0  0  0  0
  -20.1233   18.7436  -21.0047 H   0  0  0  0  0
  -15.5196   17.5659  -19.5317 H   0  0  0  0  0
  -15.3359   17.4204  -24.1585 H   0  0  0  0  0
  -19.9894   19.2594  -15.7595 H   0  0  0  0  0
  -17.3938   18.1203  -14.9525 H   0  0  0  0  0
  -18.6649   18.7442  -13.8846 H   0  0  0  0  0
  -16.7423   23.6932  -14.4827 H   0  0  0  0  0
  -14.6678   22.1969  -14.5886 H   0  0  0  0  0
  -15.2856   19.6351  -14.7477 H   0  0  0  0  0
  1  5  1  0  0  0
 11  1  1  0  0  0
  2  3  1  0  0  0
  2 11  2  0  0  0
  3  4  4  0  0  0
  3  8  4  0  0  0
  4  5  1  0  0  0
  4  6  4  0  0  0
  5 15  2  0  0  0
  6  7  4  0  0  0
  7  9  4  0  0  0
  7 12  4  0  0  0
  8 12  4  0  0  0
  9 10  4  0  0  0
 10 13  4  0  0  0
 10 14  1  0  0  0
 12 13  4  0  0  0
 14 16  1  0  0  0
 16 17  1  0  0  0
 17 18  4  0  0  0
 17 21  4  0  0  0
 18 19  4  0  0  0
 19 20  4  0  0  0
 20 21  4  0  0  0
  1 22  1  0  0  0
  6 23  1  0  0  0
  8 24  1  0  0  0
 11 25  1  0  0  0
 14 26  1  0  0  0
 16 27  1  0  0  0
 16 28  1  0  0  0
 19 29  1  0  0  0
 20 30  1  0  0  0
 21 31  1  0  0  0
M  END
$$$$
