3v7x_ligand
  -I-interpret- 

 45 46  0  0  0  0  0  0  0  0999 V2000
   23.0500   13.5900   14.9900 C   0  0  0  0  0
   21.6920   14.0420   15.0160 O   0  0  0  0  0
   20.8480   13.2330   14.3740 C   0  0  0  0  0
   20.6680   11.8880   14.6780 C   0  0  0  0  0
   20.1520   13.8750   13.3470 C   0  0  0  0  0
   20.3760   15.1810   13.2460 O   0  0  0  0  0
   20.3210   15.7800   11.9580 C   0  0  0  0  0
   19.2770   13.1100   12.6000 C   0  0  0  0  0
   19.1120   11.7710   12.8980 C   0  0  0  0  0
   19.7770   11.1240   13.9420 C   0  0  0  0  0
   19.4800    9.7870   14.2850 C   0  0  0  0  0
   19.1030    8.9010   13.1090 C   0  0  0  0  0
   18.5780    7.5960   13.6080 N   0  0  0  0  0
   17.2830    7.4570   13.8960 C   0  0  0  0  0
   16.4990    8.4170   13.6740 O   0  0  0  0  0
   16.7840    6.2690   14.5000 C   0  0  0  0  0
   15.4480    6.1740   14.8230 C   0  0  0  0  0
   14.9590    5.0500   15.4880 C   0  0  0  0  0
   17.6220    5.1910   14.8070 C   0  0  0  0  0
   17.1240    4.0420   15.4800 C   0  0  0  0  0
   15.7710    3.9940   15.8270 C   0  0  0  0  0
   15.1590    2.6040   16.7340 S   0  0  0  0  0
   15.7310    2.7490   18.0860 O   0  0  0  0  0
   13.7110    2.6770   16.6380 O   0  0  0  0  0
   15.6890    1.2540   16.0460 N   0  0  0  0  0
   23.1145   12.6098   15.4625 H   0  0  0  0  0
   23.3884   13.5194   13.9563 H   0  0  0  0  0
   23.6776   14.2978   15.5315 H   0  0  0  0  0
   21.2282   11.4346   15.4958 H   0  0  0  0  0
   21.0670   15.3177   11.3116 H   0  0  0  0  0
   19.3283   15.6330   11.5324 H   0  0  0  0  0
   20.5257   16.8470   12.0459 H   0  0  0  0  0
   18.7193   13.5609   11.7792 H   0  0  0  0  0
   18.4252   11.1876   12.2847 H   0  0  0  0  0
   18.6186    9.8136   14.9523 H   0  0  0  0  0
   20.3825    9.3636   14.7258 H   0  0  0  0  0
   19.9852    8.7234   12.4939 H   0  0  0  0  0
   18.3339    9.3963   12.5163 H   0  0  0  0  0
   19.2125    6.8067   13.7294 H   0  0  0  0  0
   14.7682    6.9834   14.5568 H   0  0  0  0  0
   13.9010    5.0076   15.7468 H   0  0  0  0  0
   18.6742    5.2330   14.5254 H   0  0  0  0  0
   17.7871    3.2113   15.7216 H   0  0  0  0  0
   16.3307    0.6424   16.5505 H   0  0  0  0  0
   15.3840    1.0078   15.1043 H   0  0  0  0  0
  1  2  1  0  0  0
  2  3  1  0  0  0
  3  4  4  0  0  0
  3  5  4  0  0  0
  4 10  4  0  0  0
  5  6  1  0  0  0
  5  8  4  0  0  0
  6  7  1  0  0  0
  8  9  4  0  0  0
  9 10  4  0  0  0
 10 11  1  0  0  0
 11 12  1  0  0  0
 12 13  1  0  0  0
 13 14  1  0  0  0
 14 15  2  0  0  0
 14 16  1  0  0  0
 16 17  4  0  0  0
 16 19  4  0  0  0
 17 18  4  0  0  0
 18 21  4  0  0  0
 19 20  4  0  0  0
 20 21  4  0  0  0
 21 22  1  0  0  0
 22 23  2  0  0  0
 22 24  2  0  0  0
 22 25  1  0  0  0
  1 26  1  0  0  0
  1 27  1  0  0  0
  1 28  1  0  0  0
  4 29  1  0  0  0
  7 30  1  0  0  0
  7 31  1  0  0  0
  7 32  1  0  0  0
  8 33  1  0  0  0
  9 34  1  0  0  0
 11 35  1  0  0  0
 11 36  1  0  0  0
 12 37  1  0  0  0
 12 38  1  0  0  0
 13 39  1  0  0  0
 17 40  1  0  0  0
 18 41  1  0  0  0
 19 42  1  0  0  0
 20 43  1  0  0  0
 25 44  1  0  0  0
 25 45  1  0  0  0
M  END
$$$$
