6ee4_ligand
  -I-interpret- 

 44 46  0  0  0  0  0  0  0  0999 V2000
  -15.1480    9.5420  -12.3080 N   0  0  0  0  0
  -14.6400   10.9240  -12.3910 C   0  0  0  0  0
  -13.7460   11.2820  -11.2070 C   0  0  0  0  0
  -12.8590   10.5360  -10.7740 O   0  0  0  0  0
  -13.5430   10.3880  -15.9450 C   0  0  0  0  0
  -13.9620   10.1300  -14.6290 C   0  0  0  0  0
  -14.1370   11.1710  -13.7070 C   0  0  0  0  0
  -13.8940   12.4720  -14.1320 C   0  0  0  0  0
  -13.4770   12.7440  -15.4490 C   0  0  0  0  0
  -13.2820   11.7040  -16.3550 C   0  0  0  0  0
  -12.9410   11.9570  -17.6940 C   0  0  0  0  0
  -13.8830   12.7190  -18.4090 C   0  0  0  0  0
  -13.6940   13.0050  -19.7650 C   0  0  0  0  0
  -12.5780   12.5070  -20.4070 C   0  0  0  0  0
  -11.6650   11.7290  -19.7160 C   0  0  0  0  0
  -11.8420   11.4300  -18.3640 C   0  0  0  0  0
  -16.4600    9.2930  -12.3610 C   0  0  0  0  0
  -16.8260    7.7920  -12.3570 C   0  0  0  0  0
  -15.5710    6.9240  -12.6130 C   0  0  0  0  0
  -15.1970    6.6750  -14.0750 C   0  0  0  0  0
  -15.7760    5.5470  -13.2430 C   0  0  0  0  0
  -10.6010   11.2810  -20.3650 F   0  0  0  0  0
  -12.3770   12.7710  -21.7300 F   0  0  0  0  0
  -14.5860   13.7580  -20.4830 F   0  0  0  0  0
  -14.0590   12.4460  -10.6520 N   0  0  0  0  0
  -17.3230   10.1830  -12.3740 O   0  0  0  0  0
  -13.2570   12.7910   -9.5630 O   0  0  0  0  0
  -14.4911    8.7680  -12.2091 H   0  0  0  0  0
  -15.4479   11.6459  -12.2711 H   0  0  0  0  0
  -13.4205    9.5644  -16.6485 H   0  0  0  0  0
  -14.1543    9.1026  -14.3198 H   0  0  0  0  0
  -14.0288   13.2971  -13.4326 H   0  0  0  0  0
  -13.3058   13.7741  -15.7614 H   0  0  0  0  0
  -14.7718   13.0914  -17.8995 H   0  0  0  0  0
  -11.1291   10.7926  -17.8409 H   0  0  0  0  0
  -17.5525    7.6038  -13.1475 H   0  0  0  0  0
  -17.2418    7.5327  -11.3834 H   0  0  0  0  0
  -15.0549    7.2944  -11.7272 H   0  0  0  0  0
  -14.3515    6.8462  -14.7412 H   0  0  0  0  0
  -15.3599    7.1371  -15.0487 H   0  0  0  0  0
  -16.5621    4.7961  -13.3227 H   0  0  0  0  0
  -15.5523    4.5049  -13.0147 H   0  0  0  0  0
  -14.8185   13.0364  -10.9912 H   0  0  0  0  0
  -13.5399   13.6397   -9.2148 H   0  0  0  0  0
  2  1  1  0  0  0
  1 17  1  0  0  0
  2  3  1  0  0  0
  7  2  1  0  0  0
  3  4  2  0  0  0
  3 25  1  0  0  0
  6  5  4  0  0  0
  5 10  4  0  0  0
  6  7  4  0  0  0
  7  8  4  0  0  0
  8  9  4  0  0  0
  9 10  4  0  0  0
 10 11  1  0  0  0
 11 12  4  0  0  0
 11 16  4  0  0  0
 12 13  4  0  0  0
 13 14  4  0  0  0
 13 24  1  0  0  0
 14 15  4  0  0  0
 14 23  1  0  0  0
 15 16  4  0  0  0
 15 22  1  0  0  0
 17 18  1  0  0  0
 17 26  2  0  0  0
 18 19  1  0  0  0
 19 20  1  0  0  0
 19 21  1  0  0  0
 20 21  1  0  0  0
 25 27  1  0  0  0
  1 28  1  0  0  0
  2 29  1  0  0  0
  5 30  1  0  0  0
  6 31  1  0  0  0
  8 32  1  0  0  0
  9 33  1  0  0  0
 12 34  1  0  0  0
 16 35  1  0  0  0
 18 36  1  0  0  0
 18 37  1  0  0  0
 19 38  1  0  0  0
 20 39  1  0  0  0
 20 40  1  0  0  0
 21 41  1  0  0  0
 21 42  1  0  0  0
 25 43  1  0  0  0
 27 44  1  0  0  0
M  END
$$$$
