5cu2_ligand
  -I-interpret- 

 16 16  0  0  0  0  0  0  0  0999 V2000
    9.5490  131.8400  362.5710 C   0  0  0  0  0
   11.0050  133.2840  363.7790 C   0  0  0  0  0
   13.4310  133.5220  363.1400 C   0  0  0  0  0
   12.0840  132.9000  362.9790 C   0  0  0  0  0
   11.8680  131.9400  361.9710 C   0  0  0  0  0
   10.5990  131.4260  361.7750 C   0  0  0  0  0
   13.5120  134.5090  363.9760 O   0  0  0  0  0
   14.3850  133.0670  362.5620 O   0  0  0  0  0
   12.8550  131.5520  361.1260 O   0  0  0  0  0
    9.7290  132.7660  363.5860 C   0  0  0  0  0
    8.5549  131.4284  362.3966 H   0  0  0  0  0
   11.1677  134.0094  364.5762 H   0  0  0  0  0
   10.4268  130.6909  360.9888 H   0  0  0  0  0
   12.6379  134.7092  364.3186 H   0  0  0  0  0
   12.5123  130.8951  360.5156 H   0  0  0  0  0
    8.8952  133.0791  364.2144 H   0  0  0  0  0
  1  6  4  0  0  0
 10  1  4  0  0  0
  2  4  4  0  0  0
  2 10  4  0  0  0
  4  3  1  0  0  0
  3  7  1  0  0  0
  3  8  2  0  0  0
  4  5  4  0  0  0
  5  6  4  0  0  0
  5  9  1  0  0  0
  1 11  1  0  0  0
  2 12  1  0  0  0
  6 13  1  0  0  0
  7 14  1  0  0  0
  9 15  1  0  0  0
 10 16  1  0  0  0
M  END
$$$$
