4f9u_ligand
  -I-interpret- 

 42 43  0  0  0  0  0  0  0  0999 V2000
  -56.1110   17.3550  -33.2130 C   0  0  0  0  0
  -53.7000   18.4270  -38.2180 C   0  0  0  0  0
  -53.4900   25.2120  -36.2130 S   0  0  0  0  0
  -48.0070   22.0530  -30.2420 C   0  0  0  0  0
  -55.3370   21.2470  -34.3410 C   0  0  0  0  0
  -55.5800   19.9170  -33.9900 C   0  0  0  0  0
  -48.4610   22.7620  -31.2980 C   0  0  0  0  0
  -49.7690   23.1480  -29.6010 C   0  0  0  0  0
  -54.4440   20.4820  -36.4590 C   0  0  0  0  0
  -51.3320   23.5750  -32.5710 C   0  0  0  0  0
  -52.3190   24.4320  -33.3850 C   0  0  0  0  0
  -50.3670   24.3660  -31.6690 C   0  0  0  0  0
  -48.8170   22.3170  -29.2200 N   0  0  0  0  0
  -53.2000   23.4810  -34.1210 N   0  0  0  0  0
  -54.4960   22.7730  -35.9920 N   0  0  0  0  0
  -55.4980   17.5480  -34.5180 O   0  0  0  0  0
  -54.3740   18.1000  -36.9830 O   0  0  0  0  0
  -53.7070   23.6750  -35.3540 C   0  0  0  0  0
  -54.7610   21.5290  -35.5820 C   0  0  0  0  0
  -55.2590   18.8600  -34.8670 C   0  0  0  0  0
  -54.6840   19.1410  -36.1250 C   0  0  0  0  0
  -49.5300   23.4440  -30.8740 N   0  0  0  0  0
  -55.4597   17.7676  -32.4425 H   0  0  0  0  0
  -57.0746   17.8638  -33.1868 H   0  0  0  0  0
  -56.2564   16.2895  -33.0353 H   0  0  0  0  0
  -54.3228   19.1047  -38.8019 H   0  0  0  0  0
  -52.7479   18.9082  -37.9944 H   0  0  0  0  0
  -53.5225   17.5140  -38.7864 H   0  0  0  0  0
  -54.0833   25.1416  -37.4013 H   0  0  0  0  0
  -47.1416   21.3905  -30.2294 H   0  0  0  0  0
  -55.5936   22.0545  -33.6553 H   0  0  0  0  0
  -56.0256   19.6920  -33.0211 H   0  0  0  0  0
  -48.0376   22.7756  -32.3023 H   0  0  0  0  0
  -50.5916   23.5194  -28.9899 H   0  0  0  0  0
  -53.9992   20.7164  -37.4261 H   0  0  0  0  0
  -50.7166   23.0366  -33.2917 H   0  0  0  0  0
  -51.9320   22.9468  -31.9126 H   0  0  0  0  0
  -51.7885   25.0867  -34.0764 H   0  0  0  0  0
  -52.9040   25.0793  -32.7316 H   0  0  0  0  0
  -50.9479   24.9912  -30.9909 H   0  0  0  0  0
  -49.7205   24.9810  -32.2950 H   0  0  0  0  0
  -54.9270   23.0730  -36.8664 H   0  0  0  0  0
 16  1  1  0  0  0
 17  2  1  0  0  0
 18  3  1  0  0  0
  7  4  4  0  0  0
 13  4  4  0  0  0
  5  6  4  0  0  0
 19  5  4  0  0  0
  6 20  4  0  0  0
 22  7  4  0  0  0
  8 13  4  0  0  0
 22  8  4  0  0  0
  9 19  4  0  0  0
 21  9  4  0  0  0
 11 10  1  0  0  0
 10 12  1  0  0  0
 14 11  1  0  0  0
 12 22  1  0  0  0
 18 14  2  0  0  0
 15 18  1  0  0  0
 19 15  1  0  0  0
 20 16  1  0  0  0
 17 21  1  0  0  0
 20 21  4  0  0  0
  1 23  1  0  0  0
  1 24  1  0  0  0
  1 25  1  0  0  0
  2 26  1  0  0  0
  2 27  1  0  0  0
  2 28  1  0  0  0
  3 29  1  0  0  0
  4 30  1  0  0  0
  5 31  1  0  0  0
  6 32  1  0  0  0
  7 33  1  0  0  0
  8 34  1  0  0  0
  9 35  1  0  0  0
 10 36  1  0  0  0
 10 37  1  0  0  0
 11 38  1  0  0  0
 11 39  1  0  0  0
 12 40  1  0  0  0
 12 41  1  0  0  0
 15 42  1  0  0  0
M  END
$$$$
