3brn_ligand
  -I-interpret- 

 25 26  0  0  0  0  0  0  0  0999 V2000
   -8.1260   31.7850  -10.8480 O   0  0  0  0  0
   -8.0610   33.1320  -10.5860 C   0  0  0  0  0
   -7.0470   33.5720   -9.7390 C   0  0  0  0  0
   -6.8510   34.9390   -9.5270 C   0  0  0  0  0
   -7.7470   35.8060  -10.1340 C   0  0  0  0  0
   -7.9200   37.1520  -10.1210 N   0  0  0  0  0
   -8.9580   37.4780  -10.9270 C   0  0  0  0  0
   -9.4980   36.3040  -11.4540 C   0  0  0  0  0
   -8.7390   35.2600  -10.9310 C   0  0  0  0  0
   -8.8800   33.9750  -11.1400 C   0  0  0  0  0
  -10.6950   36.2090  -12.3680 C   0  0  0  0  0
  -11.8650   35.5100  -11.6480 C   0  0  0  0  0
  -12.9430   35.2870  -12.6170 N   0  3  0  0  0
   -8.8616   31.6104  -11.4397 H   0  0  0  0  0
   -6.4039   32.8473   -9.2396 H   0  0  0  0  0
   -6.0302   35.3076   -8.9118 H   0  0  0  0  0
   -9.3126   38.4885  -11.1303 H   0  0  0  0  0
   -9.6850   33.6123  -11.7792 H   0  0  0  0  0
  -10.4234   35.6295  -13.2503 H   0  0  0  0  0
  -11.0038   37.2142  -12.6550 H   0  0  0  0  0
  -12.2241   36.1344  -10.8299 H   0  0  0  0  0
  -11.5321   34.5570  -11.2367 H   0  0  0  0  0
  -13.7250   34.8244  -12.1534 H   0  0  0  0  0
  -13.2514   36.1836  -12.9931 H   0  0  0  0  0
  -12.5998   34.6985  -13.3761 H   0  0  0  0  0
  1  2  1  0  0  0
  2  3  4  0  0  0
  2 10  4  0  0  0
  3  4  4  0  0  0
  4  5  4  0  0  0
  5  6  4  0  0  0
  5  9  4  0  0  0
  6  7  4  0  0  0
  7  8  4  0  0  0
  8  9  4  0  0  0
  8 11  1  0  0  0
  9 10  4  0  0  0
 11 12  1  0  0  0
 12 13  1  0  0  0
  1 14  1  0  0  0
  3 15  1  0  0  0
  4 16  1  0  0  0
  7 17  1  0  0  0
 10 18  1  0  0  0
 11 19  1  0  0  0
 11 20  1  0  0  0
 12 21  1  0  0  0
 12 22  1  0  0  0
 13 23  1  0  0  0
 13 24  1  0  0  0
 13 25  1  0  0  0
M  END
$$$$
