4yjn_ligand
  -I-interpret- 

 53 56  0  0  0  0  0  0  0  0999 V2000
   -2.9130  -24.0340  -30.8140 O   0  0  0  0  0
   -1.9290  -23.2830  -30.9220 C   0  0  0  0  0
   -0.7300  -23.7540  -31.2340 N   0  0  0  0  0
   -2.0770  -21.8630  -30.6440 C   0  0  0  0  0
   -3.2350  -21.2630  -30.1590 C   0  0  0  0  0
   -4.3910  -21.8690  -29.8550 N   0  0  0  0  0
   -2.9800  -19.9440  -30.0560 N   0  0  0  0  0
   -3.8460  -18.8120  -29.5640 C   0  0  0  0  0
   -2.9820  -17.6440  -29.1040 C   0  0  0  0  0
   -4.7180  -18.3350  -30.7140 C   0  0  0  0  0
   -4.7140  -19.3020  -28.4080 C   0  0  0  0  0
   -1.1500  -20.8180  -30.8050 C   0  0  0  0  0
   -1.6780  -19.6400  -30.4800 N   0  0  0  0  0
    0.2780  -20.8840  -31.1480 C   0  0  0  0  0
    1.2110  -20.2790  -30.3160 C   0  0  0  0  0
    2.5330  -20.2850  -30.6250 C   0  0  0  0  0
    2.9970  -20.9110  -31.7990 C   0  0  0  0  0
    4.3380  -20.9020  -32.0660 N   0  0  0  0  0
    4.7170  -21.5300  -33.1430 C   0  0  0  0  0
    3.8840  -22.1570  -34.0620 C   0  0  0  0  0
    2.5560  -22.1550  -33.8090 C   0  0  0  0  0
    2.0650  -21.5360  -32.6500 C   0  0  0  0  0
    0.6960  -21.5070  -32.2940 C   0  0  0  0  0
    6.0260  -21.7330  -33.3750 O   0  0  0  0  0
    6.9240  -21.5720  -32.2340 C   0  0  0  0  0
    8.3820  -21.8950  -32.5650 C   0  0  0  0  0
    8.7720  -20.5710  -31.9000 C   0  0  0  0  0
    7.2960  -20.1140  -31.9640 C   0  0  0  0  0
   -0.5997  -24.7533  -31.3913 H   0  0  0  0  0
    0.0624  -23.1171  -31.3168 H   0  0  0  0  0
   -4.4847  -22.8777  -29.9738 H   0  0  0  0  0
   -5.1771  -21.3215  -29.5048 H   0  0  0  0  0
   -2.3312  -17.9722  -28.2936 H   0  0  0  0  0
   -2.3758  -17.2914  -29.9384 H   0  0  0  0  0
   -3.6232  -16.8359  -28.7521 H   0  0  0  0  0
   -4.0836  -17.9904  -31.5306 H   0  0  0  0  0
   -5.3429  -19.1583  -31.0602 H   0  0  0  0  0
   -5.3506  -17.5155  -30.3729 H   0  0  0  0  0
   -5.3457  -20.1212  -28.7515 H   0  0  0  0  0
   -4.0742  -19.6502  -27.5971 H   0  0  0  0  0
   -5.3398  -18.4833  -28.0528 H   0  0  0  0  0
    0.8765  -19.7915  -29.4002 H   0  0  0  0  0
    3.2442  -19.7996  -29.9567 H   0  0  0  0  0
    4.2873  -22.6337  -34.9554 H   0  0  0  0  0
    1.8674  -22.6340  -34.5051 H   0  0  0  0  0
   -0.0372  -21.9878  -32.9416 H   0  0  0  0  0
    6.3903  -22.1520  -31.4811 H   0  0  0  0  0
    8.6905  -22.1257  -33.5847 H   0  0  0  0  0
    8.8350  -22.8365  -32.2543 H   0  0  0  0  0
    9.5570  -19.9508  -32.3327 H   0  0  0  0  0
    9.3048  -20.5714  -30.9491 H   0  0  0  0  0
    6.8392  -19.5528  -31.1488 H   0  0  0  0  0
    6.9776  -19.3135  -32.6318 H   0  0  0  0  0
  1  2  2  0  0  0
  2  3  1  0  0  0
  2  4  1  0  0  0
  4  5  4  0  0  0
  4 12  4  0  0  0
  5  6  1  0  0  0
  5  7  4  0  0  0
  7  8  1  0  0  0
  7 13  4  0  0  0
  8  9  1  0  0  0
  8 10  1  0  0  0
  8 11  1  0  0  0
 12 13  4  0  0  0
 12 14  1  0  0  0
 14 15  4  0  0  0
 14 23  4  0  0  0
 15 16  4  0  0  0
 16 17  4  0  0  0
 17 18  4  0  0  0
 17 22  4  0  0  0
 18 19  4  0  0  0
 19 20  4  0  0  0
 19 24  1  0  0  0
 20 21  4  0  0  0
 21 22  4  0  0  0
 22 23  4  0  0  0
 24 25  1  0  0  0
 25 26  1  0  0  0
 25 28  1  0  0  0
 26 27  1  0  0  0
 27 28  1  0  0  0
  3 29  1  0  0  0
  3 30  1  0  0  0
  6 31  1  0  0  0
  6 32  1  0  0  0
  9 33  1  0  0  0
  9 34  1  0  0  0
  9 35  1  0  0  0
 10 36  1  0  0  0
 10 37  1  0  0  0
 10 38  1  0  0  0
 11 39  1  0  0  0
 11 40  1  0  0  0
 11 41  1  0  0  0
 15 42  1  0  0  0
 16 43  1  0  0  0
 20 44  1  0  0  0
 21 45  1  0  0  0
 23 46  1  0  0  0
 25 47  1  0  0  0
 26 48  1  0  0  0
 26 49  1  0  0  0
 27 50  1  0  0  0
 27 51  1  0  0  0
 28 52  1  0  0  0
 28 53  1  0  0  0
M  END
$$$$
