5alw_ligand
  -I-interpret- 

 36 38  0  0  0  0  0  0  0  0999 V2000
  -22.5990   -4.8780   11.2980 C   0  0  0  0  0
  -21.8270   -5.9390   12.0290 C   0  0  0  0  0
  -22.4880   -7.0790   12.4790 C   0  0  0  0  0
  -21.7710   -8.0880   13.1190 C   0  0  0  0  0
  -20.3900   -7.9380   13.3180 C   0  0  0  0  0
  -19.7300   -6.7870   12.8630 C   0  0  0  0  0
  -20.4590   -5.7840   12.2280 C   0  0  0  0  0
  -19.4770   -9.2030   14.1370 S   0  0  0  0  0
  -19.4160  -10.5770   12.9600 C   0  0  0  0  0
  -18.9250  -10.0240   11.6430 C   0  0  0  0  0
  -19.7380   -9.6040   10.8480 O   0  0  0  0  0
  -17.4980   -9.9720   11.2880 C   0  0  0  0  0
  -16.4880  -10.1470   12.2600 C   0  0  0  0  0
  -15.1640  -10.0940   11.9020 C   0  0  0  0  0
  -14.8040   -9.8490   10.5600 C   0  0  0  0  0
  -15.8090   -9.6800    9.5910 C   0  0  0  0  0
  -17.1390   -9.7310    9.9430 C   0  0  0  0  0
  -15.1070   -9.4770    8.2690 C   0  0  0  0  0
  -13.6410   -9.6240    8.6250 C   0  0  0  0  0
  -12.7050   -9.5810    7.8530 O   0  0  0  0  0
  -13.5540   -9.8190    9.9520 N   0  0  0  0  0
  -23.0405   -5.3066   10.3983 H   0  0  0  0  0
  -23.3884   -4.4945   11.9444 H   0  0  0  0  0
  -21.9264   -4.0657   11.0227 H   0  0  0  0  0
  -23.5630   -7.1818   12.3311 H   0  0  0  0  0
  -22.2798   -8.9885   13.4630 H   0  0  0  0  0
  -18.6548   -6.6782   13.0052 H   0  0  0  0  0
  -19.9577   -4.8781   11.8872 H   0  0  0  0  0
  -20.4038  -11.0226   12.8422 H   0  0  0  0  0
  -18.7458  -11.3578   13.3195 H   0  0  0  0  0
  -16.7616  -10.3251   13.3000 H   0  0  0  0  0
  -14.3900  -10.2413   12.6552 H   0  0  0  0  0
  -17.9113   -9.5861    9.1876 H   0  0  0  0  0
  -15.3340   -8.5111    7.8179 H   0  0  0  0  0
  -15.4277  -10.1908    7.5102 H   0  0  0  0  0
  -12.6735   -9.9318   10.4544 H   0  0  0  0  0
  1  2  1  0  0  0
  2  3  4  0  0  0
  2  7  4  0  0  0
  3  4  4  0  0  0
  4  5  4  0  0  0
  5  6  4  0  0  0
  5  8  1  0  0  0
  6  7  4  0  0  0
  8  9  1  0  0  0
  9 10  1  0  0  0
 10 11  2  0  0  0
 10 12  1  0  0  0
 12 13  4  0  0  0
 12 17  4  0  0  0
 13 14  4  0  0  0
 14 15  4  0  0  0
 15 16  4  0  0  0
 15 21  1  0  0  0
 16 17  4  0  0  0
 16 18  1  0  0  0
 18 19  1  0  0  0
 19 20  2  0  0  0
 19 21  1  0  0  0
  1 22  1  0  0  0
  1 23  1  0  0  0
  1 24  1  0  0  0
  3 25  1  0  0  0
  4 26  1  0  0  0
  6 27  1  0  0  0
  7 28  1  0  0  0
  9 29  1  0  0  0
  9 30  1  0  0  0
 13 31  1  0  0  0
 14 32  1  0  0  0
 17 33  1  0  0  0
 18 34  1  0  0  0
 18 35  1  0  0  0
 21 36  1  0  0  0
M  END
$$$$
