6fuj_ligand
  -I-interpret- 

 44 45  0  0  0  0  0  0  0  0999 V2000
    9.8650   47.2850   72.5540 N   0  3  0  0  0
    8.5630   47.7940   72.9790 C   0  0  0  0  0
    8.2920   49.2380   72.6490 C   0  0  0  0  0
    7.1690   49.8140   73.2160 C   0  0  0  0  0
    6.8000   51.1460   72.9020 C   0  0  0  0  0
    8.7610   51.3460   71.5720 C   0  0  0  0  0
    9.0810   50.0050   71.8150 C   0  0  0  0  0
    5.6170   51.7810   73.5560 C   0  0  0  0  0
    3.8360   53.4350   73.5030 C   0  0  0  0  0
    3.4780   53.1180   74.7810 C   0  0  0  0  0
    3.2440   53.8480   70.7690 O   0  0  0  0  0
    3.0400   54.6990   71.6200 C   0  0  0  0  0
    2.4770   56.0760   71.2700 C   0  0  0  0  0
    3.5660   57.1010   70.8120 C   0  0  0  0  0
    4.3480   56.6620   69.5590 C   0  0  0  0  0
    4.5450   57.5380   71.9210 C   0  0  0  0  0
    3.2360   54.5120   72.8440 N   0  0  0  0  0
    4.9320   52.7940   72.9220 C   0  0  0  0  0
    4.1510   52.0990   75.4580 C   0  0  0  0  0
    5.2240   51.4340   74.8680 C   0  0  0  0  0
    7.6230   51.9410   72.0770 C   0  0  0  0  0
    9.9496   46.3047   72.8226 H   0  0  0  0  0
    9.9475   47.3695   71.5409 H   0  0  0  0  0
   10.6035   47.8267   73.0029 H   0  0  0  0  0
    8.5383   47.7142   74.0658 H   0  0  0  0  0
    7.8125   47.2083   72.4481 H   0  0  0  0  0
    6.5609   49.2366   73.9124 H   0  0  0  0  0
    9.4370   51.9433   70.9601 H   0  0  0  0  0
    9.9586   49.5636   71.3428 H   0  0  0  0  0
    2.6689   53.6587   75.2720 H   0  0  0  0  0
    2.0101   56.4761   72.1700 H   0  0  0  0  0
    1.7835   55.9437   70.4396 H   0  0  0  0  0
    2.9721   57.9759   70.5475 H   0  0  0  0  0
    4.8559   55.7190   69.7612 H   0  0  0  0  0
    3.6557   56.5322   68.7272 H   0  0  0  0  0
    5.0836   57.4253   69.3054 H   0  0  0  0  0
    3.9879   58.0092   72.7307 H   0  0  0  0  0
    5.0735   56.6643   72.3023 H   0  0  0  0  0
    5.2630   58.2482   71.5109 H   0  0  0  0  0
    2.9069   55.2612   73.4530 H   0  0  0  0  0
    5.2576   53.1068   71.9299 H   0  0  0  0  0
    3.8325   51.8197   76.4623 H   0  0  0  0  0
    5.7550   50.6537   75.4133 H   0  0  0  0  0
    7.3717   52.9769   71.8491 H   0  0  0  0  0
  2  1  1  0  0  0
  3  2  1  0  0  0
  4  3  4  0  0  0
  3  7  4  0  0  0
  5  4  4  0  0  0
  8  5  1  0  0  0
  5 21  4  0  0  0
  6  7  4  0  0  0
 21  6  4  0  0  0
 18  8  4  0  0  0
  8 20  4  0  0  0
  9 10  4  0  0  0
 17  9  1  0  0  0
  9 18  4  0  0  0
 10 19  4  0  0  0
 12 11  2  0  0  0
 12 13  1  0  0  0
 12 17  1  0  0  0
 13 14  1  0  0  0
 14 15  1  0  0  0
 14 16  1  0  0  0
 19 20  4  0  0  0
  1 22  1  0  0  0
  1 23  1  0  0  0
  1 24  1  0  0  0
  2 25  1  0  0  0
  2 26  1  0  0  0
  4 27  1  0  0  0
  6 28  1  0  0  0
  7 29  1  0  0  0
 10 30  1  0  0  0
 13 31  1  0  0  0
 13 32  1  0  0  0
 14 33  1  0  0  0
 15 34  1  0  0  0
 15 35  1  0  0  0
 15 36  1  0  0  0
 16 37  1  0  0  0
 16 38  1  0  0  0
 16 39  1  0  0  0
 17 40  1  0  0  0
 18 41  1  0  0  0
 19 42  1  0  0  0
 20 43  1  0  0  0
 21 44  1  0  0  0
M  END
$$$$
