3nfl_ligand
  -I-interpret- 

 79 78  0  0  0  0  0  0  0  0999 V2000
  -13.6860   31.0230   31.9030 N   0  3  0  0  0
  -12.6190   31.7810   32.5590 C   0  0  0  0  0
  -11.2350   31.0980   32.4620 C   0  0  0  0  0
  -11.1210   29.8760   32.6280 O   0  0  0  0  0
  -12.9690   32.3020   33.9930 C   0  0  0  0  0
  -13.0330   31.1800   35.0550 C   0  0  0  0  0
  -14.2380   33.1580   33.9750 C   0  0  0  0  0
  -12.5480   31.5860   36.4850 C   0  0  0  0  0
  -10.2090   31.8980   32.1110 N   0  0  0  0  0
   -8.8340   31.4350   31.9800 C   0  0  0  0  0
   -7.9350   32.1030   32.9650 C   0  0  0  0  0
   -8.0660   33.3010   33.2150 O   0  0  0  0  0
   -8.2510   31.4740   30.5570 C   0  0  0  0  0
   -8.7770   32.5280   29.6080 C   0  0  0  0  0
   -7.9730   32.6540   28.3270 C   0  0  0  0  0
   -8.6050   32.8590   27.2660 O   0  0  0  0  0
   -6.7250   32.5180   28.3730 O   0  0  0  0  0
   -7.0460   31.3060   33.5560 N   0  0  0  0  0
   -6.1130   31.7660   34.5790 C   0  0  0  0  0
   -4.6710   31.6420   34.0930 C   0  0  0  0  0
   -4.3240   30.6890   33.3860 O   0  0  0  0  0
   -6.2890   30.9450   35.8510 C   0  0  0  0  0
   -7.5980   31.0420   36.3860 O   0  0  0  0  0
   -3.8580   32.6240   34.4590 N   0  0  0  0  0
   -2.4160   32.7440   34.2090 C   0  0  0  0  0
   -1.6700   31.9630   35.2730 C   0  0  0  0  0
   -1.9520   32.1790   36.4360 O   0  0  0  0  0
   -1.9890   34.2310   34.3330 C   0  0  0  0  0
   -2.0710   35.0540   33.0600 C   0  0  0  0  0
   -2.7260   34.6080   32.1050 O   0  0  0  0  0
   -1.5300   36.1700   33.0460 O   0  0  0  0  0
   -0.7500   31.0340   34.8960 N   0  0  0  0  0
    0.0810   30.3010   35.8560 C   0  0  0  0  0
    1.5710   30.4280   35.5300 C   0  0  0  0  0
    1.9270   30.8450   34.3920 O   0  0  0  0  0
   -0.3450   28.8420   36.1860 C   0  0  0  0  0
   -1.6670   28.7880   36.9560 C   0  0  0  0  0
   -0.3750   27.9630   34.9400 C   0  0  0  0  0
    2.3870   30.0630   36.3950 O   0  0  0  0  0
  -13.3715   30.7252   30.9795 H   0  0  0  0  0
  -13.9151   30.2039   32.4660 H   0  0  0  0  0
  -14.5121   31.6137   31.8081 H   0  0  0  0  0
  -12.5354   32.6935   31.9688 H   0  0  0  0  0
  -12.1414   32.9409   34.3014 H   0  0  0  0  0
  -12.3674   30.3876   34.7127 H   0  0  0  0  0
  -14.0818   30.8984   35.1491 H   0  0  0  0  0
  -15.0973   32.5268   33.7487 H   0  0  0  0  0
  -14.3745   33.6236   34.9511 H   0  0  0  0  0
  -14.1425   33.9310   33.2125 H   0  0  0  0  0
  -11.5079   31.9085   36.4366 H   0  0  0  0  0
  -13.1659   32.4025   36.8586 H   0  0  0  0  0
  -12.6333   30.7290   37.1531 H   0  0  0  0  0
  -10.4060   32.8817   31.9269 H   0  0  0  0  0
   -8.8849   30.3718   32.2148 H   0  0  0  0  0
   -8.5181   30.5179   30.1069 H   0  0  0  0  0
   -7.1917   31.6982   30.6826 H   0  0  0  0  0
   -8.7204   33.4869   30.1232 H   0  0  0  0  0
   -9.7900   32.2381   29.3290 H   0  0  0  0  0
   -6.4536   32.3705   29.2819 H   0  0  0  0  0
   -7.0161   30.3247   33.2793 H   0  0  0  0  0
   -6.3256   32.8148   34.7864 H   0  0  0  0  0
   -5.5927   31.3287   36.5967 H   0  0  0  0  0
   -6.1045   29.8996   35.6035 H   0  0  0  0  0
   -7.6572   30.5095   37.1826 H   0  0  0  0  0
   -4.2872   33.3901   34.9780 H   0  0  0  0  0
   -2.1910   32.3656   33.2119 H   0  0  0  0  0
   -0.9394   34.2250   34.6271 H   0  0  0  0  0
   -2.6798   34.6904   35.0400 H   0  0  0  0  0
   -3.0547   33.7332   32.3247 H   0  0  0  0  0
   -0.6334   30.8390   33.9016 H   0  0  0  0  0
   -0.1102   30.8121   36.7996 H   0  0  0  0  0
    1.1489   31.0746   33.8787 H   0  0  0  0  0
    0.4195   28.4324   36.8462 H   0  0  0  0  0
   -1.5618   29.3320   37.8946 H   0  0  0  0  0
   -2.4543   29.2447   36.3562 H   0  0  0  0  0
   -1.9230   27.7490   37.1635 H   0  0  0  0  0
   -1.0871   28.3737   34.2242 H   0  0  0  0  0
    0.6182   27.9363   34.4918 H   0  0  0  0  0
   -0.6775   26.9530   35.2166 H   0  0  0  0  0
  1  2  1  0  0  0
  2  3  1  0  0  0
  2  5  1  0  0  0
  3  4  2  0  0  0
  3  9  1  0  0  0
  5  6  1  0  0  0
  5  7  1  0  0  0
  6  8  1  0  0  0
  9 10  1  0  0  0
 10 11  1  0  0  0
 10 13  1  0  0  0
 11 12  2  0  0  0
 11 18  1  0  0  0
 13 14  1  0  0  0
 14 15  1  0  0  0
 15 16  2  0  0  0
 15 17  1  0  0  0
 18 19  1  0  0  0
 19 20  1  0  0  0
 19 22  1  0  0  0
 20 21  2  0  0  0
 20 24  1  0  0  0
 22 23  1  0  0  0
 24 25  1  0  0  0
 25 26  1  0  0  0
 25 28  1  0  0  0
 26 27  2  0  0  0
 26 32  1  0  0  0
 28 29  1  0  0  0
 29 30  1  0  0  0
 29 31  2  0  0  0
 32 33  1  0  0  0
 33 34  1  0  0  0
 33 36  1  0  0  0
 34 35  1  0  0  0
 34 39  2  0  0  0
 36 37  1  0  0  0
 36 38  1  0  0  0
  1 40  1  0  0  0
  1 41  1  0  0  0
  1 42  1  0  0  0
  2 43  1  0  0  0
  5 44  1  0  0  0
  6 45  1  0  0  0
  6 46  1  0  0  0
  7 47  1  0  0  0
  7 48  1  0  0  0
  7 49  1  0  0  0
  8 50  1  0  0  0
  8 51  1  0  0  0
  8 52  1  0  0  0
  9 53  1  0  0  0
 10 54  1  0  0  0
 13 55  1  0  0  0
 13 56  1  0  0  0
 14 57  1  0  0  0
 14 58  1  0  0  0
 17 59  1  0  0  0
 18 60  1  0  0  0
 19 61  1  0  0  0
 22 62  1  0  0  0
 22 63  1  0  0  0
 23 64  1  0  0  0
 24 65  1  0  0  0
 25 66  1  0  0  0
 28 67  1  0  0  0
 28 68  1  0  0  0
 30 69  1  0  0  0
 32 70  1  0  0  0
 33 71  1  0  0  0
 35 72  1  0  0  0
 36 73  1  0  0  0
 37 74  1  0  0  0
 37 75  1  0  0  0
 37 76  1  0  0  0
 38 77  1  0  0  0
 38 78  1  0  0  0
 38 79  1  0  0  0
M  END
$$$$
