6mlw_ligand
  -I-interpret- 

 30 30  0  0  0  0  0  0  0  0999 V2000
   26.1450   50.9550   15.5610 C   0  0  0  0  0
   25.9730   52.2050   16.5170 C   0  0  0  0  0
   27.2670   53.0080   16.4890 C   0  0  0  0  0
   28.4730   52.1960   16.9050 C   0  0  0  0  0
   28.6170   50.9110   16.0020 C   0  0  0  0  0
   29.9350   50.2750   16.4010 C   0  0  0  0  0
   26.1960   51.2490   14.1830 C   0  0  0  0  0
   27.1810   54.2870   17.2200 O   0  0  0  0  0
   25.4580   51.7460   17.6840 F   0  0  0  0  0
   24.0220   52.9460   13.6770 O   0  0  0  0  0
   23.8170   50.5570   13.0590 O   0  0  0  0  0
   25.2760   51.9370   11.7170 O   0  0  0  0  0
   29.7250   52.9500   16.9770 O   0  0  0  0  0
   27.3450   50.0740   15.9580 O   0  0  0  0  0
   29.7490   49.4060   17.4720 O   0  0  0  0  0
   24.7600   51.7380   13.1260 P   0  0  0  0  0
   25.2208   50.3972   15.7125 H   0  0  0  0  0
   25.2464   52.9602   16.2173 H   0  0  0  0  0
   27.4135   53.2702   15.4412 H   0  0  0  0  0
   28.2806   51.8902   17.9334 H   0  0  0  0  0
   28.6930   51.1149   14.9339 H   0  0  0  0  0
   30.6326   51.0587   16.6964 H   0  0  0  0  0
   30.3302   49.7149   15.5535 H   0  0  0  0  0
   26.4722   50.2847   13.7565 H   0  0  0  0  0
   26.8058   52.1523   14.1673 H   0  0  0  0  0
   26.4046   54.7699   16.9274 H   0  0  0  0  0
   24.6218   53.6944   13.7188 H   0  0  0  0  0
   25.8837   52.6800   11.7019 H   0  0  0  0  0
   29.6004   53.7226   17.5330 H   0  0  0  0  0
   30.5906   49.0119   17.7127 H   0  0  0  0  0
  1  2  1  0  0  0
  1  7  1  0  0  0
  1 14  1  0  0  0
  2  3  1  0  0  0
  2  9  1  0  0  0
  3  4  1  0  0  0
  3  8  1  0  0  0
  4  5  1  0  0  0
  4 13  1  0  0  0
  5  6  1  0  0  0
  5 14  1  0  0  0
  6 15  1  0  0  0
  7 16  1  0  0  0
 16 10  1  0  0  0
 16 11  2  0  0  0
 16 12  1  0  0  0
  1 17  1  0  0  0
  2 18  1  0  0  0
  3 19  1  0  0  0
  4 20  1  0  0  0
  5 21  1  0  0  0
  6 22  1  0  0  0
  6 23  1  0  0  0
  7 24  1  0  0  0
  7 25  1  0  0  0
  8 26  1  0  0  0
 10 27  1  0  0  0
 12 28  1  0  0  0
 13 29  1  0  0  0
 15 30  1  0  0  0
M  END
$$$$
