### 
### Created by X-TOOL on Mon Aug  2 16:14:56 2021
### 

@<TRIPOS>MOLECULE
6mlw_ligand
   28    28     1     0     0
SMALL
GAST_HUCK


@<TRIPOS>ATOM
      1 C1         26.1450   50.9550   15.5610 C.3       1 JVA         0.1075
      2 C2         25.9730   52.2050   16.5170 C.3       1 JVA         0.1564
      3 C3         27.2670   53.0080   16.4890 C.3       1 JVA         0.1169
      4 C4         28.4730   52.1960   16.9050 C.3       1 JVA         0.1120
      5 C5         28.6170   50.9110   16.0020 C.3       1 JVA         0.1105
      6 C6         29.9350   50.2750   16.4010 C.3       1 JVA         0.0729
      7 C7         26.1960   51.2490   14.1830 C.3       1 JVA         0.0486
      8 O3         27.1810   54.2870   17.2200 O.3       1 JVA        -0.3862
      9 F2         25.4580   51.7460   17.6840 F         1 JVA        -0.2400
     10 O1P        24.0220   52.9460   13.6770 O.co2     1 JVA        -0.5622
     11 O2P        23.8170   50.5570   13.0590 O.co2     1 JVA        -0.5622
     12 O3P        25.2760   51.9370   11.7170 O.co2     1 JVA        -0.5622
     13 O4         29.7250   52.9500   16.9770 O.3       1 JVA        -0.3865
     14 O5         27.3450   50.0740   15.9580 O.3       1 JVA        -0.3641
     15 O6         29.7490   49.4060   17.4720 O.3       1 JVA        -0.3924
     16 P          24.7600   51.7380   13.1260 P.3       1 JVA         0.0604
     17 H1         25.2426   50.3435   15.7083 H         1 JVA         0.0640
     18 H2         25.2049   52.8665   16.0900 H         1 JVA         0.0705
     19 H3         27.4299   53.2743   15.4342 H         1 JVA         0.0650
     20 H4         28.2701   51.8458   17.9278 H         1 JVA         0.0647
     21 H5         28.7537   51.2547   14.9661 H         1 JVA         0.0646
     22 H6         30.6444   51.0634   16.6928 H         1 JVA         0.0584
     23 H7         30.3408   49.7147   15.5458 H         1 JVA         0.0584
     24 H8         26.6088   50.3458   13.7098 H         1 JVA         0.0477
     25 H9         26.9175   52.0741   14.0900 H         1 JVA         0.0477
     26 H10        27.9599   54.8025   17.0467 H         1 JVA         0.2100
     27 H11        29.6017   53.7146   17.5272 H         1 JVA         0.2100
     28 H12        30.5818   49.0160   17.7102 H         1 JVA         0.2095
@<TRIPOS>BOND
     1    1    2 1  
     2    1    7 1  
     3    1   14 1  
     4    2    3 1  
     5    2    9 1  
     6    3    4 1  
     7    3    8 1  
     8    4    5 1  
     9    4   13 1  
    10    5    6 1  
    11    5   14 1  
    12    6   15 1  
    13    7   16 1  
    14   16   10 ar 
    15   16   11 ar 
    16   16   12 ar 
    17    1   17 1  
    18    2   18 1  
    19    3   19 1  
    20    4   20 1  
    21    5   21 1  
    22    6   22 1  
    23    6   23 1  
    24    7   24 1  
    25    7   25 1  
    26    8   26 1  
    27   13   27 1  
    28   15   28 1  
@<TRIPOS>SUBSTRUCTURE
     1 JVA         1

