1fhd_ligand
  -I-interpret- 

 39 41  0  0  0  0  0  0  0  0999 V2000
  -62.3400   16.9760   57.1640 C   0  0  0  0  0
  -61.3240   16.7960   58.2880 C   0  0  0  0  0
  -60.7700   15.3610   58.2970 C   0  0  0  0  0
  -61.9050   14.3280   58.2450 C   0  0  0  0  0
  -62.8660   14.6490   57.0970 C   0  0  0  0  0
  -60.2620   17.7200   58.0980 O   0  0  0  0  0
  -60.0170   15.1620   59.4830 O   0  0  0  0  0
  -61.3730   13.0200   58.0770 O   0  0  0  0  0
  -63.3760   15.9880   57.2570 O   0  0  0  0  0
  -64.9770   19.6790   53.8930 C   0  0  0  0  0
  -65.7950   19.7300   55.2360 C   0  0  0  0  0
  -64.8270   19.5360   56.4280 C   0  0  0  0  0
  -63.7190   18.5240   56.0950 C   0  0  0  0  0
  -62.7790   19.0510   54.9930 C   0  0  0  0  0
  -63.6240   19.3650   53.8800 N   0  0  0  0  0
  -63.3290   19.4260   52.5390 C   0  0  0  0  0
  -64.4290   19.7520   51.8260 C   0  0  0  0  0
  -65.4620   19.9120   52.6610 N   0  0  0  0  0
  -66.5530   20.9040   55.4460 O   0  0  0  0  0
  -65.5560   19.0870   57.5520 O   0  0  0  0  0
  -62.9370   18.2880   57.2480 O   0  0  0  0  0
  -61.8202   16.8631   56.2126 H   0  0  0  0  0
  -61.8131   16.9780   59.2449 H   0  0  0  0  0
  -60.1412   15.2284   57.4166 H   0  0  0  0  0
  -62.4531   14.3703   59.1863 H   0  0  0  0  0
  -63.6946   13.9409   57.1082 H   0  0  0  0  0
  -62.3359   14.5732   56.1476 H   0  0  0  0  0
  -60.6136   18.6133   58.0933 H   0  0  0  0  0
  -59.3056   15.8055   59.5208 H   0  0  0  0  0
  -60.7717   12.8251   58.7995 H   0  0  0  0  0
  -66.5244   18.9238   55.1580 H   0  0  0  0  0
  -64.3535   20.4939   56.6434 H   0  0  0  0  0
  -64.2035   17.6116   55.7472 H   0  0  0  0  0
  -62.0268   18.3094   54.7241 H   0  0  0  0  0
  -62.2234   19.9263   55.3296 H   0  0  0  0  0
  -62.3446   19.2376   52.1106 H   0  0  0  0  0
  -64.4687   19.8665   50.7428 H   0  0  0  0  0
  -67.0131   20.8405   56.2861 H   0  0  0  0  0
  -64.9574   18.9660   58.2927 H   0  0  0  0  0
  1  9  1  0  0  0
  1  2  1  0  0  0
  2  6  1  0  0  0
  2  3  1  0  0  0
  3  7  1  0  0  0
  3  4  1  0  0  0
  4  8  1  0  0  0
  5  4  1  0  0  0
  9  5  1  0  0  0
 10 18  4  0  0  0
 15 10  4  0  0  0
 11 10  1  0  0  0
 11 19  1  0  0  0
 12 11  1  0  0  0
 12 20  1  0  0  0
 13 12  1  0  0  0
 21 13  1  0  0  0
 13 14  1  0  0  0
 14 15  1  0  0  0
 15 16  4  0  0  0
 16 17  4  0  0  0
 17 18  4  0  0  0
 21  1  1  0  0  0
  1 22  1  0  0  0
  2 23  1  0  0  0
  3 24  1  0  0  0
  4 25  1  0  0  0
  5 26  1  0  0  0
  5 27  1  0  0  0
  6 28  1  0  0  0
  7 29  1  0  0  0
  8 30  1  0  0  0
 11 31  1  0  0  0
 12 32  1  0  0  0
 13 33  1  0  0  0
 14 34  1  0  0  0
 14 35  1  0  0  0
 16 36  1  0  0  0
 17 37  1  0  0  0
 19 38  1  0  0  0
 20 39  1  0  0  0
M  END
$$$$
