5o4z_ligand
  -I-interpret- 

 71 76  0  0  0  0  0  0  0  0999 V2000
    0.5320   -4.9800  -15.1590 O   0  0  0  0  0
    1.2710   -4.4960  -13.9730 P   0  0  0  0  0
    2.4580   -3.7230  -14.4330 O   0  0  0  0  0
    0.3050   -3.8010  -13.0870 O   0  0  0  0  0
    1.8180   -5.7590  -13.1780 O   0  0  0  0  0
    2.7860   -6.6330  -13.7470 C   0  0  0  0  0
    2.8400   -7.9390  -12.9940 C   0  0  0  0  0
    3.3090   -7.6620  -11.6450 O   0  0  0  0  0
    1.4870   -8.6390  -12.8600 C   0  0  0  0  0
    1.6100  -10.0560  -13.0060 O   0  0  0  0  0
    1.0160   -8.2600  -11.4530 C   0  0  0  0  0
    0.2030   -9.2330  -10.8260 O   0  0  0  0  0
    2.3290   -8.0310  -10.6890 C   0  0  0  0  0
    2.2160   -6.9220   -9.7310 N   0  0  0  0  0
    1.8700   -5.6310  -10.0560 C   0  0  0  0  0
    1.8090   -4.8050   -9.0340 N   0  0  0  0  0
    2.1390   -5.6060   -7.9590 C   0  0  0  0  0
    2.2450   -5.3080   -6.5890 C   0  0  0  0  0
    2.0210   -4.0840   -6.0980 N   0  0  0  0  0
    2.5860   -6.3120   -5.7580 N   0  0  0  0  0
    2.8020   -7.5260   -6.2770 C   0  0  0  0  0
    2.7300   -7.9320   -7.5450 N   0  0  0  0  0
    2.3890   -6.9120   -8.3580 C   0  0  0  0  0
    0.5000  -10.8850  -13.8460 P   0  0  0  0  0
   -0.8140  -10.6720  -13.1910 O   0  0  0  0  0
    0.9760  -12.2580  -14.1360 O   0  0  0  0  0
    0.3900  -10.1310  -15.2450 O   0  0  0  0  0
    1.5330   -9.9070  -16.0560 C   0  0  0  0  0
    1.2610   -8.8460  -17.0910 C   0  0  0  0  0
    2.5280   -8.4150  -17.6480 O   0  0  0  0  0
    0.4060   -9.3000  -18.2720 C   0  0  0  0  0
   -0.3680   -8.2000  -18.7570 O   0  0  0  0  0
    1.4530   -9.6930  -19.3080 C   0  0  0  0  0
    1.0070   -9.6270  -20.6450 O   0  0  0  0  0
    2.5680   -8.6810  -19.0330 C   0  0  0  0  0
    3.9040   -9.2040  -19.3380 N   0  0  0  0  0
    4.8600   -8.6790  -20.1720 C   0  0  0  0  0
    5.9550   -9.3970  -20.2460 N   0  0  0  0  0
    5.7060  -10.4710  -19.4040 C   0  0  0  0  0
    6.4740  -11.5880  -19.0370 C   0  0  0  0  0
    7.6960  -11.8490  -19.4960 N   0  0  0  0  0
    5.9310  -12.4640  -18.1700 N   0  0  0  0  0
    4.7000  -12.2320  -17.6960 C   0  0  0  0  0
    3.8810  -11.2220  -17.9650 N   0  0  0  0  0
    4.4480  -10.3640  -18.8370 C   0  0  0  0  0
    2.9457   -3.4036  -13.6703 H   0  0  0  0  0
    0.7629   -3.4770  -12.3079 H   0  0  0  0  0
    3.7645   -6.1559  -13.6922 H   0  0  0  0  0
    2.5100   -6.8360  -14.7818 H   0  0  0  0  0
    3.4980   -8.5973  -13.5613 H   0  0  0  0  0
    0.7825   -8.3354  -13.6344 H   0  0  0  0  0
    0.3638   -7.3870  -11.4772 H   0  0  0  0  0
   -0.0496   -8.9231   -9.9532 H   0  0  0  0  0
    2.5815   -8.9401  -10.1432 H   0  0  0  0  0
    1.6628   -5.3173  -11.0791 H   0  0  0  0  0
    1.7619   -3.3225   -6.7252 H   0  0  0  0  0
    2.1093   -3.9122   -5.0965 H   0  0  0  0  0
    3.0774   -8.2968   -5.5572 H   0  0  0  0  0
   -0.9653   -9.7307  -13.0783 H   0  0  0  0  0
    1.7875  -10.8361  -16.5660 H   0  0  0  0  0
    2.3531   -9.5733  -15.4202 H   0  0  0  0  0
    0.7113   -8.0636  -16.5678 H   0  0  0  0  0
   -0.2924  -10.1008  -18.0290 H   0  0  0  0  0
   -0.9038   -8.4897  -19.4991 H   0  0  0  0  0
    1.7498  -10.7374  -19.2125 H   0  0  0  0  0
    1.7202   -9.8879  -21.2323 H   0  0  0  0  0
    2.4052   -7.8049  -19.6607 H   0  0  0  0  0
    4.7213   -7.7489  -20.7232 H   0  0  0  0  0
    8.1367  -11.2149  -20.1624 H   0  0  0  0  0
    8.1916  -12.6831  -19.1813 H   0  0  0  0  0
    4.3185  -12.9732  -16.9938 H   0  0  0  0  0
  1  2  2  0  0  0
  2  3  1  0  0  0
  2  4  1  0  0  0
  2  5  1  0  0  0
  5  6  1  0  0  0
  6  7  1  0  0  0
  7  8  1  0  0  0
  7  9  1  0  0  0
  8 13  1  0  0  0
  9 10  1  0  0  0
  9 11  1  0  0  0
 10 24  1  0  0  0
 11 12  1  0  0  0
 11 13  1  0  0  0
 13 14  1  0  0  0
 14 15  4  0  0  0
 14 23  4  0  0  0
 15 16  4  0  0  0
 16 17  4  0  0  0
 17 18  4  0  0  0
 17 23  4  0  0  0
 18 19  1  0  0  0
 18 20  4  0  0  0
 20 21  4  0  0  0
 21 22  4  0  0  0
 22 23  4  0  0  0
 24 25  1  0  0  0
 24 26  2  0  0  0
 24 27  1  0  0  0
 27 28  1  0  0  0
 28 29  1  0  0  0
 29 30  1  0  0  0
 29 31  1  0  0  0
 30 35  1  0  0  0
 31 32  1  0  0  0
 31 33  1  0  0  0
 33 34  1  0  0  0
 33 35  1  0  0  0
 35 36  1  0  0  0
 36 37  4  0  0  0
 36 45  4  0  0  0
 37 38  4  0  0  0
 38 39  4  0  0  0
 39 40  4  0  0  0
 39 45  4  0  0  0
 40 41  1  0  0  0
 40 42  4  0  0  0
 42 43  4  0  0  0
 43 44  4  0  0  0
 44 45  4  0  0  0
  3 46  1  0  0  0
  4 47  1  0  0  0
  6 48  1  0  0  0
  6 49  1  0  0  0
  7 50  1  0  0  0
  9 51  1  0  0  0
 11 52  1  0  0  0
 12 53  1  0  0  0
 13 54  1  0  0  0
 15 55  1  0  0  0
 19 56  1  0  0  0
 19 57  1  0  0  0
 21 58  1  0  0  0
 25 59  1  0  0  0
 28 60  1  0  0  0
 28 61  1  0  0  0
 29 62  1  0  0  0
 31 63  1  0  0  0
 32 64  1  0  0  0
 33 65  1  0  0  0
 34 66  1  0  0  0
 35 67  1  0  0  0
 37 68  1  0  0  0
 41 69  1  0  0  0
 41 70  1  0  0  0
 43 71  1  0  0  0
M  END
$$$$
