### 
### Created by X-TOOL on Mon Sep 10 21:13:31 2018
### 

@<TRIPOS>MOLECULE
5o4z_ligand
   68    73     1     0     0
SMALL
GAST_HUCK


@<TRIPOS>ATOM
      1 OP3         0.5320   -4.9800  -15.1590 O.co2     1 A          -0.5537
      2 P           1.2710   -4.4960  -13.9730 P.3       1 A           0.2008
      3 OP1         2.4580   -3.7230  -14.4330 O.co2     1 A          -0.5537
      4 OP2         0.3050   -3.8010  -13.0870 O.co2     1 A          -0.5537
      5 O5'         1.8180   -5.7590  -13.1780 O.3       1 A          -0.2734
      6 C5'         2.7860   -6.6330  -13.7470 C.3       1 A           0.1075
      7 C4'         2.8400   -7.9390  -12.9940 C.3       1 A           0.1235
      8 O4'         3.3090   -7.6620  -11.6450 O.3       1 A          -0.3360
      9 C3'         1.4870   -8.6390  -12.8600 C.3       1 A           0.1539
     10 O3'         1.6100  -10.0560  -13.0060 O.3       1 A          -0.2453
     11 C2'         1.0160   -8.2600  -11.4530 C.3       1 A           0.1439
     12 O2'         0.2030   -9.2330  -10.8260 O.3       1 A          -0.3832
     13 C1'         2.3290   -8.0310  -10.6890 C.3       1 A           0.2014
     14 N9          2.2160   -6.9220   -9.7310 N.pl3     1 A          -0.1919
     15 C8          1.8700   -5.6310  -10.0560 C.2       1 A           0.1123
     16 N7          1.8090   -4.8050   -9.0340 N.2       1 A          -0.2958
     17 C5          2.1390   -5.6060   -7.9590 C.ar      1 A           0.1045
     18 C6          2.2450   -5.3080   -6.5890 C.ar      1 A           0.1298
     19 N6          2.0210   -4.0840   -6.0980 N.pl3     1 A          -0.3152
     20 N1          2.5860   -6.3120   -5.7580 N.ar      1 A          -0.2698
     21 C2          2.8020   -7.5260   -6.2770 C.ar      1 A           0.0533
     22 N3          2.7300   -7.9320   -7.5450 N.ar      1 A          -0.2714
     23 C4          2.3890   -6.9120   -8.3580 C.ar      1 A           0.1613
     24 P           0.5000  -10.8850  -13.8460 P.3       1 A           0.2557
     25 OP1        -0.8140  -10.6720  -13.1910 O.co2     1 A          -0.6177
     26 OP2         0.9760  -12.2580  -14.1360 O.co2     1 A          -0.6177
     27 O5'         0.3900  -10.1310  -15.2450 O.3       1 A          -0.2514
     28 C5'         1.5330   -9.9070  -16.0560 C.3       1 A           0.1124
     29 C4'         1.2610   -8.8460  -17.0910 C.3       1 A           0.1189
     30 O4'         2.5280   -8.4150  -17.6480 O.3       1 A          -0.3364
     31 C3'         0.4060   -9.3000  -18.2720 C.3       1 A           0.1149
     32 O3'        -0.3680   -8.2000  -18.7570 O.3       1 A          -0.3864
     33 C2'         1.4530   -9.6930  -19.3080 C.3       1 A           0.1385
     34 O2'         1.0070   -9.6270  -20.6450 O.3       1 A          -0.3836
     35 C1'         2.5680   -8.6810  -19.0330 C.3       1 A           0.2010
     36 N9          3.9040   -9.2040  -19.3380 N.pl3     1 A          -0.1919
     37 C8          4.8600   -8.6790  -20.1720 C.2       1 A           0.1123
     38 N7          5.9550   -9.3970  -20.2460 N.2       1 A          -0.2958
     39 C5          5.7060  -10.4710  -19.4040 C.ar      1 A           0.1045
     40 C6          6.4740  -11.5880  -19.0370 C.ar      1 A           0.1298
     41 N6          7.6960  -11.8490  -19.4960 N.pl3     1 A          -0.3152
     42 N1          5.9310  -12.4640  -18.1700 N.ar      1 A          -0.2698
     43 C2          4.7000  -12.2320  -17.6960 C.ar      1 A           0.0533
     44 N3          3.8810  -11.2220  -17.9650 N.ar      1 A          -0.2714
     45 C4          4.4480  -10.3640  -18.8370 C.ar      1 A           0.1613
     46 H1          3.7744   -6.1520  -13.7052 H         1 A           0.0639
     47 H2          2.5192   -6.8324  -14.7953 H         1 A           0.0639
     48 H3          3.5409   -8.6135  -13.5077 H         1 A           0.0654
     49 H4          0.7828   -8.2618  -13.6162 H         1 A           0.0712
     50 H5          0.4416   -7.3231  -11.5001 H         1 A           0.0680
     51 H6         -0.5762   -9.3780  -11.3496 H         1 A           0.2101
     52 H7          2.6222   -8.9516  -10.1631 H         1 A           0.0996
     53 H8          1.6630   -5.3176  -11.0782 H         1 A           0.1349
     54 H9          2.1102   -3.9105   -5.0866 H         1 A           0.1820
     55 H10         1.7594   -3.3150   -6.7313 H         1 A           0.1820
     56 H11         3.0759   -8.2926   -5.5612 H         1 A           0.0996
     57 H12         1.8029  -10.8445  -16.5642 H         1 A           0.0647
     58 H13         2.3684   -9.5819  -15.4185 H         1 A           0.0647
     59 H14         0.7593   -8.0013  -16.5963 H         1 A           0.0651
     60 H15        -0.2473  -10.1444  -18.0070 H         1 A           0.0648
     61 H16        -0.8982   -8.4867  -19.4913 H         1 A           0.2100
     62 H17         1.8053  -10.7172  -19.1158 H         1 A           0.0676
     63 H18         1.7127   -9.8852  -21.2262 H         1 A           0.2101
     64 H19         2.3899   -7.7643  -19.6144 H         1 A           0.0996
     65 H20         4.7215   -7.7497  -20.7227 H         1 A           0.1349
     66 H21         8.1965  -12.6913  -19.1782 H         1 A           0.1820
     67 H22         8.1410  -11.2087  -20.1690 H         1 A           0.1820
     68 H23         4.3206  -12.9692  -16.9976 H         1 A           0.0996
@<TRIPOS>BOND
     1    1    2 ar 
     2    2    3 ar 
     3    2    4 ar 
     4    2    5 1  
     5    5    6 1  
     6    6    7 1  
     7    7    8 1  
     8    7    9 1  
     9    8   13 1  
    10    9   10 1  
    11    9   11 1  
    12   10   24 1  
    13   11   12 1  
    14   11   13 1  
    15   13   14 1  
    16   14   15 1  
    17   14   23 1  
    18   15   16 2  
    19   16   17 1  
    20   17   18 ar 
    21   17   23 ar 
    22   18   19 1  
    23   18   20 ar 
    24   20   21 ar 
    25   21   22 ar 
    26   22   23 ar 
    27   24   25 ar 
    28   24   26 ar 
    29   24   27 1  
    30   27   28 1  
    31   28   29 1  
    32   29   30 1  
    33   29   31 1  
    34   30   35 1  
    35   31   32 1  
    36   31   33 1  
    37   33   34 1  
    38   33   35 1  
    39   35   36 1  
    40   36   37 1  
    41   36   45 1  
    42   37   38 2  
    43   38   39 1  
    44   39   40 ar 
    45   39   45 ar 
    46   40   41 1  
    47   40   42 ar 
    48   42   43 ar 
    49   43   44 ar 
    50   44   45 ar 
    51    6   46 1  
    52    6   47 1  
    53    7   48 1  
    54    9   49 1  
    55   11   50 1  
    56   12   51 1  
    57   13   52 1  
    58   15   53 1  
    59   19   54 1  
    60   19   55 1  
    61   21   56 1  
    62   28   57 1  
    63   28   58 1  
    64   29   59 1  
    65   31   60 1  
    66   32   61 1  
    67   33   62 1  
    68   34   63 1  
    69   35   64 1  
    70   37   65 1  
    71   41   66 1  
    72   41   67 1  
    73   43   68 1  
@<TRIPOS>SUBSTRUCTURE
     1 A           1

