5d3n_ligand
  -I-interpret- 

 48 49  0  0  0  0  0  0  0  0999 V2000
   -5.9200    9.7100   -1.4970 C   0  0  0  0  0
   -5.3590   10.2010   -0.3230 C   0  0  0  0  0
   -6.8940    8.8350    0.9590 C   0  0  0  0  0
  -12.4410    5.6730    0.5550 C   0  0  0  0  0
  -11.4450    6.5850    0.2160 C   0  0  0  0  0
   -7.4890    8.3350   -0.2120 C   0  0  0  0  0
   -6.9880    8.7880   -1.4570 C   0  0  0  0  0
   -5.8550    9.7630    0.9150 C   0  0  0  0  0
  -10.2480    6.0770    0.9430 C   0  0  0  0  0
  -11.8860    4.6800    1.4800 C   0  0  0  0  0
  -13.8650    5.6700    0.1570 C   0  0  0  0  0
   -8.9100    6.7430    0.9130 C   0  0  0  0  0
  -12.5660    3.5150    2.1340 C   0  0  0  0  0
  -14.4890    7.0130    0.0130 C   0  0  0  0  0
  -11.5350    7.1900   -2.1280 C   0  0  0  0  0
  -11.5190    7.7820   -0.7250 C   0  0  0  0  0
   -4.4720    7.9850    3.3720 C   0  0  0  0  0
  -10.5940    4.9960    1.6550 N   0  0  0  0  0
   -8.4660    7.3650   -0.1710 N   0  0  0  0  0
   -4.0990    9.2900    2.8500 N   0  0  0  0  0
  -14.4990    4.6460    0.0340 O   0  0  0  0  0
   -8.3130    6.7960    1.9660 O   0  0  0  0  0
   -4.5900   11.5840    1.9710 O   0  0  0  0  0
   -6.2450   10.5580    3.2430 O   0  0  0  0  0
   -7.5270    8.3340   -2.7920 C   0  0  0  0  0
   -5.2150   10.3200    2.2740 S   0  0  0  0  0
   -5.5303   10.0411   -2.4596 H   0  0  0  0  0
   -4.5408   10.9201   -0.3638 H   0  0  0  0  0
   -7.2546    8.4878    1.9273 H   0  0  0  0  0
  -13.3932    3.8753    2.7456 H   0  0  0  0  0
  -12.9465    2.8406    1.3669 H   0  0  0  0  0
  -11.8510    2.9851    2.7633 H   0  0  0  0  0
  -14.9126    7.1101   -0.9866 H   0  0  0  0  0
  -15.2782    7.1271    0.7561 H   0  0  0  0  0
  -13.7317    7.7822    0.1644 H   0  0  0  0  0
  -10.6251    6.6114   -2.2872 H   0  0  0  0  0
  -12.4037    6.5408   -2.2371 H   0  0  0  0  0
  -11.5876    7.9956   -2.8603 H   0  0  0  0  0
  -10.6742    8.4562   -0.5837 H   0  0  0  0  0
  -12.4052    8.3875   -0.5350 H   0  0  0  0  0
   -5.1532    8.1128    4.2133 H   0  0  0  0  0
   -4.9643    7.4089    2.5885 H   0  0  0  0  0
   -3.5772    7.4586    3.7041 H   0  0  0  0  0
   -8.8890    7.0993   -1.0603 H   0  0  0  0  0
   -3.1165    9.5641    2.8455 H   0  0  0  0  0
   -7.8948    9.1973   -3.3465 H   0  0  0  0  0
   -6.7314    7.8492   -3.3578 H   0  0  0  0  0
   -8.3426    7.6288   -2.6323 H   0  0  0  0  0
  2  1  4  0  0  0
  1  7  4  0  0  0
  8  2  4  0  0  0
  3  6  4  0  0  0
  8  3  4  0  0  0
  5  4  4  0  0  0
 10  4  4  0  0  0
  4 11  1  0  0  0
  9  5  4  0  0  0
  5 16  1  0  0  0
  6  7  4  0  0  0
  6 19  1  0  0  0
  7 25  1  0  0  0
 26  8  1  0  0  0
 12  9  1  0  0  0
  9 18  4  0  0  0
 10 13  1  0  0  0
 18 10  4  0  0  0
 11 14  1  0  0  0
 11 21  2  0  0  0
 19 12  1  0  0  0
 12 22  2  0  0  0
 16 15  1  0  0  0
 20 17  1  0  0  0
 20 26  1  0  0  0
 26 23  2  0  0  0
 26 24  2  0  0  0
  1 27  1  0  0  0
  2 28  1  0  0  0
  3 29  1  0  0  0
 13 30  1  0  0  0
 13 31  1  0  0  0
 13 32  1  0  0  0
 14 33  1  0  0  0
 14 34  1  0  0  0
 14 35  1  0  0  0
 15 36  1  0  0  0
 15 37  1  0  0  0
 15 38  1  0  0  0
 16 39  1  0  0  0
 16 40  1  0  0  0
 17 41  1  0  0  0
 17 42  1  0  0  0
 17 43  1  0  0  0
 19 44  1  0  0  0
 20 45  1  0  0  0
 25 46  1  0  0  0
 25 47  1  0  0  0
 25 48  1  0  0  0
M  END
$$$$
