6n53_ligand
  -I-interpret- 

 35 36  0  0  0  0  0  0  0  0999 V2000
    8.4030  -20.1260  -23.1680 P   0  0  0  0  0
   13.2270  -23.9230  -25.9660 N   0  0  0  0  0
   13.2790  -25.2610  -25.7930 C   0  0  0  0  0
   12.2560  -25.9150  -25.7140 O   0  0  0  0  0
   14.4760  -25.8850  -25.7190 N   0  0  0  0  0
   15.6300  -25.1860  -25.8050 C   0  0  0  0  0
   16.7130  -25.7410  -25.7380 O   0  0  0  0  0
   15.5810  -23.7850  -25.9750 C   0  0  0  0  0
   14.3780  -23.1910  -26.0460 C   0  0  0  0  0
   12.0010  -23.1100  -26.0460 C   0  0  0  0  0
   11.3000  -22.9150  -27.4230 C   0  0  0  0  0
    9.9870  -22.1710  -27.0710 C   0  0  0  0  0
   11.9230  -22.8920  -28.7620 N   0  0  0  0  0
   10.0680  -20.8070  -27.4810 O   0  0  0  0  0
   10.0690  -22.2750  -25.5290 C   0  0  0  0  0
   12.9170  -23.3600  -29.0020 N   0  0  0  0  0
   10.8420  -23.4680  -25.2530 O   0  0  0  0  0
    8.6950  -22.2110  -24.8510 C   0  0  0  0  0
   13.9200  -23.7930  -29.2670 N   0  0  0  0  0
    8.4080  -20.8250  -24.6220 O   0  0  0  0  0
    9.2940  -20.8700  -22.2510 O   0  0  0  0  0
    8.9320  -18.6100  -23.2950 O   0  0  0  0  0
    6.9060  -20.1080  -22.5790 O   0  0  0  0  0
   14.5089  -26.8971  -25.5966 H   0  0  0  0  0
   16.4975  -23.1993  -26.0469 H   0  0  0  0  0
   14.3193  -22.1096  -26.1692 H   0  0  0  0  0
   12.5420  -22.2374  -25.6799 H   0  0  0  0  0
   11.2367  -23.8674  -27.9494 H   0  0  0  0  0
    9.0774  -22.5596  -27.5289 H   0  0  0  0  0
    9.2496  -20.3577  -27.2576 H   0  0  0  0  0
   10.5701  -21.4122  -25.0902 H   0  0  0  0  0
    8.7007  -22.7650  -23.9123 H   0  0  0  0  0
    7.9309  -22.6651  -25.4818 H   0  0  0  0  0
    8.3581  -18.1207  -23.8891 H   0  0  0  0  0
    6.3333  -19.6240  -23.1784 H   0  0  0  0  0
 20  1  1  0  0  0
  1 21  2  0  0  0
  1 22  1  0  0  0
  1 23  1  0  0  0
  2  3  1  0  0  0
  2  9  1  0  0  0
 10  2  1  0  0  0
  3  4  2  0  0  0
  3  5  1  0  0  0
  5  6  1  0  0  0
  6  7  2  0  0  0
  8  6  1  0  0  0
  9  8  2  0  0  0
 10 11  1  0  0  0
 17 10  1  0  0  0
 12 11  1  0  0  0
 11 13  1  0  0  0
 12 14  1  0  0  0
 15 12  1  0  0  0
 13 16  2  0  0  0
 15 17  1  0  0  0
 18 15  1  0  0  0
 16 19  3  0  0  0
 18 20  1  0  0  0
  5 24  1  0  0  0
  8 25  1  0  0  0
  9 26  1  0  0  0
 10 27  1  0  0  0
 11 28  1  0  0  0
 12 29  1  0  0  0
 14 30  1  0  0  0
 15 31  1  0  0  0
 18 32  1  0  0  0
 18 33  1  0  0  0
 22 34  1  0  0  0
 23 35  1  0  0  0
M  END
$$$$
