### 
### Created by X-TOOL on Mon Aug  2 16:15:10 2021
### 

@<TRIPOS>MOLECULE
6n53_ligand
   33    34     1     0     0
SMALL
GAST_HUCK


@<TRIPOS>ATOM
      1 P           8.4030  -20.1260  -23.1680 P.3       1 UZR         0.2008
      2 N1         13.2270  -23.9230  -25.9660 N.am      1 UZR        -0.1561
      3 C2         13.2790  -25.2610  -25.7930 C.2       1 UZR         0.3329
      4 O2         12.2560  -25.9150  -25.7140 O.2       1 UZR        -0.3815
      5 N3         14.4760  -25.8850  -25.7190 N.am      1 UZR        -0.1865
      6 C4         15.6300  -25.1860  -25.8050 C.2       1 UZR         0.1822
      7 O4         16.7130  -25.7410  -25.7380 O.2       1 UZR        -0.4124
      8 C5         15.5810  -23.7850  -25.9750 C.2       1 UZR         0.0062
      9 C6         14.3780  -23.1910  -26.0460 C.2       1 UZR         0.0592
     10 C1'        12.0010  -23.1100  -26.0460 C.3       1 UZR         0.2387
     11 C2'        11.3000  -22.9150  -27.4230 C.3       1 UZR         0.3005
     12 C3'         9.9870  -22.1710  -27.0710 C.3       1 UZR         0.1472
     13 N3'        11.9230  -22.8920  -28.7620 N.2       1 UZR         0.1778
     14 O3'        10.0680  -20.8070  -27.4810 O.3       1 UZR        -0.3834
     15 C4'        10.0690  -22.2750  -25.5290 C.3       1 UZR         0.1211
     16 N4'        12.9170  -23.3600  -29.0020 N.1       1 UZR         0.1298
     17 O4'        10.8420  -23.4680  -25.2530 O.3       1 UZR        -0.3341
     18 C5'         8.6950  -22.2110  -24.8510 C.3       1 UZR         0.1073
     19 N5'        13.9200  -23.7930  -29.2670 N.1       1 UZR         0.2334
     20 O5'         8.4080  -20.8250  -24.6220 O.3       1 UZR        -0.2734
     21 OP1         9.2940  -20.8700  -22.2510 O.co2     1 UZR        -0.5537
     22 OP2         8.9320  -18.6100  -23.2950 O.co2     1 UZR        -0.5537
     23 OP3         6.9060  -20.1080  -22.5790 O.co2     1 UZR        -0.5537
     24 H1         14.5083  -26.8773  -25.5990 H         1 UZR         0.2259
     25 H2         16.4966  -23.1999  -26.0469 H         1 UZR         0.0258
     26 H3         14.3194  -22.1106  -26.1691 H         1 UZR         0.1178
     27 H4         12.3325  -22.1179  -25.7056 H         1 UZR         0.1029
     28 H5         10.8950  -23.9315  -27.5354 H         1 UZR         0.1082
     29 H6          9.0911  -22.6527  -27.4896 H         1 UZR         0.0678
     30 H7         10.2061  -20.7674  -28.4201 H         1 UZR         0.2101
     31 H8         10.6397  -21.4119  -25.1556 H         1 UZR         0.0651
     32 H9          8.7189  -22.7552  -23.8954 H         1 UZR         0.0639
     33 H10         7.9292  -22.6527  -25.5055 H         1 UZR         0.0639
@<TRIPOS>BOND
     1   20    1 1  
     2    1   21 ar 
     3    1   22 ar 
     4    1   23 ar 
     5    2    3 am 
     6    2    9 1  
     7   10    2 1  
     8    3    4 2  
     9    3    5 am 
    10    5    6 am 
    11    6    7 2  
    12    8    6 1  
    13    9    8 2  
    14   10   11 1  
    15   17   10 1  
    16   12   11 1  
    17   11   13 1  
    18   12   14 1  
    19   15   12 1  
    20   13   16 2  
    21   15   17 1  
    22   18   15 1  
    23   16   19 3  
    24   18   20 1  
    25    5   24 1  
    26    8   25 1  
    27    9   26 1  
    28   10   27 1  
    29   11   28 1  
    30   12   29 1  
    31   14   30 1  
    32   15   31 1  
    33   18   32 1  
    34   18   33 1  
@<TRIPOS>SUBSTRUCTURE
     1 UZR         1

