6d5e_ligand
  -I-interpret- 

 67 71  0  0  0  0  0  0  0  0999 V2000
   36.3000   28.0970   23.5430 N   0  0  0  0  0
   37.9900   26.2570   25.0620 N   0  3  0  0  0
   32.9910   28.8510   22.0830 C   0  0  0  0  0
   35.4500   28.1530   22.5110 C   0  0  0  0  0
   35.5900   28.6710   24.6220 C   0  0  0  0  0
   35.9630   28.8250   25.9640 C   0  0  0  0  0
   34.9960   29.3760   26.8280 C   0  0  0  0  0
   33.3520   29.6400   25.0410 C   0  0  0  0  0
   39.1360   28.5870   27.8830 C   0  0  0  0  0
   38.5160   28.7050   25.5500 C   0  0  0  0  0
   36.6880   26.5250   21.1890 C   0  0  0  0  0
   35.7450   28.4990   20.0760 C   0  0  0  0  0
   31.9440   30.0870   20.2370 C   0  0  0  0  0
   31.6770   31.2490   19.5250 C   0  0  0  0  0
   32.3320   32.4260   19.9080 C   0  0  0  0  0
   34.2250   28.7240   22.8300 N   0  0  0  0  0
   33.8520   33.7780   21.3460 C   0  0  0  0  0
   33.2120   32.4840   20.9670 C   0  0  0  0  0
   34.3140   29.0700   24.1970 C   0  0  0  0  0
   37.5920   28.5750   27.8520 C   0  0  0  0  0
   39.5170   29.2700   26.5720 C   0  0  0  0  0
   39.0310   27.3320   25.0390 C   0  0  0  0  0
   36.3710   25.7080   19.9200 C   0  0  0  0  0
   35.5010   27.6790   18.7980 C   0  0  0  0  0
   33.4740   31.3250   21.6710 C   0  0  0  0  0
   30.7010   31.2870   18.3960 C   0  0  0  0  0
   32.8330   30.1330   21.3070 C   0  0  0  0  0
   33.7370   29.7490   26.3460 C   0  0  0  0  0
   32.0890   33.5200   19.2020 F   0  0  0  0  0
   37.2760   28.3750   26.3880 N   0  0  0  0  0
   35.7370   27.6500   21.2590 N   0  0  0  0  0
   36.4640   26.5720   18.7270 N   0  3  0  0  0
   32.5010   30.3280   27.4720 Cl  0  0  0  0  0
   38.3939   25.3868   24.7154 H   0  0  0  0  0
   37.6617   26.1237   26.0185 H   0  0  0  0  0
   37.2074   26.5304   24.4677 H   0  0  0  0  0
   32.1819   28.8278   22.8130 H   0  0  0  0  0
   32.9855   28.0425   21.3520 H   0  0  0  0  0
   35.2315   29.5131   27.8834 H   0  0  0  0  0
   32.3760   29.9695   24.6847 H   0  0  0  0  0
   39.5587   27.5860   27.9693 H   0  0  0  0  0
   39.5311   29.1088   28.7546 H   0  0  0  0  0
   38.3530   29.3933   24.7207 H   0  0  0  0  0
   37.7108   26.8996   21.1489 H   0  0  0  0  0
   36.5921   25.8964   22.0743 H   0  0  0  0  0
   34.9480   29.2363   20.1726 H   0  0  0  0  0
   36.7209   28.9784   19.9996 H   0  0  0  0  0
   31.4625   29.1489   19.9609 H   0  0  0  0  0
   34.4324   34.1552   20.5040 H   0  0  0  0  0
   33.0795   34.5006   21.6092 H   0  0  0  0  0
   34.5098   33.6199   22.2006 H   0  0  0  0  0
   37.1568   29.4898   28.2543 H   0  0  0  0  0
   37.1654   27.7960   28.4839 H   0  0  0  0  0
   40.5508   29.0717   26.2893 H   0  0  0  0  0
   39.4646   30.3564   26.6429 H   0  0  0  0  0
   39.3423   27.4642   24.0028 H   0  0  0  0  0
   39.8394   27.0190   25.6998 H   0  0  0  0  0
   35.3600   25.3074   19.9947 H   0  0  0  0  0
   37.0892   24.8931   19.8294 H   0  0  0  0  0
   35.6260   28.3224   17.9271 H   0  0  0  0  0
   34.4885   27.2758   18.8158 H   0  0  0  0  0
   34.1755   31.3373   22.5052 H   0  0  0  0  0
   31.0216   30.5955   17.6168 H   0  0  0  0  0
   29.7156   30.9954   18.7593 H   0  0  0  0  0
   30.6557   32.2977   17.9904 H   0  0  0  0  0
   36.2555   26.0109   17.9011 H   0  0  0  0  0
   37.4055   26.9615   18.6791 H   0  0  0  0  0
  4  1  4  0  0  0
  1  5  4  0  0  0
 22  2  1  0  0  0
  3 16  1  0  0  0
 27  3  1  0  0  0
 16  4  4  0  0  0
  4 31  1  0  0  0
  5  6  4  0  0  0
  5 19  4  0  0  0
  6  7  4  0  0  0
  6 30  1  0  0  0
  7 28  4  0  0  0
 19  8  4  0  0  0
  8 28  4  0  0  0
  9 20  1  0  0  0
 21  9  1  0  0  0
 10 21  1  0  0  0
 10 22  1  0  0  0
 30 10  1  0  0  0
 11 23  1  0  0  0
 31 11  1  0  0  0
 12 24  1  0  0  0
 31 12  1  0  0  0
 13 14  4  0  0  0
 13 27  4  0  0  0
 14 15  4  0  0  0
 14 26  1  0  0  0
 15 18  4  0  0  0
 15 29  1  0  0  0
 16 19  4  0  0  0
 18 17  1  0  0  0
 18 25  4  0  0  0
 20 30  1  0  0  0
 23 32  1  0  0  0
 24 32  1  0  0  0
 25 27  4  0  0  0
 28 33  1  0  0  0
  2 34  1  0  0  0
  2 35  1  0  0  0
  2 36  1  0  0  0
  3 37  1  0  0  0
  3 38  1  0  0  0
  7 39  1  0  0  0
  8 40  1  0  0  0
  9 41  1  0  0  0
  9 42  1  0  0  0
 10 43  1  0  0  0
 11 44  1  0  0  0
 11 45  1  0  0  0
 12 46  1  0  0  0
 12 47  1  0  0  0
 13 48  1  0  0  0
 17 49  1  0  0  0
 17 50  1  0  0  0
 17 51  1  0  0  0
 20 52  1  0  0  0
 20 53  1  0  0  0
 21 54  1  0  0  0
 21 55  1  0  0  0
 22 56  1  0  0  0
 22 57  1  0  0  0
 23 58  1  0  0  0
 23 59  1  0  0  0
 24 60  1  0  0  0
 24 61  1  0  0  0
 25 62  1  0  0  0
 26 63  1  0  0  0
 26 64  1  0  0  0
 26 65  1  0  0  0
 32 66  1  0  0  0
 32 67  1  0  0  0
M  END
$$$$
