6p8x_ligand
  -I-interpret- 

 59 62  0  0  0  0  0  0  0  0999 V2000
    2.3150   72.0530  -27.9750 C   0  0  0  0  0
    2.0030   72.0420  -29.5350 C   0  0  0  0  0
    0.5370   72.4700  -29.6960 C   0  0  0  0  0
   -0.3420   71.7510  -29.4530 O   0  0  0  0  0
    0.1970   73.7810  -30.1710 N   0  0  0  0  0
   -1.0510   74.5240  -30.4830 C   0  0  0  0  0
   -0.2490   75.6870  -30.9460 C   0  0  0  0  0
    0.9660   74.9800  -30.5290 C   0  0  0  0  0
   -0.0400   75.8830  -32.3550 N   0  0  0  0  0
   -0.8880   76.6670  -33.1860 C   0  0  0  0  0
   -1.8420   77.1780  -32.7460 O   0  0  0  0  0
   -0.4790   76.7500  -34.6450 C   0  0  0  0  0
   -0.9950   77.8850  -35.2600 O   0  0  0  0  0
   -2.2770   77.6960  -35.7660 C   0  0  0  0  0
   -2.9660   76.5190  -35.5160 C   0  0  0  0  0
   -4.2400   76.3410  -36.0180 C   0  0  0  0  0
   -4.8230   77.3520  -36.7670 C   0  0  0  0  0
   -6.6130   77.1480  -37.4770 Br  0  0  0  0  0
   -4.1340   78.5270  -36.9990 C   0  0  0  0  0
   -2.8620   78.6910  -36.5170 C   0  0  0  0  0
   -2.1150   79.9920  -36.7640 C   0  0  0  0  0
   -1.6210   80.2250  -37.8000 O   0  0  0  0  0
   -2.0440   80.9290  -35.6710 N   0  0  0  0  0
   -1.4030   82.2290  -35.6340 C   0  0  0  0  0
   -2.0730   82.9400  -34.4370 C   0  0  0  0  0
   -2.5030   81.9970  -33.6100 C   0  0  0  0  0
   -2.6300   80.7110  -34.3580 C   0  0  0  0  0
   -2.9970   82.2180  -32.1840 C   0  0  0  0  0
   -3.5670   81.1760  -31.4840 C   0  0  0  0  0
   -4.0100   81.3730  -30.1950 C   0  0  0  0  0
   -3.8830   82.6040  -29.6030 C   0  0  0  0  0
   -3.3160   83.6450  -30.3020 C   0  0  0  0  0
   -2.8750   83.4490  -31.5920 C   0  0  0  0  0
    2.1586   73.0574  -27.5816 H   0  0  0  0  0
    1.6491   71.3549  -27.4677 H   0  0  0  0  0
    3.3503   71.7541  -27.8107 H   0  0  0  0  0
    2.1661   71.0500  -29.9563 H   0  0  0  0  0
    2.6667   72.7226  -30.0682 H   0  0  0  0  0
   -1.8094   74.6597  -29.7120 H   0  0  0  0  0
   -1.7963   74.0807  -31.1435 H   0  0  0  0  0
   -0.6224   76.6564  -30.6159 H   0  0  0  0  0
    1.7926   74.8877  -31.2335 H   0  0  0  0  0
    1.6133   75.4366  -29.7802 H   0  0  0  0  0
    0.7669   75.4316  -32.7859 H   0  0  0  0  0
   -0.8685   75.8726  -35.1613 H   0  0  0  0  0
    0.6089   76.7971  -34.6945 H   0  0  0  0  0
   -2.5009   75.7324  -34.9218 H   0  0  0  0  0
   -4.7821   75.4148  -35.8274 H   0  0  0  0  0
   -4.6051   79.3280  -37.5687 H   0  0  0  0  0
   -1.5297   82.7796  -36.5661 H   0  0  0  0  0
   -0.3217   82.1541  -35.5185 H   0  0  0  0  0
   -2.1735   84.0165  -34.2982 H   0  0  0  0  0
   -2.1166   79.9052  -33.8334 H   0  0  0  0  0
   -3.6754   80.4146  -34.4445 H   0  0  0  0  0
   -3.6670   80.1961  -31.9508 H   0  0  0  0  0
   -4.4627   80.5488  -29.6438 H   0  0  0  0  0
   -4.2304   82.7572  -28.5813 H   0  0  0  0  0
   -3.2159   84.6247  -29.8347 H   0  0  0  0  0
   -2.4274   84.2753  -32.1443 H   0  0  0  0  0
  1  2  1  0  0  0
  2  3  1  0  0  0
  3  4  2  0  0  0
  3  5  1  0  0  0
  5  6  1  0  0  0
  5  8  1  0  0  0
  6  7  1  0  0  0
  7  8  1  0  0  0
  7  9  1  0  0  0
  9 10  1  0  0  0
 10 11  2  0  0  0
 10 12  1  0  0  0
 12 13  1  0  0  0
 13 14  1  0  0  0
 14 15  4  0  0  0
 14 20  4  0  0  0
 15 16  4  0  0  0
 16 17  4  0  0  0
 17 18  1  0  0  0
 17 19  4  0  0  0
 19 20  4  0  0  0
 20 21  1  0  0  0
 21 22  2  0  0  0
 21 23  1  0  0  0
 23 24  1  0  0  0
 23 27  1  0  0  0
 24 25  1  0  0  0
 25 26  2  0  0  0
 26 27  1  0  0  0
 26 28  1  0  0  0
 28 29  4  0  0  0
 28 33  4  0  0  0
 29 30  4  0  0  0
 30 31  4  0  0  0
 31 32  4  0  0  0
 32 33  4  0  0  0
  1 34  1  0  0  0
  1 35  1  0  0  0
  1 36  1  0  0  0
  2 37  1  0  0  0
  2 38  1  0  0  0
  6 39  1  0  0  0
  6 40  1  0  0  0
  7 41  1  0  0  0
  8 42  1  0  0  0
  8 43  1  0  0  0
  9 44  1  0  0  0
 12 45  1  0  0  0
 12 46  1  0  0  0
 15 47  1  0  0  0
 16 48  1  0  0  0
 19 49  1  0  0  0
 24 50  1  0  0  0
 24 51  1  0  0  0
 25 52  1  0  0  0
 27 53  1  0  0  0
 27 54  1  0  0  0
 29 55  1  0  0  0
 30 56  1  0  0  0
 31 57  1  0  0  0
 32 58  1  0  0  0
 33 59  1  0  0  0
M  END
$$$$
