3qd4_ligand
  -I-interpret- 

 61 64  0  0  0  0  0  0  0  0999 V2000
  -41.1240   16.4690   12.9480 C   0  0  0  0  0
  -42.2820   17.1410   12.6000 C   0  0  0  0  0
  -43.3400   15.1520   11.8220 C   0  0  0  0  0
  -44.8070   18.5420   11.8730 C   0  0  0  0  0
  -41.0830   15.0980   12.7240 C   0  0  0  0  0
  -43.3760   16.5110   12.0360 C   0  0  0  0  0
  -42.1900   14.4870   12.1790 C   0  0  0  0  0
  -44.5840   17.2070   11.6270 C   0  0  0  0  0
  -46.0200   19.0500   11.4440 C   0  0  0  0  0
  -40.1420   14.0330   12.9060 C   0  0  0  0  0
  -46.6500   17.0150   10.6290 C   0  0  0  0  0
  -50.4740   21.7030   12.3330 C   0  0  0  0  0
  -47.0460   22.5690   13.0400 C   0  0  0  0  0
  -45.1710   21.2820   11.9550 C   0  0  0  0  0
  -47.4620   21.0020   11.0990 C   0  0  0  0  0
  -45.6510   21.9650   13.2290 C   0  0  0  0  0
  -48.0390   21.6270   12.3570 C   0  0  0  0  0
  -45.6720   20.9480   14.3450 C   0  0  0  0  0
  -53.1510   22.1240   13.4730 C   0  0  0  0  0
  -53.5610   23.2920   11.3170 C   0  0  0  0  0
  -53.1920   20.8780   11.2950 C   0  0  0  0  0
  -52.8070   22.1660   11.9910 C   0  0  0  0  0
  -45.4950   16.4440   11.0000 N   0  0  0  0  0
  -46.9520   18.3010   10.8420 N   0  0  0  0  0
  -40.6410   12.8620   12.4980 N   0  0  0  0  0
  -41.8770   13.1570   12.0670 N   0  0  0  0  0
  -46.3020   20.4020   11.7270 N   0  0  0  0  0
  -38.8970   14.1940   13.4270 N   0  0  0  0  0
  -47.6110   16.2260    9.9840 N   0  0  0  0  0
  -49.2690   22.3130   12.0960 N   0  0  0  0  0
  -50.6600   20.6440   12.9150 O   0  0  0  0  0
  -51.4270   22.4970   11.7890 O   0  0  0  0  0
  -40.2743   16.9958   13.3823 H   0  0  0  0  0
  -42.3344   18.2150   12.7784 H   0  0  0  0  0
  -44.1886   14.6239   11.3871 H   0  0  0  0  0
  -44.0688   19.1650   12.3780 H   0  0  0  0  0
  -46.9370   23.4453   12.4011 H   0  0  0  0  0
  -47.4400   22.7937   14.0311 H   0  0  0  0  0
  -44.2076   20.7790   12.0388 H   0  0  0  0  0
  -44.9413   21.9572   11.1307 H   0  0  0  0  0
  -47.2639   21.6818   10.2703 H   0  0  0  0  0
  -48.1185   20.3249   10.5524 H   0  0  0  0  0
  -44.9693   22.7789   13.4759 H   0  0  0  0  0
  -48.2448   20.8016   13.0385 H   0  0  0  0  0
  -45.9807   21.4330   15.2711 H   0  0  0  0  0
  -46.3758   20.1533   14.0975 H   0  0  0  0  0
  -44.6746   20.5262   14.4692 H   0  0  0  0  0
  -52.8729   23.0707   13.9362 H   0  0  0  0  0
  -54.2222   21.9609   13.5916 H   0  0  0  0  0
  -52.6034   21.3105   13.9489 H   0  0  0  0  0
  -54.6327   23.1303   11.4328 H   0  0  0  0  0
  -53.2834   24.2402   11.7775 H   0  0  0  0  0
  -53.3080   23.3136   10.2570 H   0  0  0  0  0
  -52.6555   20.0458   11.7507 H   0  0  0  0  0
  -54.2656   20.7188   11.3961 H   0  0  0  0  0
  -52.9312   20.9453   10.2388 H   0  0  0  0  0
  -38.5813   15.1195   13.7170 H   0  0  0  0  0
  -38.2784   13.3893   13.5280 H   0  0  0  0  0
  -47.4246   15.2391    9.8058 H   0  0  0  0  0
  -48.4972   16.6383    9.6925 H   0  0  0  0  0
  -49.2484   23.2649   11.7301 H   0  0  0  0  0
  2  1  4  0  0  0
  1  5  4  0  0  0
  6  2  4  0  0  0
  6  3  4  0  0  0
  3  7  4  0  0  0
  4  8  4  0  0  0
  9  4  4  0  0  0
  7  5  4  0  0  0
  5 10  4  0  0  0
  8  6  1  0  0  0
  7 26  4  0  0  0
  8 23  4  0  0  0
  9 24  4  0  0  0
 27  9  1  0  0  0
 10 25  4  0  0  0
 10 28  1  0  0  0
 11 23  4  0  0  0
 24 11  4  0  0  0
 11 29  1  0  0  0
 12 30  1  0  0  0
 12 31  2  0  0  0
 32 12  1  0  0  0
 13 16  1  0  0  0
 17 13  1  0  0  0
 16 14  1  0  0  0
 27 14  1  0  0  0
 17 15  1  0  0  0
 15 27  1  0  0  0
 16 18  1  0  0  0
 30 17  1  0  0  0
 22 19  1  0  0  0
 22 20  1  0  0  0
 22 21  1  0  0  0
 22 32  1  0  0  0
 25 26  4  0  0  0
  1 33  1  0  0  0
  2 34  1  0  0  0
  3 35  1  0  0  0
  4 36  1  0  0  0
 13 37  1  0  0  0
 13 38  1  0  0  0
 14 39  1  0  0  0
 14 40  1  0  0  0
 15 41  1  0  0  0
 15 42  1  0  0  0
 16 43  1  0  0  0
 17 44  1  0  0  0
 18 45  1  0  0  0
 18 46  1  0  0  0
 18 47  1  0  0  0
 19 48  1  0  0  0
 19 49  1  0  0  0
 19 50  1  0  0  0
 20 51  1  0  0  0
 20 52  1  0  0  0
 20 53  1  0  0  0
 21 54  1  0  0  0
 21 55  1  0  0  0
 21 56  1  0  0  0
 28 57  1  0  0  0
 28 58  1  0  0  0
 29 59  1  0  0  0
 29 60  1  0  0  0
 30 61  1  0  0  0
M  END
$$$$
