3su6_ligand
  -I-interpret- 

108113  0  0  0  0  0  0  0  0999 V2000
  -13.1670   -8.2360   14.1050 C   0  0  0  0  0
  -15.0370   -9.7380   13.5600 N   0  0  0  0  0
  -13.3300   -7.4750   13.1520 O   0  0  0  0  0
  -13.6390   -9.7030   14.0420 C   0  0  0  0  0
  -12.8810  -10.5150   13.0170 C   0  0  0  0  0
  -13.9050  -11.5560   12.5820 C   0  0  0  0  0
  -16.0220   -9.0110   14.1010 C   0  0  0  0  0
  -15.7780   -8.2560   15.0510 O   0  0  0  0  0
  -17.4090   -9.0830   13.5160 C   0  0  0  0  0
  -18.3520   -9.3380   14.6020 N   0  0  0  0  0
  -18.9620  -10.5050   14.7420 C   0  0  0  0  0
  -19.7660  -10.5530   15.8190 O   0  0  0  0  0
  -17.7850   -7.7940   12.7300 C   0  0  0  0  0
  -18.8460  -11.4490   13.9560 O   0  0  0  0  0
  -13.2810  -13.5920   13.6730 C   0  0  0  0  0
  -12.4010  -13.7490   12.8300 O   0  0  0  0  0
  -13.4530  -14.4660   14.6440 N   0  0  0  0  0
  -13.6390   -4.1830   15.5280 C   0  0  0  0  0
  -14.0700   -3.9800   14.0860 C   0  0  0  0  0
  -19.1540   -8.0200   12.0660 C   0  0  0  0  0
  -12.5760   -7.8850   15.2410 N   0  0  0  0  0
  -12.2780   -6.5050   15.5610 C   0  0  0  0  0
  -11.0370   -5.8800   14.9480 C   0  0  0  0  0
  -13.5550   -5.6760   15.8630 C   0  0  0  0  0
  -12.6100   -6.0870   16.9800 C   0  0  0  0  0
  -12.7530  -15.7370   14.9020 C   0  0  0  0  0
  -13.3740  -16.3040   16.1690 C   0  0  0  0  0
  -14.3540  -15.4340   16.6200 C   0  0  0  0  0
  -14.4700  -14.2330   15.6840 C   0  0  0  0  0
  -13.1160  -17.4750   16.8810 C   0  0  0  0  0
  -13.8390  -17.7470   18.0370 C   0  0  0  0  0
  -14.8170  -16.8640   18.4820 C   0  0  0  0  0
  -15.0890  -15.6930   17.7730 C   0  0  0  0  0
  -16.1640  -14.7590   18.3250 C   0  0  0  0  0
  -10.2690   -6.6940   14.2140 N   0  0  0  0  0
  -10.7760   -4.7070   15.2180 O   0  0  0  0  0
   -8.9790   -5.9850   13.5920 S   0  0  0  0  0
   -8.2210   -7.2790   12.6340 C   0  0  0  0  0
   -9.3660   -4.9470   12.6480 O   0  0  0  0  0
   -8.0190   -5.5150   14.5760 O   0  0  0  0  0
   -6.8040   -6.9940   12.1820 C   0  0  0  0  0
   -7.0620   -8.0220   13.2870 C   0  0  0  0  0
  -17.5460  -15.0480   17.7650 C   0  0  0  0  0
  -18.5210  -13.9560   18.2230 C   0  0  0  0  0
  -18.9900  -13.1330   17.0240 C   0  0  0  0  0
  -20.3290  -12.4280   17.2550 C   0  0  0  0  0
  -20.6290  -11.6860   15.9650 C   0  0  0  0  0
  -21.4510  -13.4460   17.4810 C   0  0  0  0  0
  -20.2540  -11.4410   18.4320 C   0  0  0  0  0
  -17.8560   -6.5380   13.5990 C   0  0  0  0  0
  -16.7360   -7.5650   11.6480 C   0  0  0  0  0
  -15.2010  -10.7410   12.4810 C   0  0  0  0  0
  -14.1000  -12.5160   13.6520 O   0  0  0  0  0
  -13.4959  -10.1088   15.0435 H   0  0  0  0  0
  -11.9703  -10.9593   13.4186 H   0  0  0  0  0
  -12.5125   -9.9115   12.1875 H   0  0  0  0  0
  -13.6133  -12.0811   11.6725 H   0  0  0  0  0
  -17.4473   -9.8956   12.7905 H   0  0  0  0  0
  -18.5465   -8.5947   15.2728 H   0  0  0  0  0
  -14.3729   -3.7153   16.1843 H   0  0  0  0  0
  -12.6555   -3.7345   15.6684 H   0  0  0  0  0
  -13.3451   -4.4505   13.4218 H   0  0  0  0  0
  -15.0504   -4.4315   13.9342 H   0  0  0  0  0
  -14.1228   -2.9128   13.8707 H   0  0  0  0  0
  -19.0908   -8.8696   11.3861 H   0  0  0  0  0
  -19.9001   -8.2226   12.8344 H   0  0  0  0  0
  -19.4378   -7.1273   11.5086 H   0  0  0  0  0
  -12.3236   -8.6119   15.9105 H   0  0  0  0  0
  -14.6095   -5.8048   15.6188 H   0  0  0  0  0
  -12.1014   -5.6130   17.8195 H   0  0  0  0  0
  -12.6795   -6.5553   17.9618 H   0  0  0  0  0
  -11.6809  -15.5813   15.0219 H   0  0  0  0  0
  -12.8623  -16.4263   14.0647 H   0  0  0  0  0
  -15.4704  -14.1442   15.2603 H   0  0  0  0  0
  -14.3049  -13.2922   16.2091 H   0  0  0  0  0
  -12.3532  -18.1719   16.5338 H   0  0  0  0  0
  -13.6378  -18.6592   18.5987 H   0  0  0  0  0
  -15.3751  -17.0881   19.3911 H   0  0  0  0  0
  -15.8970  -13.7410   18.0412 H   0  0  0  0  0
  -16.2065  -14.9030   19.4046 H   0  0  0  0  0
  -10.4876   -7.6791   14.0649 H   0  0  0  0  0
   -9.1455   -7.5903   12.1476 H   0  0  0  0  0
   -6.1616   -6.1321   12.0015 H   0  0  0  0  0
   -6.2429   -6.9189   11.2506 H   0  0  0  0  0
   -6.7796   -9.0435   13.5418 H   0  0  0  0  0
   -6.6990   -8.2639   14.2859 H   0  0  0  0  0
  -17.8895  -16.0172   18.1267 H   0  0  0  0  0
  -17.5014  -15.0622   16.6760 H   0  0  0  0  0
  -18.0154  -13.2996   18.9312 H   0  0  0  0  0
  -19.3849  -14.4235   18.6955 H   0  0  0  0  0
  -19.1203  -13.8184   16.1865 H   0  0  0  0  0
  -18.2408  -12.3626   16.8417 H   0  0  0  0  0
  -20.4680  -12.3615   15.1249 H   0  0  0  0  0
  -21.6624  -11.3403   15.9901 H   0  0  0  0  0
  -21.5391  -14.0882   16.6047 H   0  0  0  0  0
  -21.2184  -14.0529   18.3560 H   0  0  0  0  0
  -22.3912  -12.9187   17.6425 H   0  0  0  0  0
  -19.9876  -11.9808   19.3407 H   0  0  0  0  0
  -19.4979  -10.6844   18.2224 H   0  0  0  0  0
  -21.2236  -10.9608   18.5642 H   0  0  0  0  0
  -18.6101   -6.6760   14.3739 H   0  0  0  0  0
  -16.8850   -6.3629   14.0622 H   0  0  0  0  0
  -18.1234   -5.6829   12.9782 H   0  0  0  0  0
  -15.7569   -7.4465   12.1122 H   0  0  0  0  0
  -16.7185   -8.4212   10.9737 H   0  0  0  0  0
  -16.9851   -6.6642   11.0871 H   0  0  0  0  0
  -15.3458  -10.2907   11.4990 H   0  0  0  0  0
  -16.0975  -11.3499   12.5978 H   0  0  0  0  0
  1  3  2  0  0  0
  1  4  1  0  0  0
 21  1  1  0  0  0
  4  2  1  0  0  0
  2  7  1  0  0  0
  2 52  1  0  0  0
  4  5  1  0  0  0
  5  6  1  0  0  0
  6 52  1  0  0  0
  6 53  1  0  0  0
  7  8  2  0  0  0
  7  9  1  0  0  0
  9 10  1  0  0  0
  9 13  1  0  0  0
 10 11  1  0  0  0
 11 12  1  0  0  0
 11 14  2  0  0  0
 12 47  1  0  0  0
 13 20  1  0  0  0
 13 50  1  0  0  0
 13 51  1  0  0  0
 15 16  2  0  0  0
 15 17  1  0  0  0
 53 15  1  0  0  0
 17 26  1  0  0  0
 17 29  1  0  0  0
 18 19  1  0  0  0
 24 18  1  0  0  0
 22 21  1  0  0  0
 22 23  1  0  0  0
 22 24  1  0  0  0
 22 25  1  0  0  0
 23 35  1  0  0  0
 23 36  2  0  0  0
 24 25  1  0  0  0
 26 27  1  0  0  0
 27 28  4  0  0  0
 27 30  4  0  0  0
 28 29  1  0  0  0
 28 33  4  0  0  0
 30 31  4  0  0  0
 31 32  4  0  0  0
 32 33  4  0  0  0
 33 34  1  0  0  0
 34 43  1  0  0  0
 35 37  1  0  0  0
 37 38  1  0  0  0
 37 39  2  0  0  0
 37 40  2  0  0  0
 38 41  1  0  0  0
 38 42  1  0  0  0
 41 42  1  0  0  0
 43 44  1  0  0  0
 44 45  1  0  0  0
 45 46  1  0  0  0
 46 47  1  0  0  0
 46 48  1  0  0  0
 46 49  1  0  0  0
  4 54  1  0  0  0
  5 55  1  0  0  0
  5 56  1  0  0  0
  6 57  1  0  0  0
  9 58  1  0  0  0
 10 59  1  0  0  0
 18 60  1  0  0  0
 18 61  1  0  0  0
 19 62  1  0  0  0
 19 63  1  0  0  0
 19 64  1  0  0  0
 20 65  1  0  0  0
 20 66  1  0  0  0
 20 67  1  0  0  0
 21 68  1  0  0  0
 24 69  1  0  0  0
 25 70  1  0  0  0
 25 71  1  0  0  0
 26 72  1  0  0  0
 26 73  1  0  0  0
 29 74  1  0  0  0
 29 75  1  0  0  0
 30 76  1  0  0  0
 31 77  1  0  0  0
 32 78  1  0  0  0
 34 79  1  0  0  0
 34 80  1  0  0  0
 35 81  1  0  0  0
 38 82  1  0  0  0
 41 83  1  0  0  0
 41 84  1  0  0  0
 42 85  1  0  0  0
 42 86  1  0  0  0
 43 87  1  0  0  0
 43 88  1  0  0  0
 44 89  1  0  0  0
 44 90  1  0  0  0
 45 91  1  0  0  0
 45 92  1  0  0  0
 47 93  1  0  0  0
 47 94  1  0  0  0
 48 95  1  0  0  0
 48 96  1  0  0  0
 48 97  1  0  0  0
 49 98  1  0  0  0
 49 99  1  0  0  0
 49100  1  0  0  0
 50101  1  0  0  0
 50102  1  0  0  0
 50103  1  0  0  0
 51104  1  0  0  0
 51105  1  0  0  0
 51106  1  0  0  0
 52107  1  0  0  0
 52108  1  0  0  0
M  END
$$$$
