4qsv_ligand
  -I-interpret- 

 31 32  0  0  0  0  0  0  0  0999 V2000
   25.7640   48.8600   -9.1310 O   0  0  0  0  0
   27.0050   49.2140   -8.5070 C   0  0  0  0  0
   28.1450   48.6300   -9.3280 C   0  0  0  0  0
   28.0660   47.2030   -9.2470 O   0  0  0  0  0
   28.0740   49.0220  -10.8100 C   0  0  0  0  0
   29.1850   49.8360  -11.2330 O   0  0  0  0  0
   28.0600   47.7220  -11.5820 C   0  0  0  0  0
   28.1230   46.6090  -10.5500 C   0  0  0  0  0
   27.0140   45.6890  -10.8580 N   0  0  0  0  0
   27.2130   44.7310  -11.8990 C   0  0  0  0  0
   28.2890   44.6090  -12.5360 O   0  0  0  0  0
   26.2440   43.8870  -12.2400 N   0  0  0  0  0
   25.0590   43.9000  -11.6290 C   0  0  0  0  0
   24.2670   43.0530  -12.0160 O   0  0  0  0  0
   24.7840   44.8690  -10.5390 C   0  0  0  0  0
   23.4590   44.9280   -9.8100 C   0  0  0  0  0
   25.8220   45.7590  -10.2090 C   0  0  0  0  0
   25.0359   49.2233   -8.6216 H   0  0  0  0  0
   27.0369   48.8168   -7.4924 H   0  0  0  0  0
   27.1001   50.2988   -8.4589 H   0  0  0  0  0
   29.0779   49.0221   -8.9228 H   0  0  0  0  0
   27.1851   49.6273  -10.9877 H   0  0  0  0  0
   29.1849   50.6582  -10.7374 H   0  0  0  0  0
   28.9043   47.6663  -12.2691 H   0  0  0  0  0
   27.1604   47.6392  -12.1919 H   0  0  0  0  0
   29.0463   46.0302  -10.5731 H   0  0  0  0  0
   26.4112   43.2131  -12.9872 H   0  0  0  0  0
   23.6225   44.7518   -8.7468 H   0  0  0  0  0
   23.0112   45.9116   -9.9519 H   0  0  0  0  0
   22.7924   44.1630  -10.2081 H   0  0  0  0  0
   25.6699   46.5068   -9.4307 H   0  0  0  0  0
  1  2  1  0  0  0
  2  3  1  0  0  0
  3  4  1  0  0  0
  3  5  1  0  0  0
  4  8  1  0  0  0
  5  6  1  0  0  0
  5  7  1  0  0  0
  7  8  1  0  0  0
  8  9  1  0  0  0
  9 10  1  0  0  0
  9 17  1  0  0  0
 10 11  2  0  0  0
 10 12  1  0  0  0
 12 13  1  0  0  0
 13 14  2  0  0  0
 13 15  1  0  0  0
 15 16  1  0  0  0
 15 17  2  0  0  0
  1 18  1  0  0  0
  2 19  1  0  0  0
  2 20  1  0  0  0
  3 21  1  0  0  0
  5 22  1  0  0  0
  6 23  1  0  0  0
  7 24  1  0  0  0
  7 25  1  0  0  0
  8 26  1  0  0  0
 12 27  1  0  0  0
 16 28  1  0  0  0
 16 29  1  0  0  0
 16 30  1  0  0  0
 17 31  1  0  0  0
M  END
$$$$
