5v7i_ligand
  -I-interpret- 

 54 57  0  0  0  0  0  0  0  0999 V2000
  -42.7200   67.1280    5.0410 N   0  0  0  0  0
  -41.5690   66.9230    4.8070 C   0  0  0  0  0
  -40.0620   66.6560    4.4870 C   0  0  0  0  0
  -39.7750   65.6860    3.5100 C   0  0  0  0  0
  -40.7740   65.0360    2.8980 N   0  0  0  0  0
  -38.4790   65.3970    3.2160 O   0  0  0  0  0
  -37.4710   66.2310    3.6060 C   0  0  0  0  0
  -36.2090   66.2630    3.1860 N   0  0  0  0  0
  -35.5800   67.2210    3.8370 N   0  0  0  0  0
  -36.4690   67.7580    4.6570 C   0  0  0  0  0
  -36.0280   68.9070    5.5460 C   0  0  0  0  0
  -37.6950   67.1820    4.5460 C   0  0  0  0  0
  -39.0120   67.3620    5.1970 C   0  0  0  0  0
  -38.9190   66.6540    6.6240 C   0  0  0  0  0
  -38.2860   65.2350    6.6070 C   0  0  0  0  0
  -38.2100   67.4950    7.7160 C   0  0  0  0  0
  -39.4630   68.7790    5.2790 C   0  0  0  0  0
  -39.0520   69.7870    4.3670 C   0  0  0  0  0
  -40.3830   69.2050    6.2790 C   0  0  0  0  0
  -40.8460   70.5280    6.4000 C   0  0  0  0  0
  -41.7700   70.8890    7.4250 C   0  0  0  0  0
  -41.6530   72.2240    7.7710 F   0  0  0  0  0
  -41.5730   70.1320    8.5820 F   0  0  0  0  0
  -43.0440   70.6700    6.9710 F   0  0  0  0  0
  -40.3950   71.4780    5.4780 C   0  0  0  0  0
  -39.4960   71.1200    4.4680 C   0  0  0  0  0
  -39.0720   72.0550    3.5990 N   0  0  0  0  0
  -37.6750   72.2360    3.0900 C   0  0  0  0  0
  -37.5990   73.6540    2.5350 C   0  0  0  0  0
  -38.9310   74.2910    2.8690 C   0  0  0  0  0
  -39.8820   73.1140    2.9260 C   0  0  0  0  0
  -41.7425   65.2447    3.1407 H   0  0  0  0  0
  -40.5661   64.3324    2.1894 H   0  0  0  0  0
  -35.2158   68.5738    6.1921 H   0  0  0  0  0
  -35.6839   69.7340    4.9248 H   0  0  0  0  0
  -36.8688   69.2353    6.1571 H   0  0  0  0  0
  -39.9727   66.5585    6.8862 H   0  0  0  0  0
  -38.8805   64.5810    5.9691 H   0  0  0  0  0
  -37.2692   65.2968    6.2192 H   0  0  0  0  0
  -38.2659   64.8354    7.6209 H   0  0  0  0  0
  -37.1886   67.7095    7.4015 H   0  0  0  0  0
  -38.7509   68.4302    7.8609 H   0  0  0  0  0
  -38.1936   66.9347    8.6508 H   0  0  0  0  0
  -38.3690   69.5198    3.5606 H   0  0  0  0  0
  -40.7489   68.4647    6.9904 H   0  0  0  0  0
  -40.7474   72.5071    5.5471 H   0  0  0  0  0
  -37.4414   71.5014    2.3193 H   0  0  0  0  0
  -36.9463   72.0885    3.8871 H   0  0  0  0  0
  -37.4150   73.6531    1.4607 H   0  0  0  0  0
  -36.7696   74.2100    2.9721 H   0  0  0  0  0
  -39.2332   75.0368    2.1338 H   0  0  0  0  0
  -38.9033   74.8511    3.8037 H   0  0  0  0  0
  -40.8036   73.3429    3.4611 H   0  0  0  0  0
  -40.2361   72.8108    1.9407 H   0  0  0  0  0
  1  2  3  0  0  0
  2  3  1  0  0  0
  3  4  2  0  0  0
  3 13  1  0  0  0
  4  5  1  0  0  0
  4  6  1  0  0  0
  6  7  1  0  0  0
  7  8  4  0  0  0
  7 12  4  0  0  0
  8  9  4  0  0  0
  9 10  4  0  0  0
 10 11  1  0  0  0
 10 12  4  0  0  0
 12 13  1  0  0  0
 13 14  1  0  0  0
 13 17  1  0  0  0
 14 15  1  0  0  0
 14 16  1  0  0  0
 17 18  4  0  0  0
 17 19  4  0  0  0
 18 26  4  0  0  0
 19 20  4  0  0  0
 20 21  1  0  0  0
 20 25  4  0  0  0
 21 22  1  0  0  0
 21 23  1  0  0  0
 21 24  1  0  0  0
 25 26  4  0  0  0
 26 27  1  0  0  0
 27 28  1  0  0  0
 27 31  1  0  0  0
 28 29  1  0  0  0
 29 30  1  0  0  0
 30 31  1  0  0  0
  5 32  1  0  0  0
  5 33  1  0  0  0
 11 34  1  0  0  0
 11 35  1  0  0  0
 11 36  1  0  0  0
 14 37  1  0  0  0
 15 38  1  0  0  0
 15 39  1  0  0  0
 15 40  1  0  0  0
 16 41  1  0  0  0
 16 42  1  0  0  0
 16 43  1  0  0  0
 18 44  1  0  0  0
 19 45  1  0  0  0
 25 46  1  0  0  0
 28 47  1  0  0  0
 28 48  1  0  0  0
 29 49  1  0  0  0
 29 50  1  0  0  0
 30 51  1  0  0  0
 30 52  1  0  0  0
 31 53  1  0  0  0
 31 54  1  0  0  0
M  END
$$$$
