6eiq_ligand
  -I-interpret- 

 56 59  0  0  0  0  0  0  0  0999 V2000
   -0.2610  -32.9370   -7.2130 C   0  0  0  0  0
   -1.0260  -34.0210   -7.8310 C   0  0  0  0  0
   -2.3230  -33.4320   -8.3010 N   0  3  0  0  0
   -3.4050  -33.5670   -7.2960 C   0  0  0  0  0
   -2.3050  -32.0290   -8.7840 C   0  0  0  0  0
   -0.8940  -31.6440   -9.2930 C   0  0  0  0  0
    0.1580  -32.0860   -8.3530 N   0  0  0  0  0
    1.4570  -31.7720   -8.5400 C   0  0  0  0  0
    2.3720  -32.7980   -8.7820 C   0  0  0  0  0
    3.7270  -32.5110   -8.9540 C   0  0  0  0  0
    4.6570  -33.4900   -9.2020 O   0  0  0  0  0
    4.7240  -34.6020   -8.2850 C   0  0  0  0  0
    1.9110  -30.4450   -8.4800 C   0  0  0  0  0
    3.2700  -30.1510   -8.6620 C   0  0  0  0  0
    4.1850  -31.1840   -8.9200 C   0  0  0  0  0
    5.5140  -31.0230   -9.0880 N   0  0  0  0  0
    6.0640  -30.0390   -9.8170 C   0  0  0  0  0
    5.4380  -29.1370  -11.0730 S   0  0  0  0  0
    7.3240  -29.6470   -9.5970 N   0  0  0  0  0
    7.7650  -28.6570  -10.3970 C   0  0  0  0  0
    9.0150  -28.2200  -10.2250 N   0  0  0  0  0
    6.8590  -28.2260  -11.2950 C   0  0  0  0  0
    7.1170  -27.2490  -12.1910 C   0  0  0  0  0
    8.2730  -26.8600  -12.3610 O   0  0  0  0  0
    6.0980  -26.6480  -12.9370 C   0  0  0  0  0
    4.9910  -26.0440  -12.3380 C   0  0  0  0  0
    4.0100  -25.4310  -13.1200 C   0  0  0  0  0
    4.1390  -25.3960  -14.5070 C   0  0  0  0  0
    5.2540  -25.9770  -15.1100 C   0  0  0  0  0
    6.2310  -26.5980  -14.3280 C   0  0  0  0  0
    0.5913  -33.3093   -6.6445 H   0  0  0  0  0
   -0.8515  -32.3829   -6.4833 H   0  0  0  0  0
   -1.2044  -34.8232   -7.1150 H   0  0  0  0  0
   -0.4748  -34.4540   -8.6657 H   0  0  0  0  0
   -2.5053  -34.0041   -9.1256 H   0  0  0  0  0
   -3.2139  -32.8882   -6.4648 H   0  0  0  0  0
   -4.3608  -33.3185   -7.7574 H   0  0  0  0  0
   -3.4329  -34.5932   -6.9297 H   0  0  0  0  0
   -2.5747  -31.3688   -7.9597 H   0  0  0  0  0
   -3.0152  -31.9296   -9.6049 H   0  0  0  0  0
   -0.8431  -30.5590   -9.3841 H   0  0  0  0  0
   -0.7274  -32.1321  -10.2532 H   0  0  0  0  0
    2.0260  -33.8302   -8.8370 H   0  0  0  0  0
    4.9560  -34.2337   -7.2857 H   0  0  0  0  0
    3.7636  -35.1172   -8.2699 H   0  0  0  0  0
    5.5029  -35.2922   -8.6092 H   0  0  0  0  0
    1.2029  -29.6382   -8.2908 H   0  0  0  0  0
    3.6163  -29.1192   -8.6031 H   0  0  0  0  0
    6.1386  -31.6892   -8.6336 H   0  0  0  0  0
    9.6056  -28.6347   -9.5041 H   0  0  0  0  0
    9.3793  -27.4715  -10.8145 H   0  0  0  0  0
    4.8918  -26.0510  -11.2525 H   0  0  0  0  0
    3.1403  -24.9783  -12.6438 H   0  0  0  0  0
    3.3729  -24.9173  -15.1170 H   0  0  0  0  0
    5.3636  -25.9466  -16.1941 H   0  0  0  0  0
    7.1024  -27.0463  -14.8052 H   0  0  0  0  0
  1  2  1  0  0  0
  1  7  1  0  0  0
  2  3  1  0  0  0
  3  4  1  0  0  0
  3  5  1  0  0  0
  5  6  1  0  0  0
  6  7  1  0  0  0
  7  8  1  0  0  0
  8  9  4  0  0  0
  8 13  4  0  0  0
  9 10  4  0  0  0
 10 11  1  0  0  0
 10 15  4  0  0  0
 11 12  1  0  0  0
 13 14  4  0  0  0
 14 15  4  0  0  0
 15 16  1  0  0  0
 16 17  1  0  0  0
 17 18  4  0  0  0
 17 19  4  0  0  0
 18 22  4  0  0  0
 19 20  4  0  0  0
 20 21  1  0  0  0
 20 22  4  0  0  0
 22 23  1  0  0  0
 23 24  2  0  0  0
 23 25  1  0  0  0
 25 26  4  0  0  0
 25 30  4  0  0  0
 26 27  4  0  0  0
 27 28  4  0  0  0
 28 29  4  0  0  0
 29 30  4  0  0  0
  1 31  1  0  0  0
  1 32  1  0  0  0
  2 33  1  0  0  0
  2 34  1  0  0  0
  3 35  1  0  0  0
  4 36  1  0  0  0
  4 37  1  0  0  0
  4 38  1  0  0  0
  5 39  1  0  0  0
  5 40  1  0  0  0
  6 41  1  0  0  0
  6 42  1  0  0  0
  9 43  1  0  0  0
 12 44  1  0  0  0
 12 45  1  0  0  0
 12 46  1  0  0  0
 13 47  1  0  0  0
 14 48  1  0  0  0
 16 49  1  0  0  0
 21 50  1  0  0  0
 21 51  1  0  0  0
 26 52  1  0  0  0
 27 53  1  0  0  0
 28 54  1  0  0  0
 29 55  1  0  0  0
 30 56  1  0  0  0
M  END
$$$$
