5flt_ligand
  -I-interpret- 

 26 27  0  0  0  0  0  0  0  0999 V2000
   -3.5490    2.0350   15.9330 O   0  0  0  0  0
   -5.7800    2.2340   15.6930 O   0  0  0  0  0
   -0.5090    9.9360   13.9620 C   0  0  0  0  0
   -1.4960    9.5290   14.8020 C   0  0  0  0  0
    0.0220    9.0720   13.0260 C   0  0  0  0  0
   -5.4590    5.7880   13.6540 C   0  0  0  0  0
   -1.9930    8.2530   14.7300 C   0  0  0  0  0
   -0.4780    7.7900   12.9320 C   0  0  0  0  0
   -4.2230    6.3270   13.4230 C   0  0  0  0  0
   -5.5900    4.5680   14.2960 C   0  0  0  0  0
   -3.2480    4.4410   14.5600 C   0  0  0  0  0
   -1.8850    6.0940   13.6830 O   0  0  0  0  0
   -4.6000    2.5870   15.4630 C   0  0  0  0  0
   -1.4880    7.4130   13.7880 C   0  0  0  0  0
   -3.1450    5.6320   13.8900 C   0  0  0  0  0
   -4.4850    3.9000   14.7720 C   0  0  0  0  0
   -2.7731    2.4949   15.6043 H   0  0  0  0  0
   -0.1321   10.9566   14.0280 H   0  0  0  0  0
   -1.8968   10.2234   15.5404 H   0  0  0  0  0
    0.8274    9.3990   12.3684 H   0  0  0  0  0
   -6.3504    6.3247   13.3292 H   0  0  0  0  0
   -2.7750    7.9199   15.4124 H   0  0  0  0  0
   -0.0820    7.0905   12.1958 H   0  0  0  0  0
   -4.1043    7.2700   12.8895 H   0  0  0  0  0
   -6.5803    4.1315   14.4259 H   0  0  0  0  0
   -2.3541    3.9313   14.9195 H   0  0  0  0  0
 13  1  1  0  0  0
 13  2  2  0  0  0
  4  3  4  0  0  0
  5  3  4  0  0  0
  7  4  4  0  0  0
  8  5  4  0  0  0
  6  9  4  0  0  0
 10  6  4  0  0  0
 14  7  4  0  0  0
 14  8  4  0  0  0
 15  9  4  0  0  0
 16 10  4  0  0  0
 11 15  4  0  0  0
 16 11  4  0  0  0
 12 14  1  0  0  0
 15 12  1  0  0  0
 13 16  1  0  0  0
  1 17  1  0  0  0
  3 18  1  0  0  0
  4 19  1  0  0  0
  5 20  1  0  0  0
  6 21  1  0  0  0
  7 22  1  0  0  0
  8 23  1  0  0  0
  9 24  1  0  0  0
 10 25  1  0  0  0
 11 26  1  0  0  0
M  END
$$$$
