1bai_ligand
  -I-interpret- 

128128  0  0  0  0  0  0  0  0999 V2000
    9.0110   16.0520   33.5660 N   0  3  0  0  0
    7.7380   15.7040   34.2690 C   0  0  0  0  0
    6.5830   16.5830   33.6910 C   0  0  0  0  0
    6.7320   17.8130   33.5640 O   0  0  0  0  0
    7.9330   15.8910   35.7790 C   0  0  0  0  0
    6.7740   15.3950   36.7100 C   0  0  0  0  0
    6.9490   13.9610   37.3230 C   0  0  0  0  0
    7.4490   13.9370   38.7040 N   0  0  0  0  0
    6.7710   14.3790   39.7660 C   0  0  0  0  0
    5.5520   14.8650   39.6020 N   0  0  0  0  0
    7.3540   14.4510   40.9720 N   0  0  0  0  0
    5.4770   15.9390   33.2840 N   0  0  0  0  0
    4.3340   16.6170   32.6700 C   0  0  0  0  0
    2.9980   16.2560   33.3700 C   0  0  0  0  0
    2.3670   15.2410   33.1030 O   0  0  0  0  0
    4.3300   16.3670   31.0750 C   0  0  0  0  0
    3.0980   16.9810   30.4060 C   0  0  0  0  0
    5.5790   16.9930   30.4220 C   0  0  0  0  0
    2.5100   17.1660   34.1940 N   0  0  0  0  0
    1.3020   16.9140   34.9570 C   0  0  0  0  0
   -0.0030   17.4050   34.3440 C   0  0  0  0  0
   -0.8950   17.8800   35.0450 O   0  0  0  0  0
    1.4900   17.4170   36.4090 C   0  0  0  0  0
    2.8590   17.0690   37.0590 C   0  0  0  0  0
    3.0070   17.6220   38.4760 C   0  0  0  0  0
    3.0600   15.5650   37.0710 C   0  0  0  0  0
   -0.1410   17.1960   33.0470 N   0  0  0  0  0
   -1.3440   17.5610   32.2900 C   0  0  0  0  0
   -2.4520   16.5880   32.7810 C   0  0  0  0  0
   -2.2050   15.3880   32.9240 O   0  0  0  0  0
   -0.9770   17.4800   30.7780 C   0  0  0  0  0
   -2.1030   17.1740   29.8710 C   0  0  0  0  0
   -2.5970   15.8810   29.7660 C   0  0  0  0  0
   -2.7080   18.1840   29.1300 C   0  0  0  0  0
   -3.7030   15.5880   28.9350 C   0  0  0  0  0
   -3.8230   17.9050   28.2830 C   0  0  0  0  0
   -4.3160   16.6040   28.1940 C   0  0  0  0  0
   -3.6150   17.1340   33.1380 N   0  0  0  0  0
   -4.7260   16.3560   33.6930 C   0  0  0  0  0
   -6.1110   16.6730   33.1200 C   0  0  0  0  0
   -6.5340   17.8280   33.0350 O   0  0  0  0  0
   -4.7490   16.5280   35.2380 C   0  0  0  0  0
   -5.7820   15.7320   36.0120 C   0  0  0  0  0
   -7.1330   16.4530   36.1330 C   0  0  0  0  0
   -7.1410   17.6570   36.4500 O   0  0  0  0  0
   -8.2040   15.8290   35.9100 O   0  0  0  0  0
   -6.8780   15.6240   32.8750 N   0  0  0  0  0
   -8.2070   15.7870   32.3260 C   0  0  0  0  0
   -9.2930   14.8000   32.8230 C   0  0  0  0  0
   -9.0260   13.6350   33.1250 O   0  0  0  0  0
   -8.1140   15.7090   30.8140 C   0  0  0  0  0
  -10.5260   15.2950   32.8400 N   0  0  0  0  0
  -11.7100   14.5220   33.1910 C   0  0  0  0  0
  -11.7480   13.3340   32.2150 C   0  0  0  0  0
  -11.8750   12.1520   32.6500 O   0  0  0  0  0
  -12.9640   15.4120   32.9920 C   0  0  0  0  0
  -14.3140   14.6970   32.6330 C   0  0  0  0  0
  -14.5790   14.5300   31.0850 C   0  0  0  0  0
  -15.6820   13.5240   30.8280 C   0  0  0  0  0
  -11.6130   13.6100   30.9970 N   0  0  0  0  0
    8.8874   15.9295   32.5610 H   0  0  0  0  0
    9.2530   17.0229   33.7642 H   0  0  0  0  0
    9.7579   15.4402   33.8950 H   0  0  0  0  0
    7.4661   14.6613   34.1050 H   0  0  0  0  0
    8.0055   16.9666   35.9397 H   0  0  0  0  0
    8.8052   15.2932   36.0437 H   0  0  0  0  0
    5.8789   15.3552   36.0893 H   0  0  0  0  0
    6.7415   16.0859   37.5525 H   0  0  0  0  0
    7.6873   13.4434   36.7105 H   0  0  0  0  0
    5.9612   13.5004   37.3365 H   0  0  0  0  0
    8.3813   13.5552   38.8632 H   0  0  0  0  0
    5.1379   14.8997   38.6705 H   0  0  0  0  0
    6.8574   14.8781   41.7539 H   0  0  0  0  0
    8.2939   14.0786   41.1071 H   0  0  0  0  0
    5.4311   14.9277   33.4088 H   0  0  0  0  0
    4.4391   17.6918   32.8180 H   0  0  0  0  0
    4.3217   15.2865   30.9319 H   0  0  0  0  0
    2.1972   16.5329   30.8253 H   0  0  0  0  0
    3.0873   18.0563   30.5843 H   0  0  0  0  0
    3.1352   16.7896   29.3336 H   0  0  0  0  0
    5.5868   18.0665   30.6109 H   0  0  0  0  0
    6.4750   16.5413   30.8478 H   0  0  0  0  0
    5.5549   16.8121   29.3474 H   0  0  0  0  0
    2.9902   18.0602   34.2954 H   0  0  0  0  0
    1.1738   15.8316   34.9444 H   0  0  0  0  0
    0.7245   16.9274   37.0111 H   0  0  0  0  0
    1.4282   18.5047   36.3736 H   0  0  0  0  0
    3.6262   17.5468   36.4497 H   0  0  0  0  0
    2.9185   18.7081   38.4518 H   0  0  0  0  0
    2.2241   17.2064   39.1104 H   0  0  0  0  0
    3.9835   17.3444   38.8728 H   0  0  0  0  0
    2.2603   15.0974   37.6454 H   0  0  0  0  0
    3.0420   15.1891   36.0480 H   0  0  0  0  0
    4.0216   15.3319   37.5282 H   0  0  0  0  0
    0.6305   16.7571   32.5444 H   0  0  0  0  0
   -1.7181   18.5735   32.4415 H   0  0  0  0  0
   -0.2613   16.6645   30.6736 H   0  0  0  0  0
   -0.6055   18.4645   30.4936 H   0  0  0  0  0
   -2.1249   15.0788   30.3331 H   0  0  0  0  0
   -2.3255   19.2025   29.1970 H   0  0  0  0  0
   -4.0792   14.5670   28.8716 H   0  0  0  0  0
   -4.2871   18.7063   27.7080 H   0  0  0  0  0
   -5.1697   16.3809   27.5541 H   0  0  0  0  0
   -3.7370   18.1397   33.0193 H   0  0  0  0  0
   -4.5306   15.3245   33.4000 H   0  0  0  0  0
   -4.9917   17.5759   35.4143 H   0  0  0  0  0
   -3.7800   16.1728   35.5886 H   0  0  0  0  0
   -5.3960   15.5811   37.0202 H   0  0  0  0  0
   -5.9518   14.7992   35.4743 H   0  0  0  0  0
   -8.0011   14.9190   35.6812 H   0  0  0  0  0
   -6.5281   14.6872   33.0757 H   0  0  0  0  0
   -8.5451   16.7587   32.6858 H   0  0  0  0  0
   -7.8480   14.6938   30.5195 H   0  0  0  0  0
   -9.0770   15.9747   30.3778 H   0  0  0  0  0
   -7.3504   16.4027   30.4620 H   0  0  0  0  0
  -10.6513   16.2765   32.5921 H   0  0  0  0  0
  -11.6886   14.1797   34.2256 H   0  0  0  0  0
  -12.7362   16.0517   32.1393 H   0  0  0  0  0
  -13.1356   15.8946   33.9541 H   0  0  0  0  0
  -15.1177   15.3185   33.0278 H   0  0  0  0  0
  -14.2651   13.6941   33.0571 H   0  0  0  0  0
  -13.6644   14.1748   30.6101 H   0  0  0  0  0
  -14.8828   15.4938   30.6764 H   0  0  0  0  0
  -15.3933   12.5570   31.2400 H   0  0  0  0  0
  -16.6008   13.8642   31.3057 H   0  0  0  0  0
  -15.8428   13.4295   29.7541 H   0  0  0  0  0
  -11.6019   12.8627   30.3029 H   0  0  0  0  0
  -11.5145   14.5815   30.7021 H   0  0  0  0  0
  3  2  1  0  0  0
  2  5  1  0  0  0
  2  1  1  0  0  0
  5  6  1  0  0  0
  6  7  1  0  0  0
  7  8  1  0  0  0
  8  9  1  0  0  0
  9 10  2  0  0  0
  9 11  1  0  0  0
  3  4  2  0  0  0
 14 13  1  0  0  0
 13 16  1  0  0  0
 13 12  1  0  0  0
 16 17  1  0  0  0
 16 18  1  0  0  0
 14 15  2  0  0  0
 21 20  1  0  0  0
 20 23  1  0  0  0
 20 19  1  0  0  0
 23 24  1  0  0  0
 24 26  1  0  0  0
 24 25  1  0  0  0
 21 22  2  0  0  0
 29 28  1  0  0  0
 28 31  1  0  0  0
 28 27  1  0  0  0
 31 32  1  0  0  0
 32 34  4  0  0  0
 32 33  4  0  0  0
 33 35  4  0  0  0
 35 37  4  0  0  0
 36 37  4  0  0  0
 34 36  4  0  0  0
 29 30  2  0  0  0
 40 39  1  0  0  0
 39 42  1  0  0  0
 39 38  1  0  0  0
 42 43  1  0  0  0
 43 44  1  0  0  0
 44 45  2  0  0  0
 44 46  1  0  0  0
 40 41  2  0  0  0
 49 48  1  0  0  0
 48 51  1  0  0  0
 48 47  1  0  0  0
 49 50  2  0  0  0
 52 53  1  0  0  0
 53 56  1  0  0  0
 53 54  1  0  0  0
 54 55  2  0  0  0
 56 57  1  0  0  0
 57 58  1  0  0  0
 58 59  1  0  0  0
 12  3  1  0  0  0
 19 14  1  0  0  0
 27 21  1  0  0  0
 38 29  1  0  0  0
 47 40  1  0  0  0
 49 52  1  0  0  0
 54 60  1  0  0  0
  1 61  1  0  0  0
  1 62  1  0  0  0
  1 63  1  0  0  0
  2 64  1  0  0  0
  5 65  1  0  0  0
  5 66  1  0  0  0
  6 67  1  0  0  0
  6 68  1  0  0  0
  7 69  1  0  0  0
  7 70  1  0  0  0
  8 71  1  0  0  0
 10 72  1  0  0  0
 11 73  1  0  0  0
 11 74  1  0  0  0
 12 75  1  0  0  0
 13 76  1  0  0  0
 16 77  1  0  0  0
 17 78  1  0  0  0
 17 79  1  0  0  0
 17 80  1  0  0  0
 18 81  1  0  0  0
 18 82  1  0  0  0
 18 83  1  0  0  0
 19 84  1  0  0  0
 20 85  1  0  0  0
 23 86  1  0  0  0
 23 87  1  0  0  0
 24 88  1  0  0  0
 25 89  1  0  0  0
 25 90  1  0  0  0
 25 91  1  0  0  0
 26 92  1  0  0  0
 26 93  1  0  0  0
 26 94  1  0  0  0
 27 95  1  0  0  0
 28 96  1  0  0  0
 31 97  1  0  0  0
 31 98  1  0  0  0
 33 99  1  0  0  0
 34100  1  0  0  0
 35101  1  0  0  0
 36102  1  0  0  0
 37103  1  0  0  0
 38104  1  0  0  0
 39105  1  0  0  0
 42106  1  0  0  0
 42107  1  0  0  0
 43108  1  0  0  0
 43109  1  0  0  0
 46110  1  0  0  0
 47111  1  0  0  0
 48112  1  0  0  0
 51113  1  0  0  0
 51114  1  0  0  0
 51115  1  0  0  0
 52116  1  0  0  0
 53117  1  0  0  0
 56118  1  0  0  0
 56119  1  0  0  0
 57120  1  0  0  0
 57121  1  0  0  0
 58122  1  0  0  0
 58123  1  0  0  0
 59124  1  0  0  0
 59125  1  0  0  0
 59126  1  0  0  0
 60127  1  0  0  0
 60128  1  0  0  0
M  END
$$$$
