3f1a_ligand
  -I-interpret- 

 25 25  0  0  0  0  0  0  0  0999 V2000
   -3.2280   -2.8730   -4.0420 O   0  0  0  0  0
   -2.0720   -2.9710   -4.4410 C   0  0  0  0  0
   -1.6250   -2.2740   -5.4770 N   0  0  0  0  0
   -2.5160   -1.4250   -6.1220 O   0  0  0  0  0
   -1.0770   -3.8840   -3.7680 C   0  0  0  0  0
   -1.5600   -5.2490   -3.7800 N   0  0  0  0  0
   -1.3690   -6.1880   -5.0640 S   0  0  0  0  0
   -0.1670   -5.8050   -5.7600 O   0  0  0  0  0
   -1.3210   -7.5460   -4.6010 O   0  0  0  0  0
   -2.6150   -6.0230   -6.0660 C   0  0  0  0  0
   -2.4580   -5.4100   -7.3150 C   0  0  0  0  0
   -3.8770   -6.5050   -5.7080 C   0  0  0  0  0
   -4.9650   -6.3790   -6.5770 C   0  0  0  0  0
   -4.7910   -5.7730   -7.8210 C   0  0  0  0  0
   -3.5370   -5.2870   -8.1890 C   0  0  0  0  0
   -0.6580   -2.3585   -5.7903 H   0  0  0  0  0
   -2.0681   -0.9845   -6.8479 H   0  0  0  0  0
   -0.9416   -3.5633   -2.7351 H   0  0  0  0  0
   -0.1300   -3.8367   -4.3057 H   0  0  0  0  0
   -2.0311   -5.6200   -2.9549 H   0  0  0  0  0
   -1.4812   -5.0247   -7.6072 H   0  0  0  0  0
   -4.0148   -6.9852   -4.7392 H   0  0  0  0  0
   -5.9458   -6.7531   -6.2833 H   0  0  0  0  0
   -5.6345   -5.6794   -8.5049 H   0  0  0  0  0
   -3.4004   -4.8109   -9.1600 H   0  0  0  0  0
  1  2  2  0  0  0
  2  3  1  0  0  0
  2  5  1  0  0  0
  3  4  1  0  0  0
  5  6  1  0  0  0
  6  7  1  0  0  0
  7  8  2  0  0  0
  7  9  2  0  0  0
  7 10  1  0  0  0
 10 11  4  0  0  0
 10 12  4  0  0  0
 11 15  4  0  0  0
 12 13  4  0  0  0
 13 14  4  0  0  0
 14 15  4  0  0  0
  3 16  1  0  0  0
  4 17  1  0  0  0
  5 18  1  0  0  0
  5 19  1  0  0  0
  6 20  1  0  0  0
 11 21  1  0  0  0
 12 22  1  0  0  0
 13 23  1  0  0  0
 14 24  1  0  0  0
 15 25  1  0  0  0
M  END
$$$$
