3f7g_ligand
  -I-interpret- 

 71 73  0  0  0  0  0  0  0  0999 V2000
   22.5020   49.1180   -7.5500 N   0  3  0  0  0
   22.9340   48.7090   -6.1850 C   0  0  0  0  0
   22.6830   49.8270   -5.1820 C   0  0  0  0  0
   22.2090   47.4320   -5.7710 C   0  0  0  0  0
   21.1600   47.1070   -6.3200 O   0  0  0  0  0
   22.8090   46.6970   -4.8360 N   0  0  0  0  0
   22.2400   45.4670   -4.2880 C   0  0  0  0  0
   22.9910   44.1880   -4.7680 C   0  0  0  0  0
   22.6970   43.8900   -6.2470 C   0  0  0  0  0
   24.5000   44.2980   -4.5140 C   0  0  0  0  0
   22.3200   45.5430   -2.7610 C   0  0  0  0  0
   23.1850   46.2330   -2.2140 O   0  0  0  0  0
   21.4100   44.8440   -2.0660 N   0  0  0  0  0
   21.5160   44.7850   -0.6130 C   0  0  0  0  0
   20.2200   44.0800   -0.1890 C   0  0  0  0  0
   19.7520   43.3520   -1.3840 C   0  0  0  0  0
   20.2510   44.0980   -2.5790 C   0  0  0  0  0
   22.7660   44.0000   -0.1740 C   0  0  0  0  0
   23.2480   43.1520   -0.9280 O   0  0  0  0  0
   24.5710   43.6400    1.3980 C   0  0  0  0  0
   23.3080   44.2800    1.0140 N   0  0  0  0  0
   24.9990   43.9090    2.8350 C   0  0  0  0  0
   26.1380   43.0110    3.1340 C   0  0  0  0  0
   27.4300   43.3270    2.7200 C   0  0  0  0  0
   28.4830   42.4630    3.0170 C   0  0  0  0  0
   28.2440   41.2910    3.7230 C   0  0  0  0  0
   26.9500   40.9750    4.1320 C   0  0  0  0  0
   25.8980   41.8340    3.8370 C   0  0  0  0  0
   25.2990   45.3390    3.1420 C   0  0  0  0  0
   25.5060   46.3050    2.1550 C   0  0  0  0  0
   25.7590   47.6230    2.5080 C   0  0  0  0  0
   25.8080   48.0050    3.8400 C   0  0  0  0  0
   25.5980   47.0470    4.8270 C   0  0  0  0  0
   25.3440   45.7240    4.4810 C   0  0  0  0  0
   22.9912   49.9718   -7.8186 H   0  0  0  0  0
   22.7239   48.3749   -8.2125 H   0  0  0  0  0
   21.4960   49.2865   -7.5507 H   0  0  0  0  0
   24.0058   48.5110   -6.2003 H   0  0  0  0  0
   21.6138   50.0323   -5.1287 H   0  0  0  0  0
   23.0448   49.5208   -4.2005 H   0  0  0  0  0
   23.2113   50.7253   -5.5014 H   0  0  0  0  0
   23.7139   47.0091   -4.4836 H   0  0  0  0  0
   21.2110   45.3883   -4.6387 H   0  0  0  0  0
   22.6178   43.3490   -4.1807 H   0  0  0  0  0
   21.6263   43.7344   -6.3791 H   0  0  0  0  0
   23.0210   44.7329   -6.8575 H   0  0  0  0  0
   23.2360   42.9922   -6.5495 H   0  0  0  0  0
   24.8966   45.1569   -5.0553 H   0  0  0  0  0
   24.6791   44.4254   -3.4464 H   0  0  0  0  0
   24.9926   43.3895   -4.8605 H   0  0  0  0  0
   21.6273   45.7668   -0.1528 H   0  0  0  0  0
   19.4740   44.7948    0.1585 H   0  0  0  0  0
   20.3914   43.4024    0.6474 H   0  0  0  0  0
   18.6637   43.2922   -1.3955 H   0  0  0  0  0
   20.1306   42.3299   -1.3837 H   0  0  0  0  0
   20.5151   43.4346   -3.4026 H   0  0  0  0  0
   19.4918   44.7525   -3.0072 H   0  0  0  0  0
   25.3471   44.0482    0.7506 H   0  0  0  0  0
   24.4271   42.5638    1.3025 H   0  0  0  0  0
   22.8481   44.9328    1.6485 H   0  0  0  0  0
   24.1553   43.6950    3.4911 H   0  0  0  0  0
   27.6170   44.2467    2.1657 H   0  0  0  0  0
   29.4952   42.7075    2.6948 H   0  0  0  0  0
   29.0690   40.6182    3.9572 H   0  0  0  0  0
   26.7627   40.0537    4.6836 H   0  0  0  0  0
   24.8856   41.5861    4.1560 H   0  0  0  0  0
   25.4687   46.0226    1.1029 H   0  0  0  0  0
   25.9212   48.3673    1.7284 H   0  0  0  0  0
   26.0083   49.0418    4.1103 H   0  0  0  0  0
   25.6328   47.3351    5.8777 H   0  0  0  0  0
   25.1789   44.9826    5.2628 H   0  0  0  0  0
  1  2  1  0  0  0
  2  3  1  0  0  0
  2  4  1  0  0  0
  4  5  2  0  0  0
  4  6  1  0  0  0
  6  7  1  0  0  0
  7  8  1  0  0  0
  7 11  1  0  0  0
  8  9  1  0  0  0
  8 10  1  0  0  0
 11 12  2  0  0  0
 11 13  1  0  0  0
 13 14  1  0  0  0
 13 17  1  0  0  0
 14 15  1  0  0  0
 14 18  1  0  0  0
 15 16  1  0  0  0
 16 17  1  0  0  0
 18 19  2  0  0  0
 18 21  1  0  0  0
 21 20  1  0  0  0
 20 22  1  0  0  0
 22 23  1  0  0  0
 22 29  1  0  0  0
 23 24  4  0  0  0
 23 28  4  0  0  0
 24 25  4  0  0  0
 25 26  4  0  0  0
 26 27  4  0  0  0
 27 28  4  0  0  0
 29 30  4  0  0  0
 29 34  4  0  0  0
 30 31  4  0  0  0
 31 32  4  0  0  0
 32 33  4  0  0  0
 33 34  4  0  0  0
  1 35  1  0  0  0
  1 36  1  0  0  0
  1 37  1  0  0  0
  2 38  1  0  0  0
  3 39  1  0  0  0
  3 40  1  0  0  0
  3 41  1  0  0  0
  6 42  1  0  0  0
  7 43  1  0  0  0
  8 44  1  0  0  0
  9 45  1  0  0  0
  9 46  1  0  0  0
  9 47  1  0  0  0
 10 48  1  0  0  0
 10 49  1  0  0  0
 10 50  1  0  0  0
 14 51  1  0  0  0
 15 52  1  0  0  0
 15 53  1  0  0  0
 16 54  1  0  0  0
 16 55  1  0  0  0
 17 56  1  0  0  0
 17 57  1  0  0  0
 20 58  1  0  0  0
 20 59  1  0  0  0
 21 60  1  0  0  0
 22 61  1  0  0  0
 24 62  1  0  0  0
 25 63  1  0  0  0
 26 64  1  0  0  0
 27 65  1  0  0  0
 28 66  1  0  0  0
 30 67  1  0  0  0
 31 68  1  0  0  0
 32 69  1  0  0  0
 33 70  1  0  0  0
 34 71  1  0  0  0
M  END
$$$$
