4cps_ligand
  -I-interpret- 

108111  0  0  0  0  0  0  0  0999 V2000
    7.8720   23.5280    2.8200 C   0  0  0  0  0
    9.1330   23.0550    3.1690 C   0  0  0  0  0
   10.2630   23.8370    2.9470 C   0  0  0  0  0
   11.5230   23.3880    3.3480 C   0  0  0  0  0
   10.1350   25.0450    2.2790 C   0  0  0  0  0
    8.8720   25.5240    1.9470 C   0  0  0  0  0
    7.7380   24.7500    2.1670 C   0  0  0  0  0
    6.4790   25.2650    1.8310 C   0  0  0  0  0
    5.4930   24.8520    2.7320 C   0  0  0  0  0
    5.1690   25.5980    3.8690 C   0  0  0  0  0
    6.0450   26.5420    4.4170 C   0  0  0  0  0
    6.9670   25.8690    5.3620 N   0  0  0  0  0
    8.1590   26.4880    5.7470 C   0  0  0  0  0
    8.3950   27.6030    5.2650 O   0  0  0  0  0
    9.1210   25.7190    6.4490 C   0  0  0  0  0
    9.3800   26.2810    7.8670 C   0  0  0  0  0
   10.6920   25.7250    8.4340 C   0  0  0  0  0
    9.4320   27.8110    7.8620 C   0  0  0  0  0
   10.3750   25.5710    5.6580 N   0  0  0  0  0
   11.0040   24.3280    5.5260 C   0  0  0  0  0
   10.5770   23.3710    6.1860 O   0  0  0  0  0
   12.0320   24.1730    4.5720 C   0  0  0  0  0
   12.4920   25.4640    4.1380 O   0  0  0  0  0
   13.2300   23.4130    5.1570 C   0  0  0  0  0
   13.7190   24.0740    6.4510 C   0  0  0  0  0
   15.1740   23.6720    6.7030 C   0  0  0  0  0
   15.2830   22.2760    7.1350 N   0  3  0  0  0
   15.8670   21.6560    6.2960 N   0  0  0  0  0
   15.2300   20.6410    5.6720 C   0  0  0  0  0
   14.0940   20.2550    5.9690 O   0  0  0  0  0
   16.1730   19.7700    4.8210 C   0  0  0  0  0
   15.4710   19.0860    3.6490 C   0  0  0  0  0
   14.6080   17.9250    4.1600 C   0  0  0  0  0
   16.5220   18.5440    2.6870 C   0  0  0  0  0
   14.5740   20.0780    2.9230 C   0  0  0  0  0
   16.8270   18.7550    5.6590 N   0  0  0  0  0
   18.1550   18.7120    5.7440 C   0  0  0  0  0
   18.8340   19.4630    5.0390 O   0  0  0  0  0
   18.7370   17.7980    6.5700 O   0  0  0  0  0
   20.0130   18.2430    7.0370 C   0  0  0  0  0
   16.0200   22.2590    8.4060 C   0  0  0  0  0
   16.2210   20.9640    8.8820 C   0  0  0  0  0
   17.5140   20.4740    9.0000 C   0  0  0  0  0
   17.7470   19.2380    9.5920 C   0  0  0  0  0
   15.1630   20.2320    9.4030 C   0  0  0  0  0
   15.3880   18.9660    9.9370 C   0  0  0  0  0
   16.6780   18.4530   10.0090 C   0  0  0  0  0
   15.8710   16.4540   11.1020 C   0  0  0  0  0
   16.9200   17.2070   10.5870 C   0  0  0  0  0
   18.2190   16.7100   10.6410 C   0  0  0  0  0
   18.4800   15.4870   11.2490 C   0  0  0  0  0
   17.4350   14.7610   11.8280 N   0  0  0  0  0
   16.1270   15.2550   11.7590 C   0  0  0  0  0
    6.9860   22.9397    3.0587 H   0  0  0  0  0
    9.2366   22.0674    3.6184 H   0  0  0  0  0
   12.2225   23.5355    2.5252 H   0  0  0  0  0
   11.4469   22.3347    3.6178 H   0  0  0  0  0
   11.0231   25.6188    2.0142 H   0  0  0  0  0
    8.7701   26.5171    1.5095 H   0  0  0  0  0
    6.2124   24.8994    0.8394 H   0  0  0  0  0
    6.5350   26.3532    1.8588 H   0  0  0  0  0
    4.9607   23.9200    2.5422 H   0  0  0  0  0
    4.2013   25.4391    4.3449 H   0  0  0  0  0
    5.4734   27.3039    4.9470 H   0  0  0  0  0
    6.6207   27.0104    3.6187 H   0  0  0  0  0
    6.7302   24.9490    5.7334 H   0  0  0  0  0
    8.7110   24.7183    6.5849 H   0  0  0  0  0
    8.5498   25.9664    8.4994 H   0  0  0  0  0
   10.6308   24.6381    8.4890 H   0  0  0  0  0
   11.5179   26.0112    7.7828 H   0  0  0  0  0
   10.8565   26.1319    9.4317 H   0  0  0  0  0
   10.2361   28.1438    7.2057 H   0  0  0  0  0
    8.4813   28.2044    7.5022 H   0  0  0  0  0
    9.6155   28.1703    8.8746 H   0  0  0  0  0
   10.7818   26.3894    5.2051 H   0  0  0  0  0
   13.1909   25.3520    3.4895 H   0  0  0  0  0
   14.0415   23.4247    4.4293 H   0  0  0  0  0
   12.9218   22.3916    5.3802 H   0  0  0  0  0
   13.0993   23.7465    7.2858 H   0  0  0  0  0
   13.6501   25.1577    6.3567 H   0  0  0  0  0
   15.5745   24.3082    7.4923 H   0  0  0  0  0
   15.7287   23.7879    5.7719 H   0  0  0  0  0
   14.3646   21.8522    7.2669 H   0  0  0  0  0
   16.8303   21.8895    6.0553 H   0  0  0  0  0
   16.9152   20.4482    4.3999 H   0  0  0  0  0
   15.2418   17.2006    4.6716 H   0  0  0  0  0
   13.8593   18.3082    4.8533 H   0  0  0  0  0
   14.1120   17.4442    3.3169 H   0  0  0  0  0
   17.1347   19.3670    2.3190 H   0  0  0  0  0
   17.1531   17.8243    3.2083 H   0  0  0  0  0
   16.0270   18.0546    1.8482 H   0  0  0  0  0
   13.8239   20.4614    3.6147 H   0  0  0  0  0
   15.1778   20.9034    2.5458 H   0  0  0  0  0
   14.0800   19.5773    2.0903 H   0  0  0  0  0
   16.2621   18.0818    6.1768 H   0  0  0  0  0
   20.6736   18.4059    6.1854 H   0  0  0  0  0
   19.8918   19.1756    7.5880 H   0  0  0  0  0
   20.4430   17.4856    7.6924 H   0  0  0  0  0
   15.4333   22.8044    9.1452 H   0  0  0  0  0
   16.9964   22.7134    8.2376 H   0  0  0  0  0
   18.3522   21.0620    8.6261 H   0  0  0  0  0
   18.7687   18.8840    9.7294 H   0  0  0  0  0
   14.1557   20.6484    9.3941 H   0  0  0  0  0
   14.5481   18.3739   10.3006 H   0  0  0  0  0
   14.8448   16.8042   10.9906 H   0  0  0  0  0
   19.0368   17.2830   10.2040 H   0  0  0  0  0
   19.4969   15.0953   11.2741 H   0  0  0  0  0
   15.3096   14.7004   12.2199 H   0  0  0  0  0
  1  2  4  0  0  0
  1  7  4  0  0  0
  2  3  4  0  0  0
  3  4  1  0  0  0
  3  5  4  0  0  0
  4 22  1  0  0  0
  5  6  4  0  0  0
  6  7  4  0  0  0
  7  8  1  0  0  0
  8  9  1  0  0  0
  9 10  2  0  0  0
 10 11  1  0  0  0
 11 12  1  0  0  0
 12 13  1  0  0  0
 13 14  2  0  0  0
 13 15  1  0  0  0
 15 16  1  0  0  0
 15 19  1  0  0  0
 16 17  1  0  0  0
 16 18  1  0  0  0
 19 20  1  0  0  0
 20 21  2  0  0  0
 20 22  1  0  0  0
 22 23  1  0  0  0
 22 24  1  0  0  0
 24 25  1  0  0  0
 25 26  1  0  0  0
 26 27  1  0  0  0
 27 28  1  0  0  0
 27 41  1  0  0  0
 28 29  1  0  0  0
 29 30  2  0  0  0
 29 31  1  0  0  0
 31 32  1  0  0  0
 31 36  1  0  0  0
 32 33  1  0  0  0
 32 34  1  0  0  0
 32 35  1  0  0  0
 36 37  1  0  0  0
 37 38  2  0  0  0
 37 39  1  0  0  0
 39 40  1  0  0  0
 41 42  1  0  0  0
 42 43  4  0  0  0
 42 45  4  0  0  0
 43 44  4  0  0  0
 44 47  4  0  0  0
 45 46  4  0  0  0
 46 47  4  0  0  0
 47 49  1  0  0  0
 49 48  4  0  0  0
 48 53  4  0  0  0
 49 50  4  0  0  0
 50 51  4  0  0  0
 51 52  4  0  0  0
 52 53  4  0  0  0
  1 54  1  0  0  0
  2 55  1  0  0  0
  4 56  1  0  0  0
  4 57  1  0  0  0
  5 58  1  0  0  0
  6 59  1  0  0  0
  8 60  1  0  0  0
  8 61  1  0  0  0
  9 62  1  0  0  0
 10 63  1  0  0  0
 11 64  1  0  0  0
 11 65  1  0  0  0
 12 66  1  0  0  0
 15 67  1  0  0  0
 16 68  1  0  0  0
 17 69  1  0  0  0
 17 70  1  0  0  0
 17 71  1  0  0  0
 18 72  1  0  0  0
 18 73  1  0  0  0
 18 74  1  0  0  0
 19 75  1  0  0  0
 23 76  1  0  0  0
 24 77  1  0  0  0
 24 78  1  0  0  0
 25 79  1  0  0  0
 25 80  1  0  0  0
 26 81  1  0  0  0
 26 82  1  0  0  0
 27 83  1  0  0  0
 28 84  1  0  0  0
 31 85  1  0  0  0
 33 86  1  0  0  0
 33 87  1  0  0  0
 33 88  1  0  0  0
 34 89  1  0  0  0
 34 90  1  0  0  0
 34 91  1  0  0  0
 35 92  1  0  0  0
 35 93  1  0  0  0
 35 94  1  0  0  0
 36 95  1  0  0  0
 40 96  1  0  0  0
 40 97  1  0  0  0
 40 98  1  0  0  0
 41 99  1  0  0  0
 41100  1  0  0  0
 43101  1  0  0  0
 44102  1  0  0  0
 45103  1  0  0  0
 46104  1  0  0  0
 48105  1  0  0  0
 50106  1  0  0  0
 51107  1  0  0  0
 53108  1  0  0  0
M  END
$$$$
