3lbz_ligand
  -I-interpret- 

 35 37  0  0  0  0  0  0  0  0999 V2000
   -5.8640    6.9850   20.3670 C   0  0  0  0  0
   -5.4560    5.2670   18.8240 N   0  0  0  0  0
   -6.4920    6.0600   20.9680 O   0  0  0  0  0
   -4.8740    6.5840   19.2700 C   0  0  0  0  0
   -3.4770    6.5540   19.9250 C   0  0  0  0  0
   -2.9580    7.9740   20.1740 C   0  0  0  0  0
   -4.1380   -0.2320   18.9500 C   0  0  0  0  0
   -4.1090    1.1540   19.0870 C   0  0  0  0  0
   -2.9920    1.8170   19.6220 C   0  0  0  0  0
   -1.8710    1.0990   20.0470 C   0  0  0  0  0
   -0.3140    1.9250   20.8020 Br  0  0  0  0  0
   -1.9140   -0.2780   19.9040 C   0  0  0  0  0
   -3.0250   -0.9210   19.3760 C   0  0  0  0  0
   -5.3240    1.5950   18.5780 C   0  0  0  0  0
   -6.0160    0.4740   18.1640 C   0  0  0  0  0
   -5.3120   -0.6460   18.3940 N   0  0  0  0  0
   -7.1820    0.4550   17.6350 O   0  0  0  0  0
   -5.7460    2.9440   18.5110 C   0  0  0  0  0
   -4.9350    4.0280   18.9710 C   0  0  0  0  0
   -6.7000    5.0920   18.2730 C   0  0  0  0  0
   -7.6560    6.5660   17.9670 S   0  0  0  0  0
   -7.2990    3.4720   17.8520 S   0  0  0  0  0
   -3.7360    3.9040   19.4760 O   0  0  0  0  0
   -2.7970    8.4080   21.3470 O   0  0  0  0  0
   -2.7190    8.7030   19.1830 O   0  0  0  0  0
   -6.0800    8.2020   20.6580 O   0  0  0  0  0
   -4.7432    7.2316   18.4031 H   0  0  0  0  0
   -2.7870    6.0415   19.2547 H   0  0  0  0  0
   -3.5495    6.0351   20.8808 H   0  0  0  0  0
   -2.9998    2.9037   19.7066 H   0  0  0  0  0
   -1.0539   -0.8715   20.2138 H   0  0  0  0  0
   -3.0159   -2.0080   19.2960 H   0  0  0  0  0
   -5.5959   -1.6052   18.1946 H   0  0  0  0  0
   -3.0259    7.7197   21.9759 H   0  0  0  0  0
   -5.5246    8.7637   20.1124 H   0  0  0  0  0
  1  3  2  0  0  0
  4  1  1  0  0  0
  1 26  1  0  0  0
  2  4  1  0  0  0
 19  2  1  0  0  0
  2 20  1  0  0  0
  4  5  1  0  0  0
  5  6  1  0  0  0
  6 24  1  0  0  0
  6 25  2  0  0  0
  8  7  4  0  0  0
  7 13  4  0  0  0
 16  7  1  0  0  0
  8  9  4  0  0  0
 14  8  1  0  0  0
  9 10  4  0  0  0
 10 11  1  0  0  0
 10 12  4  0  0  0
 13 12  4  0  0  0
 14 15  1  0  0  0
 18 14  2  0  0  0
 15 16  1  0  0  0
 15 17  2  0  0  0
 18 19  1  0  0  0
 18 22  1  0  0  0
 19 23  2  0  0  0
 20 21  2  0  0  0
 20 22  1  0  0  0
  4 27  1  0  0  0
  5 28  1  0  0  0
  5 29  1  0  0  0
  9 30  1  0  0  0
 12 31  1  0  0  0
 13 32  1  0  0  0
 16 33  1  0  0  0
 24 34  1  0  0  0
 26 35  1  0  0  0
M  END
$$$$
