2uy0_ligand
  -I-interpret- 

 91 94  0  0  0  0  0  0  0  0999 V2000
   13.6780   24.3350    4.9700 C   0  0  0  0  0
   13.7950   23.8280    6.4180 C   0  0  0  0  0
   11.2830   23.6870    4.5210 N   0  0  0  0  0
   10.7220   24.7460    5.0700 N   0  0  0  0  0
    8.0520   25.8580    6.3230 N   0  0  0  0  0
   13.1470   22.8010    3.3690 O   0  0  0  0  0
   12.6400   23.5620    4.2270 C   0  0  0  0  0
   10.0500   24.5350    6.2140 C   0  0  0  0  0
    5.2760   27.4690    5.9160 C   0  0  0  0  0
    6.2190   26.5850    5.2810 O   0  0  0  0  0
    7.5980   26.8000    5.4990 C   0  0  0  0  0
    8.2430   27.7180    4.9930 O   0  0  0  0  0
    9.4610   25.7770    6.7630 C   0  0  0  0  0
    9.3880   25.9320    8.3510 C   0  0  0  0  0
    8.5490   24.8600    9.0980 C   0  0  0  0  0
   10.8080   25.8860    8.8910 C   0  0  0  0  0
    8.7620   27.2960    8.7690 C   0  0  0  0  0
    9.9610   23.3970    6.7180 O   0  0  0  0  0
   10.6690   23.1740    3.2590 C   0  0  0  0  0
    9.4460   23.8260    2.7380 C   0  0  0  0  0
    8.1540   23.3900    3.1000 C   0  0  0  0  0
    7.0390   24.0450    2.5630 C   0  0  0  0  0
    7.2450   25.1170    1.6760 C   0  0  0  0  0
    5.8820   26.1050    0.8420 Br  0  0  0  0  0
    8.5650   25.5170    1.3470 C   0  0  0  0  0
    9.6630   24.8670    1.8820 C   0  0  0  0  0
   14.9370   22.7860    6.6080 C   0  0  0  0  0
   16.1120   23.4540    6.0610 O   0  0  0  0  0
   15.0810   22.6650    8.1390 C   0  0  0  0  0
   16.1600   21.7210    8.6310 C   0  0  0  0  0
   15.7500   20.5910    9.3940 C   0  0  0  0  0
   16.7340   19.7060    9.8480 C   0  0  0  0  0
   18.0760   19.9520    9.5440 C   0  0  0  0  0
   18.5000   21.0690    8.7910 C   0  0  0  0  0
   17.5250   21.9680    8.3270 C   0  0  0  0  0
   14.7320   21.3100    6.0660 C   0  0  0  0  0
   13.7970   20.5310    6.3020 O   0  0  0  0  0
   15.8850   20.9260    5.4290 N   0  0  0  0  0
   16.0780   19.4820    5.0110 C   0  0  0  0  0
   15.8420   19.1640    3.5900 C   0  0  0  0  0
   14.8580   19.6880    2.6320 C   0  0  0  0  0
   14.8860   19.1540    1.2620 C   0  0  0  0  0
   15.8770   18.1300    0.8880 C   0  0  0  0  0
   16.8520   17.6200    1.8700 C   0  0  0  0  0
   16.8100   18.1600    3.2270 C   0  0  0  0  0
   17.6960   17.8070    4.4290 C   0  0  0  0  0
   17.5110   19.0220    5.3790 C   0  0  0  0  0
   18.5390   19.9640    5.0140 O   0  0  0  0  0
   14.6389   24.2070    4.4715 H   0  0  0  0  0
   13.3924   25.3868    4.9854 H   0  0  0  0  0
   12.8548   23.3407    6.6760 H   0  0  0  0  0
   14.0189   24.6853    7.0528 H   0  0  0  0  0
   10.7940   25.6728    4.6502 H   0  0  0  0  0
    7.3953   25.1577    6.6677 H   0  0  0  0  0
    5.3991   27.4132    6.9976 H   0  0  0  0  0
    5.4551   28.4906    5.5809 H   0  0  0  0  0
    4.2626   27.1699    5.6485 H   0  0  0  0  0
   10.1367   26.5499    6.3967 H   0  0  0  0  0
    7.5196   24.8924    8.7410 H   0  0  0  0  0
    8.9702   23.8729    8.9072 H   0  0  0  0  0
    8.5703   25.0648   10.1684 H   0  0  0  0  0
   11.2658   24.9332    8.6251 H   0  0  0  0  0
   11.3866   26.7020    8.4580 H   0  0  0  0  0
   10.7864   25.9900    9.9758 H   0  0  0  0  0
    9.3689   28.1097    8.3719 H   0  0  0  0  0
    7.7502   27.3675    8.3700 H   0  0  0  0  0
    8.7305   27.3618    9.8566 H   0  0  0  0  0
   10.3658   22.1527    3.4896 H   0  0  0  0  0
   11.4246   23.3411    2.4914 H   0  0  0  0  0
    8.0255   22.5547    3.7883 H   0  0  0  0  0
    6.0297   23.7298    2.8276 H   0  0  0  0  0
    8.7172   26.3504    0.6612 H   0  0  0  0  0
   10.6758   25.1783    1.6264 H   0  0  0  0  0
   16.0216   23.5289    5.1082 H   0  0  0  0  0
   14.1348   22.2667    8.5054 H   0  0  0  0  0
   15.3530   23.6566    8.5007 H   0  0  0  0  0
   14.6972   20.4199    9.6185 H   0  0  0  0  0
   16.4560   18.8305   10.4348 H   0  0  0  0  0
   18.8286   19.2506    9.9041 H   0  0  0  0  0
   19.5563   21.2295    8.5754 H   0  0  0  0  0
   17.8121   22.8420    7.7424 H   0  0  0  0  0
   16.6135   21.6135    5.2364 H   0  0  0  0  0
   15.3024   18.9464    5.5584 H   0  0  0  0  0
   14.1326   20.4462    2.9268 H   0  0  0  0  0
   14.1724   19.5164    0.5221 H   0  0  0  0  0
   15.8898   17.7431   -0.1309 H   0  0  0  0  0
   17.5835   16.8615    1.5912 H   0  0  0  0  0
   18.7375   17.6476    4.1499 H   0  0  0  0  0
   17.4137   16.8631    4.8953 H   0  0  0  0  0
   17.6012   18.8581    6.4528 H   0  0  0  0  0
   19.3961   19.6158    5.2702 H   0  0  0  0  0
  1  2  1  0  0  0
  7  1  1  0  0  0
  2 27  1  0  0  0
  4  3  1  0  0  0
  3  7  1  0  0  0
  3 19  1  0  0  0
  8  4  1  0  0  0
 11  5  1  0  0  0
  5 13  1  0  0  0
  7  6  2  0  0  0
 13  8  1  0  0  0
  8 18  2  0  0  0
 10  9  1  0  0  0
 10 11  1  0  0  0
 11 12  2  0  0  0
 13 14  1  0  0  0
 14 15  1  0  0  0
 14 16  1  0  0  0
 14 17  1  0  0  0
 19 20  1  0  0  0
 20 21  4  0  0  0
 20 26  4  0  0  0
 21 22  4  0  0  0
 22 23  4  0  0  0
 23 24  1  0  0  0
 23 25  4  0  0  0
 25 26  4  0  0  0
 27 28  1  0  0  0
 27 29  1  0  0  0
 27 36  1  0  0  0
 29 30  1  0  0  0
 30 31  4  0  0  0
 30 35  4  0  0  0
 31 32  4  0  0  0
 32 33  4  0  0  0
 33 34  4  0  0  0
 34 35  4  0  0  0
 36 37  2  0  0  0
 36 38  1  0  0  0
 38 39  1  0  0  0
 39 40  1  0  0  0
 39 47  1  0  0  0
 40 41  4  0  0  0
 40 45  4  0  0  0
 41 42  4  0  0  0
 42 43  4  0  0  0
 43 44  4  0  0  0
 44 45  4  0  0  0
 45 46  1  0  0  0
 46 47  1  0  0  0
 47 48  1  0  0  0
  1 49  1  0  0  0
  1 50  1  0  0  0
  2 51  1  0  0  0
  2 52  1  0  0  0
  4 53  1  0  0  0
  5 54  1  0  0  0
  9 55  1  0  0  0
  9 56  1  0  0  0
  9 57  1  0  0  0
 13 58  1  0  0  0
 15 59  1  0  0  0
 15 60  1  0  0  0
 15 61  1  0  0  0
 16 62  1  0  0  0
 16 63  1  0  0  0
 16 64  1  0  0  0
 17 65  1  0  0  0
 17 66  1  0  0  0
 17 67  1  0  0  0
 19 68  1  0  0  0
 19 69  1  0  0  0
 21 70  1  0  0  0
 22 71  1  0  0  0
 25 72  1  0  0  0
 26 73  1  0  0  0
 28 74  1  0  0  0
 29 75  1  0  0  0
 29 76  1  0  0  0
 31 77  1  0  0  0
 32 78  1  0  0  0
 33 79  1  0  0  0
 34 80  1  0  0  0
 35 81  1  0  0  0
 38 82  1  0  0  0
 39 83  1  0  0  0
 41 84  1  0  0  0
 42 85  1  0  0  0
 43 86  1  0  0  0
 44 87  1  0  0  0
 46 88  1  0  0  0
 46 89  1  0  0  0
 47 90  1  0  0  0
 48 91  1  0  0  0
M  END
$$$$
