2r58_ligand
  -I-interpret- 

 32 31  0  0  0  0  0  0  0  0999 V2000
  -27.4310  -20.9950  -15.7020 N   0  3  0  0  0
  -27.1070  -20.7590  -17.1440 C   0  0  0  0  0
  -25.8200  -19.9430  -17.2420 C   0  0  0  0  0
  -25.6240  -19.4670  -18.6730 C   0  0  0  0  0
  -24.5780  -18.3710  -18.7750 C   0  0  0  0  0
  -24.1050  -18.2510  -20.2200 C   0  0  0  0  0
  -23.2310  -17.0770  -20.3810 N   0  3  0  0  0
  -22.9850  -16.8360  -21.8120 C   0  0  0  0  0
  -21.9540  -17.3240  -19.6980 C   0  0  0  0  0
  -26.9690  -22.0410  -17.9280 C   0  0  0  0  0
  -26.2410  -22.9510  -17.5270 O   0  0  0  0  0
  -27.5670  -22.2100  -18.9990 O   0  0  0  0  0
  -27.5125  -20.0987  -15.2220 H   0  0  0  0  0
  -28.3137  -21.5013  -15.6315 H   0  0  0  0  0
  -26.6869  -21.5453  -15.2732 H   0  0  0  0  0
  -27.9396  -20.2105  -17.5845 H   0  0  0  0  0
  -24.9742  -20.5648  -16.9486 H   0  0  0  0  0
  -25.8876  -19.0799  -16.5797 H   0  0  0  0  0
  -26.5723  -19.0648  -19.0294 H   0  0  0  0  0
  -25.2860  -20.3147  -19.2690 H   0  0  0  0  0
  -23.7307  -18.6172  -18.1350 H   0  0  0  0  0
  -25.0125  -17.4238  -18.4555 H   0  0  0  0  0
  -24.9736  -18.1373  -20.8686 H   0  0  0  0  0
  -23.5453  -19.1480  -20.4850 H   0  0  0  0  0
  -23.6833  -16.2581  -19.9745 H   0  0  0  0  0
  -22.3374  -15.9668  -21.9267 H   0  0  0  0  0
  -22.5024  -17.7104  -22.2487 H   0  0  0  0  0
  -23.9337  -16.6530  -22.3167 H   0  0  0  0  0
  -21.4722  -18.1980  -20.1362 H   0  0  0  0  0
  -21.3071  -16.4544  -19.8142 H   0  0  0  0  0
  -22.1386  -17.5022  -18.6386 H   0  0  0  0  0
  -28.0952  -21.4328  -19.1954 H   0  0  0  0  0
  1  2  1  0  0  0
  2  3  1  0  0  0
  2 10  1  0  0  0
  3  4  1  0  0  0
  4  5  1  0  0  0
  5  6  1  0  0  0
  6  7  1  0  0  0
  7  8  1  0  0  0
  7  9  1  0  0  0
 10 11  2  0  0  0
 10 12  1  0  0  0
  1 13  1  0  0  0
  1 14  1  0  0  0
  1 15  1  0  0  0
  2 16  1  0  0  0
  3 17  1  0  0  0
  3 18  1  0  0  0
  4 19  1  0  0  0
  4 20  1  0  0  0
  5 21  1  0  0  0
  5 22  1  0  0  0
  6 23  1  0  0  0
  6 24  1  0  0  0
  7 25  1  0  0  0
  8 26  1  0  0  0
  8 27  1  0  0  0
  8 28  1  0  0  0
  9 29  1  0  0  0
  9 30  1  0  0  0
  9 31  1  0  0  0
 12 32  1  0  0  0
M  END
$$$$
