3m6r_ligand
  -I-interpret- 

 62 62  0  0  0  0  0  0  0  0999 V2000
  -14.4930    6.5380  -30.9450 C   0  0  0  0  0
  -13.0760    6.0100  -30.3690 C   0  0  0  0  0
  -12.9100    5.0710  -31.1580 O   0  0  0  0  0
  -12.1660    6.2950  -29.4450 N   0  0  0  0  0
  -11.0260    5.5230  -29.2970 O   0  0  0  0  0
  -15.5390    5.7470  -30.0750 C   0  0  0  0  0
  -16.8890    6.3080  -30.6430 C   0  0  0  0  0
  -17.0380    7.5400  -30.7230 O   0  0  0  0  0
  -15.4020    6.1400  -28.5770 C   0  0  0  0  0
  -16.4430    5.3020  -27.7910 C   0  0  0  0  0
  -16.4480    5.5840  -26.3190 C   0  0  0  0  0
  -17.3450    4.5260  -25.6810 C   0  0  0  0  0
  -18.8040    4.9680  -25.7230 C   0  0  0  0  0
  -17.7620    5.2940  -30.9740 N   0  0  0  0  0
  -19.1390    5.7910  -30.6900 C   0  0  0  0  0
  -19.8890    5.6290  -32.0890 C   0  0  0  0  0
  -19.6120    6.8170  -33.0460 C   0  0  0  0  0
  -19.5010    4.2950  -32.8330 C   0  0  0  0  0
  -19.9160    4.9540  -29.6240 C   0  0  0  0  0
  -19.4120    3.9610  -29.1460 O   0  0  0  0  0
  -21.2540    5.7280  -29.3630 N   0  0  0  0  0
  -22.2220    5.2020  -28.3520 C   0  0  0  0  0
  -21.8520    7.0110  -29.8960 C   0  0  0  0  0
  -22.7320    7.5250  -28.7400 C   0  0  0  0  0
  -23.3980    6.2000  -28.3140 C   0  0  0  0  0
  -22.7530    3.8120  -28.7680 C   0  0  0  0  0
  -23.6650    3.2990  -27.7990 O   0  0  0  0  0
  -14.6093    6.3603  -32.0141 H   0  0  0  0  0
  -14.6067    7.6192  -30.8665 H   0  0  0  0  0
  -12.3094    7.0979  -28.8325 H   0  0  0  0  0
  -10.4901    5.8790  -28.5845 H   0  0  0  0  0
  -15.4338    4.6631  -30.1223 H   0  0  0  0  0
  -15.5827    7.2062  -28.4401 H   0  0  0  0  0
  -14.3933    5.9385  -28.2163 H   0  0  0  0  0
  -16.1848    4.2512  -27.9226 H   0  0  0  0  0
  -17.4294    5.5585  -28.1773 H   0  0  0  0  0
  -16.8202    6.5878  -26.1141 H   0  0  0  0  0
  -15.4391    5.5406  -25.9088 H   0  0  0  0  0
  -17.0463    4.3879  -24.6419 H   0  0  0  0  0
  -17.2413    3.5928  -26.2346 H   0  0  0  0  0
  -18.9146    5.9041  -25.1757 H   0  0  0  0  0
  -19.1085    5.1135  -26.7594 H   0  0  0  0  0
  -19.4280    4.2012  -25.2638 H   0  0  0  0  0
  -17.5131    4.3765  -31.3436 H   0  0  0  0  0
  -19.0931    6.8033  -30.2886 H   0  0  0  0  0
  -20.9492    5.6038  -31.8372 H   0  0  0  0  0
  -19.9553    7.7423  -32.5833 H   0  0  0  0  0
  -18.5417    6.8824  -33.2416 H   0  0  0  0  0
  -20.1449    6.6586  -33.9835 H   0  0  0  0  0
  -18.4280    4.2862  -33.0245 H   0  0  0  0  0
  -19.7670    3.4418  -32.2089 H   0  0  0  0  0
  -20.0406    4.2376  -33.7783 H   0  0  0  0  0
  -21.7383    5.0976  -27.3808 H   0  0  0  0  0
  -22.4246    6.8502  -30.8094 H   0  0  0  0  0
  -21.0879    7.7329  -30.1843 H   0  0  0  0  0
  -23.4298    8.3151  -29.0174 H   0  0  0  0  0
  -22.1861    8.0345  -27.9459 H   0  0  0  0  0
  -23.8744    6.2589  -27.3354 H   0  0  0  0  0
  -24.2229    5.9102  -28.9648 H   0  0  0  0  0
  -21.9093    3.1267  -28.8497 H   0  0  0  0  0
  -23.2743    3.9087  -29.7204 H   0  0  0  0  0
  -23.9788    2.4368  -28.0815 H   0  0  0  0  0
  1  2  1  0  0  0
  1  6  1  0  0  0
  2  3  2  0  0  0
  2  4  1  0  0  0
  4  5  1  0  0  0
  6  7  1  0  0  0
  6  9  1  0  0  0
  7  8  2  0  0  0
  7 14  1  0  0  0
  9 10  1  0  0  0
 10 11  1  0  0  0
 11 12  1  0  0  0
 12 13  1  0  0  0
 14 15  1  0  0  0
 15 16  1  0  0  0
 15 19  1  0  0  0
 16 17  1  0  0  0
 16 18  1  0  0  0
 19 20  2  0  0  0
 19 21  1  0  0  0
 21 22  1  0  0  0
 21 23  1  0  0  0
 22 25  1  0  0  0
 22 26  1  0  0  0
 23 24  1  0  0  0
 24 25  1  0  0  0
 26 27  1  0  0  0
  1 28  1  0  0  0
  1 29  1  0  0  0
  4 30  1  0  0  0
  5 31  1  0  0  0
  6 32  1  0  0  0
  9 33  1  0  0  0
  9 34  1  0  0  0
 10 35  1  0  0  0
 10 36  1  0  0  0
 11 37  1  0  0  0
 11 38  1  0  0  0
 12 39  1  0  0  0
 12 40  1  0  0  0
 13 41  1  0  0  0
 13 42  1  0  0  0
 13 43  1  0  0  0
 14 44  1  0  0  0
 15 45  1  0  0  0
 16 46  1  0  0  0
 17 47  1  0  0  0
 17 48  1  0  0  0
 17 49  1  0  0  0
 18 50  1  0  0  0
 18 51  1  0  0  0
 18 52  1  0  0  0
 22 53  1  0  0  0
 23 54  1  0  0  0
 23 55  1  0  0  0
 24 56  1  0  0  0
 24 57  1  0  0  0
 25 58  1  0  0  0
 25 59  1  0  0  0
 26 60  1  0  0  0
 26 61  1  0  0  0
 27 62  1  0  0  0
M  END
$$$$
