3gol_ligand
  -I-interpret- 

 52 55  0  0  0  0  0  0  0  0999 V2000
   22.8850   11.7430   34.4460 Cl  0  0  0  0  0
   23.5200   10.6420   33.2960 C   0  0  0  0  0
   23.6640   11.0150   31.9710 C   0  0  0  0  0
   24.1840   10.0970   31.0740 C   0  0  0  0  0
   24.3740   10.5290   29.4160 Cl  0  0  0  0  0
   23.8850    9.3720   33.7150 C   0  0  0  0  0
   24.4020    8.4610   32.8130 C   0  0  0  0  0
   24.5570    8.8130   31.4790 C   0  0  0  0  0
   25.1290    7.8480   30.4080 C   0  0  0  0  0
   25.5760    6.4930   30.9760 C   0  0  0  0  0
   27.0250    6.3110   31.1840 C   0  0  0  0  0
   27.7650    7.2760   31.1170 O   0  0  0  0  0
   27.5250    4.9310   31.5500 C   0  0  0  0  0
   24.1720    7.7170   29.2860 N   0  0  0  0  0
   24.7150    7.2950   28.0350 C   0  0  0  0  0
   23.8790    6.6660   26.9430 C   0  0  0  0  0
   25.9180    7.3990   27.8020 O   0  0  0  0  0
   22.8210    7.4810   29.7130 C   0  0  0  0  0
   21.8190    8.3460   29.2860 C   0  0  0  0  0
   20.5100    8.1790   29.6780 C   0  0  0  0  0
   20.1750    7.1400   30.5250 C   0  0  0  0  0
   21.1590    6.2770   30.9810 C   0  0  0  0  0
   20.8530    5.2670   31.8180 O   0  0  0  0  0
   22.4730    6.4400   30.6000 C   0  0  0  0  0
   23.3650    5.5130   31.1820 N   0  0  0  0  0
   24.7290    5.5120   31.3850 C   0  0  0  0  0
   25.2090    4.2580   32.1250 C   0  0  0  0  0
   26.6350    4.3300   32.6480 C   0  0  0  0  0
   27.1390    2.9100   32.9990 C   0  0  0  0  0
   26.6130    5.2380   33.9050 C   0  0  0  0  0
   23.3737   12.0121   31.6399 H   0  0  0  0  0
   23.7637    9.0903   34.7610 H   0  0  0  0  0
   24.6884    7.4646   33.1496 H   0  0  0  0  0
   26.0481    8.2905   30.0240 H   0  0  0  0  0
   28.5492    5.0038   31.9157 H   0  0  0  0  0
   27.4927    4.2903   30.6688 H   0  0  0  0  0
   23.9611    7.2631   26.0348 H   0  0  0  0  0
   24.2383    5.6554   26.7486 H   0  0  0  0  0
   22.8372    6.6277   27.2613 H   0  0  0  0  0
   22.0760    9.1747   28.6262 H   0  0  0  0  0
   19.7406    8.8639   29.3215 H   0  0  0  0  0
   19.1392    6.9994   30.8339 H   0  0  0  0  0
   21.6499    4.7750   32.0288 H   0  0  0  0  0
   22.9050    4.6689   31.5231 H   0  0  0  0  0
   25.1766    3.4370   31.4087 H   0  0  0  0  0
   24.5605    4.1358   32.9925 H   0  0  0  0  0
   27.0962    2.2806   32.1101 H   0  0  0  0  0
   28.1675    2.9686   33.3551 H   0  0  0  0  0
   26.5071    2.4839   33.7782 H   0  0  0  0  0
   27.6259    5.3428   34.2937 H   0  0  0  0  0
   26.2224    6.2194   33.6359 H   0  0  0  0  0
   25.9753    4.7878   34.6657 H   0  0  0  0  0
  1  2  1  0  0  0
  2  3  4  0  0  0
  2  6  4  0  0  0
  3  4  4  0  0  0
  4  5  1  0  0  0
  4  8  4  0  0  0
  6  7  4  0  0  0
  7  8  4  0  0  0
  8  9  1  0  0  0
  9 10  1  0  0  0
  9 14  1  0  0  0
 10 11  1  0  0  0
 10 26  2  0  0  0
 11 12  2  0  0  0
 11 13  1  0  0  0
 13 28  1  0  0  0
 14 15  1  0  0  0
 14 18  1  0  0  0
 15 16  1  0  0  0
 15 17  2  0  0  0
 18 19  4  0  0  0
 18 24  4  0  0  0
 19 20  4  0  0  0
 20 21  4  0  0  0
 21 22  4  0  0  0
 22 23  1  0  0  0
 22 24  4  0  0  0
 24 25  1  0  0  0
 25 26  1  0  0  0
 26 27  1  0  0  0
 27 28  1  0  0  0
 28 29  1  0  0  0
 28 30  1  0  0  0
  3 31  1  0  0  0
  6 32  1  0  0  0
  7 33  1  0  0  0
  9 34  1  0  0  0
 13 35  1  0  0  0
 13 36  1  0  0  0
 16 37  1  0  0  0
 16 38  1  0  0  0
 16 39  1  0  0  0
 19 40  1  0  0  0
 20 41  1  0  0  0
 21 42  1  0  0  0
 23 43  1  0  0  0
 25 44  1  0  0  0
 27 45  1  0  0  0
 27 46  1  0  0  0
 29 47  1  0  0  0
 29 48  1  0  0  0
 29 49  1  0  0  0
 30 50  1  0  0  0
 30 51  1  0  0  0
 30 52  1  0  0  0
M  END
$$$$
