2jkp_ligand
  -I-interpret- 

 29 30  0  0  0  0  0  0  0  0999 V2000
   22.1680   43.8310   69.9760 C   0  0  0  0  0
   21.7770   42.8910   71.1310 C   0  0  0  0  0
   23.0400   42.2660   71.7000 C   0  0  0  0  0
   23.6740   41.4420   70.5660 C   0  0  0  0  0
   24.1760   42.3380   69.4610 C   0  0  0  0  0
   24.4800   41.6390   68.1540 C   0  0  0  0  0
   21.0420   43.7410   72.0520 O   0  0  0  0  0
   22.6560   41.4290   72.7790 O   0  0  0  0  0
   24.8190   40.7070   70.9650 O   0  0  0  0  0
   23.4530   40.7220   67.7850 O   0  0  0  0  0
   23.1320   43.2660   69.0460 N   0  3  0  0  0
   24.4330   42.7940   67.1940 C   0  0  0  0  0
   23.2790   43.6770   67.6560 C   0  0  0  0  0
   22.6301   44.7120   70.4215 H   0  0  0  0  0
   21.2600   44.0391   69.4101 H   0  0  0  0  0
   21.1511   42.0434   70.8520 H   0  0  0  0  0
   23.7538   43.0054   72.0631 H   0  0  0  0  0
   22.8745   40.7710   70.2520 H   0  0  0  0  0
   25.0706   42.7799   69.8998 H   0  0  0  0  0
   25.4074   41.0673   68.1870 H   0  0  0  0  0
   20.2642   44.0909   71.6114 H   0  0  0  0  0
   22.2638   41.9635   73.4733 H   0  0  0  0  0
   24.5807   40.1057   71.6744 H   0  0  0  0  0
   23.4631   39.9733   68.3857 H   0  0  0  0  0
   22.1528   43.0508   69.2336 H   0  0  0  0  0
   24.2826   42.4510   66.1704 H   0  0  0  0  0
   25.3743   43.3437   67.1910 H   0  0  0  0  0
   23.4720   44.7430   67.5358 H   0  0  0  0  0
   22.3710   43.5497   67.0665 H   0  0  0  0  0
  1  2  1  0  0  0
  1 11  1  0  0  0
  2  3  1  0  0  0
  2  7  1  0  0  0
  3  4  1  0  0  0
  3  8  1  0  0  0
  4  5  1  0  0  0
  4  9  1  0  0  0
  5  6  1  0  0  0
  5 11  1  0  0  0
  6 10  1  0  0  0
  6 12  1  0  0  0
 11 13  1  0  0  0
 12 13  1  0  0  0
  1 14  1  0  0  0
  1 15  1  0  0  0
  2 16  1  0  0  0
  3 17  1  0  0  0
  4 18  1  0  0  0
  5 19  1  0  0  0
  6 20  1  0  0  0
  7 21  1  0  0  0
  8 22  1  0  0  0
  9 23  1  0  0  0
 10 24  1  0  0  0
 11 25  1  0  0  0
 12 26  1  0  0  0
 12 27  1  0  0  0
 13 28  1  0  0  0
 13 29  1  0  0  0
M  END
$$$$
