1i6v_ligand
  -I-interpret- 

120124  0  0  0  0  0  0  0  0999 V2000
   48.5350   97.5710   24.9090 C   0  0  0  0  0
   48.3850   96.5760   25.9310 C   0  0  0  0  0
   49.4570   95.7320   26.3150 C   0  0  0  0  0
   50.7400   95.9630   25.7890 C   0  0  0  0  0
   52.2550   97.1830   24.0890 C   0  0  0  0  0
   52.3290   98.1840   23.0660 C   0  0  0  0  0
   51.3240   99.0130   22.6340 C   0  0  0  0  0
   50.0100   98.8220   23.2510 C   0  0  0  0  0
   49.8370   97.7690   24.3230 C   0  0  0  0  0
   50.9530   96.9310   24.7700 C   0  0  0  0  0
   53.5140   96.5520   24.1290 C   0  0  0  0  0
   54.3960   97.1900   23.1050 C   0  0  0  0  0
   55.6610   97.7780   23.6650 C   0  0  0  0  0
   51.4930  100.0520   21.5610 C   0  0  0  0  0
   46.1860   97.1360   26.9700 C   0  0  0  0  0
   44.9500   96.4320   27.4620 C   0  0  0  0  0
   44.2900   95.4300   26.7750 C   0  0  0  0  0
   44.5910   94.8230   25.4530 C   0  0  0  0  0
   43.9750   93.7080   25.0000 C   0  0  0  0  0
   44.6080   92.4180   24.4920 C   0  0  0  0  0
   45.5840   92.6570   23.3310 C   0  0  0  0  0
   46.5630   91.5170   22.9750 C   0  0  0  0  0
   47.6020   91.8680   21.9000 C   0  0  0  0  0
   49.0440   92.2220   22.3380 C   0  0  0  0  0
   49.8020   92.8550   21.1450 C   0  0  0  0  0
   50.8070   93.9880   21.5070 C   0  0  0  0  0
   51.7880   94.2900   20.3470 C   0  0  0  0  0
   52.9080   95.3130   20.6580 C   0  0  0  0  0
   53.8110   95.1490   21.6370 C   0  0  0  0  0
   44.5020   96.9280   28.8180 C   0  0  0  0  0
   45.2760   91.7660   25.7270 C   0  0  0  0  0
   45.8240   90.2230   22.5320 C   0  0  0  0  0
   49.8170   91.0080   22.8920 C   0  0  0  0  0
   49.9950   95.1930   21.8990 C   0  0  0  0  0
   49.8960   91.2800   19.3140 C   0  0  0  0  0
   50.7110   90.2400   18.6950 C   0  0  0  0  0
   51.5090   94.2020   17.9340 C   0  0  0  0  0
   46.4370   89.9910   30.7930 C   0  0  0  0  0
   48.3610   91.1980   29.8110 C   0  0  0  0  0
   48.9090   92.5760   29.4650 C   0  0  0  0  0
   46.6690   93.5100   29.3310 C   0  0  0  0  0
   46.0630   92.1580   29.6540 C   0  0  0  0  0
   49.2890   94.5610   27.1830 C   0  0  0  0  0
   47.0960   96.2860   26.4730 N   0  0  0  0  0
   48.2940   94.4940   28.0160 N   0  0  0  0  0
   47.9480   93.2900   28.6360 N   0  0  0  0  0
   47.0030   91.3270   30.4890 N   0  3  0  0  0
   47.4710   98.2660   24.4880 O   0  0  0  0  0
   49.0060   99.5380   22.8930 O   0  0  0  0  0
   53.5730   98.2380   22.5010 O   0  0  0  0  0
   53.9740   95.5980   24.8210 O   0  0  0  0  0
   54.7730   96.1920   22.0560 O   0  0  0  0  0
   50.9860   94.7380   19.1860 O   0  0  0  0  0
   50.4690   91.7950   20.4280 O   0  0  0  0  0
   48.8560   91.6640   18.9130 O   0  0  0  0  0
   47.1610   92.9800   21.0830 O   0  0  0  0  0
   44.7560   92.9820   22.2120 O   0  0  0  0  0
   46.2900   98.3430   27.0470 O   0  0  0  0  0
   51.7320   95.1630   26.3180 O   0  0  0  0  0
   55.4103   98.5461   24.3967 H   0  0  0  0  0
   56.2434   96.9923   24.1462 H   0  0  0  0  0
   56.2433   98.2205   22.8568 H   0  0  0  0  0
   52.2565  100.7673   21.8667 H   0  0  0  0  0
   51.7975   99.5680   20.6331 H   0  0  0  0  0
   50.5471  100.5715   21.4079 H   0  0  0  0  0
   43.4145   95.0230   27.2810 H   0  0  0  0  0
   45.6303   94.5102   25.5533 H   0  0  0  0  0
   44.2692   95.5894   24.7479 H   0  0  0  0  0
   43.5112   94.0839   24.0880 H   0  0  0  0  0
   43.4894   93.3557   25.9101 H   0  0  0  0  0
   43.8603   91.7516   24.0619 H   0  0  0  0  0
   46.2717   93.4460   23.6355 H   0  0  0  0  0
   47.0990   91.3505   23.9094 H   0  0  0  0  0
   47.6636   90.9127   21.3787 H   0  0  0  0  0
   48.9742   92.9382   23.1567 H   0  0  0  0  0
   49.0537   93.3581   20.5326 H   0  0  0  0  0
   51.4422   93.6793   22.3372 H   0  0  0  0  0
   52.3312   93.3662   20.1479 H   0  0  0  0  0
   52.9661   96.2150   20.0488 H   0  0  0  0  0
   53.8373   94.1900   22.1545 H   0  0  0  0  0
   43.4885   97.3219   28.7427 H   0  0  0  0  0
   44.5205   96.1026   29.5297 H   0  0  0  0  0
   45.1752   97.7159   29.1559 H   0  0  0  0  0
   46.0268   92.4441   26.1327 H   0  0  0  0  0
   44.5185   91.5653   26.4846 H   0  0  0  0  0
   45.7514   90.8311   25.4302 H   0  0  0  0  0
   45.1820   89.8773   23.3422 H   0  0  0  0  0
   45.2175   90.4358   21.6517 H   0  0  0  0  0
   46.5562   89.4518   22.2926 H   0  0  0  0  0
   49.2929   90.6111   23.7614 H   0  0  0  0  0
   49.8821   90.2385   22.1228 H   0  0  0  0  0
   50.8205   91.3194   23.1820 H   0  0  0  0  0
   49.3637   95.4920   21.0622 H   0  0  0  0  0
   49.3700   94.9450   22.7569 H   0  0  0  0  0
   50.6653   96.0117   22.1608 H   0  0  0  0  0
   50.1448   89.3093   18.6598 H   0  0  0  0  0
   50.9773   90.5433   17.6825 H   0  0  0  0  0
   51.6177   90.0932   19.2819 H   0  0  0  0  0
   52.5356   94.5413   17.7957 H   0  0  0  0  0
   51.4866   93.1128   17.9691 H   0  0  0  0  0
   50.8942   94.5528   17.1051 H   0  0  0  0  0
   46.3158   89.4298   29.8665 H   0  0  0  0  0
   47.1130   89.4543   31.4586 H   0  0  0  0  0
   45.4675   90.1101   31.2766 H   0  0  0  0  0
   49.0527   90.6990   30.4897 H   0  0  0  0  0
   48.2487   90.6183   28.8948 H   0  0  0  0  0
   49.8466   92.4665   28.9199 H   0  0  0  0  0
   49.0830   93.1374   30.3829 H   0  0  0  0  0
   46.8348   94.0740   30.2489 H   0  0  0  0  0
   45.9918   94.0807   28.6955 H   0  0  0  0  0
   45.8681   91.6312   28.7199 H   0  0  0  0  0
   45.1424   92.3140   30.2164 H   0  0  0  0  0
   50.0047   93.7407   27.1286 H   0  0  0  0  0
   46.8325   95.3007   26.4834 H   0  0  0  0  0
   47.1305   91.8128   31.3768 H   0  0  0  0  0
   47.7437   98.8852   23.8070 H   0  0  0  0  0
   48.2324   99.2778   23.3984 H   0  0  0  0  0
   47.8296   93.1751   20.4223 H   0  0  0  0  0
   45.3079   93.1452   21.4437 H   0  0  0  0  0
   52.5717   95.3830   25.9079 H   0  0  0  0  0
  2  1  4  0  0  0
  1  9  4  0  0  0
  1 48  1  0  0  0
  3  2  4  0  0  0
  2 44  1  0  0  0
  3  4  4  0  0  0
 43  3  1  0  0  0
  4 10  4  0  0  0
  4 59  1  0  0  0
  5  6  4  0  0  0
 10  5  4  0  0  0
  5 11  1  0  0  0
  6  7  4  0  0  0
  6 50  1  0  0  0
  8  7  4  0  0  0
  7 14  1  0  0  0
  9  8  4  0  0  0
  8 49  1  0  0  0
 10  9  4  0  0  0
 11 12  1  0  0  0
 11 51  2  0  0  0
 12 13  1  0  0  0
 12 50  1  0  0  0
 12 52  1  0  0  0
 15 16  1  0  0  0
 44 15  1  0  0  0
 15 58  2  0  0  0
 16 17  2  0  0  0
 16 30  1  0  0  0
 17 18  1  0  0  0
 18 19  1  0  0  0
 19 20  1  0  0  0
 20 21  1  0  0  0
 20 31  1  0  0  0
 21 22  1  0  0  0
 21 57  1  0  0  0
 22 23  1  0  0  0
 22 32  1  0  0  0
 23 24  1  0  0  0
 23 56  1  0  0  0
 25 24  1  0  0  0
 24 33  1  0  0  0
 26 25  1  0  0  0
 25 54  1  0  0  0
 27 26  1  0  0  0
 26 34  1  0  0  0
 28 27  1  0  0  0
 27 53  1  0  0  0
 29 28  2  0  0  0
 52 29  1  0  0  0
 35 36  1  0  0  0
 54 35  1  0  0  0
 35 55  2  0  0  0
 53 37  1  0  0  0
 47 38  1  0  0  0
 40 39  1  0  0  0
 39 47  1  0  0  0
 46 40  1  0  0  0
 41 42  1  0  0  0
 46 41  1  0  0  0
 42 47  1  0  0  0
 45 43  2  0  0  0
 45 46  1  0  0  0
 13 60  1  0  0  0
 13 61  1  0  0  0
 13 62  1  0  0  0
 14 63  1  0  0  0
 14 64  1  0  0  0
 14 65  1  0  0  0
 17 66  1  0  0  0
 18 67  1  0  0  0
 18 68  1  0  0  0
 19 69  1  0  0  0
 19 70  1  0  0  0
 20 71  1  0  0  0
 21 72  1  0  0  0
 22 73  1  0  0  0
 23 74  1  0  0  0
 24 75  1  0  0  0
 25 76  1  0  0  0
 26 77  1  0  0  0
 27 78  1  0  0  0
 28 79  1  0  0  0
 29 80  1  0  0  0
 30 81  1  0  0  0
 30 82  1  0  0  0
 30 83  1  0  0  0
 31 84  1  0  0  0
 31 85  1  0  0  0
 31 86  1  0  0  0
 32 87  1  0  0  0
 32 88  1  0  0  0
 32 89  1  0  0  0
 33 90  1  0  0  0
 33 91  1  0  0  0
 33 92  1  0  0  0
 34 93  1  0  0  0
 34 94  1  0  0  0
 34 95  1  0  0  0
 36 96  1  0  0  0
 36 97  1  0  0  0
 36 98  1  0  0  0
 37 99  1  0  0  0
 37100  1  0  0  0
 37101  1  0  0  0
 38102  1  0  0  0
 38103  1  0  0  0
 38104  1  0  0  0
 39105  1  0  0  0
 39106  1  0  0  0
 40107  1  0  0  0
 40108  1  0  0  0
 41109  1  0  0  0
 41110  1  0  0  0
 42111  1  0  0  0
 42112  1  0  0  0
 43113  1  0  0  0
 44114  1  0  0  0
 47115  1  0  0  0
 48116  1  0  0  0
 49117  1  0  0  0
 56118  1  0  0  0
 57119  1  0  0  0
 59120  1  0  0  0
M  END
$$$$
