1xz8_ligand
  -I-interpret- 

 34 35  0  0  0  0  0  0  0  0999 V2000
   20.2550   29.7180    5.1360 N   0  0  0  0  0
   20.5420   31.1140    5.0590 C   0  0  0  0  0
   20.5350   31.7640    6.2920 N   0  0  0  0  0
   20.2810   31.2020    7.5790 C   0  0  0  0  0
   20.0010   29.7970    7.5790 C   0  0  0  0  0
   19.9950   29.1330    6.4380 C   0  0  0  0  0
   20.7700   31.6660    3.9970 O   0  0  0  0  0
   20.3180   31.9360    8.5410 O   0  0  0  0  0
   20.2220   28.8470    3.8570 C   0  0  0  0  0
   21.6140   28.8270    3.1740 C   0  0  0  0  0
   21.5620   28.9050    1.7000 O   0  0  0  0  0
   22.2540   27.5830    3.7400 C   0  0  0  0  0
   21.0370   26.6320    3.9030 C   0  0  0  0  0
   23.3160   27.0880    2.8630 O   0  0  0  0  0
   19.9250   27.5330    4.2310 O   0  0  0  0  0
   21.1190   25.7250    5.1260 C   0  0  0  0  0
   20.2800   24.5580    5.0170 O   0  0  0  0  0
   19.7570   23.7550    6.3050 P   0  0  0  0  0
   20.7760   23.1940    7.2430 O   0  0  0  0  0
   18.9330   22.5900    5.8960 O   0  0  0  0  0
   18.6340   24.8250    6.9180 O   0  0  0  0  0
   20.7360   32.7638    6.2720 H   0  0  0  0  0
   19.7941   29.2793    8.5156 H   0  0  0  0  0
   19.7785   28.0654    6.4770 H   0  0  0  0  0
   19.4803   29.2564    3.1711 H   0  0  0  0  0
   22.2094   29.7147    3.3875 H   0  0  0  0  0
   22.4550   28.8877    1.3481 H   0  0  0  0  0
   22.7784   27.7203    4.6857 H   0  0  0  0  0
   20.9590   26.0172    3.0063 H   0  0  0  0  0
   23.7043   26.2984    3.2468 H   0  0  0  0  0
   20.7805   26.2986    5.9888 H   0  0  0  0  0
   22.1505   25.3855    5.2198 H   0  0  0  0  0
   21.3494   23.9000    7.5503 H   0  0  0  0  0
   19.0807   25.6221    7.2126 H   0  0  0  0  0
  1  2  1  0  0  0
  1  6  1  0  0  0
  1  9  1  0  0  0
  2  3  1  0  0  0
  2  7  2  0  0  0
  3  4  1  0  0  0
  4  5  1  0  0  0
  4  8  2  0  0  0
  5  6  2  0  0  0
  9 10  1  0  0  0
  9 15  1  0  0  0
 10 11  1  0  0  0
 10 12  1  0  0  0
 12 13  1  0  0  0
 12 14  1  0  0  0
 13 15  1  0  0  0
 13 16  1  0  0  0
 16 17  1  0  0  0
 17 18  1  0  0  0
 18 19  1  0  0  0
 18 20  2  0  0  0
 18 21  1  0  0  0
  3 22  1  0  0  0
  5 23  1  0  0  0
  6 24  1  0  0  0
  9 25  1  0  0  0
 10 26  1  0  0  0
 11 27  1  0  0  0
 12 28  1  0  0  0
 13 29  1  0  0  0
 14 30  1  0  0  0
 16 31  1  0  0  0
 16 32  1  0  0  0
 19 33  1  0  0  0
 21 34  1  0  0  0
M  END
$$$$
