### 
### Created by X-TOOL on Mon Sep 10 21:12:53 2018
### 

@<TRIPOS>MOLECULE
1xz8_ligand
   32    33     1     0     0
SMALL
GAST_HUCK


@<TRIPOS>ATOM
      1 N1         20.2550   29.7180    5.1360 N.am      1 U5P        -0.1592
      2 C2         20.5420   31.1140    5.0590 C.2       1 U5P         0.3328
      3 N3         20.5350   31.7640    6.2920 N.am      1 U5P        -0.1865
      4 C4         20.2810   31.2020    7.5790 C.2       1 U5P         0.1822
      5 C5         20.0010   29.7970    7.5790 C.2       1 U5P         0.0062
      6 C6         19.9950   29.1330    6.4380 C.2       1 U5P         0.0591
      7 O2         20.7700   31.6660    3.9970 O.2       1 U5P        -0.3815
      8 O4         20.3180   31.9360    8.5410 O.2       1 U5P        -0.4124
      9 C1         20.2220   28.8470    3.8570 C.3       1 U5P         0.2059
     10 C2         21.6140   28.8270    3.1740 C.3       1 U5P         0.1387
     11 O2         21.5620   28.9050    1.7000 O.3       1 U5P        -0.3836
     12 C3         22.2540   27.5830    3.7400 C.3       1 U5P         0.1149
     13 C4         21.0370   26.6320    3.9030 C.3       1 U5P         0.1182
     14 O3         23.3160   27.0880    2.8630 O.3       1 U5P        -0.3864
     15 O4         19.9250   27.5330    4.2310 O.3       1 U5P        -0.3363
     16 C5         21.1190   25.7250    5.1260 C.3       1 U5P         0.1072
     17 O5         20.2800   24.5580    5.0170 O.3       1 U5P        -0.2734
     18 P          19.7570   23.7550    6.3050 P.3       1 U5P         0.2008
     19 O1P        20.7760   23.1940    7.2430 O.co2     1 U5P        -0.5537
     20 O2P        18.9330   22.5900    5.8960 O.co2     1 U5P        -0.5537
     21 O3P        18.6340   24.8250    6.9180 O.co2     1 U5P        -0.5537
     22 H1         20.7321   32.7442    6.2724 H         1 U5P         0.2259
     23 H2         19.7943   29.2797    8.5148 H         1 U5P         0.0258
     24 H3         19.7787   28.0664    6.4770 H         1 U5P         0.1178
     25 H4         19.4635   29.2324    3.1598 H         1 U5P         0.0997
     26 H5         22.1893   29.7014    3.5122 H         1 U5P         0.0676
     27 H6         22.4457   28.8879    1.3517 H         1 U5P         0.2101
     28 H7         22.6967   27.7911    4.7252 H         1 U5P         0.0648
     29 H8         20.8674   26.0481    2.9863 H         1 U5P         0.0650
     30 H9         24.0157   27.7293    2.8217 H         1 U5P         0.2100
     31 H10        20.8073   26.2997    6.0106 H         1 U5P         0.0639
     32 H11        22.1616   25.3971    5.2504 H         1 U5P         0.0639
@<TRIPOS>BOND
     1    1    2 am 
     2    1    6 1  
     3    1    9 1  
     4    2    3 am 
     5    2    7 2  
     6    3    4 am 
     7    4    5 1  
     8    4    8 2  
     9    5    6 2  
    10    9   10 1  
    11    9   15 1  
    12   10   11 1  
    13   10   12 1  
    14   12   13 1  
    15   12   14 1  
    16   13   15 1  
    17   13   16 1  
    18   16   17 1  
    19   17   18 1  
    20   18   19 ar 
    21   18   20 ar 
    22   18   21 ar 
    23    3   22 1  
    24    5   23 1  
    25    6   24 1  
    26    9   25 1  
    27   10   26 1  
    28   11   27 1  
    29   12   28 1  
    30   13   29 1  
    31   14   30 1  
    32   16   31 1  
    33   16   32 1  
@<TRIPOS>SUBSTRUCTURE
     1 U5P         1

