5nq5_ligand
  -I-interpret- 

 55 58  0  0  0  0  0  0  0  0999 V2000
  -24.7710   28.5490  -12.0630 O   0  0  0  0  0
  -24.7340   29.3890  -11.1650 C   0  0  0  0  0
  -24.0400   29.2270   -9.9060 C   0  0  0  0  0
  -23.3000   27.9450   -9.6460 C   0  0  0  0  0
  -25.3940   30.5940  -11.3220 N   0  0  0  0  0
  -25.4550   31.6290  -10.4230 C   0  0  0  0  0
  -26.0650   32.6620  -10.6580 O   0  0  0  0  0
  -24.7710   31.4100   -9.2470 N   0  0  0  0  0
  -24.0930   30.2340   -9.0200 C   0  0  0  0  0
  -24.7640   32.4840   -8.2300 C   0  0  0  0  0
  -23.3690   33.0600   -8.1810 C   0  0  0  0  0
  -23.2640   34.1410   -7.1980 N   0  3  0  0  0
  -23.6090   33.6410   -5.8610 C   0  0  0  0  0
  -25.0010   33.0520   -5.8180 C   0  0  0  0  0
  -25.1460   31.9500   -6.8590 C   0  0  0  0  0
  -21.9270   34.7510   -7.1970 C   0  0  0  0  0
  -21.5910   35.4800   -8.4770 C   0  0  0  0  0
  -20.4940   35.1030   -9.2370 C   0  0  0  0  0
  -20.1770   35.7760  -10.4040 C   0  0  0  0  0
  -20.9490   36.8400  -10.8320 C   0  0  0  0  0
  -22.0420   37.2220  -10.0740 C   0  0  0  0  0
  -22.3690   36.5480   -8.9070 C   0  0  0  0  0
  -22.8130   38.3180  -10.4600 O   0  0  0  0  0
  -23.6220   38.2290  -11.5920 C   0  0  0  0  0
  -23.9500   39.3880  -12.2760 C   0  0  0  0  0
  -24.7760   39.3120  -13.3840 C   0  0  0  0  0
  -25.2660   38.0950  -13.8070 C   0  0  0  0  0
  -24.9310   36.9440  -13.1260 C   0  0  0  0  0
  -24.1060   37.0010  -12.0150 C   0  0  0  0  0
  -22.2455   28.1634   -9.4773 H   0  0  0  0  0
  -23.7172   27.4586   -8.7643 H   0  0  0  0  0
  -23.4025   27.2865  -10.5085 H   0  0  0  0  0
  -25.8901   30.7283  -12.2030 H   0  0  0  0  0
  -23.5714   30.1140   -8.0704 H   0  0  0  0  0
  -25.4951   33.2459   -8.5002 H   0  0  0  0  0
  -23.1298   33.4652   -9.1642 H   0  0  0  0  0
  -22.6794   32.2662   -7.8939 H   0  0  0  0  0
  -23.9269   34.8700   -7.4618 H   0  0  0  0  0
  -23.5716   34.4782   -5.1640 H   0  0  0  0  0
  -22.8991   32.8573   -5.5966 H   0  0  0  0  0
  -25.7251   33.8383   -6.0314 H   0  0  0  0  0
  -25.1766   32.6299   -4.8285 H   0  0  0  0  0
  -24.4889   31.1200   -6.5994 H   0  0  0  0  0
  -26.1808   31.6083   -6.8806 H   0  0  0  0  0
  -21.2015   33.9459   -7.0804 H   0  0  0  0  0
  -21.9032   35.4826   -6.3894 H   0  0  0  0  0
  -19.8745   34.2673   -8.9116 H   0  0  0  0  0
  -19.3122   35.4648  -10.9900 H   0  0  0  0  0
  -20.7007   37.3696  -11.7518 H   0  0  0  0  0
  -23.2380   36.8566   -8.3259 H   0  0  0  0  0
  -23.5612   40.3509  -11.9447 H   0  0  0  0  0
  -25.0407   40.2202  -13.9255 H   0  0  0  0  0
  -25.9177   38.0427  -14.6791 H   0  0  0  0  0
  -25.3180   35.9828  -13.4642 H   0  0  0  0  0
  -23.8402   36.0899  -11.4790 H   0  0  0  0  0
  1  2  2  0  0  0
  2  3  1  0  0  0
  2  5  1  0  0  0
  3  4  1  0  0  0
  3  9  2  0  0  0
  5  6  1  0  0  0
  6  7  2  0  0  0
  6  8  1  0  0  0
  8  9  1  0  0  0
  8 10  1  0  0  0
 10 11  1  0  0  0
 10 15  1  0  0  0
 11 12  1  0  0  0
 12 13  1  0  0  0
 12 16  1  0  0  0
 13 14  1  0  0  0
 14 15  1  0  0  0
 16 17  1  0  0  0
 17 18  4  0  0  0
 17 22  4  0  0  0
 18 19  4  0  0  0
 19 20  4  0  0  0
 20 21  4  0  0  0
 21 22  4  0  0  0
 21 23  1  0  0  0
 23 24  1  0  0  0
 24 25  4  0  0  0
 24 29  4  0  0  0
 25 26  4  0  0  0
 26 27  4  0  0  0
 27 28  4  0  0  0
 28 29  4  0  0  0
  4 30  1  0  0  0
  4 31  1  0  0  0
  4 32  1  0  0  0
  5 33  1  0  0  0
  9 34  1  0  0  0
 10 35  1  0  0  0
 11 36  1  0  0  0
 11 37  1  0  0  0
 12 38  1  0  0  0
 13 39  1  0  0  0
 13 40  1  0  0  0
 14 41  1  0  0  0
 14 42  1  0  0  0
 15 43  1  0  0  0
 15 44  1  0  0  0
 16 45  1  0  0  0
 16 46  1  0  0  0
 18 47  1  0  0  0
 19 48  1  0  0  0
 20 49  1  0  0  0
 22 50  1  0  0  0
 25 51  1  0  0  0
 26 52  1  0  0  0
 27 53  1  0  0  0
 28 54  1  0  0  0
 29 55  1  0  0  0
M  END
$$$$
