1wbo_ligand
  -I-interpret- 

 13 13  0  0  0  0  0  0  0  0999 V2000
    5.1500   12.7340   31.7650 C   0  0  0  0  0
    6.2720   12.7150   32.6280 C   0  0  0  0  0
    7.4260   11.9570   32.2440 C   0  0  0  0  0
    7.4440   11.2400   31.0320 C   0  0  0  0  0
    6.3460   11.2250   30.1550 C   0  0  0  0  0
    5.1910   11.9880   30.5400 C   0  0  0  0  0
    4.0220   13.4590   32.0860 O   0  0  0  0  0
    3.8090   12.0580   29.5210 Cl  0  0  0  0  0
    6.2584   13.2670   33.5678 H   0  0  0  0  0
    8.2987   11.9352   32.8967 H   0  0  0  0  0
    8.3391   10.6781   30.7653 H   0  0  0  0  0
    6.3696   10.6593   29.2236 H   0  0  0  0  0
    3.3681   13.3559   31.3907 H   0  0  0  0  0
  1  2  4  0  0  0
  1  6  4  0  0  0
  1  7  1  0  0  0
  2  3  4  0  0  0
  3  4  4  0  0  0
  4  5  4  0  0  0
  5  6  4  0  0  0
  6  8  1  0  0  0
  2  9  1  0  0  0
  3 10  1  0  0  0
  4 11  1  0  0  0
  5 12  1  0  0  0
  7 13  1  0  0  0
M  END
$$$$
