4l0s_ligand
  -I-interpret- 

 28 30  0  0  0  0  0  0  0  0999 V2000
    7.5860   38.3260   12.9660 C   0  0  0  0  0
    7.5270   38.0310   14.3170 C   0  0  0  0  0
    8.2970   38.6240   15.1070 O   0  0  0  0  0
    6.6730   36.9710   14.7620 C   0  0  0  0  0
    6.5090   36.6600   16.0930 C   0  0  0  0  0
    5.6470   35.6060   16.4810 C   0  0  0  0  0
    5.0010   34.8110   15.4840 C   0  0  0  0  0
    5.1600   35.1510   14.1240 C   0  0  0  0  0
    5.9900   36.2080   13.7830 C   0  0  0  0  0
    6.1200   36.5540   12.4620 O   0  0  0  0  0
    6.8120   37.6350   12.0390 C   0  0  0  0  0
    6.7760   37.8290   10.6410 C   0  0  0  0  0
    6.0070   36.9520    9.8340 C   0  0  0  0  0
    5.9750   37.1240    8.4580 C   0  0  0  0  0
    6.6750   38.1660    7.8500 C   0  0  0  0  0
    6.6450   38.3150    6.4840 C   0  0  0  0  0
    6.6240   38.4270    5.4480 N   0  0  0  0  0
    7.4180   39.0460    8.6350 C   0  0  0  0  0
    7.4470   38.8830   10.0100 C   0  0  0  0  0
    8.2528   39.1162   12.6210 H   0  0  0  0  0
    7.0458   37.2284   16.8525 H   0  0  0  0  0
    5.4763   35.4012   17.5379 H   0  0  0  0  0
    4.3932   33.9529   15.7709 H   0  0  0  0  0
    4.6365   34.5893   13.3504 H   0  0  0  0  0
    5.4410   36.1427   10.2952 H   0  0  0  0  0
    5.3949   36.4355    7.8435 H   0  0  0  0  0
    7.9740   39.8593    8.1686 H   0  0  0  0  0
    8.0072   39.5943   10.6169 H   0  0  0  0  0
  1  2  1  0  0  0
  1 11  2  0  0  0
  2  3  2  0  0  0
  2  4  1  0  0  0
  4  5  4  0  0  0
  4  9  4  0  0  0
  5  6  4  0  0  0
  6  7  4  0  0  0
  7  8  4  0  0  0
  8  9  4  0  0  0
  9 10  1  0  0  0
 10 11  1  0  0  0
 11 12  1  0  0  0
 12 13  4  0  0  0
 12 19  4  0  0  0
 13 14  4  0  0  0
 14 15  4  0  0  0
 15 16  1  0  0  0
 15 18  4  0  0  0
 16 17  3  0  0  0
 18 19  4  0  0  0
  1 20  1  0  0  0
  5 21  1  0  0  0
  6 22  1  0  0  0
  7 23  1  0  0  0
  8 24  1  0  0  0
 13 25  1  0  0  0
 14 26  1  0  0  0
 18 27  1  0  0  0
 19 28  1  0  0  0
M  END
$$$$
