4a4h_ligand
  -I-interpret- 

 33 32  0  0  0  0  0  0  0  0999 V2000
   -9.8610   -2.0020   -0.7750 C   0  0  0  0  0
  -10.1980   -3.6530    1.0790 C   0  0  0  0  0
  -15.8920   -4.7610    3.9600 N   0  3  0  0  0
  -15.8380   -4.7810    2.5130 C   0  0  0  0  0
  -14.5900   -5.5200    2.0310 C   0  0  0  0  0
  -14.4820   -5.5880    0.5200 C   0  0  0  0  0
  -14.0990   -4.2550   -0.0840 C   0  0  0  0  0
  -12.7120   -3.9360    0.2170 N   0  0  0  0  0
  -11.9450   -3.0950   -0.4500 C   0  0  0  0  0
  -12.3920   -2.4410   -1.4880 N   0  0  0  0  0
  -10.7250   -2.9170   -0.0630 N   0  0  0  0  0
  -17.0590   -5.4960    2.0310 C   0  0  0  0  0
  -17.8600   -4.9050    1.2910 O   0  0  0  0  0
  -17.2470   -6.6420    2.4260 O   0  0  0  0  0
   -9.7621   -2.3288   -1.8101 H   0  0  0  0  0
  -10.2926   -1.0014   -0.7482 H   0  0  0  0  0
   -8.8793   -1.9884   -0.3015 H   0  0  0  0  0
  -10.7884   -3.4183    1.9647 H   0  0  0  0  0
  -10.2531   -4.7227    0.8770 H   0  0  0  0  0
   -9.1597   -3.3665    1.2465 H   0  0  0  0  0
  -15.0701   -4.2783    4.3231 H   0  0  0  0  0
  -16.7353   -4.2723    4.2608 H   0  0  0  0  0
  -15.9086   -5.7183    4.3117 H   0  0  0  0  0
  -15.7977   -3.7632    2.1250 H   0  0  0  0  0
  -14.6469   -6.5425    2.4044 H   0  0  0  0  0
  -13.7207   -4.9757    2.4000 H   0  0  0  0  0
  -15.4556   -5.8742    0.1222 H   0  0  0  0  0
  -13.7067   -6.3112    0.2669 H   0  0  0  0  0
  -14.7391   -3.4796    0.3369 H   0  0  0  0  0
  -14.2222   -4.3089   -1.1657 H   0  0  0  0  0
  -12.2931   -4.4068    1.0191 H   0  0  0  0  0
  -13.3539   -2.5749   -1.7997 H   0  0  0  0  0
  -17.5278   -4.0248    1.0998 H   0  0  0  0  0
 11  1  1  0  0  0
 11  2  1  0  0  0
  4  3  1  0  0  0
  5  4  1  0  0  0
  4 12  1  0  0  0
  6  5  1  0  0  0
  7  6  1  0  0  0
  8  7  1  0  0  0
  9  8  1  0  0  0
  9 10  2  0  0  0
  9 11  1  0  0  0
 12 13  1  0  0  0
 12 14  2  0  0  0
  1 15  1  0  0  0
  1 16  1  0  0  0
  1 17  1  0  0  0
  2 18  1  0  0  0
  2 19  1  0  0  0
  2 20  1  0  0  0
  3 21  1  0  0  0
  3 22  1  0  0  0
  3 23  1  0  0  0
  4 24  1  0  0  0
  5 25  1  0  0  0
  5 26  1  0  0  0
  6 27  1  0  0  0
  6 28  1  0  0  0
  7 29  1  0  0  0
  7 30  1  0  0  0
  8 31  1  0  0  0
 10 32  1  0  0  0
 13 33  1  0  0  0
M  END
$$$$
