### 
### Created by X-TOOL on Mon Sep 10 21:13:20 2018
### 

@<TRIPOS>MOLECULE
4xuz_ligand
   35    36     1     0     0
SMALL
GAST_HUCK


@<TRIPOS>ATOM
      1 S          44.4940   48.4720   10.8510 C.2       1 4D6        -0.0189
      2 C3         42.1420   47.6710   11.0480 C.2       1 4D6         0.0306
      3 C5         43.8470   49.0820   11.9340 C.2       1 4D6        -0.0924
      4 C7         40.1070   46.4530   11.9160 C.2       1 4D6         0.1613
      5 C11        37.5530   44.9670   12.7140 C.3       1 4D6        -0.1617
      6 C12        37.0070   44.2760   11.4600 C.3       1 4D6        -0.0894
      7 C14        37.1380   42.7900   11.5350 C.3       1 4D6        -0.1169
      8 C17        36.5670   42.0770   10.3430 C.3       1 4D6        -0.0122
      9 O20        36.7760   39.8260    9.5450 O.co2     1 4D6        -0.5690
     10 C18        36.4770   40.5630   10.5270 C.2       1 4D6         0.0338
     11 O19        36.0730   40.1000   11.6020 O.co2     1 4D6        -0.5690
     12 O16        38.3890   42.3370   11.9120 O.3       1 4D6        -0.8522
     13 B15        39.1070   42.9480   12.9600 B         1 4D6         3.0000
     14 O27        40.5210   42.5540   12.8440 O.3       1 4D6        -0.8710
     15 C34        38.9420   44.5420   12.9080 C.3       1 4D6        -0.2262
     16 N9         39.8550   45.1430   12.0080 N.am      1 4D6        -0.4363
     17 O8         39.7210   47.2800   12.7150 O.2       1 4D6        -0.3962
     18 C6         40.9040   46.8840   10.6750 C.3       1 4D6         0.0793
     19 S2         43.4760   47.4340   10.0540 S.3       1 4D6        -0.0419
     20 C4         42.4610   48.6310   12.0650 C.2       1 4D6        -0.0791
     21 H          45.5299   48.6557   10.5697 H         1 4D6         0.0603
     22 H          44.3188   49.8046   12.5982 H         1 4D6         0.0373
     23 H          36.9509   44.6797   13.5886 H         1 4D6        -0.0065
     24 H          37.5131   46.0585   12.5840 H         1 4D6        -0.0065
     25 H          37.5657   44.6375   10.5841 H         1 4D6         0.0232
     26 H          35.9433   44.5330   11.3481 H         1 4D6         0.0232
     27 H          36.4822   42.5006   12.3694 H         1 4D6         0.0128
     28 H          37.2069   42.2850    9.4728 H         1 4D6         0.0420
     29 H          35.5553   42.4661   10.1556 H         1 4D6         0.0420
     30 H          40.8609   42.8417   12.0049 H         1 4D6        -0.1290
     31 H          39.2441   44.8018   13.9333 H         1 4D6        -0.1822
     32 H          40.3536   44.5364   11.3887 H         1 4D6         0.1460
     33 H          41.2075   45.9859   10.1171 H         1 4D6         0.0684
     34 H          40.2615   47.5109   10.0392 H         1 4D6         0.0684
     35 H          41.7670   48.9768   12.8297 H         1 4D6         0.0284
@<TRIPOS>BOND
     1    3    1 2  
     2   19    1 1  
     3   18    2 1  
     4    2   19 1  
     5    2   20 2  
     6   20    3 1  
     7   16    4 am 
     8    4   17 2  
     9    4   18 1  
    10    5    6 1  
    11   15    5 1  
    12    6    7 1  
    13    7    8 1  
    14   12    7 1  
    15    8   10 1  
    16   10    9 ar 
    17   10   11 ar 
    18   13   12 1  
    19   13   14 1  
    20   15   13 1  
    21   15   16 1  
    22    1   21 1  
    23    3   22 1  
    24    5   23 1  
    25    5   24 1  
    26    6   25 1  
    27    6   26 1  
    28    7   27 1  
    29    8   28 1  
    30    8   29 1  
    31   14   30 1  
    32   15   31 1  
    33   16   32 1  
    34   18   33 1  
    35   18   34 1  
    36   20   35 1  
@<TRIPOS>SUBSTRUCTURE
     1 4D6         1

