4xuz_ligand
  -I-interpret- 

 36 37  0  0  0  0  0  0  0  0999 V2000
   44.4940   48.4720   10.8510 C   0  0  0  0  0
   42.1420   47.6710   11.0480 C   0  0  0  0  0
   43.8470   49.0820   11.9340 C   0  0  0  0  0
   40.1070   46.4530   11.9160 C   0  0  0  0  0
   37.5530   44.9670   12.7140 C   0  0  0  0  0
   37.0070   44.2760   11.4600 C   0  0  0  0  0
   37.1380   42.7900   11.5350 C   0  0  0  0  0
   36.5670   42.0770   10.3430 C   0  0  0  0  0
   36.7760   39.8260    9.5450 O   0  0  0  0  0
   36.4770   40.5630   10.5270 C   0  0  0  0  0
   36.0730   40.1000   11.6020 O   0  0  0  0  0
   38.3890   42.3370   11.9120 O   0  0  0  0  0
   39.1070   42.9480   12.9600 B   0  0  0  0  0
   40.5210   42.5540   12.8440 O   0  0  0  0  0
   38.9420   44.5420   12.9080 C   0  0  0  0  0
   39.8550   45.1430   12.0080 N   0  0  0  0  0
   39.7210   47.2800   12.7150 O   0  0  0  0  0
   40.9040   46.8840   10.6750 C   0  0  0  0  0
   43.4760   47.4340   10.0540 S   0  0  0  0  0
   42.4610   48.6310   12.0650 C   0  0  0  0  0
   45.5308   48.6558   10.5694 H   0  0  0  0  0
   44.3192   49.8053   12.5988 H   0  0  0  0  0
   36.9540   44.6923   13.5822 H   0  0  0  0  0
   37.5073   46.0494   12.5935 H   0  0  0  0  0
   37.5817   44.6250   10.6021 H   0  0  0  0  0
   35.9483   44.5199   11.3712 H   0  0  0  0  0
   36.4986   42.5081   12.3715 H   0  0  0  0  0
   37.2296   42.2664    9.4985 H   0  0  0  0  0
   35.5542   42.4502   10.1911 H   0  0  0  0  0
   37.0656   40.3738    8.8117 H   0  0  0  0  0
   41.0249   42.9624   13.5517 H   0  0  0  0  0
   39.2106   44.9174   13.8954 H   0  0  0  0  0
   40.3636   44.5243   11.3763 H   0  0  0  0  0
   41.2162   45.9873   10.1397 H   0  0  0  0  0
   40.2657   47.5197   10.0614 H   0  0  0  0  0
   41.7663   48.9771   12.8304 H   0  0  0  0  0
  3  1  4  0  0  0
 19  1  4  0  0  0
 18  2  1  0  0  0
  2 19  4  0  0  0
  2 20  4  0  0  0
 20  3  4  0  0  0
 16  4  1  0  0  0
  4 17  2  0  0  0
  4 18  1  0  0  0
  5  6  1  0  0  0
 15  5  1  0  0  0
  6  7  1  0  0  0
  7  8  1  0  0  0
 12  7  1  0  0  0
  8 10  1  0  0  0
 10  9  1  0  0  0
 10 11  2  0  0  0
 13 12  1  0  0  0
 13 14  1  0  0  0
 15 13  1  0  0  0
 15 16  1  0  0  0
  1 21  1  0  0  0
  3 22  1  0  0  0
  5 23  1  0  0  0
  5 24  1  0  0  0
  6 25  1  0  0  0
  6 26  1  0  0  0
  7 27  1  0  0  0
  8 28  1  0  0  0
  8 29  1  0  0  0
  9 30  1  0  0  0
 14 31  1  0  0  0
 15 32  1  0  0  0
 16 33  1  0  0  0
 18 34  1  0  0  0
 18 35  1  0  0  0
 20 36  1  0  0  0
M  END
$$$$
