6g9a_ligand
  -I-interpret- 

 61 65  0  0  0  0  0  0  0  0999 V2000
    8.3700    6.6100   44.7270 C   0  0  0  0  0
    9.6990    6.2260   44.7220 C   0  0  0  0  0
   10.6380    6.8860   44.0410 N   0  0  0  0  0
   10.2080    7.9620   43.3720 C   0  0  0  0  0
   10.9530    9.8780   41.9520 C   0  0  0  0  0
   10.4090    9.5980   40.5610 C   0  0  0  0  0
   12.0970   11.8530   40.9980 C   0  0  0  0  0
   12.2640   10.6340   41.8730 C   0  0  0  0  0
    8.0040    7.7490   44.0050 C   0  0  0  0  0
    6.6220    8.2810   43.8230 C   0  0  0  0  0
    6.2450    8.7870   42.5650 C   0  0  0  0  0
    2.5590    9.5930   43.3410 C   0  0  0  0  0
    0.8380    9.5730   45.2700 C   0  0  0  0  0
    0.3640   11.0240   45.1640 C   0  0  0  0  0
    2.3590   12.2960   45.8200 C   0  0  0  0  0
    2.8240   13.4340   46.6900 C   0  0  0  0  0
    1.2780   12.8230   48.3640 C   0  0  0  0  0
    0.7770   11.6850   47.5080 C   0  0  0  0  0
    3.0370    8.2580   46.5610 O   0  0  0  0  0
    4.3490    8.6690   44.5610 C   0  0  0  0  0
    7.2750    5.6600   45.6540 Cl  0  0  0  0  0
   11.1530    8.6350   42.6860 N   0  0  0  0  0
   10.3600   10.8770   39.7660 C   0  0  0  0  0
   11.6500   11.4940   39.6940 O   0  0  0  0  0
    8.9420    8.4190   43.3080 N   0  0  0  0  0
    4.9550    9.2360   42.3150 C   0  0  0  0  0
    3.9980    9.1780   43.3190 C   0  0  0  0  0
    2.1800    9.3220   44.7300 N   0  0  0  0  0
    0.9450   12.0150   46.0880 N   0  3  0  0  0
    2.6450   13.1430   48.0790 O   0  0  0  0  0
    3.1540    8.7000   45.4360 C   0  0  0  0  0
    5.6410    8.2010   44.8160 C   0  0  0  0  0
    9.9913    5.3481   45.2981 H   0  0  0  0  0
   10.2208   10.4897   42.4791 H   0  0  0  0  0
    9.4033    9.1857   40.6433 H   0  0  0  0  0
   11.0599    8.8842   40.0561 H   0  0  0  0  0
   13.0617   12.3526   40.9097 H   0  0  0  0  0
   11.3538   12.5082   41.4524 H   0  0  0  0  0
   13.0297    9.9857   41.4469 H   0  0  0  0  0
   12.5619   10.9460   42.8740 H   0  0  0  0  0
    6.9852    8.8275   41.7659 H   0  0  0  0  0
    1.9461    9.0576   42.6159 H   0  0  0  0  0
    2.4067   10.6320   43.0487 H   0  0  0  0  0
    0.1438    8.9700   44.6847 H   0  0  0  0  0
    0.8736    9.3287   46.3317 H   0  0  0  0  0
   -0.6994   10.9975   45.4019 H   0  0  0  0  0
    0.6602   11.3514   44.1674 H   0  0  0  0  0
    2.9518   11.4079   46.0393 H   0  0  0  0  0
    2.4808   12.5693   44.7719 H   0  0  0  0  0
    2.2348   14.3176   46.4448 H   0  0  0  0  0
    3.8862   13.5958   46.5064 H   0  0  0  0  0
    1.2079   12.5215   49.4091 H   0  0  0  0  0
    0.6697   13.7027   48.1538 H   0  0  0  0  0
   -0.2800   11.5182   47.7152 H   0  0  0  0  0
    1.3475   10.7850   47.7374 H   0  0  0  0  0
   12.0928    8.2386   42.6800 H   0  0  0  0  0
    9.6729   11.5654   40.2580 H   0  0  0  0  0
   10.0296   10.6441   38.7537 H   0  0  0  0  0
    4.6947    9.6327   41.3337 H   0  0  0  0  0
    0.4011   12.8570   45.8993 H   0  0  0  0  0
    5.8838    7.7737   45.7889 H   0  0  0  0  0
  1  2  4  0  0  0
  9  1  4  0  0  0
  1 21  1  0  0  0
  2  3  4  0  0  0
  4  3  4  0  0  0
  4 22  1  0  0  0
 25  4  4  0  0  0
  5  6  1  0  0  0
  5  8  1  0  0  0
 22  5  1  0  0  0
  6 23  1  0  0  0
  8  7  1  0  0  0
  7 24  1  0  0  0
 10  9  1  0  0  0
  9 25  4  0  0  0
 10 11  4  0  0  0
 32 10  4  0  0  0
 11 26  4  0  0  0
 27 12  1  0  0  0
 12 28  1  0  0  0
 13 14  1  0  0  0
 28 13  1  0  0  0
 14 29  1  0  0  0
 15 16  1  0  0  0
 29 15  1  0  0  0
 16 30  1  0  0  0
 18 17  1  0  0  0
 17 30  1  0  0  0
 29 18  1  0  0  0
 31 19  2  0  0  0
 20 27  4  0  0  0
 20 31  1  0  0  0
 20 32  4  0  0  0
 23 24  1  0  0  0
 26 27  4  0  0  0
 28 31  1  0  0  0
  2 33  1  0  0  0
  5 34  1  0  0  0
  6 35  1  0  0  0
  6 36  1  0  0  0
  7 37  1  0  0  0
  7 38  1  0  0  0
  8 39  1  0  0  0
  8 40  1  0  0  0
 11 41  1  0  0  0
 12 42  1  0  0  0
 12 43  1  0  0  0
 13 44  1  0  0  0
 13 45  1  0  0  0
 14 46  1  0  0  0
 14 47  1  0  0  0
 15 48  1  0  0  0
 15 49  1  0  0  0
 16 50  1  0  0  0
 16 51  1  0  0  0
 17 52  1  0  0  0
 17 53  1  0  0  0
 18 54  1  0  0  0
 18 55  1  0  0  0
 22 56  1  0  0  0
 23 57  1  0  0  0
 23 58  1  0  0  0
 26 59  1  0  0  0
 29 60  1  0  0  0
 32 61  1  0  0  0
M  END
$$$$
