6pml_ligand
  -I-interpret- 

 35 37  0  0  0  0  0  0  0  0999 V2000
   38.9820    5.1150    0.4680 C   0  0  0  0  0
   37.5540    5.8250    0.3530 C   0  0  0  0  0
   37.3130    7.0120    1.2330 C   0  0  0  0  0
   36.1810    7.3040    1.8930 C   0  0  0  0  0
   37.5040    8.9710    2.4700 C   0  0  0  0  0
   38.0180   10.1460    3.0470 C   0  0  0  0  0
   39.3370   10.5130    2.7550 C   0  0  0  0  0
   39.2570   12.4730    4.2400 C   0  0  0  0  0
   40.2060   13.5760    4.6840 C   0  0  0  0  0
   41.0900   13.4320    5.7520 C   0  0  0  0  0
   41.9740   14.4230    6.1440 C   0  0  0  0  0
   42.0450   15.6230    5.4670 C   0  0  0  0  0
   41.1900   15.8160    4.3910 C   0  0  0  0  0
   40.3050   14.8110    4.0100 C   0  0  0  0  0
   40.0600    9.6670    1.8940 C   0  0  0  0  0
   39.5230    8.5180    1.3440 C   0  0  0  0  0
   38.2240    8.1020    1.5950 C   0  0  0  0  0
   39.9640    5.7550    0.0370 O   0  0  0  0  0
   39.0170    3.9840    0.9870 O   0  0  0  0  0
   36.2280    8.4710    2.6550 O   0  0  0  0  0
   39.9060   11.6480    3.2790 O   0  0  0  0  0
   36.8234    5.0755    0.6572 H   0  0  0  0  0
   37.4866    6.1943   -0.6703 H   0  0  0  0  0
   35.2918    6.6760    1.8374 H   0  0  0  0  0
   37.4029   10.7575    3.7071 H   0  0  0  0  0
   38.3661   12.9169    3.7957 H   0  0  0  0  0
   38.9708   11.8707    5.1022 H   0  0  0  0  0
   41.0852   12.4932    6.3058 H   0  0  0  0  0
   42.6246   14.2522    7.0017 H   0  0  0  0  0
   42.7515   16.3964    5.7682 H   0  0  0  0  0
   41.2114   16.7576    3.8423 H   0  0  0  0  0
   39.6582   14.9869    3.1504 H   0  0  0  0  0
   41.0894    9.9293    1.6498 H   0  0  0  0  0
   40.1467    7.9136    0.6854 H   0  0  0  0  0
   39.6666    6.5981   -0.3127 H   0  0  0  0  0
  2  1  1  0  0  0
  1 18  1  0  0  0
  1 19  2  0  0  0
  3  2  1  0  0  0
  4  3  4  0  0  0
 17  3  4  0  0  0
 20  4  4  0  0  0
  6  5  4  0  0  0
  5 17  4  0  0  0
  5 20  4  0  0  0
  7  6  4  0  0  0
  7 15  4  0  0  0
 21  7  1  0  0  0
  8  9  1  0  0  0
  8 21  1  0  0  0
  9 10  4  0  0  0
  9 14  4  0  0  0
 10 11  4  0  0  0
 11 12  4  0  0  0
 12 13  4  0  0  0
 13 14  4  0  0  0
 15 16  4  0  0  0
 16 17  4  0  0  0
  2 22  1  0  0  0
  2 23  1  0  0  0
  4 24  1  0  0  0
  6 25  1  0  0  0
  8 26  1  0  0  0
  8 27  1  0  0  0
 10 28  1  0  0  0
 11 29  1  0  0  0
 12 30  1  0  0  0
 13 31  1  0  0  0
 14 32  1  0  0  0
 15 33  1  0  0  0
 16 34  1  0  0  0
 18 35  1  0  0  0
M  END
$$$$
