4tjy_ligand
  -I-interpret- 

 34 36  0  0  0  0  0  0  0  0999 V2000
   25.2190   48.3640   -0.2240 C   0  0  0  0  0
   23.9990   48.8040   -0.8040 C   0  0  0  0  0
   23.6710   50.1610   -0.7330 C   0  0  0  0  0
   26.9560   47.2360    0.6070 C   0  0  0  0  0
   23.0730   47.8910   -1.6230 C   0  0  0  0  0
   27.8640   46.1000    1.1100 C   0  0  0  0  0
   28.3460   44.8770    3.1250 C   0  0  0  0  0
   27.1320   44.6880    1.0310 C   0  0  0  0  0
   24.4500   51.0900    0.0490 C   0  0  0  0  0
   25.7010   50.6640    0.6010 C   0  0  0  0  0
   26.0320   49.3040    0.4910 C   0  0  0  0  0
   27.1390   48.5740    0.9660 N   0  0  0  0  0
   25.7900   47.0670   -0.0740 N   0  0  0  0  0
   23.1970   46.5230   -1.4920 N   0  0  0  0  0
   22.2540   48.3150   -2.4270 O   0  0  0  0  0
   28.1390   46.2420    2.5880 N   0  3  0  0  0
   27.2880   44.0350    2.4260 C   0  0  0  0  0
   29.2100   46.0750    0.3690 C   0  0  0  0  0
   22.8039   50.5269   -1.2829 H   0  0  0  0  0
   28.2473   44.8430    4.2100 H   0  0  0  0  0
   29.3546   44.5096    2.9357 H   0  0  0  0  0
   27.5729   44.0622    0.2551 H   0  0  0  0  0
   26.0803   44.8071    0.7707 H   0  0  0  0  0
   24.0904   52.1050    0.2179 H   0  0  0  0  0
   26.3723   51.3705    1.0892 H   0  0  0  0  0
   22.6163   45.9020   -2.0555 H   0  0  0  0  0
   23.8694   46.1328   -0.8317 H   0  0  0  0  0
   27.3574   46.6992    3.0576 H   0  0  0  0  0
   28.9638   46.8206    2.7470 H   0  0  0  0  0
   26.3479   44.0200    2.9774 H   0  0  0  0  0
   27.5803   42.9872    2.3562 H   0  0  0  0  0
   29.8575   45.3229    0.8198 H   0  0  0  0  0
   29.0415   45.8299   -0.6796 H   0  0  0  0  0
   29.6823   47.0545    0.4431 H   0  0  0  0  0
  1  2  4  0  0  0
  1 11  4  0  0  0
 13  1  4  0  0  0
  2  3  4  0  0  0
  2  5  1  0  0  0
  3  9  4  0  0  0
  4  6  1  0  0  0
  4 12  4  0  0  0
  4 13  4  0  0  0
  5 14  1  0  0  0
  5 15  2  0  0  0
  6  8  1  0  0  0
  6 16  1  0  0  0
  6 18  1  0  0  0
 16  7  1  0  0  0
  7 17  1  0  0  0
  8 17  1  0  0  0
  9 10  4  0  0  0
 10 11  4  0  0  0
 11 12  4  0  0  0
  3 19  1  0  0  0
  7 20  1  0  0  0
  7 21  1  0  0  0
  8 22  1  0  0  0
  8 23  1  0  0  0
  9 24  1  0  0  0
 10 25  1  0  0  0
 14 26  1  0  0  0
 14 27  1  0  0  0
 16 28  1  0  0  0
 16 29  1  0  0  0
 17 30  1  0  0  0
 17 31  1  0  0  0
 18 32  1  0  0  0
 18 33  1  0  0  0
 18 34  1  0  0  0
M  END
$$$$
