4k75_ligand
  -I-interpret- 

136137  0  0  0  0  0  0  0  0999 V2000
   29.4900   23.9320   30.2340 N   0  3  0  0  0
   30.0220   23.5950   31.5490 C   0  0  0  0  0
   28.9220   23.3280   32.5800 C   0  0  0  0  0
   29.1980   23.2470   33.7770 O   0  0  0  0  0
   30.9540   24.7050   32.0520 C   0  0  0  0  0
   30.7360   26.0630   31.3910 C   0  0  0  0  0
   31.4870   27.1820   32.1140 C   0  0  0  0  0
   30.7510   27.6790   33.2750 N   0  0  0  0  0
   31.1010   28.7420   33.9960 C   0  0  0  0  0
   32.1880   29.4400   33.6880 N   0  0  0  0  0
   30.3560   29.1110   35.0310 N   0  0  0  0  0
   27.6830   23.1760   32.1150 N   0  0  0  0  0
   26.5380   23.0440   33.0190 C   0  0  0  0  0
   25.9880   21.6220   33.1160 C   0  0  0  0  0
   25.8780   20.9170   32.1110 O   0  0  0  0  0
   25.4030   23.9670   32.5730 C   0  0  0  0  0
   25.7710   25.4080   32.4800 C   0  0  0  0  0
   26.9810   25.9710   32.7680 C   0  0  0  0  0
   24.9150   26.4790   32.0720 C   0  0  0  0  0
   26.9300   27.3290   32.5630 N   0  0  0  0  0
   25.6730   27.6650   32.1310 C   0  0  0  0  0
   23.5820   26.5490   31.6570 C   0  0  0  0  0
   25.1420   28.9050   31.7970 C   0  0  0  0  0
   23.0560   27.7830   31.3180 C   0  0  0  0  0
   23.8340   28.9450   31.3930 C   0  0  0  0  0
   25.6080   21.2090   34.3060 N   0  0  0  0  0
   24.9090   19.9630   34.4740 C   0  0  0  0  0
   23.5400   20.0310   33.7960 C   0  0  0  0  0
   22.9760   21.0640   33.6980 O   0  0  0  0  0
   24.7270   19.6830   35.9690 C   0  0  0  0  0
   26.0110   19.8620   36.7360 C   0  0  0  0  0
   25.8460   20.1150   38.2090 C   0  0  0  0  0
   25.5180   19.2240   38.9880 O   0  0  0  0  0
   26.1070   21.3220   38.5960 N   0  0  0  0  0
   23.0200   18.8900   33.4230 N   0  0  0  0  0
   21.6860   18.8130   32.8470 C   0  0  0  0  0
   20.9860   17.5600   33.3600 C   0  0  0  0  0
   21.5040   16.4530   33.2180 O   0  0  0  0  0
   21.7760   18.7890   31.3240 C   0  0  0  0  0
   20.4190   18.7940   30.6630 C   0  0  0  0  0
   19.9390   19.8920   30.3130 O   0  0  0  0  0
   19.8370   17.7020   30.4950 O   0  0  0  0  0
   19.8080   17.7300   33.9550 N   0  0  0  0  0
   19.1340   16.6200   34.6280 C   0  0  0  0  0
   17.6840   16.4560   34.1940 C   0  0  0  0  0
   16.9100   17.4080   34.2310 O   0  0  0  0  0
   19.1810   16.7980   36.1490 C   0  0  0  0  0
   20.5480   16.9060   36.5650 O   0  0  0  0  0
   18.5070   15.6250   36.8590 C   0  0  0  0  0
   17.3260   15.2460   33.7780 N   0  0  0  0  0
   15.9450   14.9130   33.4570 C   0  0  0  0  0
   15.1230   14.6120   34.7120 C   0  0  0  0  0
   15.5430   13.8310   35.5850 O   0  0  0  0  0
   15.9000   13.7260   32.4960 C   0  0  0  0  0
   14.5090   13.3590   32.0360 C   0  0  0  0  0
   14.5890   12.4280   30.8390 C   0  0  0  0  0
   13.2720   12.0290   30.3550 N   0  0  0  0  0
   13.0580   11.4840   29.1600 C   0  0  0  0  0
   14.0730   11.2850   28.3310 N   0  0  0  0  0
   11.8320   11.1440   28.7920 N   0  0  0  0  0
   13.9470   15.2290   34.8000 N   0  0  0  0  0
   13.0720   15.1020   35.9590 C   0  0  0  0  0
   11.6810   14.6390   35.5530 C   0  0  0  0  0
   11.3250   14.6770   34.3670 O   0  0  0  0  0
   12.9470   16.4490   36.6820 C   0  0  0  0  0
   14.2430   17.1670   37.0570 C   0  0  0  0  0
   13.9590   18.6030   37.4830 C   0  0  0  0  0
   14.9760   16.4140   38.1570 C   0  0  0  0  0
   10.8810   14.2560   36.4050 O   0  0  0  0  0
   28.8736   23.1841   29.9160 H   0  0  0  0  0
   28.9649   24.8044   30.2943 H   0  0  0  0  0
   30.2606   24.0425   29.5749 H   0  0  0  0  0
   30.5862   22.6698   31.4312 H   0  0  0  0  0
   31.9728   24.3963   31.8178 H   0  0  0  0  0
   30.7531   24.8323   33.1157 H   0  0  0  0  0
   29.6707   26.2909   31.4257 H   0  0  0  0  0
   31.1104   26.0076   30.3688 H   0  0  0  0  0
   31.6185   28.0088   31.4160 H   0  0  0  0  0
   32.4396   26.7821   32.4616 H   0  0  0  0  0
   29.9087   27.1752   33.5527 H   0  0  0  0  0
   32.4461   30.2543   34.2454 H   0  0  0  0  0
   32.7647   29.1618   32.8940 H   0  0  0  0  0
   29.5186   28.5806   35.2715 H   0  0  0  0  0
   27.5282   23.1510   31.1071 H   0  0  0  0  0
   26.9118   23.3206   34.0048 H   0  0  0  0  0
   24.6170   23.8885   33.3241 H   0  0  0  0  0
   25.1109   23.6493   31.5721 H   0  0  0  0  0
   27.8591   25.4235   33.1105 H   0  0  0  0  0
   22.9691   25.6493   31.6016 H   0  0  0  0  0
   25.7440   29.8119   31.8544 H   0  0  0  0  0
   22.0197   27.8518   30.9873 H   0  0  0  0  0
   23.3886   29.9027   31.1238 H   0  0  0  0  0
   25.8127   21.7827   35.1242 H   0  0  0  0  0
   25.4900   19.1622   34.0166 H   0  0  0  0  0
   24.4013   18.6493   36.0854 H   0  0  0  0  0
   23.9940   20.3879   36.3614 H   0  0  0  0  0
   26.5041   20.7408   36.3205 H   0  0  0  0  0
   26.5666   18.9293   36.6387 H   0  0  0  0  0
   26.0439   21.5655   39.5845 H   0  0  0  0  0
   26.3758   22.0298   37.9125 H   0  0  0  0  0
   23.5626   18.0340   33.5387 H   0  0  0  0  0
   21.1094   19.6892   33.1436 H   0  0  0  0  0
   22.2881   17.8720   31.0324 H   0  0  0  0  0
   22.3081   19.6852   31.0050 H   0  0  0  0  0
   20.3855   16.9924   30.8373 H   0  0  0  0  0
   19.3676   18.6499   33.9415 H   0  0  0  0  0
   19.6750   15.7194   34.3375 H   0  0  0  0  0
   18.6397   17.7057   36.4159 H   0  0  0  0  0
   20.5835   17.0178   37.5178 H   0  0  0  0  0
   17.4648   15.5628   36.5459 H   0  0  0  0  0
   19.0217   14.7001   36.5987 H   0  0  0  0  0
   18.5553   15.7782   37.9371 H   0  0  0  0  0
   18.0422   14.5264   33.6802 H   0  0  0  0  0
   15.4991   15.7836   32.9760 H   0  0  0  0  0
   16.3020   12.8640   33.0284 H   0  0  0  0  0
   16.4698   14.0060   31.6100 H   0  0  0  0  0
   13.9738   14.2649   31.7516 H   0  0  0  0  0
   13.9829   12.8565   32.8477 H   0  0  0  0  0
   15.1217   11.5283   31.1469 H   0  0  0  0  0
   15.0978   12.9576   30.0336 H   0  0  0  0  0
   12.4696   12.1761   30.9673 H   0  0  0  0  0
   13.9084   10.8713   27.4133 H   0  0  0  0  0
   15.0186   11.5455   28.6108 H   0  0  0  0  0
   11.0478   11.2996   29.4254 H   0  0  0  0  0
   13.6448   15.8163   34.0227 H   0  0  0  0  0
   13.5163   14.3598   36.6222 H   0  0  0  0  0
   12.0519   14.9940   33.8259 H   0  0  0  0  0
   12.4467   16.2317   37.6257 H   0  0  0  0  0
   12.4342   17.1114   35.9846 H   0  0  0  0  0
   14.8853   17.1936   36.1767 H   0  0  0  0  0
   13.4845   19.1376   36.6601 H   0  0  0  0  0
   13.2945   18.5996   38.3470 H   0  0  0  0  0
   14.8957   19.0948   37.7454 H   0  0  0  0  0
   14.3391   16.3516   39.0394 H   0  0  0  0  0
   15.2170   15.4094   37.8094 H   0  0  0  0  0
   15.8953   16.9434   38.4076 H   0  0  0  0  0
  1  2  1  0  0  0
  2  3  1  0  0  0
  2  5  1  0  0  0
  3  4  2  0  0  0
  3 12  1  0  0  0
  5  6  1  0  0  0
  6  7  1  0  0  0
  7  8  1  0  0  0
  8  9  1  0  0  0
  9 10  1  0  0  0
  9 11  2  0  0  0
 12 13  1  0  0  0
 13 14  1  0  0  0
 13 16  1  0  0  0
 14 15  2  0  0  0
 14 26  1  0  0  0
 16 17  1  0  0  0
 17 18  4  0  0  0
 17 19  4  0  0  0
 18 20  4  0  0  0
 19 21  4  0  0  0
 19 22  4  0  0  0
 20 21  4  0  0  0
 21 23  4  0  0  0
 22 24  4  0  0  0
 23 25  4  0  0  0
 24 25  4  0  0  0
 26 27  1  0  0  0
 27 28  1  0  0  0
 27 30  1  0  0  0
 28 29  2  0  0  0
 28 35  1  0  0  0
 30 31  1  0  0  0
 31 32  1  0  0  0
 32 33  2  0  0  0
 32 34  1  0  0  0
 35 36  1  0  0  0
 36 37  1  0  0  0
 36 39  1  0  0  0
 37 38  2  0  0  0
 37 43  1  0  0  0
 39 40  1  0  0  0
 40 41  2  0  0  0
 40 42  1  0  0  0
 43 44  1  0  0  0
 44 45  1  0  0  0
 44 47  1  0  0  0
 45 46  2  0  0  0
 45 50  1  0  0  0
 47 48  1  0  0  0
 47 49  1  0  0  0
 50 51  1  0  0  0
 51 52  1  0  0  0
 51 54  1  0  0  0
 52 53  2  0  0  0
 52 61  1  0  0  0
 54 55  1  0  0  0
 55 56  1  0  0  0
 56 57  1  0  0  0
 57 58  1  0  0  0
 58 59  1  0  0  0
 58 60  2  0  0  0
 61 62  1  0  0  0
 62 63  1  0  0  0
 62 65  1  0  0  0
 63 64  1  0  0  0
 63 69  2  0  0  0
 65 66  1  0  0  0
 66 67  1  0  0  0
 66 68  1  0  0  0
  1 70  1  0  0  0
  1 71  1  0  0  0
  1 72  1  0  0  0
  2 73  1  0  0  0
  5 74  1  0  0  0
  5 75  1  0  0  0
  6 76  1  0  0  0
  6 77  1  0  0  0
  7 78  1  0  0  0
  7 79  1  0  0  0
  8 80  1  0  0  0
 10 81  1  0  0  0
 10 82  1  0  0  0
 11 83  1  0  0  0
 12 84  1  0  0  0
 13 85  1  0  0  0
 16 86  1  0  0  0
 16 87  1  0  0  0
 18 88  1  0  0  0
 22 89  1  0  0  0
 23 90  1  0  0  0
 24 91  1  0  0  0
 25 92  1  0  0  0
 26 93  1  0  0  0
 27 94  1  0  0  0
 30 95  1  0  0  0
 30 96  1  0  0  0
 31 97  1  0  0  0
 31 98  1  0  0  0
 34 99  1  0  0  0
 34100  1  0  0  0
 35101  1  0  0  0
 36102  1  0  0  0
 39103  1  0  0  0
 39104  1  0  0  0
 42105  1  0  0  0
 43106  1  0  0  0
 44107  1  0  0  0
 47108  1  0  0  0
 48109  1  0  0  0
 49110  1  0  0  0
 49111  1  0  0  0
 49112  1  0  0  0
 50113  1  0  0  0
 51114  1  0  0  0
 54115  1  0  0  0
 54116  1  0  0  0
 55117  1  0  0  0
 55118  1  0  0  0
 56119  1  0  0  0
 56120  1  0  0  0
 57121  1  0  0  0
 59122  1  0  0  0
 59123  1  0  0  0
 60124  1  0  0  0
 61125  1  0  0  0
 62126  1  0  0  0
 64127  1  0  0  0
 65128  1  0  0  0
 65129  1  0  0  0
 66130  1  0  0  0
 67131  1  0  0  0
 67132  1  0  0  0
 67133  1  0  0  0
 68134  1  0  0  0
 68135  1  0  0  0
 68136  1  0  0  0
M  END
$$$$
