### 
### Created by X-TOOL on Mon Sep 10 21:13:18 2018
### 

@<TRIPOS>MOLECULE
4k75_ligand
  137   138     1     0     0
SMALL
GAST_HUCK


@<TRIPOS>ATOM
      1 N          29.4900   23.9320   30.2340 N.4       1 ARG         0.2379
      2 CA         30.0220   23.5950   31.5490 C.3       1 ARG         0.0651
      3 C          28.9220   23.3280   32.5800 C.2       1 ARG         0.2268
      4 O          29.1980   23.2470   33.7770 O.2       1 ARG        -0.3907
      5 CB         30.9540   24.7050   32.0520 C.3       1 ARG         0.0110
      6 CG         30.7360   26.0630   31.3910 C.3       1 ARG        -0.0125
      7 CD         31.4870   27.1820   32.1140 C.3       1 ARG         0.0629
      8 NE         30.7510   27.6790   33.2750 N.pl3     1 ARG        -0.2723
      9 CZ         31.1010   28.7420   33.9960 C.cat     1 ARG         0.2882
     10 NH1        32.1880   29.4400   33.6880 N.pl3     1 ARG        -0.2849
     11 NH2        30.3560   29.1110   35.0310 N.pl3     1 ARG        -0.2849
     12 N          27.6830   23.1760   32.1150 N.am      1 TRP        -0.2600
     13 CA         26.5380   23.0440   33.0190 C.3       1 TRP         0.1353
     14 C          25.9880   21.6220   33.1160 C.2       1 TRP         0.2052
     15 O          25.8780   20.9170   32.1110 O.2       1 TRP        -0.3942
     16 CB         25.4030   23.9670   32.5730 C.3       1 TRP         0.0042
     17 CG         25.7710   25.4080   32.4800 C.2       1 TRP        -0.0418
     18 CD1        26.9810   25.9710   32.7680 C.2       1 TRP         0.0167
     19 CD2        24.9150   26.4790   32.0720 C.ar      1 TRP        -0.0214
     20 NE1        26.9300   27.3290   32.5630 N.pl3     1 TRP        -0.2890
     21 CE2        25.6730   27.6650   32.1310 C.ar      1 TRP         0.0603
     22 CE3        23.5820   26.5490   31.6570 C.ar      1 TRP        -0.0747
     23 CZ2        25.1420   28.9050   31.7970 C.ar      1 TRP        -0.0443
     24 CZ3        23.0560   27.7830   31.3180 C.ar      1 TRP        -0.0792
     25 CH2        23.8340   28.9450   31.3930 C.ar      1 TRP        -0.0768
     26 N          25.6080   21.2090   34.3060 N.am      1 GLN        -0.2635
     27 CA         24.9090   19.9630   34.4740 C.3       1 GLN         0.1330
     28 C          23.5400   20.0310   33.7960 C.2       1 GLN         0.2041
     29 O          22.9760   21.0640   33.6980 O.2       1 GLN        -0.3944
     30 CB         24.7270   19.6830   35.9690 C.3       1 GLN         0.0045
     31 CG         26.0110   19.8620   36.7360 C.3       1 GLN         0.0412
     32 CD         25.8460   20.1150   38.2090 C.2       1 GLN         0.1737
     33 OE1        25.5180   19.2240   38.9880 O.2       1 GLN        -0.3973
     34 NE2        26.1070   21.3220   38.5960 N.am      1 GLN        -0.3009
     35 N          23.0200   18.8900   33.4230 N.am      1 ASP        -0.2622
     36 CA         21.6860   18.8130   32.8470 C.3       1 ASP         0.1423
     37 C          20.9860   17.5600   33.3600 C.2       1 ASP         0.2057
     38 O          21.5040   16.4530   33.2180 O.2       1 ASP        -0.3943
     39 CB         21.7760   18.7890   31.3240 C.3       1 ASP         0.0406
     40 CG         20.4190   18.7940   30.6630 C.2       1 ASP         0.0393
     41 OD1        19.9390   19.8920   30.3130 O.co2     1 ASP        -0.5688
     42 OD2        19.8370   17.7020   30.4950 O.co2     1 ASP        -0.5688
     43 N          19.8080   17.7300   33.9550 N.am      1 THR        -0.2612
     44 CA         19.1340   16.6200   34.6280 C.3       1 THR         0.1565
     45 C          17.6840   16.4560   34.1940 C.2       1 THR         0.2065
     46 O          16.9100   17.4080   34.2310 O.2       1 THR        -0.3943
     47 CB         19.1810   16.7980   36.1490 C.3       1 THR         0.0924
     48 OG1        20.5480   16.9060   36.5650 O.3       1 THR        -0.3874
     49 CG2        18.5070   15.6250   36.8590 C.3       1 THR        -0.0346
     50 N          17.3260   15.2460   33.7780 N.am      1 ARG        -0.2637
     51 CA         15.9450   14.9130   33.4570 C.3       1 ARG         0.1310
     52 C          15.1230   14.6120   34.7120 C.2       1 ARG         0.2033
     53 O          15.5430   13.8310   35.5850 O.2       1 ARG        -0.3944
     54 CB         15.9000   13.7260   32.4960 C.3       1 ARG        -0.0092
     55 CG         14.5090   13.3590   32.0360 C.3       1 ARG        -0.0156
     56 CD         14.5890   12.4280   30.8390 C.3       1 ARG         0.0627
     57 NE         13.2720   12.0290   30.3550 N.pl3     1 ARG        -0.2723
     58 CZ         13.0580   11.4840   29.1600 C.cat     1 ARG         0.2882
     59 NH1        14.0730   11.2850   28.3310 N.pl3     1 ARG        -0.2849
     60 NH2        11.8320   11.1440   28.7920 N.pl3     1 ARG        -0.2849
     61 N          13.9470   15.2290   34.8000 N.am      1 LEU        -0.2695
     62 CA         13.0720   15.1020   35.9590 C.3       1 LEU         0.0946
     63 C          11.6810   14.6390   35.5530 C.2       1 LEU         0.0601
     64 O          11.3250   14.6770   34.3670 O.co2     1 LEU        -0.5666
     65 CB         12.9470   16.4490   36.6820 C.3       1 LEU        -0.0156
     66 CG         14.2430   17.1670   37.0570 C.3       1 LEU        -0.0431
     67 CD1        13.9590   18.6030   37.4830 C.3       1 LEU        -0.0625
     68 CD2        14.9760   16.4140   38.1570 C.3       1 LEU        -0.0625
     69 OXT        10.8810   14.2560   36.4050 O.co2     1 LEU        -0.5666
     70 H          30.2522   24.0975   29.5955 H         1 ARG         0.2015
     71 H          28.9236   24.7629   30.3035 H         1 ARG         0.2015
     72 H          28.9265   23.1686   29.8938 H         1 ARG         0.2015
     73 H          30.6127   22.6732   31.4431 H         1 ARG         0.1098
     74 H          31.9920   24.3938   31.8631 H         1 ARG         0.0347
     75 H          30.7971   24.8209   33.1346 H         1 ARG         0.0347
     76 H          29.6605   26.2937   31.4009 H         1 ARG         0.0302
     77 H          31.0906   26.0123   30.3510 H         1 ARG         0.0302
     78 H          31.6452   28.0139   31.4119 H         1 ARG         0.0689
     79 H          32.4605   26.7958   32.4503 H         1 ARG         0.0689
     80 H          29.9005   27.1702   33.5554 H         1 ARG         0.2642
     81 H          32.4500   30.2609   34.2523 H         1 ARG         0.2615
     82 H          32.7691   29.1605   32.8848 H         1 ARG         0.2615
     83 H          29.5117   28.5740   35.2753 H         1 ARG         0.2615
     84 H          30.6223   29.9343   35.5897 H         1 ARG         0.2615
     85 H          27.5312   23.1515   31.1269 H         1 TRP         0.1886
     86 H          26.8688   23.3500   34.0225 H         1 TRP         0.0815
     87 H          24.5789   23.8700   33.2951 H         1 TRP         0.0397
     88 H          25.0622   23.6360   31.5809 H         1 TRP         0.0397
     89 H          27.8583   25.4240   33.1101 H         1 TRP         0.0795
     90 H          27.7089   27.9868   32.7099 H         1 TRP         0.2216
     91 H          22.9725   25.6543   31.6019 H         1 TRP         0.0540
     92 H          25.7407   29.8069   31.8541 H         1 TRP         0.0541
     93 H          22.0254   27.8514   30.9891 H         1 TRP         0.0510
     94 H          23.3910   29.8975   31.1253 H         1 TRP         0.0530
     95 H          25.8087   21.7714   35.1081 H         1 GLN         0.1883
     96 H          25.4979   19.1525   34.0199 H         1 GLN         0.0801
     97 H          24.3783   18.6476   36.0967 H         1 GLN         0.0337
     98 H          23.9734   20.3760   36.3712 H         1 GLN         0.0337
     99 H          26.5504   20.7168   36.3021 H         1 GLN         0.0504
    100 H          26.6114   18.9486   36.6127 H         1 GLN         0.0504
    101 H          26.0201   21.5673   39.5615 H         1 GLN         0.1814
    102 H          26.3956   22.0094   37.9295 H         1 GLN         0.1814
    103 H          23.5519   18.0508   33.5364 H         1 ASP         0.1884
    104 H          21.1091   19.6973   33.1554 H         1 ASP         0.0819
    105 H          22.3142   17.8801   31.0170 H         1 ASP         0.0478
    106 H          22.3340   19.6761   30.9899 H         1 ASP         0.0478
    107 H          19.3762   18.6319   33.9418 H         1 THR         0.1884
    108 H          19.6728   15.6966   34.3692 H         1 THR         0.0826
    109 H          18.6498   17.7235   36.4159 H         1 THR         0.0639
    110 H          20.9482   17.6565   36.1419 H         1 THR         0.2101
    111 H          18.5551   15.7785   37.9472 H         1 THR         0.0257
    112 H          19.0256   14.6909   36.5972 H         1 THR         0.0257
    113 H          17.4550   15.5611   36.5439 H         1 THR         0.0257
    114 H          18.0282   14.5405   33.6821 H         1 ARG         0.1883
    115 H          15.4933   15.7816   32.9555 H         1 ARG         0.0800
    116 H          16.3377   12.8536   33.0034 H         1 ARG         0.0313
    117 H          16.5025   13.9754   31.6101 H         1 ARG         0.0313
    118 H          13.9660   14.2724   31.7518 H         1 ARG         0.0301
    119 H          13.9752   12.8548   32.8550 H         1 ARG         0.0301
    120 H          15.1465   11.5255   31.1302 H         1 ARG         0.0689
    121 H          15.1228   12.9426   30.0264 H         1 ARG         0.0689
    122 H          12.4617   12.1775   30.9733 H         1 ARG         0.2642
    123 H          13.9074   10.8632   27.4060 H         1 ARG         0.2615
    124 H          15.0273   11.5522   28.6118 H         1 ARG         0.2615
    125 H          11.0407   11.2970   29.4333 H         1 ARG         0.2615
    126 H          11.6698   10.7265   27.8645 H         1 ARG         0.2615
    127 H          13.6508   15.8047   34.0379 H         1 LEU         0.1875
    128 H          13.5073   14.3627   36.6474 H         1 LEU         0.0726
    129 H          12.3855   16.2741   37.6116 H         1 LEU         0.0308
    130 H          12.3735   17.1227   36.0284 H         1 LEU         0.0308
    131 H          14.8908   17.1938   36.1684 H         1 LEU         0.0297
    132 H          14.9036   19.1004   37.7481 H         1 LEU         0.0232
    133 H          13.2884   18.6010   38.3550 H         1 LEU         0.0232
    134 H          13.4801   19.1437   36.6534 H         1 LEU         0.0232
    135 H          15.1701   15.3823   37.8285 H         1 LEU         0.0232
    136 H          14.3571   16.3989   39.0662 H         1 LEU         0.0232
    137 H          15.9308   16.9162   38.3717 H         1 LEU         0.0232
@<TRIPOS>BOND
     1    1    2 1  
     2    2    3 1  
     3    2    5 1  
     4    3    4 2  
     5    3   12 am 
     6    5    6 1  
     7    6    7 1  
     8    7    8 1  
     9    8    9 ar 
    10    9   10 ar 
    11    9   11 ar 
    12   12   13 1  
    13   13   14 1  
    14   13   16 1  
    15   14   15 2  
    16   14   26 am 
    17   16   17 1  
    18   17   18 2  
    19   17   19 1  
    20   18   20 1  
    21   19   21 ar 
    22   19   22 ar 
    23   20   21 1  
    24   21   23 ar 
    25   22   24 ar 
    26   23   25 ar 
    27   24   25 ar 
    28   26   27 1  
    29   27   28 1  
    30   27   30 1  
    31   28   29 2  
    32   28   35 am 
    33   30   31 1  
    34   31   32 1  
    35   32   33 2  
    36   32   34 am 
    37   35   36 1  
    38   36   37 1  
    39   36   39 1  
    40   37   38 2  
    41   37   43 am 
    42   39   40 1  
    43   40   41 ar 
    44   40   42 ar 
    45   43   44 1  
    46   44   45 1  
    47   44   47 1  
    48   45   46 2  
    49   45   50 am 
    50   47   48 1  
    51   47   49 1  
    52   50   51 1  
    53   51   52 1  
    54   51   54 1  
    55   52   53 2  
    56   52   61 am 
    57   54   55 1  
    58   55   56 1  
    59   56   57 1  
    60   57   58 ar 
    61   58   59 ar 
    62   58   60 ar 
    63   61   62 1  
    64   62   63 1  
    65   62   65 1  
    66   63   64 ar 
    67   63   69 ar 
    68   65   66 1  
    69   66   67 1  
    70   66   68 1  
    71    1   70 1  
    72    1   71 1  
    73    1   72 1  
    74    2   73 1  
    75    5   74 1  
    76    5   75 1  
    77    6   76 1  
    78    6   77 1  
    79    7   78 1  
    80    7   79 1  
    81    8   80 1  
    82   10   81 1  
    83   10   82 1  
    84   11   83 1  
    85   11   84 1  
    86   12   85 1  
    87   13   86 1  
    88   16   87 1  
    89   16   88 1  
    90   18   89 1  
    91   20   90 1  
    92   22   91 1  
    93   23   92 1  
    94   24   93 1  
    95   25   94 1  
    96   26   95 1  
    97   27   96 1  
    98   30   97 1  
    99   30   98 1  
   100   31   99 1  
   101   31  100 1  
   102   34  101 1  
   103   34  102 1  
   104   35  103 1  
   105   36  104 1  
   106   39  105 1  
   107   39  106 1  
   108   43  107 1  
   109   44  108 1  
   110   47  109 1  
   111   48  110 1  
   112   49  111 1  
   113   49  112 1  
   114   49  113 1  
   115   50  114 1  
   116   51  115 1  
   117   54  116 1  
   118   54  117 1  
   119   55  118 1  
   120   55  119 1  
   121   56  120 1  
   122   56  121 1  
   123   57  122 1  
   124   59  123 1  
   125   59  124 1  
   126   60  125 1  
   127   60  126 1  
   128   61  127 1  
   129   62  128 1  
   130   65  129 1  
   131   65  130 1  
   132   66  131 1  
   133   67  132 1  
   134   67  133 1  
   135   67  134 1  
   136   68  135 1  
   137   68  136 1  
   138   68  137 1  
@<TRIPOS>SUBSTRUCTURE
     1 ARG         1

