3ng4_ligand
  -I-interpret- 

 45 46  0  0  0  0  0  0  0  0999 V2000
  -19.9920  -20.5030  -17.7940 C   0  0  0  0  0
  -18.9850  -19.7820  -16.9110 C   0  0  0  0  0
  -18.4450  -18.5110  -17.5010 C   0  0  0  0  0
  -17.9410  -18.7780  -18.9230 C   0  0  0  0  0
  -19.0480  -19.4240  -19.7420 C   0  0  0  0  0
  -18.6060  -19.9370  -21.0950 C   0  0  0  0  0
  -21.3290  -20.0190  -17.7000 O   0  0  0  0  0
  -19.5940  -19.5290  -15.6790 O   0  0  0  0  0
  -17.4570  -18.0970  -16.5620 O   0  0  0  0  0
  -17.5480  -17.5810  -19.5930 O   0  0  0  0  0
  -19.4700  -20.6110  -19.1050 O   0  0  0  0  0
  -18.5040  -21.3720  -21.0430 O   0  0  0  0  0
  -24.1380  -23.1970  -17.8410 C   0  0  0  0  0
  -23.3450  -22.9220  -16.5470 C   0  0  0  0  0
  -22.4230  -21.7470  -16.4500 C   0  0  0  0  0
  -22.0620  -21.2430  -17.8230 C   0  0  0  0  0
  -23.2880  -21.0850  -18.6940 C   0  0  0  0  0
  -22.8950  -20.4820  -20.0490 C   0  0  0  0  0
  -25.5030  -23.4610  -17.4890 O   0  0  0  0  0
  -24.1600  -22.9090  -15.4040 O   0  0  0  0  0
  -21.2780  -22.1800  -15.7080 O   0  0  0  0  0
  -23.9380  -22.3330  -18.9570 O   0  0  0  0  0
  -23.3010  -21.3600  -21.1180 O   0  0  0  0  0
  -20.1192  -21.5151  -17.4098 H   0  0  0  0  0
  -18.1171  -20.4326  -16.8031 H   0  0  0  0  0
  -19.1721  -17.7104  -17.6369 H   0  0  0  0  0
  -17.0732  -19.4315  -18.8343 H   0  0  0  0  0
  -19.7976  -18.6389  -19.8412 H   0  0  0  0  0
  -17.6368  -19.5091  -21.3511 H   0  0  0  0  0
  -19.3340  -19.6479  -21.8530 H   0  0  0  0  0
  -19.9332  -20.3506  -15.3163 H   0  0  0  0  0
  -17.8693  -17.9560  -15.7066 H   0  0  0  0  0
  -16.8480  -17.1521  -19.0953 H   0  0  0  0  0
  -18.2237  -21.7030  -21.8994 H   0  0  0  0  0
  -23.6969  -24.0877  -18.2883 H   0  0  0  0  0
  -22.6771  -23.7816  -16.6028 H   0  0  0  0  0
  -22.8951  -20.9076  -15.9396 H   0  0  0  0  0
  -21.4282  -21.9782  -18.3188 H   0  0  0  0  0
  -23.9709  -20.4350  -18.1470 H   0  0  0  0  0
  -21.8132  -20.3531  -20.0831 H   0  0  0  0  0
  -23.3907  -19.5187  -20.1693 H   0  0  0  0  0
  -26.0099  -23.6343  -18.2856 H   0  0  0  0  0
  -23.6203  -22.7345  -14.6295 H   0  0  0  0  0
  -20.6588  -21.4513  -15.6230 H   0  0  0  0  0
  -23.0506  -20.9737  -21.9604 H   0  0  0  0  0
  1  2  1  0  0  0
  7  1  1  0  0  0
  1 11  1  0  0  0
  2  3  1  0  0  0
  2  8  1  0  0  0
  3  4  1  0  0  0
  3  9  1  0  0  0
  5  4  1  0  0  0
  4 10  1  0  0  0
  5  6  1  0  0  0
 11  5  1  0  0  0
  6 12  1  0  0  0
 16  7  1  0  0  0
 14 13  1  0  0  0
 13 19  1  0  0  0
 13 22  1  0  0  0
 15 14  1  0  0  0
 14 20  1  0  0  0
 15 16  1  0  0  0
 15 21  1  0  0  0
 16 17  1  0  0  0
 17 18  1  0  0  0
 17 22  1  0  0  0
 18 23  1  0  0  0
  1 24  1  0  0  0
  2 25  1  0  0  0
  3 26  1  0  0  0
  4 27  1  0  0  0
  5 28  1  0  0  0
  6 29  1  0  0  0
  6 30  1  0  0  0
  8 31  1  0  0  0
  9 32  1  0  0  0
 10 33  1  0  0  0
 12 34  1  0  0  0
 13 35  1  0  0  0
 14 36  1  0  0  0
 15 37  1  0  0  0
 16 38  1  0  0  0
 17 39  1  0  0  0
 18 40  1  0  0  0
 18 41  1  0  0  0
 19 42  1  0  0  0
 20 43  1  0  0  0
 21 44  1  0  0  0
 23 45  1  0  0  0
M  END
$$$$
