2e7f_ligand
  -I-interpret- 

 58 60  0  0  0  0  0  0  0  0999 V2000
   -9.2390   76.0830  120.9340 N   0  0  0  0  0
   -8.5490   77.1760  120.4910 C   0  0  0  0  0
   -8.1260   78.0900  121.4060 N   0  0  0  0  0
   -8.2750   77.3670  119.1570 N   0  0  0  0  0
   -8.6680   76.4920  118.1870 C   0  0  0  0  0
   -8.3990   76.7000  116.9870 O   0  0  0  0  0
   -9.4300   75.2700  118.5890 C   0  0  0  0  0
   -9.8870   74.2820  117.6300 N   0  0  0  0  0
  -10.0830   72.9240  118.2550 C   0  0  0  0  0
  -10.8610   72.9860  119.6220 C   0  0  0  0  0
  -10.3720   74.0370  120.5250 N   0  0  0  0  0
   -9.6920   75.1260  120.0740 C   0  0  0  0  0
   -8.6910   72.2590  118.4560 C   0  0  0  0  0
   -8.7580   70.8160  118.6180 N   0  0  0  0  0
  -11.1390   74.7520  116.9870 C   0  0  0  0  0
   -9.3850   68.0290  115.5380 C   0  0  0  0  0
   -9.4980   67.6520  116.9090 C   0  0  0  0  0
   -9.2840   68.6030  117.9280 C   0  0  0  0  0
   -8.9540   69.9380  117.5900 C   0  0  0  0  0
   -8.8410   70.3160  116.2020 C   0  0  0  0  0
   -9.0560   69.3670  115.1870 C   0  0  0  0  0
   -9.6120   67.0040  114.4710 C   0  0  0  0  0
   -8.8880   67.0040  113.4870 O   0  0  0  0  0
  -10.6150   66.1270  114.6670 N   0  0  0  0  0
  -11.0620   65.0270  113.8090 C   0  0  0  0  0
  -12.3250   64.4300  114.4480 C   0  0  0  0  0
  -12.1610   62.9080  114.5010 C   0  0  0  0  0
  -13.4590   62.1950  114.8830 C   0  0  0  0  0
  -14.4520   62.9510  115.0830 O   0  0  0  0  0
  -13.5290   60.9460  115.0040 O   0  0  0  0  0
  -11.4000   65.5520  112.4310 C   0  0  0  0  0
  -12.0430   66.6180  112.3250 O   0  0  0  0  0
  -11.0190   64.9100  111.4380 O   0  0  0  0  0
   -8.3260   77.9504  122.3964 H   0  0  0  0  0
   -7.6089   78.9148  121.1015 H   0  0  0  0  0
   -7.7549   78.1998  118.8806 H   0  0  0  0  0
  -10.6979   72.3298  117.5791 H   0  0  0  0  0
  -10.7191   72.0291  120.1244 H   0  0  0  0  0
  -11.9044   73.2062  119.3964 H   0  0  0  0  0
  -10.5486   73.9471  121.5256 H   0  0  0  0  0
   -8.2583   72.6720  119.3672 H   0  0  0  0  0
   -8.0982   72.4621  117.5641 H   0  0  0  0  0
   -8.6520   70.4351  119.5583 H   0  0  0  0  0
  -11.9045   74.8983  117.7490 H   0  0  0  0  0
  -10.9505   75.6949  116.4737 H   0  0  0  0  0
  -11.4784   74.0068  116.2676 H   0  0  0  0  0
   -9.7509   66.6244  117.1702 H   0  0  0  0  0
   -9.3725   68.3109  118.9744 H   0  0  0  0  0
   -8.5876   71.3430  115.9389 H   0  0  0  0  0
   -8.9711   69.6548  114.1391 H   0  0  0  0  0
  -11.1370   66.2453  115.5353 H   0  0  0  0  0
  -10.2779   64.2759  113.7128 H   0  0  0  0  0
  -13.2031   64.6919  113.8578 H   0  0  0  0  0
  -12.4597   64.8276  115.4539 H   0  0  0  0  0
  -11.4128   62.6755  115.2588 H   0  0  0  0  0
  -11.8674   62.5656  113.5087 H   0  0  0  0  0
  -14.1918   63.8638  114.9394 H   0  0  0  0  0
  -12.2428   66.9582  113.2002 H   0  0  0  0  0
  1  2  2  0  0  0
 12  1  1  0  0  0
  2  3  1  0  0  0
  4  2  1  0  0  0
  5  4  1  0  0  0
  5  6  2  0  0  0
  7  5  1  0  0  0
  8  7  1  0  0  0
  7 12  2  0  0  0
  9  8  1  0  0  0
  8 15  1  0  0  0
  9 10  1  0  0  0
 13  9  1  0  0  0
 10 11  1  0  0  0
 11 12  1  0  0  0
 14 13  1  0  0  0
 19 14  1  0  0  0
 17 16  4  0  0  0
 16 21  4  0  0  0
 16 22  1  0  0  0
 18 17  4  0  0  0
 18 19  4  0  0  0
 19 20  4  0  0  0
 20 21  4  0  0  0
 22 23  2  0  0  0
 22 24  1  0  0  0
 24 25  1  0  0  0
 25 26  1  0  0  0
 25 31  1  0  0  0
 26 27  1  0  0  0
 27 28  1  0  0  0
 28 29  1  0  0  0
 28 30  2  0  0  0
 31 32  1  0  0  0
 31 33  2  0  0  0
  3 34  1  0  0  0
  3 35  1  0  0  0
  4 36  1  0  0  0
  9 37  1  0  0  0
 10 38  1  0  0  0
 10 39  1  0  0  0
 11 40  1  0  0  0
 13 41  1  0  0  0
 13 42  1  0  0  0
 14 43  1  0  0  0
 15 44  1  0  0  0
 15 45  1  0  0  0
 15 46  1  0  0  0
 17 47  1  0  0  0
 18 48  1  0  0  0
 20 49  1  0  0  0
 21 50  1  0  0  0
 24 51  1  0  0  0
 25 52  1  0  0  0
 26 53  1  0  0  0
 26 54  1  0  0  0
 27 55  1  0  0  0
 27 56  1  0  0  0
 29 57  1  0  0  0
 32 58  1  0  0  0
M  END
$$$$
