4qjp_ligand
  -I-interpret- 

 51 53  0  0  0  0  0  0  0  0999 V2000
  -37.1300  -36.2160   25.5330 F   0  0  0  0  0
  -36.9380  -35.9950   24.2160 C   0  0  0  0  0
  -35.7800  -36.2860   23.5390 C   0  0  0  0  0
  -34.3230  -36.9340   24.3530 S   0  0  0  0  0
  -33.4260  -35.8780   24.4870 O   0  0  0  0  0
  -34.6480  -37.4560   26.0020 N   0  0  0  0  0
  -34.0660  -38.0650   23.6060 O   0  0  0  0  0
  -35.7210  -36.0090   22.1860 C   0  0  0  0  0
  -34.5720  -36.3040   21.5080 F   0  0  0  0  0
  -36.8090  -35.5020   21.5440 C   0  0  0  0  0
  -36.6990  -35.2180   20.2000 F   0  0  0  0  0
  -38.0400  -35.3960   23.5710 C   0  0  0  0  0
  -37.9530  -35.2190   22.1810 C   0  0  0  0  0
  -39.4320  -34.6270   21.2870 S   0  0  0  0  0
  -38.9540  -33.8270   20.0780 O   0  0  0  0  0
  -40.2270  -33.6510   22.1550 O   0  0  0  0  0
  -40.6720  -35.9450   21.1460 C   0  0  0  0  0
  -40.0120  -37.2290   20.6880 C   0  0  0  0  0
  -40.5520  -37.6010   19.3290 C   0  0  0  0  0
  -39.7060  -37.5320   18.1910 C   0  0  0  0  0
  -40.1430  -37.8940   16.8880 C   0  0  0  0  0
  -41.8810  -38.0460   19.1720 C   0  0  0  0  0
  -42.3380  -38.4140   17.8760 C   0  0  0  0  0
  -41.4790  -38.3390   16.7360 C   0  0  0  0  0
  -39.2460  -35.1760   24.2770 N   0  0  0  0  0
  -40.1210  -34.0880   24.7180 C   0  0  0  0  0
  -41.6080  -34.4080   24.4640 C   0  0  0  0  0
  -42.1800  -35.6610   24.8630 C   0  0  0  0  0
  -43.5510  -35.8740   24.5370 C   0  0  0  0  0
  -44.3620  -34.8910   23.8730 C   0  0  0  0  0
  -43.7730  -33.6660   23.4780 C   0  0  0  0  0
  -42.4130  -33.4470   23.7990 C   0  0  0  0  0
  -34.1965  -36.9832   26.7850 H   0  0  0  0  0
  -35.2879  -38.2313   26.1748 H   0  0  0  0  0
  -41.4278  -35.6504   20.4179 H   0  0  0  0  0
  -41.1358  -36.1071   22.1190 H   0  0  0  0  0
  -40.2260  -38.0265   21.3996 H   0  0  0  0  0
  -38.9329  -37.0868   20.6285 H   0  0  0  0  0
  -38.6802  -37.1876   18.3219 H   0  0  0  0  0
  -39.4709  -37.8311   16.0322 H   0  0  0  0  0
  -42.5486  -38.1071   20.0315 H   0  0  0  0  0
  -43.3639  -38.7601   17.7498 H   0  0  0  0  0
  -41.8513  -38.6236   15.7519 H   0  0  0  0  0
  -39.6339  -36.0700   24.5781 H   0  0  0  0  0
  -39.8629  -33.1916   24.1541 H   0  0  0  0  0
  -39.9794  -33.9483   25.7897 H   0  0  0  0  0
  -41.5945  -36.4142   25.3902 H   0  0  0  0  0
  -44.0060  -36.8278   24.8040 H   0  0  0  0  0
  -45.4162  -35.0860   23.6762 H   0  0  0  0  0
  -44.3508  -32.9131   22.9419 H   0  0  0  0  0
  -41.9616  -32.4943   23.5223 H   0  0  0  0  0
  1  2  1  0  0  0
  2  3  4  0  0  0
  2 12  4  0  0  0
  3  4  1  0  0  0
  3  8  4  0  0  0
  4  5  2  0  0  0
  4  6  1  0  0  0
  4  7  2  0  0  0
  8  9  1  0  0  0
  8 10  4  0  0  0
 10 11  1  0  0  0
 10 13  4  0  0  0
 12 13  4  0  0  0
 12 25  1  0  0  0
 13 14  1  0  0  0
 14 15  2  0  0  0
 14 16  2  0  0  0
 14 17  1  0  0  0
 17 18  1  0  0  0
 18 19  1  0  0  0
 19 20  4  0  0  0
 19 22  4  0  0  0
 20 21  4  0  0  0
 21 24  4  0  0  0
 22 23  4  0  0  0
 23 24  4  0  0  0
 25 26  1  0  0  0
 26 27  1  0  0  0
 27 28  4  0  0  0
 27 32  4  0  0  0
 28 29  4  0  0  0
 29 30  4  0  0  0
 30 31  4  0  0  0
 31 32  4  0  0  0
  6 33  1  0  0  0
  6 34  1  0  0  0
 17 35  1  0  0  0
 17 36  1  0  0  0
 18 37  1  0  0  0
 18 38  1  0  0  0
 20 39  1  0  0  0
 21 40  1  0  0  0
 22 41  1  0  0  0
 23 42  1  0  0  0
 24 43  1  0  0  0
 25 44  1  0  0  0
 26 45  1  0  0  0
 26 46  1  0  0  0
 28 47  1  0  0  0
 29 48  1  0  0  0
 30 49  1  0  0  0
 31 50  1  0  0  0
 32 51  1  0  0  0
M  END
$$$$
