1qan_ligand
  -I-interpret- 

 47 49  0  0  0  0  0  0  0  0999 V2000
   12.0740   37.0810   22.6250 N   0  3  0  0  0
   12.9000   38.1910   22.1850 C   0  0  0  0  0
   14.3410   37.8170   21.7690 C   0  0  0  0  0
   14.7660   36.3330   21.8170 C   0  0  0  0  0
   16.5060   36.0930   21.2720 S   0  0  0  0  0
   12.3300   38.9740   20.9810 C   0  0  0  0  0
   12.0590   38.3160   19.9330 O   0  0  0  0  0
   12.1820   40.2360   21.1140 O   0  0  0  0  0
   17.3250   35.3590   22.7440 C   0  0  0  0  0
   17.1900   36.1740   24.0520 C   0  0  0  0  0
   17.4970   35.3820   25.2130 O   0  0  0  0  0
   18.0460   37.4530   24.1750 C   0  0  0  0  0
   17.3440   38.5690   24.6940 O   0  0  0  0  0
   19.2330   36.9560   24.9680 C   0  0  0  0  0
   19.8650   37.9860   25.7150 O   0  0  0  0  0
   18.5400   36.0040   25.9740 C   0  0  0  0  0
   19.4110   34.9330   26.5080 N   0  0  0  0  0
   20.4170   34.2340   25.9390 C   0  0  0  0  0
   20.9900   33.3320   26.7510 N   0  0  0  0  0
   20.3060   33.4260   27.9560 C   0  0  0  0  0
   20.3540   32.8200   29.2090 C   0  0  0  0  0
   21.2690   31.8490   29.4890 N   0  0  0  0  0
   19.4820   33.1840   30.2110 N   0  0  0  0  0
   18.5680   34.1590   29.9730 C   0  0  0  0  0
   18.4470   34.7980   28.7730 N   0  0  0  0  0
   19.3230   34.4390   27.8010 C   0  0  0  0  0
   11.1479   37.4267   22.8763 H   0  0  0  0  0
   11.9908   36.4004   21.8698 H   0  0  0  0  0
   12.5051   36.6389   23.4368 H   0  0  0  0  0
   12.9068   38.7980   23.0903 H   0  0  0  0  0
   14.9837   38.3190   22.4922 H   0  0  0  0  0
   14.4145   38.0986   20.7186 H   0  0  0  0  0
   14.1184   35.7721   21.1431 H   0  0  0  0  0
   14.6823   35.9887   22.8478 H   0  0  0  0  0
   12.4553   40.4979   21.9962 H   0  0  0  0  0
   18.3897   35.3095   22.5160 H   0  0  0  0  0
   16.8412   34.3989   22.9236 H   0  0  0  0  0
   16.1446   36.4784   24.0016 H   0  0  0  0  0
   18.3562   37.8862   23.2241 H   0  0  0  0  0
   17.9355   39.3236   24.7420 H   0  0  0  0  0
   20.0051   36.5257   24.3303 H   0  0  0  0  0
   20.3039   38.5924   25.1140 H   0  0  0  0  0
   18.2140   36.5783   26.8412 H   0  0  0  0  0
   20.7362   34.3892   24.9084 H   0  0  0  0  0
   21.9346   31.5542   28.7746 H   0  0  0  0  0
   21.2880   31.4173   30.4129 H   0  0  0  0  0
   17.8962   34.4464   30.7818 H   0  0  0  0  0
  2  1  1  0  0  0
  2  6  1  0  0  0
  2  3  1  0  0  0
  3  4  1  0  0  0
  4  5  1  0  0  0
  5  9  1  0  0  0
  9 10  1  0  0  0
 10 12  1  0  0  0
 10 11  1  0  0  0
 11 16  1  0  0  0
 16 17  1  0  0  0
 16 14  1  0  0  0
 14 15  1  0  0  0
 14 12  1  0  0  0
 12 13  1  0  0  0
 17 26  4  0  0  0
 17 18  4  0  0  0
 18 19  4  0  0  0
 19 20  4  0  0  0
 20 26  4  0  0  0
 20 21  4  0  0  0
 21 23  4  0  0  0
 21 22  1  0  0  0
 23 24  4  0  0  0
 24 25  4  0  0  0
 25 26  4  0  0  0
  6  8  1  0  0  0
  6  7  2  0  0  0
  1 27  1  0  0  0
  1 28  1  0  0  0
  1 29  1  0  0  0
  2 30  1  0  0  0
  3 31  1  0  0  0
  3 32  1  0  0  0
  4 33  1  0  0  0
  4 34  1  0  0  0
  8 35  1  0  0  0
  9 36  1  0  0  0
  9 37  1  0  0  0
 10 38  1  0  0  0
 12 39  1  0  0  0
 13 40  1  0  0  0
 14 41  1  0  0  0
 15 42  1  0  0  0
 16 43  1  0  0  0
 18 44  1  0  0  0
 22 45  1  0  0  0
 22 46  1  0  0  0
 24 47  1  0  0  0
M  END
$$$$
