2zu4_ligand
  -I-interpret- 

 93 94  0  0  0  0  0  0  0  0999 V2000
   21.8400    7.1220   20.0550 C   0  0  0  0  0
   21.1940    5.9250   19.4490 C   0  0  0  0  0
   19.9970    6.0550   18.7750 C   0  0  0  0  0
   19.3500    7.3900   18.6490 C   0  0  0  0  0
   19.9390    8.4700   19.1960 C   0  0  0  0  0
   21.2410    8.3390   19.9340 C   0  0  0  0  0
   19.3390    4.8390   18.1670 C   0  0  0  0  0
   18.2660    4.3990   19.0560 O   0  0  0  0  0
   18.6600    3.4790   20.0370 C   0  0  0  0  0
   19.7990    2.9160   20.0120 O   0  0  0  0  0
   17.7240    3.1830   21.0410 N   0  0  0  0  0
   18.0030    2.2150   22.0920 C   0  0  0  0  0
   17.6460    2.8140   23.4540 C   0  0  0  0  0
   18.2720    4.1420   23.6240 N   0  0  0  0  0
   19.6470    4.2130   24.0990 C   0  0  0  0  0
   17.2620    0.9280   21.7820 C   0  0  0  0  0
   18.0140   -0.2830   21.5650 N   0  0  0  0  0
   15.9720    0.9030   21.7850 O   0  0  0  0  0
   17.3210   -1.5500   21.3580 C   0  0  0  0  0
   16.5150   -1.8760   22.5960 C   0  0  0  0  0
   18.3680   -2.6430   20.9160 C   0  0  0  0  0
   20.2660    3.1440   24.3540 O   0  0  0  0  0
   20.3550    5.5430   24.3040 C   0  0  0  0  0
   16.9790   -1.5390   23.7230 O   0  0  0  0  0
   15.2530   -2.5410   22.5430 N   0  0  0  0  0
   19.1760   -2.4540   19.5860 C   0  0  0  0  0
   20.0980   -3.6290   19.1910 C   0  0  0  0  0
   18.2010   -2.2060   18.4160 C   0  0  0  0  0
   14.5130   -2.8160   23.7590 C   0  0  0  0  0
   13.2400   -1.8030   23.8120 C   0  0  0  0  0
   13.5660   -0.3700   24.2540 C   0  0  0  0  0
   14.1310   -4.2750   23.6840 C   0  0  0  0  0
   12.3400    0.4760   24.3300 C   0  0  0  0  0
   11.4050    0.4110   23.5110 O   0  0  0  0  0
   12.3810    1.3650   25.4460 N   0  0  0  0  0
   13.6310    1.2240   26.2090 C   0  0  0  0  0
   14.1780   -0.1600   25.7240 C   0  0  0  0  0
   20.8240    5.6600   25.7600 C   0  0  0  0  0
   19.4070    6.7330   23.9340 C   0  0  0  0  0
   21.5430    5.6270   23.3500 C   0  0  0  0  0
   15.4240   -5.1710   23.7600 C   0  0  0  0  0
   15.2030   -6.3770   24.6720 C   0  0  0  0  0
   16.3600   -7.3390   24.9940 C   0  0  0  0  0
   14.1000   -6.6180   25.1140 O   0  0  0  0  0
   22.7842    7.0249   20.5908 H   0  0  0  0  0
   21.6664    4.9467   19.5378 H   0  0  0  0  0
   18.4044    7.4924   18.1167 H   0  0  0  0  0
   19.4671    9.4481   19.1026 H   0  0  0  0  0
   21.7075    9.2205   20.3738 H   0  0  0  0  0
   20.0718    4.0413   18.0452 H   0  0  0  0  0
   18.9318    5.0873   17.1869 H   0  0  0  0  0
   16.8225    3.6600   21.0337 H   0  0  0  0  0
   19.0650    1.9731   22.1340 H   0  0  0  0  0
   18.0125    2.1500   24.2368 H   0  0  0  0  0
   16.5635    2.9253   23.5160 H   0  0  0  0  0
   17.7508    4.9929   23.4126 H   0  0  0  0  0
   19.0335   -0.2537   21.5562 H   0  0  0  0  0
   16.5963   -1.5019   20.5452 H   0  0  0  0  0
   17.7735   -3.5415   20.7506 H   0  0  0  0  0
   19.1245   -2.6315   21.7007 H   0  0  0  0  0
   14.8686   -2.8251   21.6419 H   0  0  0  0  0
   19.8270   -1.6020   19.7817 H   0  0  0  0  0
   20.8352   -3.7909   19.9774 H   0  0  0  0  0
   19.4997   -4.5308   19.0609 H   0  0  0  0  0
   20.6073   -3.3914   18.2570 H   0  0  0  0  0
   17.5321   -3.0606   18.3148 H   0  0  0  0  0
   17.6171   -1.3075   18.6156 H   0  0  0  0  0
   18.7676   -2.0753   17.4940 H   0  0  0  0  0
   15.0760   -2.6505   24.6775 H   0  0  0  0  0
   12.5468   -2.2086   24.5489 H   0  0  0  0  0
   12.8492   -1.7369   22.7966 H   0  0  0  0  0
   14.2996   -0.1052   23.4925 H   0  0  0  0  0
   13.6167   -4.4644   22.7418 H   0  0  0  0  0
   13.4747   -4.5186   24.5195 H   0  0  0  0  0
   11.6349    2.0181   25.6852 H   0  0  0  0  0
   13.4772    1.2655   27.2873 H   0  0  0  0  0
   14.3300    2.0418   26.0337 H   0  0  0  0  0
   15.2678   -0.1767   25.7097 H   0  0  0  0  0
   13.8845   -0.9646   26.3982 H   0  0  0  0  0
   19.9614    5.6030   26.4239 H   0  0  0  0  0
   21.5120    4.8452   25.9853 H   0  0  0  0  0
   21.3306    6.6147   25.9016 H   0  0  0  0  0
   19.1095    6.6474   22.8889 H   0  0  0  0  0
   18.5216    6.7014   24.5689 H   0  0  0  0  0
   19.9323    7.6756   24.0875 H   0  0  0  0  0
   22.2319    4.8080   23.5566 H   0  0  0  0  0
   21.1878    5.5541   22.3221 H   0  0  0  0  0
   22.0549    6.5787   23.4922 H   0  0  0  0  0
   16.2405   -4.5725   24.1640 H   0  0  0  0  0
   15.6600   -5.5294   22.7580 H   0  0  0  0  0
   16.5010   -7.3871   26.0738 H   0  0  0  0  0
   16.1220   -8.3320   24.6127 H   0  0  0  0  0
   17.2737   -6.9769   24.5228 H   0  0  0  0  0
  1  2  4  0  0  0
  1  6  4  0  0  0
  2  3  4  0  0  0
  3  4  4  0  0  0
  3  7  1  0  0  0
  4  5  4  0  0  0
  5  6  4  0  0  0
  7  8  1  0  0  0
  8  9  1  0  0  0
  9 10  2  0  0  0
  9 11  1  0  0  0
 11 12  1  0  0  0
 12 13  1  0  0  0
 12 16  1  0  0  0
 13 14  1  0  0  0
 14 15  1  0  0  0
 15 22  2  0  0  0
 15 23  1  0  0  0
 16 17  1  0  0  0
 16 18  2  0  0  0
 17 19  1  0  0  0
 19 20  1  0  0  0
 19 21  1  0  0  0
 20 24  2  0  0  0
 20 25  1  0  0  0
 21 26  1  0  0  0
 23 38  1  0  0  0
 23 39  1  0  0  0
 23 40  1  0  0  0
 25 29  1  0  0  0
 26 27  1  0  0  0
 26 28  1  0  0  0
 29 30  1  0  0  0
 29 32  1  0  0  0
 30 31  1  0  0  0
 31 33  1  0  0  0
 31 37  1  0  0  0
 32 41  1  0  0  0
 33 34  2  0  0  0
 33 35  1  0  0  0
 35 36  1  0  0  0
 36 37  1  0  0  0
 41 42  1  0  0  0
 42 43  1  0  0  0
 42 44  2  0  0  0
  1 45  1  0  0  0
  2 46  1  0  0  0
  4 47  1  0  0  0
  5 48  1  0  0  0
  6 49  1  0  0  0
  7 50  1  0  0  0
  7 51  1  0  0  0
 11 52  1  0  0  0
 12 53  1  0  0  0
 13 54  1  0  0  0
 13 55  1  0  0  0
 14 56  1  0  0  0
 17 57  1  0  0  0
 19 58  1  0  0  0
 21 59  1  0  0  0
 21 60  1  0  0  0
 25 61  1  0  0  0
 26 62  1  0  0  0
 27 63  1  0  0  0
 27 64  1  0  0  0
 27 65  1  0  0  0
 28 66  1  0  0  0
 28 67  1  0  0  0
 28 68  1  0  0  0
 29 69  1  0  0  0
 30 70  1  0  0  0
 30 71  1  0  0  0
 31 72  1  0  0  0
 32 73  1  0  0  0
 32 74  1  0  0  0
 35 75  1  0  0  0
 36 76  1  0  0  0
 36 77  1  0  0  0
 37 78  1  0  0  0
 37 79  1  0  0  0
 38 80  1  0  0  0
 38 81  1  0  0  0
 38 82  1  0  0  0
 39 83  1  0  0  0
 39 84  1  0  0  0
 39 85  1  0  0  0
 40 86  1  0  0  0
 40 87  1  0  0  0
 40 88  1  0  0  0
 41 89  1  0  0  0
 41 90  1  0  0  0
 43 91  1  0  0  0
 43 92  1  0  0  0
 43 93  1  0  0  0
M  END
$$$$
