6m8c_ligand
  -I-interpret- 

 35 37  0  0  0  0  0  0  0  0999 V2000
    2.5230   31.2470   29.4130 C   0  0  0  0  0
    3.8340   30.7730   29.1120 O   0  0  0  0  0
    4.0560   29.4890   28.7170 C   0  0  0  0  0
    4.3900   29.1800   27.3990 C   0  0  0  0  0
    4.0170   28.5020   29.6960 C   0  0  0  0  0
    3.7030   28.8870   30.9640 O   0  0  0  0  0
    4.2730   27.1740   29.3630 C   0  0  0  0  0
    4.5880   26.8530   28.0390 C   0  0  0  0  0
    4.6480   27.8470   27.0410 C   0  0  0  0  0
    4.9770   27.4520   25.7370 C   0  0  0  0  0
    5.8690   26.4100   25.6680 O   0  0  0  0  0
    6.3390   25.9040   24.4900 C   0  0  0  0  0
    7.3050   24.9040   24.5410 C   0  0  0  0  0
    7.8120   24.3580   23.3710 C   0  0  0  0  0
    8.7650   23.3830   23.4130 O   0  0  0  0  0
    7.3370   24.8220   22.1510 C   0  0  0  0  0
    6.3720   25.8210   22.1110 C   0  0  0  0  0
    5.9140   26.2470   20.9240 O   0  0  0  0  0
    5.8370   26.3850   23.2760 C   0  0  0  0  0
    4.8800   27.4080   23.2830 C   0  0  0  0  0
    4.4580   27.8810   22.2290 O   0  0  0  0  0
    4.4930   27.9480   24.5160 C   0  0  0  0  0
    3.6180   28.9850   24.5140 O   0  0  0  0  0
    1.8902   31.1461   28.5312 H   0  0  0  0  0
    2.1048   30.6603   30.2310 H   0  0  0  0  0
    2.5755   32.2956   29.7060 H   0  0  0  0  0
    4.4505   29.9696   26.6500 H   0  0  0  0  0
    3.7094   28.1198   31.5410 H   0  0  0  0  0
    4.2284   26.3953   30.1244 H   0  0  0  0  0
    4.7908   25.8154   27.7737 H   0  0  0  0  0
    7.6655   24.5476   25.5059 H   0  0  0  0  0
    8.9969   23.1250   22.5179 H   0  0  0  0  0
    7.7224   24.4012   21.2223 H   0  0  0  0  0
    5.2575   26.9335   21.0632 H   0  0  0  0  0
    3.3849   29.2038   23.6088 H   0  0  0  0  0
  1  2  1  0  0  0
  2  3  1  0  0  0
  3  4  4  0  0  0
  3  5  4  0  0  0
  4  9  4  0  0  0
  5  6  1  0  0  0
  5  7  4  0  0  0
  7  8  4  0  0  0
  8  9  4  0  0  0
  9 10  1  0  0  0
 10 11  1  0  0  0
 10 22  2  0  0  0
 11 12  1  0  0  0
 12 13  4  0  0  0
 12 19  4  0  0  0
 13 14  4  0  0  0
 14 15  1  0  0  0
 14 16  4  0  0  0
 16 17  4  0  0  0
 17 18  1  0  0  0
 17 19  4  0  0  0
 19 20  1  0  0  0
 20 21  2  0  0  0
 20 22  1  0  0  0
 22 23  1  0  0  0
  1 24  1  0  0  0
  1 25  1  0  0  0
  1 26  1  0  0  0
  4 27  1  0  0  0
  6 28  1  0  0  0
  7 29  1  0  0  0
  8 30  1  0  0  0
 13 31  1  0  0  0
 15 32  1  0  0  0
 16 33  1  0  0  0
 18 34  1  0  0  0
 23 35  1  0  0  0
M  END
$$$$
