3rm4_ligand
  -I-interpret- 

 41 43  0  0  0  0  0  0  0  0999 V2000
    3.0470    6.5870  -17.2210 C   0  0  0  0  0
    2.1510    2.0240  -16.7050 N   0  3  0  0  0
    2.8960    4.4680  -15.9680 O   0  0  0  0  0
    3.2210   10.5090  -15.8700 Br  0  0  0  0  0
    3.1180    7.9870  -17.1700 C   0  0  0  0  0
   -0.1060    0.8090  -17.9640 N   0  0  0  0  0
    3.1120    8.6180  -15.9260 C   0  0  0  0  0
   -2.2280   -0.2840  -17.7070 N   0  0  0  0  0
    3.0360    7.8820  -14.7380 C   0  0  0  0  0
   -3.3120   -0.6040  -18.4250 N   0  0  0  0  0
    2.9630    6.4860  -14.7930 C   0  0  0  0  0
   -1.7840    0.5140  -19.6820 N   0  0  0  0  0
    2.9640    5.8370  -16.0360 C   0  0  0  0  0
   -3.7620   -0.1230  -20.7620 N   0  0  0  0  0
    3.9200    3.7680  -16.6980 C   0  0  0  0  0
    3.6290    2.2810  -16.5190 C   0  0  0  0  0
    1.6560    2.5630  -18.0370 C   0  0  0  0  0
    0.2000    2.2100  -18.2760 C   0  0  0  0  0
    0.3960    0.2960  -16.6860 C   0  0  0  0  0
    1.8860    0.5380  -16.5560 C   0  0  0  0  0
   -1.2980    0.3770  -18.4600 C   0  0  0  0  0
   -3.0130   -0.0930  -19.6350 C   0  0  0  0  0
    3.0563    6.0784  -18.1850 H   0  0  0  0  0
    1.6273    2.5233  -15.9861 H   0  0  0  0  0
    3.1769    8.5723  -18.0876 H   0  0  0  0  0
    3.0337    8.3935  -13.7755 H   0  0  0  0  0
    2.9055    5.9048  -13.8727 H   0  0  0  0  0
   -4.6762   -0.5753  -20.7549 H   0  0  0  0  0
   -3.4122    0.3067  -21.6184 H   0  0  0  0  0
    4.9121    4.0221  -16.3249 H   0  0  0  0  0
    3.9113    4.0461  -17.7519 H   0  0  0  0  0
    4.1904    1.7116  -17.2598 H   0  0  0  0  0
    3.9255    1.9734  -15.5162 H   0  0  0  0  0
    2.2534    2.1173  -18.8323 H   0  0  0  0  0
    1.7496    3.6489  -18.0253 H   0  0  0  0  0
   -0.4064    2.8370  -17.6224 H   0  0  0  0  0
   -0.0124    2.3699  -19.3331 H   0  0  0  0  0
    0.2092   -0.7769  -16.6406 H   0  0  0  0  0
   -0.1159    0.8133  -15.8746 H   0  0  0  0  0
    2.2335    0.1954  -15.5813 H   0  0  0  0  0
    2.4200   -0.0132  -17.3301 H   0  0  0  0  0
  1  5  4  0  0  0
 13  1  4  0  0  0
  2 16  1  0  0  0
 17  2  1  0  0  0
  2 20  1  0  0  0
  3 13  1  0  0  0
 15  3  1  0  0  0
  7  4  1  0  0  0
  5  7  4  0  0  0
 18  6  1  0  0  0
  6 19  1  0  0  0
  6 21  1  0  0  0
  9  7  4  0  0  0
  8 10  4  0  0  0
 21  8  4  0  0  0
 11  9  4  0  0  0
 22 10  4  0  0  0
 13 11  4  0  0  0
 21 12  4  0  0  0
 12 22  4  0  0  0
 22 14  1  0  0  0
 16 15  1  0  0  0
 17 18  1  0  0  0
 19 20  1  0  0  0
  1 23  1  0  0  0
  2 24  1  0  0  0
  5 25  1  0  0  0
  9 26  1  0  0  0
 11 27  1  0  0  0
 14 28  1  0  0  0
 14 29  1  0  0  0
 15 30  1  0  0  0
 15 31  1  0  0  0
 16 32  1  0  0  0
 16 33  1  0  0  0
 17 34  1  0  0  0
 17 35  1  0  0  0
 18 36  1  0  0  0
 18 37  1  0  0  0
 19 38  1  0  0  0
 19 39  1  0  0  0
 20 40  1  0  0  0
 20 41  1  0  0  0
M  END
$$$$
