3gb2_ligand
  -I-interpret- 

 39 42  0  0  0  0  0  0  0  0999 V2000
   25.2600   15.3140    4.4490 O   0  0  0  0  0
   26.5780   14.6940    4.7990 S   0  0  0  0  0
   26.7030   13.0690    4.0250 C   0  0  0  0  0
   27.8280   15.8350    4.1750 C   0  0  0  0  0
   27.4840   16.7070    3.1400 C   0  0  0  0  0
   29.1080   15.8460    4.7080 C   0  0  0  0  0
   30.0420   16.7360    4.2050 C   0  0  0  0  0
   29.6960   17.5970    3.1690 C   0  0  0  0  0
   28.4170   17.5990    2.6300 C   0  0  0  0  0
   30.7110   18.5390    2.6470 C   0  0  0  0  0
   32.0350   18.1740    2.0450 C   0  0  0  0  0
   32.6450   19.4440    1.7090 C   0  0  0  0  0
   31.7880   20.4900    2.0660 O   0  0  0  0  0
   30.5670   19.9290    2.6610 C   0  0  0  0  0
   33.8830   19.5230    1.1300 C   0  0  0  0  0
   32.6880   16.9870    1.7830 C   0  0  0  0  0
   33.9400   17.0860    1.2030 C   0  0  0  0  0
   34.5070   18.3150    0.8760 C   0  0  0  0  0
   34.6890   15.8600    0.8600 C   0  0  0  0  0
   34.4080   14.5910    1.2630 O   0  0  0  0  0
   35.3360   13.7940    0.6560 C   0  0  0  0  0
   35.2290   12.3230    0.9530 C   0  0  0  0  0
   36.1750   14.5050   -0.1110 N   0  0  0  0  0
   35.7450   15.8300    0.0230 N   0  0  0  0  0
   24.5491   14.7478    4.7582 H   0  0  0  0  0
   26.5669   13.1694    2.9482 H   0  0  0  0  0
   27.6859   12.6448    4.2303 H   0  0  0  0  0
   25.9315   12.4145    4.4305 H   0  0  0  0  0
   26.4745   16.6870    2.7293 H   0  0  0  0  0
   29.3758   15.1622    5.5134 H   0  0  0  0  0
   31.0491   16.7618    4.6213 H   0  0  0  0  0
   28.1516   18.2847    1.8254 H   0  0  0  0  0
   29.7127   20.4896    3.0405 H   0  0  0  0  0
   34.3478   20.4779    0.8846 H   0  0  0  0  0
   32.2407   16.0218    2.0206 H   0  0  0  0  0
   35.4867   18.3256    0.3983 H   0  0  0  0  0
   35.3413   12.1610    2.0250 H   0  0  0  0  0
   34.2542   11.9582    0.6293 H   0  0  0  0  0
   36.0143   11.7878    0.4191 H   0  0  0  0  0
  1  2  1  0  0  0
  2  3  1  0  0  0
  2  4  1  0  0  0
  4  5  4  0  0  0
  4  6  4  0  0  0
  5  9  4  0  0  0
  6  7  4  0  0  0
  7  8  4  0  0  0
  8  9  4  0  0  0
  8 10  1  0  0  0
 10 11  4  0  0  0
 10 14  4  0  0  0
 11 12  4  0  0  0
 11 16  4  0  0  0
 12 13  4  0  0  0
 12 15  4  0  0  0
 13 14  4  0  0  0
 15 18  4  0  0  0
 16 17  4  0  0  0
 17 18  4  0  0  0
 17 19  1  0  0  0
 19 20  4  0  0  0
 19 24  4  0  0  0
 20 21  4  0  0  0
 21 22  1  0  0  0
 21 23  4  0  0  0
 23 24  4  0  0  0
  1 25  1  0  0  0
  3 26  1  0  0  0
  3 27  1  0  0  0
  3 28  1  0  0  0
  5 29  1  0  0  0
  6 30  1  0  0  0
  7 31  1  0  0  0
  9 32  1  0  0  0
 14 33  1  0  0  0
 15 34  1  0  0  0
 16 35  1  0  0  0
 18 36  1  0  0  0
 22 37  1  0  0  0
 22 38  1  0  0  0
 22 39  1  0  0  0
M  END
$$$$
