6gxy_ligand
  -I-interpret- 

 27 29  0  0  0  0  0  0  0  0999 V2000
   -1.7980    1.5460   24.2570 C   0  0  0  0  0
   -2.2590    0.2820   24.5400 C   0  0  0  0  0
   -3.1820   -0.2590   23.7700 N   0  0  0  0  0
   -1.7940   -0.4190   25.6220 N   0  0  0  0  0
   -2.2980   -1.6860   25.8580 C   0  0  0  0  0
   -1.8460   -2.2750   26.8200 O   0  0  0  0  0
   -3.2420   -2.2180   25.0580 C   0  0  0  0  0
   -3.6640   -1.4700   23.9950 C   0  0  0  0  0
   -4.7450   -2.2610   23.1470 S   0  0  0  0  0
   -4.7530   -3.5870   24.0850 C   0  0  0  0  0
   -3.8520   -3.4310   25.0650 C   0  0  0  0  0
   -3.7580   -4.4140   25.9740 C   0  0  0  0  0
   -4.0130   -4.1430   27.3140 C   0  0  0  0  0
   -4.0030   -5.1550   28.2780 C   0  0  0  0  0
   -3.7720   -6.4710   27.9270 C   0  0  0  0  0
   -3.7680   -7.4500   28.8530 F   0  0  0  0  0
   -3.5510   -6.7450   26.5880 C   0  0  0  0  0
   -3.5600   -5.7400   25.6390 C   0  0  0  0  0
   -1.3571    1.5558   23.2602 H   0  0  0  0  0
   -2.6282    2.2512   24.2954 H   0  0  0  0  0
   -1.0445    1.8295   24.9918 H   0  0  0  0  0
   -1.0908   -0.0151   26.2407 H   0  0  0  0  0
   -5.3877   -4.4613   23.9410 H   0  0  0  0  0
   -4.2254   -3.1184   27.6193 H   0  0  0  0  0
   -4.1803   -4.9019   29.3233 H   0  0  0  0  0
   -3.3664   -7.7730   26.2762 H   0  0  0  0  0
   -3.4059   -6.0020   24.5922 H   0  0  0  0  0
  1  2  1  0  0  0
  2  3  2  0  0  0
  2  4  1  0  0  0
  3  8  1  0  0  0
  4  5  1  0  0  0
  5  6  2  0  0  0
  5  7  1  0  0  0
  7  8  4  0  0  0
  7 11  4  0  0  0
  8  9  4  0  0  0
  9 10  4  0  0  0
 10 11  4  0  0  0
 11 12  1  0  0  0
 12 13  4  0  0  0
 12 18  4  0  0  0
 13 14  4  0  0  0
 14 15  4  0  0  0
 15 16  1  0  0  0
 15 17  4  0  0  0
 17 18  4  0  0  0
  1 19  1  0  0  0
  1 20  1  0  0  0
  1 21  1  0  0  0
  4 22  1  0  0  0
 10 23  1  0  0  0
 13 24  1  0  0  0
 14 25  1  0  0  0
 17 26  1  0  0  0
 18 27  1  0  0  0
M  END
$$$$
