5nps_ligand
  -I-interpret- 

150152  0  0  0  0  0  0  0  0999 V2000
  -11.9240  -36.4210   40.3500 C   0  0  0  0  0
  -12.4930  -35.4550   40.8550 O   0  0  0  0  0
  -10.8660  -37.2180   41.1380 C   0  0  0  0  0
  -12.1500  -36.8510   39.0990 N   0  0  0  0  0
  -13.1540  -36.2030   38.2190 C   0  0  0  0  0
  -13.4320  -37.0900   36.9750 C   0  0  0  0  0
  -14.5930  -37.1880   36.5880 O   0  0  0  0  0
  -12.7750  -34.7410   37.8180 C   0  0  0  0  0
  -11.5110  -34.6670   36.9390 C   0  0  0  0  0
  -13.9520  -34.0730   37.0870 C   0  0  0  0  0
  -12.3800  -37.7050   36.3640 N   0  0  0  0  0
  -12.5850  -38.5700   35.1890 C   0  0  0  0  0
  -12.5370  -40.0390   35.6250 C   0  0  0  0  0
  -11.4690  -40.5740   35.8820 O   0  0  0  0  0
  -11.5220  -38.3220   34.1120 C   0  0  0  0  0
  -11.6860  -36.9850   33.6860 O   0  0  0  0  0
  -11.7750  -39.2490   32.9020 C   0  0  0  0  0
  -13.7020  -40.6900   35.6710 N   0  0  0  0  0
  -13.7470  -42.1230   36.0620 C   0  0  0  0  0
  -13.2400  -42.9560   35.0010 C   0  0  0  0  0
  -13.4880  -42.7110   33.8130 O   0  0  0  0  0
  -15.1890  -42.4060   36.4290 C   0  0  0  0  0
  -15.9170  -41.4770   35.4850 C   0  0  0  0  0
  -15.0780  -40.2220   35.4600 C   0  0  0  0  0
  -12.4580  -43.9810   35.3960 N   0  0  0  0  0
  -11.8140  -44.9110   34.4700 C   0  0  0  0  0
  -11.9910  -46.3500   34.9790 C   0  0  0  0  0
  -12.3760  -46.5700   36.1350 O   0  0  0  0  0
  -10.3090  -44.5690   34.3410 C   0  0  0  0  0
  -10.1460  -43.1650   33.7480 C   0  0  0  0  0
   -9.5560  -44.6550   35.7020 C   0  0  0  0  0
  -11.7170  -47.3050   34.0940 N   0  0  0  0  0
  -11.7760  -48.7310   34.4840 C   0  0  0  0  0
  -10.4560  -48.9810   35.1930 C   0  0  0  0  0
   -9.4090  -48.6960   34.6150 O   0  0  0  0  0
  -11.9220  -49.6530   33.2880 C   0  0  0  0  0
  -13.1110  -49.2790   32.5860 O   0  0  0  0  0
  -10.5290  -49.4340   36.4560 N   0  0  0  0  0
   -9.3070  -49.6470   37.2530 C   0  0  0  0  0
   -9.3650  -50.9570   38.0680 C   0  0  0  0  0
  -10.4520  -51.4410   38.3960 O   0  0  0  0  0
   -9.0960  -48.4030   38.1240 C   0  0  0  0  0
   -7.8170  -48.5140   38.7360 O   0  0  0  0  0
  -10.1780  -48.2310   39.2010 C   0  0  0  0  0
   -8.1540  -51.4920   38.3500 N   0  0  0  0  0
   -7.9860  -52.7720   39.0800 C   0  0  0  0  0
   -8.6320  -52.7370   40.4550 C   0  0  0  0  0
   -8.5000  -51.5930   41.1730 O   0  0  0  0  0
   -6.4970  -53.0780   39.2670 C   0  0  0  0  0
   -9.2720  -53.8510   40.8270 N   0  0  0  0  0
  -12.8520  -38.3850   29.2110 C   0  0  0  0  0
  -10.8660  -37.4130   28.2250 C   0  0  0  0  0
  -10.4030  -38.6880   27.9380 C   0  0  0  0  0
  -11.1720  -39.7840   28.2990 C   0  0  0  0  0
  -12.4080  -39.6220   28.9180 N   0  0  0  0  0
  -13.9320  -38.1850   29.7680 O   0  0  0  0  0
  -12.0770  -37.2790   28.8800 N   0  0  0  0  0
  -10.2250  -36.3970   27.9290 O   0  0  0  0  0
  -13.1790  -40.8100   29.3300 C   0  0  0  0  0
  -12.2790  -41.4110   30.3080 O   0  0  0  0  0
  -13.4210  -41.8690   28.2990 C   0  0  0  0  0
  -14.6050  -41.5310   27.5910 O   0  0  0  0  0
  -13.6070  -43.0780   29.1950 C   0  0  0  0  0
  -14.9320  -43.1200   29.7600 O   0  0  0  0  0
  -12.5870  -42.8140   30.3230 C   0  0  0  0  0
  -11.2820  -43.5490   30.1090 C   0  0  0  0  0
  -11.3670  -44.7770   30.7880 O   0  0  0  0  0
  -10.3900  -45.9820   30.4720 P   0  0  0  0  0
  -10.6740  -47.0580   31.4260 O   0  0  0  0  0
   -9.0220  -45.4630   30.3680 O   0  0  0  0  0
  -11.0210  -46.2570   28.9670 O   0  0  0  0  0
  -10.9900  -47.6020   28.1370 P   0  0  0  0  0
   -9.9310  -48.4760   28.6910 O   0  0  0  0  0
  -10.9060  -47.1930   26.7160 O   0  0  0  0  0
  -12.4080  -48.2910   28.3870 O   0  0  0  0  0
  -13.0240  -48.4620   29.6810 C   0  0  0  0  0
  -12.5400  -49.7770   30.2650 C   0  0  0  0  0
  -13.4070  -50.1500   31.4750 C   0  0  0  0  0
  -10.0460  -36.5555   41.4153 H   0  0  0  0  0
  -11.3207  -37.6319   42.0380 H   0  0  0  0  0
  -10.4857  -38.0283   40.5160 H   0  0  0  0  0
  -11.6172  -37.6448   38.7434 H   0  0  0  0  0
  -14.0740  -36.1132   38.7967 H   0  0  0  0  0
  -12.5548  -34.2092   38.7436 H   0  0  0  0  0
  -11.6940  -35.1847   35.9974 H   0  0  0  0  0
  -11.2690  -33.6230   36.7401 H   0  0  0  0  0
  -10.6793  -35.1412   37.4601 H   0  0  0  0  0
  -13.7092  -33.0292   36.8880 H   0  0  0  0  0
  -14.1342  -34.5909   36.1453 H   0  0  0  0  0
  -14.8438  -34.1273   37.7114 H   0  0  0  0  0
  -11.4367  -37.5642   36.7257 H   0  0  0  0  0
  -13.5592  -38.3338   34.7609 H   0  0  0  0  0
  -10.5230  -38.5116   34.5045 H   0  0  0  0  0
  -11.0371  -36.7847   33.0075 H   0  0  0  0  0
  -11.7248  -40.2886   33.2256 H   0  0  0  0  0
  -12.7623  -39.0432   32.4884 H   0  0  0  0  0
  -11.0158  -39.0668   32.1414 H   0  0  0  0  0
  -13.1055  -42.3474   36.9142 H   0  0  0  0  0
  -15.4177  -42.2327   37.4806 H   0  0  0  0  0
  -15.4730  -43.4529   36.3224 H   0  0  0  0  0
  -16.9365  -41.2782   35.8155 H   0  0  0  0  0
  -16.0283  -41.9118   34.4917 H   0  0  0  0  0
  -15.1840  -39.6804   34.5200 H   0  0  0  0  0
  -15.3876  -39.5103   36.2253 H   0  0  0  0  0
  -12.3075  -44.1148   36.3959 H   0  0  0  0  0
  -12.2777  -44.8224   33.4876 H   0  0  0  0  0
   -9.8652  -45.3124   33.6788 H   0  0  0  0  0
  -10.6100  -43.1322   32.7622 H   0  0  0  0  0
  -10.6273  -42.4377   34.4019 H   0  0  0  0  0
   -9.0853  -42.9302   33.6597 H   0  0  0  0  0
  -10.0003  -43.9520   36.4066 H   0  0  0  0  0
   -9.6369  -45.6676   36.0972 H   0  0  0  0  0
   -8.5058  -44.4054   35.5511 H   0  0  0  0  0
  -11.4642  -47.0519   33.1388 H   0  0  0  0  0
  -12.6448  -48.9358   35.1096 H   0  0  0  0  0
  -11.9887  -50.6900   33.6171 H   0  0  0  0  0
  -11.0542  -49.5634   32.6345 H   0  0  0  0  0
  -11.4406  -49.6328   36.8682 H   0  0  0  0  0
   -8.4460  -49.7738   36.5968 H   0  0  0  0  0
   -9.1610  -47.5219   37.4857 H   0  0  0  0  0
   -7.6601  -47.7448   39.2886 H   0  0  0  0  0
  -11.1532  -48.1387   38.7230 H   0  0  0  0  0
  -10.1753  -49.1000   39.8590 H   0  0  0  0  0
   -9.9705  -47.3327   39.7825 H   0  0  0  0  0
   -7.3185  -50.9918   38.0465 H   0  0  0  0  0
   -8.4724  -53.5415   38.4805 H   0  0  0  0  0
   -6.0180  -53.1560   38.2910 H   0  0  0  0  0
   -6.0314  -52.2751   39.8385 H   0  0  0  0  0
   -6.3856  -54.0199   39.8041 H   0  0  0  0  0
   -9.7267  -53.8976   41.7388 H   0  0  0  0  0
   -9.3053  -54.6539   40.1988 H   0  0  0  0  0
   -9.4462  -38.8271   27.4347 H   0  0  0  0  0
  -10.8024  -40.7889   28.0946 H   0  0  0  0  0
  -12.4094  -36.3466   29.1260 H   0  0  0  0  0
  -14.1760  -40.4903   29.6330 H   0  0  0  0  0
  -12.6503  -42.0123   27.5417 H   0  0  0  0  0
  -14.7789  -42.1986   26.9235 H   0  0  0  0  0
  -13.4708  -44.0190   28.6620 H   0  0  0  0  0
  -15.0154  -43.8952   30.3200 H   0  0  0  0  0
  -13.0287  -43.1535   31.2599 H   0  0  0  0  0
  -10.4481  -42.9607   30.4919 H   0  0  0  0  0
  -11.1099  -43.7147   29.0455 H   0  0  0  0  0
   -8.9941  -44.7678   29.7066 H   0  0  0  0  0
  -11.6550  -46.6325   26.5007 H   0  0  0  0  0
  -14.1094  -48.4725   29.5815 H   0  0  0  0  0
  -12.7513  -47.6365   30.3384 H   0  0  0  0  0
  -11.5017  -49.6740   30.5802 H   0  0  0  0  0
  -12.6150  -50.5592   29.5096 H   0  0  0  0  0
  -14.4583  -50.0432   31.2076 H   0  0  0  0  0
  -13.1952  -51.1799   31.7623 H   0  0  0  0  0
  1  2  2  0  0  0
  1  3  1  0  0  0
  4  1  1  0  0  0
  5  4  1  0  0  0
  6  5  1  0  0  0
  5  8  1  0  0  0
  6  7  2  0  0  0
 11  6  1  0  0  0
  8  9  1  0  0  0
  8 10  1  0  0  0
 12 11  1  0  0  0
 13 12  1  0  0  0
 12 15  1  0  0  0
 13 14  2  0  0  0
 18 13  1  0  0  0
 15 16  1  0  0  0
 15 17  1  0  0  0
 19 18  1  0  0  0
 18 24  1  0  0  0
 20 19  1  0  0  0
 19 22  1  0  0  0
 20 21  2  0  0  0
 25 20  1  0  0  0
 22 23  1  0  0  0
 23 24  1  0  0  0
 26 25  1  0  0  0
 27 26  1  0  0  0
 26 29  1  0  0  0
 27 28  2  0  0  0
 32 27  1  0  0  0
 29 30  1  0  0  0
 29 31  1  0  0  0
 33 32  1  0  0  0
 33 34  1  0  0  0
 36 33  1  0  0  0
 34 35  2  0  0  0
 34 38  1  0  0  0
 37 36  1  0  0  0
 78 37  1  0  0  0
 38 39  1  0  0  0
 39 40  1  0  0  0
 39 42  1  0  0  0
 40 41  2  0  0  0
 40 45  1  0  0  0
 42 43  1  0  0  0
 42 44  1  0  0  0
 45 46  1  0  0  0
 46 47  1  0  0  0
 46 49  1  0  0  0
 47 48  2  0  0  0
 47 50  1  0  0  0
 55 51  1  0  0  0
 51 56  2  0  0  0
 51 57  1  0  0  0
 53 52  1  0  0  0
 57 52  1  0  0  0
 52 58  2  0  0  0
 54 53  2  0  0  0
 55 54  1  0  0  0
 59 55  1  0  0  0
 60 59  1  0  0  0
 61 59  1  0  0  0
 65 60  1  0  0  0
 61 62  1  0  0  0
 63 61  1  0  0  0
 63 64  1  0  0  0
 65 63  1  0  0  0
 66 65  1  0  0  0
 67 66  1  0  0  0
 68 67  1  0  0  0
 68 69  2  0  0  0
 68 70  1  0  0  0
 71 68  1  0  0  0
 72 71  1  0  0  0
 72 73  2  0  0  0
 72 74  1  0  0  0
 75 72  1  0  0  0
 76 75  1  0  0  0
 77 76  1  0  0  0
 77 78  1  0  0  0
  3 79  1  0  0  0
  3 80  1  0  0  0
  3 81  1  0  0  0
  4 82  1  0  0  0
  5 83  1  0  0  0
  8 84  1  0  0  0
  9 85  1  0  0  0
  9 86  1  0  0  0
  9 87  1  0  0  0
 10 88  1  0  0  0
 10 89  1  0  0  0
 10 90  1  0  0  0
 11 91  1  0  0  0
 12 92  1  0  0  0
 15 93  1  0  0  0
 16 94  1  0  0  0
 17 95  1  0  0  0
 17 96  1  0  0  0
 17 97  1  0  0  0
 19 98  1  0  0  0
 22 99  1  0  0  0
 22100  1  0  0  0
 23101  1  0  0  0
 23102  1  0  0  0
 24103  1  0  0  0
 24104  1  0  0  0
 25105  1  0  0  0
 26106  1  0  0  0
 29107  1  0  0  0
 30108  1  0  0  0
 30109  1  0  0  0
 30110  1  0  0  0
 31111  1  0  0  0
 31112  1  0  0  0
 31113  1  0  0  0
 32114  1  0  0  0
 33115  1  0  0  0
 36116  1  0  0  0
 36117  1  0  0  0
 38118  1  0  0  0
 39119  1  0  0  0
 42120  1  0  0  0
 43121  1  0  0  0
 44122  1  0  0  0
 44123  1  0  0  0
 44124  1  0  0  0
 45125  1  0  0  0
 46126  1  0  0  0
 49127  1  0  0  0
 49128  1  0  0  0
 49129  1  0  0  0
 50130  1  0  0  0
 50131  1  0  0  0
 53132  1  0  0  0
 54133  1  0  0  0
 57134  1  0  0  0
 59135  1  0  0  0
 61136  1  0  0  0
 62137  1  0  0  0
 63138  1  0  0  0
 64139  1  0  0  0
 65140  1  0  0  0
 66141  1  0  0  0
 66142  1  0  0  0
 70143  1  0  0  0
 74144  1  0  0  0
 76145  1  0  0  0
 76146  1  0  0  0
 77147  1  0  0  0
 77148  1  0  0  0
 78149  1  0  0  0
 78150  1  0  0  0
M  END
$$$$
