### 
### Created by X-TOOL on Wed Jan  1 15:39:36 2020
### 

@<TRIPOS>MOLECULE
5nps_ligand
  148   150     1     0     0
SMALL
GAST_HUCK


@<TRIPOS>ATOM
      1 C         -11.9240  -36.4210   40.3500 C.2       1 ACY         0.1751
      2 O         -12.4930  -35.4550   40.8550 O.2       1 ACY        -0.3972
      3 CH3       -10.8660  -37.2180   41.1380 C.3       1 ACY         0.0258
      4 N         -12.1500  -36.8510   39.0990 N.am      1 VAL        -0.2656
      5 CA        -13.1540  -36.2030   38.2190 C.3       1 VAL         0.1332
      6 C         -13.4320  -37.0900   36.9750 C.2       1 VAL         0.2042
      7 O         -14.5930  -37.1880   36.5880 O.2       1 VAL        -0.3944
      8 CB        -12.7750  -34.7410   37.8180 C.3       1 VAL        -0.0063
      9 CG1       -11.5110  -34.6670   36.9390 C.3       1 VAL        -0.0584
     10 CG2       -13.9520  -34.0730   37.0870 C.3       1 VAL        -0.0584
     11 N         -12.3800  -37.7050   36.3640 N.am      1 THR        -0.2613
     12 CA        -12.5850  -38.5700   35.1890 C.3       1 THR         0.1567
     13 C         -12.5370  -40.0390   35.6250 C.2       1 THR         0.2090
     14 O         -11.4690  -40.5740   35.8820 O.2       1 THR        -0.3941
     15 CB        -11.5220  -38.3220   34.1120 C.3       1 THR         0.0924
     16 OG1       -11.6860  -36.9850   33.6860 O.3       1 THR        -0.3874
     17 CG2       -11.7750  -39.2490   32.9020 C.3       1 THR        -0.0346
     18 N         -13.7020  -40.6900   35.6710 N.am      1 PRO        -0.2498
     19 CA        -13.7470  -42.1230   36.0620 C.3       1 PRO         0.1338
     20 C         -13.2400  -42.9560   35.0010 C.2       1 PRO         0.2041
     21 O         -13.4880  -42.7110   33.8130 O.2       1 PRO        -0.3944
     22 CB        -15.1890  -42.4060   36.4290 C.3       1 PRO        -0.0104
     23 CG        -15.9170  -41.4770   35.4850 C.3       1 PRO        -0.0281
     24 CD        -15.0780  -40.2220   35.4600 C.3       1 PRO         0.0369
     25 N         -12.4580  -43.9810   35.3960 N.am      1 VAL        -0.2635
     26 CA        -11.8140  -44.9110   34.4700 C.3       1 VAL         0.1333
     27 C         -11.9910  -46.3500   34.9790 C.2       1 VAL         0.2042
     28 O         -12.3760  -46.5700   36.1350 O.2       1 VAL        -0.3944
     29 CB        -10.3090  -44.5690   34.3410 C.3       1 VAL        -0.0063
     30 CG1       -10.1460  -43.1650   33.7480 C.3       1 VAL        -0.0584
     31 CG2        -9.5560  -44.6550   35.7020 C.3       1 VAL        -0.0584
     32 N         -11.7170  -47.3050   34.0940 N.am      1 SER        -0.2615
     33 CA        -11.7760  -48.7310   34.4840 C.3       1 SER         0.1542
     34 C         -10.4560  -48.9810   35.1930 C.2       1 SER         0.2063
     35 O          -9.4090  -48.6960   34.6150 O.2       1 SER        -0.3943
     36 CB        -11.9220  -49.6530   33.2880 C.3       1 SER         0.0878
     37 OG        -13.1110  -49.2790   32.5860 O.3       1 SER        -0.3750
     38 N         -10.5290  -49.4340   36.4560 N.am      1 THR        -0.2613
     39 CA         -9.3070  -49.6470   37.2530 C.3       1 THR         0.1565
     40 C          -9.3650  -50.9570   38.0680 C.2       1 THR         0.2065
     41 O         -10.4520  -51.4410   38.3960 O.2       1 THR        -0.3943
     42 CB         -9.0960  -48.4030   38.1240 C.3       1 THR         0.0924
     43 OG1        -7.8170  -48.5140   38.7360 O.3       1 THR        -0.3874
     44 CG2       -10.1780  -48.2310   39.2010 C.3       1 THR        -0.0346
     45 N          -8.1540  -51.4920   38.3500 N.am      1 ALA        -0.2639
     46 CA         -7.9860  -52.7720   39.0800 C.3       1 ALA         0.1279
     47 C          -8.6320  -52.7370   40.4550 C.2       1 ALA         0.1989
     48 O          -8.5000  -51.5930   41.1730 O.2       1 ALA        -0.3947
     49 CB         -6.4970  -53.0780   39.2670 C.3       1 ALA        -0.0244
     50 N          -9.2720  -53.8510   40.8270 N.am      1 NH2        -0.2990
     51 C2        -12.8520  -38.3850   29.2110 C.2       1 94T         0.3328
     52 C4        -10.8660  -37.4130   28.2250 C.2       1 94T         0.1822
     53 C5        -10.4030  -38.6880   27.9380 C.2       1 94T         0.0062
     54 C6        -11.1720  -39.7840   28.2990 C.2       1 94T         0.0591
     55 N1        -12.4080  -39.6220   28.9180 N.am      1 94T        -0.1592
     56 O2        -13.9320  -38.1850   29.7680 O.2       1 94T        -0.3815
     57 N3        -12.0770  -37.2790   28.8800 N.am      1 94T        -0.1865
     58 O4        -10.2250  -36.3970   27.9290 O.2       1 94T        -0.4124
     59 C1'       -13.1790  -40.8100   29.3300 C.3       1 94T         0.2059
     60 O4'       -12.2790  -41.4110   30.3080 O.3       1 94T        -0.3363
     61 C2'       -13.4210  -41.8690   28.2990 C.3       1 94T         0.1387
     62 O2'       -14.6050  -41.5310   27.5910 O.3       1 94T        -0.3836
     63 C3'       -13.6070  -43.0780   29.1950 C.3       1 94T         0.1149
     64 O3'       -14.9320  -43.1200   29.7600 O.3       1 94T        -0.3864
     65 C4'       -12.5870  -42.8140   30.3230 C.3       1 94T         0.1189
     66 C5'       -11.2820  -43.5490   30.1090 C.3       1 94T         0.1128
     67 O5'       -11.3670  -44.7770   30.7880 O.3       1 94T        -0.2476
     68 PCS       -10.3900  -45.9820   30.4720 P.3       1 94T         0.2972
     69 OCT       -10.6740  -47.0580   31.4260 O.co2     1 94T        -0.6127
     70 OCU        -9.0220  -45.4630   30.3680 O.co2     1 94T        -0.6127
     71 OCV       -11.0210  -46.2570   28.9670 O.3       1 94T        -0.1319
     72 PCW       -10.9900  -47.6020   28.1370 P.3       1 94T         0.2971
     73 OCX        -9.9310  -48.4760   28.6910 O.co2     1 94T        -0.6127
     74 OCY       -10.9060  -47.1930   26.7160 O.co2     1 94T        -0.6127
     75 OCZ       -12.4080  -48.2910   28.3870 O.3       1 94T        -0.2503
     76 CBF       -13.0240  -48.4620   29.6810 C.3       1 94T         0.0861
     77 CBG       -12.5400  -49.7770   30.2650 C.3       1 94T        -0.0008
     78 CBH       -13.4070  -50.1500   31.4750 C.3       1 94T         0.0504
     79 H1        -10.4814  -38.0361   40.5113 H         1 ACY         0.0467
     80 H2        -11.3236  -37.6363   42.0466 H         1 ACY         0.0467
     81 H3        -10.0379  -36.5505   41.4184 H         1 ACY         0.0467
     82 H4        -11.6277  -37.6292   38.7503 H         1 VAL         0.1883
     83 H5        -14.0909  -36.1405   38.7919 H         1 VAL         0.0802
     84 H6        -12.5761  -34.1798   38.7429 H         1 VAL         0.0343
     85 H7        -11.2975  -33.6167   36.6915 H         1 VAL         0.0234
     86 H8        -11.6751  -35.2360   36.0121 H         1 VAL         0.0234
     87 H9        -10.6583  -35.0953   37.4861 H         1 VAL         0.0234
     88 H10       -14.8526  -34.1271   37.7162 H         1 VAL         0.0234
     89 H11       -14.1370  -34.5947   36.1365 H         1 VAL         0.0234
     90 H12       -13.7082  -33.0194   36.8856 H         1 VAL         0.0234
     91 H13       -11.4552  -37.5670   36.7186 H         1 THR         0.1884
     92 H14       -13.5752  -38.3539   34.7616 H         1 THR         0.0826
     93 H15       -10.5124  -38.4869   34.5164 H         1 THR         0.0639
     94 H16       -12.5605  -36.8714   33.3328 H         1 THR         0.2101
     95 H17       -11.0094  -39.0661   32.1336 H         1 THR         0.0257
     96 H18       -12.7711  -39.0423   32.4836 H         1 THR         0.0257
     97 H19       -11.7245  -40.2986   33.2273 H         1 THR         0.0257
     98 H20       -13.1162  -42.2825   36.9489 H         1 PRO         0.0802
     99 H21       -15.3946  -42.1554   37.4802 H         1 PRO         0.0313
    100 H22       -15.4536  -43.4576   36.2442 H         1 PRO         0.0313
    101 H23       -16.9288  -41.2598   35.8579 H         1 PRO         0.0287
    102 H24       -15.9836  -41.9192   34.4800 H         1 PRO         0.0287
    103 H25       -15.1702  -39.7130   34.4893 H         1 PRO         0.0524
    104 H26       -15.3821  -39.5359   36.2642 H         1 PRO         0.0524
    105 H27       -12.3105  -44.1122   36.3763 H         1 VAL         0.1883
    106 H28       -12.2872  -44.8197   33.4812 H         1 VAL         0.0802
    107 H29        -9.8526  -45.2958   33.6529 H         1 VAL         0.0343
    108 H30        -9.0758  -42.9268   33.6584 H         1 VAL         0.0234
    109 H31       -10.6313  -42.4300   34.4070 H         1 VAL         0.0234
    110 H32       -10.6138  -43.1306   32.7530 H         1 VAL         0.0234
    111 H33        -9.6755  -45.6638   36.1240 H         1 VAL         0.0234
    112 H34        -9.9735  -43.9140   36.3995 H         1 VAL         0.0234
    113 H35        -8.4873  -44.4481   35.5435 H         1 VAL         0.0234
    114 H36       -11.4691  -47.0569   33.1575 H         1 SER         0.1884
    115 H37       -12.6194  -48.9010   35.1693 H         1 SER         0.0823
    116 H38       -12.0014  -50.6961   33.6279 H         1 SER         0.0609
    117 H39       -11.0492  -49.5482   32.6267 H         1 SER         0.0609
    118 H40       -11.4227  -49.6290   36.8601 H         1 THR         0.1884
    119 H41        -8.4543  -49.7298   36.5631 H         1 THR         0.0826
    120 H42        -9.1122  -47.5141   37.4762 H         1 THR         0.0639
    121 H43        -7.1484  -48.5635   38.0630 H         1 THR         0.2101
    122 H44        -9.9697  -47.3247   39.7885 H         1 THR         0.0257
    123 H45       -10.1762  -49.1074   39.8658 H         1 THR         0.0257
    124 H46       -11.1628  -48.1377   38.7198 H         1 THR         0.0257
    125 H47        -7.3349  -51.0016   38.0524 H         1 ALA         0.1883
    126 H48        -8.4509  -53.5744   38.4884 H         1 ALA         0.0797
    127 H49        -6.3833  -54.0284   39.8090 H         1 ALA         0.0277
    128 H50        -6.0259  -52.2684   39.8437 H         1 ALA         0.0277
    129 H51        -6.0124  -53.1570   38.2827 H         1 ALA         0.0277
    130 H52        -9.7196  -53.8959   41.7201 H         1 NH2         0.1815
    131 H53        -9.3029  -54.6389   40.2120 H         1 NH2         0.1815
    132 H54        -9.4471  -38.8270   27.4352 H         1 94T         0.0258
    133 H55       -10.8028  -40.7879   28.0948 H         1 94T         0.1178
    134 H56       -12.4029  -36.3649   29.1212 H         1 94T         0.2259
    135 H57       -14.1396  -40.5041   29.7700 H         1 94T         0.0997
    136 H58       -12.5776  -41.9946   27.6042 H         1 94T         0.0676
    137 H59       -14.7771  -42.1917   26.9304 H         1 94T         0.2101
    138 H60       -13.3941  -44.0139   28.6576 H         1 94T         0.0648
    139 H61       -15.0794  -42.3369   30.2773 H         1 94T         0.2100
    140 H62       -13.0231  -43.1066   31.2895 H         1 94T         0.0651
    141 H63       -10.4475  -42.9557   30.5109 H         1 94T         0.0648
    142 H64       -11.1229  -43.7250   29.0349 H         1 94T         0.0648
    143 H65       -14.1185  -48.4827   29.5729 H         1 SER         0.0621
    144 H66       -12.7366  -47.6320   30.3432 H         1 SER         0.0621
    145 H67       -11.4921  -49.6733   30.5830 H         1 SER         0.0313
    146 H68       -12.6155  -50.5665   29.5028 H         1 SER         0.0313
    147 H69       -14.4689  -50.0486   31.2064 H         1 SER         0.0561
    148 H70       -13.1995  -51.1909   31.7638 H         1 SER         0.0561
@<TRIPOS>BOND
     1    1    2 2  
     2    1    3 1  
     3    4    1 am 
     4    5    4 1  
     5    6    5 1  
     6    5    8 1  
     7    6    7 2  
     8   11    6 am 
     9    8    9 1  
    10    8   10 1  
    11   12   11 1  
    12   13   12 1  
    13   12   15 1  
    14   13   14 2  
    15   18   13 am 
    16   15   16 1  
    17   15   17 1  
    18   19   18 1  
    19   18   24 1  
    20   20   19 1  
    21   19   22 1  
    22   20   21 2  
    23   25   20 am 
    24   22   23 1  
    25   23   24 1  
    26   26   25 1  
    27   27   26 1  
    28   26   29 1  
    29   27   28 2  
    30   32   27 am 
    31   29   30 1  
    32   29   31 1  
    33   33   32 1  
    34   33   34 1  
    35   36   33 1  
    36   34   35 2  
    37   34   38 am 
    38   37   36 1  
    39   78   37 1  
    40   38   39 1  
    41   39   40 1  
    42   39   42 1  
    43   40   41 2  
    44   40   45 am 
    45   42   43 1  
    46   42   44 1  
    47   45   46 1  
    48   46   47 1  
    49   46   49 1  
    50   47   48 2  
    51   47   50 am 
    52   55   51 am 
    53   51   56 2  
    54   51   57 am 
    55   53   52 1  
    56   57   52 am 
    57   52   58 2  
    58   54   53 2  
    59   55   54 1  
    60   59   55 1  
    61   60   59 1  
    62   61   59 1  
    63   65   60 1  
    64   61   62 1  
    65   63   61 1  
    66   63   64 1  
    67   65   63 1  
    68   66   65 1  
    69   67   66 1  
    70   68   67 1  
    71   68   69 ar 
    72   68   70 ar 
    73   71   68 1  
    74   72   71 1  
    75   72   73 ar 
    76   72   74 ar 
    77   75   72 1  
    78   76   75 1  
    79   77   76 1  
    80   77   78 1  
    81    3   79 1  
    82    3   80 1  
    83    3   81 1  
    84    4   82 1  
    85    5   83 1  
    86    8   84 1  
    87    9   85 1  
    88    9   86 1  
    89    9   87 1  
    90   10   88 1  
    91   10   89 1  
    92   10   90 1  
    93   11   91 1  
    94   12   92 1  
    95   15   93 1  
    96   16   94 1  
    97   17   95 1  
    98   17   96 1  
    99   17   97 1  
   100   19   98 1  
   101   22   99 1  
   102   22  100 1  
   103   23  101 1  
   104   23  102 1  
   105   24  103 1  
   106   24  104 1  
   107   25  105 1  
   108   26  106 1  
   109   29  107 1  
   110   30  108 1  
   111   30  109 1  
   112   30  110 1  
   113   31  111 1  
   114   31  112 1  
   115   31  113 1  
   116   32  114 1  
   117   33  115 1  
   118   36  116 1  
   119   36  117 1  
   120   38  118 1  
   121   39  119 1  
   122   42  120 1  
   123   43  121 1  
   124   44  122 1  
   125   44  123 1  
   126   44  124 1  
   127   45  125 1  
   128   46  126 1  
   129   49  127 1  
   130   49  128 1  
   131   49  129 1  
   132   50  130 1  
   133   50  131 1  
   134   53  132 1  
   135   54  133 1  
   136   57  134 1  
   137   59  135 1  
   138   61  136 1  
   139   62  137 1  
   140   63  138 1  
   141   64  139 1  
   142   65  140 1  
   143   66  141 1  
   144   66  142 1  
   145   76  143 1  
   146   76  144 1  
   147   77  145 1  
   148   77  146 1  
   149   78  147 1  
   150   78  148 1  
@<TRIPOS>SUBSTRUCTURE
     1 ACY         1

