4j81_ligand
  -I-interpret- 

 80 81  0  0  0  0  0  0  0  0999 V2000
  -91.2240   70.9320  125.4250 N   0  3  0  0  0
  -91.8970   70.7640  124.1400 C   0  0  0  0  0
  -92.8520   71.9340  123.8760 C   0  0  0  0  0
  -93.6870   72.2560  124.7190 O   0  0  0  0  0
  -92.6560   69.4340  124.1170 C   0  0  0  0  0
  -93.3340   69.1120  122.7980 C   0  0  0  0  0
  -94.2380   67.8950  122.9350 C   0  0  0  0  0
  -93.5270   66.6010  122.5790 C   0  0  0  0  0
  -93.2630   66.5160  121.1190 N   0  3  0  0  0
  -92.7410   72.5510  122.7050 N   0  0  0  0  0
  -93.6580   73.6320  122.3320 C   0  0  0  0  0
  -95.0950   73.1310  122.2790 C   0  0  0  0  0
  -95.3340   71.9890  121.9080 O   0  0  0  0  0
  -93.1970   74.0120  120.9270 C   0  0  0  0  0
  -91.7650   73.6110  120.8760 C   0  0  0  0  0
  -91.6610   72.3770  121.7190 C   0  0  0  0  0
  -96.0350   73.9940  122.6450 N   0  0  0  0  0
  -97.4440   73.6720  122.5740 C   0  0  0  0  0
  -97.7830   72.4080  123.2990 C   0  0  0  0  0
  -98.4920   71.5380  122.7640 O   0  0  0  0  0
  -97.8930   73.5980  121.1230 C   0  0  0  0  0
  -98.0610   74.9470  120.4810 C   0  0  0  0  0
  -99.2630   75.4660  120.1940 N   0  0  0  0  0
  -97.1230   75.8960  120.0970 C   0  0  0  0  0
  -99.1070   76.6800  119.6450 C   0  0  0  0  0
  -97.7970   76.9440  119.5880 N   0  0  0  0  0
  -97.2970   72.2940  124.5300 N   0  0  0  0  0
  -97.5750   71.1310  125.3570 C   0  0  0  0  0
  -98.9950   71.1480  125.9140 C   0  0  0  0  0
  -99.5750   70.1000  126.1670 O   0  0  0  0  0
  -96.5600   71.0350  126.4970 C   0  0  0  0  0
  -95.4200   70.3080  126.0830 O   0  0  0  0  0
  -99.5420   72.3450  126.1060 N   0  0  0  0  0
 -100.8990   72.5030  126.6210 C   0  0  0  0  0
 -101.9300   72.1570  125.5600 C   0  0  0  0  0
 -103.1190   71.9850  125.8580 O   0  0  0  0  0
 -101.1400   73.9430  127.0960 C   0  0  0  0  0
 -100.4540   74.2560  128.4170 C   0  0  0  0  0
  -99.8390   73.3520  129.0200 O   0  0  0  0  0
 -100.5490   75.4200  128.8560 O   0  0  0  0  0
 -101.5980   72.0590  124.3680 O   0  0  0  0  0
  -90.7217   71.8197  125.4309 H   0  0  0  0  0
  -91.9169   70.9271  126.1735 H   0  0  0  0  0
  -90.5650   70.1661  125.5650 H   0  0  0  0  0
  -91.1466   70.7529  123.3495 H   0  0  0  0  0
  -93.4424   69.5050  124.8684 H   0  0  0  0  0
  -91.9228   68.6477  124.2966 H   0  0  0  0  0
  -92.5677   68.8974  122.0531 H   0  0  0  0  0
  -93.9399   69.9668  122.4974 H   0  0  0  0  0
  -95.0757   68.0188  122.2487 H   0  0  0  0  0
  -94.5579   67.8284  123.9749 H   0  0  0  0  0
  -94.1635   65.7642  122.8665 H   0  0  0  0  0
  -92.5738   66.5715  123.1069 H   0  0  0  0  0
  -92.7860   65.6386  120.9115 H   0  0  0  0  0
  -94.1474   66.5517  120.6121 H   0  0  0  0  0
  -92.6750   67.2995  120.8348 H   0  0  0  0  0
  -93.6417   74.4596  123.0412 H   0  0  0  0  0
  -93.3279   75.0762  120.7307 H   0  0  0  0  0
  -93.7860   73.5129  120.1576 H   0  0  0  0  0
  -91.1161   74.4036  121.2487 H   0  0  0  0  0
  -91.4406   73.4225  119.8526 H   0  0  0  0  0
  -91.7658   71.4608  121.1379 H   0  0  0  0  0
  -90.6812   72.2666  122.1837 H   0  0  0  0  0
  -95.7552   74.9133  122.9871 H   0  0  0  0  0
  -97.9842   74.4742  123.0767 H   0  0  0  0  0
  -98.8633   73.1018  121.1040 H   0  0  0  0  0
  -97.1227   73.0631  120.5674 H   0  0  0  0  0
  -96.0406   75.8085  120.1905 H   0  0  0  0  0
  -99.9078   77.3365  119.3048 H   0  0  0  0  0
  -96.7135   73.0420  124.9048 H   0  0  0  0  0
  -97.4856   70.2510  124.7200 H   0  0  0  0  0
  -97.0213   70.5213  127.3404 H   0  0  0  0  0
  -96.2540   72.0407  126.7852 H   0  0  0  0  0
  -94.7936   70.2568  126.8087 H   0  0  0  0  0
  -98.9965   73.1785  125.8866 H   0  0  0  0  0
 -101.0056   71.8194  127.4633 H   0  0  0  0  0
 -102.2129   74.0696  127.2409 H   0  0  0  0  0
 -100.7298   74.6144  126.3417 H   0  0  0  0  0
  -99.8883   72.5391  128.5118 H   0  0  0  0  0
 -100.6545   72.2158  124.2859 H   0  0  0  0  0
  1  2  1  0  0  0
  2  3  1  0  0  0
  2  5  1  0  0  0
  3  4  2  0  0  0
  3 10  1  0  0  0
  5  6  1  0  0  0
  6  7  1  0  0  0
  7  8  1  0  0  0
  8  9  1  0  0  0
 10 11  1  0  0  0
 10 16  1  0  0  0
 11 12  1  0  0  0
 11 14  1  0  0  0
 12 13  2  0  0  0
 12 17  1  0  0  0
 14 15  1  0  0  0
 15 16  1  0  0  0
 17 18  1  0  0  0
 18 19  1  0  0  0
 18 21  1  0  0  0
 19 20  2  0  0  0
 19 27  1  0  0  0
 21 22  1  0  0  0
 22 23  4  0  0  0
 22 24  4  0  0  0
 23 25  4  0  0  0
 24 26  4  0  0  0
 25 26  4  0  0  0
 27 28  1  0  0  0
 28 29  1  0  0  0
 28 31  1  0  0  0
 29 30  2  0  0  0
 29 33  1  0  0  0
 31 32  1  0  0  0
 33 34  1  0  0  0
 34 35  1  0  0  0
 34 37  1  0  0  0
 35 36  2  0  0  0
 35 41  1  0  0  0
 37 38  1  0  0  0
 38 39  1  0  0  0
 38 40  2  0  0  0
  1 42  1  0  0  0
  1 43  1  0  0  0
  1 44  1  0  0  0
  2 45  1  0  0  0
  5 46  1  0  0  0
  5 47  1  0  0  0
  6 48  1  0  0  0
  6 49  1  0  0  0
  7 50  1  0  0  0
  7 51  1  0  0  0
  8 52  1  0  0  0
  8 53  1  0  0  0
  9 54  1  0  0  0
  9 55  1  0  0  0
  9 56  1  0  0  0
 11 57  1  0  0  0
 14 58  1  0  0  0
 14 59  1  0  0  0
 15 60  1  0  0  0
 15 61  1  0  0  0
 16 62  1  0  0  0
 16 63  1  0  0  0
 17 64  1  0  0  0
 18 65  1  0  0  0
 21 66  1  0  0  0
 21 67  1  0  0  0
 24 68  1  0  0  0
 25 69  1  0  0  0
 27 70  1  0  0  0
 28 71  1  0  0  0
 31 72  1  0  0  0
 31 73  1  0  0  0
 32 74  1  0  0  0
 33 75  1  0  0  0
 34 76  1  0  0  0
 37 77  1  0  0  0
 37 78  1  0  0  0
 39 79  1  0  0  0
 41 80  1  0  0  0
M  END
$$$$
