6qac_ligand
  -I-interpret- 

 68 70  0  0  0  0  0  0  0  0999 V2000
   12.1750   49.4240   39.0330 C   0  0  0  0  0
   13.4060   48.5750   39.3680 C   0  0  0  0  0
   13.3330   47.1210   38.8320 C   0  0  0  0  0
   14.2080   46.1500   39.6620 C   0  0  0  0  0
   15.3590   43.9850   39.5950 C   0  0  0  0  0
   15.5870   42.7120   38.7800 C   0  0  0  0  0
   15.9560   41.5890   39.6180 C   0  0  0  0  0
   17.2100   41.0010   39.6530 C   0  0  0  0  0
   15.9000   39.9170   41.1620 C   0  0  0  0  0
   15.1270   40.9320   40.5550 C   0  0  0  0  0
   13.7930   41.0730   40.9660 C   0  0  0  0  0
   13.2750   40.2120   41.9340 C   0  0  0  0  0
   14.0430   39.1990   42.5120 C   0  0  0  0  0
   15.3740   39.0320   42.1400 C   0  0  0  0  0
   16.7490   44.6630   39.8210 C   0  0  0  0  0
   18.4140   45.4460   41.4590 C   0  0  0  0  0
   19.3180   44.5440   42.3120 C   0  0  0  0  0
   19.8980   43.3980   41.4660 C   0  0  0  0  0
   20.7370   42.4170   42.2800 C   0  0  0  0  0
   22.1360   43.0000   42.7190 C   0  0  0  0  0
   23.4260   42.3790   42.1590 C   0  0  0  0  0
   23.7860   41.0250   42.7530 C   0  0  0  0  0
   22.6050   40.3780   43.4800 C   0  0  0  0  0
   21.4720   39.9230   42.5440 C   0  0  0  0  0
   20.8550   41.0180   41.6550 C   0  0  0  0  0
   14.5040   44.9460   38.9060 N   0  3  0  0  0
   17.1960   39.9640   40.5970 N   0  0  0  0  0
   17.1480   44.8090   41.1420 N   0  0  0  0  0
   17.4740   45.0610   38.8970 O   0  0  0  0  0
   12.0604   49.4843   37.9507 H   0  0  0  0  0
   11.2882   48.9635   39.4685 H   0  0  0  0  0
   12.3039   50.4260   39.4424 H   0  0  0  0  0
   13.4732   48.5166   40.4544 H   0  0  0  0  0
   14.2657   49.0511   38.8965 H   0  0  0  0  0
   13.7010   47.1179   37.8060 H   0  0  0  0  0
   12.2978   46.7861   38.8971 H   0  0  0  0  0
   13.6644   45.8726   40.5651 H   0  0  0  0  0
   15.1454   46.6476   39.9106 H   0  0  0  0  0
   14.8689   43.7039   40.5271 H   0  0  0  0  0
   16.4019   42.8970   38.0802 H   0  0  0  0  0
   14.6571   42.4641   38.2683 H   0  0  0  0  0
   18.0664   41.2958   39.0467 H   0  0  0  0  0
   13.1649   41.8507   40.5316 H   0  0  0  0  0
   12.2386   40.3338   42.2489 H   0  0  0  0  0
   13.5993   38.5376   43.2561 H   0  0  0  0  0
   15.9903   38.2500   42.5835 H   0  0  0  0  0
   18.9313   45.6579   40.5233 H   0  0  0  0  0
   18.2053   46.3524   42.0272 H   0  0  0  0  0
   18.7265   44.1186   43.1227 H   0  0  0  0  0
   20.1400   45.1414   42.7063 H   0  0  0  0  0
   20.5468   43.8404   40.7101 H   0  0  0  0  0
   19.0610   42.8441   41.0409 H   0  0  0  0  0
   20.1642   42.2758   43.1966 H   0  0  0  0  0
   22.1859   42.8190   43.7927 H   0  0  0  0  0
   22.1378   44.0240   42.3456 H   0  0  0  0  0
   24.2402   43.0609   42.4042 H   0  0  0  0  0
   23.2686   42.2266   41.0912 H   0  0  0  0  0
   24.5875   41.1751   43.4763 H   0  0  0  0  0
   24.0835   40.3659   41.9374 H   0  0  0  0  0
   22.1886   41.1271   44.1535 H   0  0  0  0  0
   22.9830   39.4905   43.9875 H   0  0  0  0  0
   20.6696   39.5604   43.1865 H   0  0  0  0  0
   21.9085   39.1879   41.8678 H   0  0  0  0  0
   21.5204   41.1237   40.7981 H   0  0  0  0  0
   19.8365   40.6953   41.4391 H   0  0  0  0  0
   15.0044   45.2390   38.0668 H   0  0  0  0  0
   13.6139   44.4791   38.7325 H   0  0  0  0  0
   16.5493   44.4673   41.8938 H   0  0  0  0  0
  2  1  1  0  0  0
  3  2  1  0  0  0
  4  3  1  0  0  0
 26  4  1  0  0  0
  5  6  1  0  0  0
 15  5  1  0  0  0
  5 26  1  0  0  0
  6  7  1  0  0  0
  7  8  4  0  0  0
  7 10  4  0  0  0
  8 27  4  0  0  0
 10  9  4  0  0  0
  9 14  4  0  0  0
  9 27  4  0  0  0
 10 11  4  0  0  0
 11 12  4  0  0  0
 12 13  4  0  0  0
 14 13  4  0  0  0
 28 15  1  0  0  0
 15 29  2  0  0  0
 16 17  1  0  0  0
 16 28  1  0  0  0
 17 18  1  0  0  0
 18 19  1  0  0  0
 19 20  1  0  0  0
 19 25  1  0  0  0
 20 21  1  0  0  0
 21 22  1  0  0  0
 22 23  1  0  0  0
 23 24  1  0  0  0
 24 25  1  0  0  0
  1 30  1  0  0  0
  1 31  1  0  0  0
  1 32  1  0  0  0
  2 33  1  0  0  0
  2 34  1  0  0  0
  3 35  1  0  0  0
  3 36  1  0  0  0
  4 37  1  0  0  0
  4 38  1  0  0  0
  5 39  1  0  0  0
  6 40  1  0  0  0
  6 41  1  0  0  0
  8 42  1  0  0  0
 11 43  1  0  0  0
 12 44  1  0  0  0
 13 45  1  0  0  0
 14 46  1  0  0  0
 16 47  1  0  0  0
 16 48  1  0  0  0
 17 49  1  0  0  0
 17 50  1  0  0  0
 18 51  1  0  0  0
 18 52  1  0  0  0
 19 53  1  0  0  0
 20 54  1  0  0  0
 20 55  1  0  0  0
 21 56  1  0  0  0
 21 57  1  0  0  0
 22 58  1  0  0  0
 22 59  1  0  0  0
 23 60  1  0  0  0
 23 61  1  0  0  0
 24 62  1  0  0  0
 24 63  1  0  0  0
 25 64  1  0  0  0
 25 65  1  0  0  0
 26 66  1  0  0  0
 26 67  1  0  0  0
 28 68  1  0  0  0
M  END
$$$$
