4puk_ligand
  -I-interpret- 

 25 27  0  0  0  0  0  0  0  0999 V2000
  -16.9220   18.0620  -17.8130 N   0  0  0  0  0
  -18.9750   18.6410  -18.4950 N   0  0  0  0  0
  -18.1170   18.5000  -17.4600 C   0  0  0  0  0
  -17.5360   18.7190  -15.0930 C   0  0  0  0  0
  -18.2740   18.2920  -19.6380 C   0  0  0  0  0
  -18.5840   18.3270  -20.9790 C   0  0  0  0  0
  -17.6240   17.9730  -21.9150 C   0  0  0  0  0
  -15.6250   17.4010  -23.7160 C   0  0  0  0  0
  -16.3590   17.5340  -21.5030 C   0  0  0  0  0
  -16.0420   17.4940  -20.1280 C   0  0  0  0  0
  -17.0050   17.9150  -19.2030 C   0  0  0  0  0
  -18.4570   18.8110  -16.2110 N   0  0  0  0  0
  -17.8970   18.1150  -23.3500 C   0  0  0  0  0
  -18.9790   18.4690  -23.8010 O   0  0  0  0  0
  -16.8420   17.8330  -24.1710 N   0  0  0  0  0
  -14.6810   17.1410  -24.6370 N   0  0  0  0  0
  -15.3590   17.2300  -22.4210 N   0  0  0  0  0
  -17.1915   17.6899  -14.9915 H   0  0  0  0  0
  -16.6827   19.3731  -15.2721 H   0  0  0  0  0
  -18.0446   19.0251  -14.1788 H   0  0  0  0  0
  -19.5791   18.6315  -21.3033 H   0  0  0  0  0
  -15.0663   17.1421  -19.7929 H   0  0  0  0  0
  -19.4094   19.1288  -16.0313 H   0  0  0  0  0
  -14.8866   17.2679  -25.6280 H   0  0  0  0  0
  -14.4495   16.8865  -22.1125 H   0  0  0  0  0
  1  3  4  0  0  0
 11  1  4  0  0  0
  2  3  4  0  0  0
  5  2  4  0  0  0
  3 12  1  0  0  0
 12  4  1  0  0  0
  6  5  4  0  0  0
  5 11  4  0  0  0
  7  6  4  0  0  0
  9  7  4  0  0  0
  7 13  1  0  0  0
  8 15  4  0  0  0
  8 16  2  0  0  0
 17  8  1  0  0  0
  9 10  4  0  0  0
  9 17  1  0  0  0
 10 11  4  0  0  0
 13 14  2  0  0  0
 13 15  1  0  0  0
  4 18  1  0  0  0
  4 19  1  0  0  0
  4 20  1  0  0  0
  6 21  1  0  0  0
 10 22  1  0  0  0
 12 23  1  0  0  0
 16 24  1  0  0  0
 17 25  1  0  0  0
M  END
$$$$
