5zqp_ligand
  -I-interpret- 

 47 51  0  0  0  0  0  0  0  0999 V2000
    1.9450  -11.8570   -7.1360 C   0  0  0  0  0
    1.8990  -11.3490   -5.7610 C   0  0  0  0  0
    2.0440  -10.1010   -5.2180 C   0  0  0  0  0
    1.9570   -9.9310   -3.8290 C   0  0  0  0  0
    1.7300  -11.0210   -2.9980 C   0  0  0  0  0
    1.5750  -12.3130   -3.5170 C   0  0  0  0  0
    3.5020  -12.6050  -15.6660 C   0  0  0  0  0
    3.2050  -12.4470  -14.2040 C   0  0  0  0  0
    1.7980  -12.4050  -13.7690 C   0  0  0  0  0
    2.6270  -12.1400  -11.4620 C   0  0  0  0  0
    3.5900  -11.8900   -9.2050 C   0  0  0  0  0
    3.3530  -11.8500   -7.6990 C   0  0  0  0  0
    1.6690  -12.4180   -4.8820 C   0  0  0  0  0
    1.7010  -13.3430   -6.8910 C   0  0  0  0  0
    0.9860  -11.2920   -8.1110 C   0  0  0  0  0
    1.0340  -11.9160   -9.4770 C   0  0  0  0  0
    4.1620  -12.3300  -13.2350 C   0  0  0  0  0
    5.6450  -12.3870  -13.6130 C   0  0  0  0  0
    5.9050  -12.9700  -15.0140 C   0  0  0  0  0
    4.9770  -12.2610  -15.9960 C   0  0  0  0  0
    1.5790  -12.2490  -12.3700 N   0  0  0  0  0
    2.3930  -11.9820  -10.0920 N   0  0  0  0  0
    3.9070  -12.1830  -11.8790 N   0  0  0  0  0
    0.7970  -12.5050  -14.4720 O   0  0  0  0  0
    1.5320  -13.6360   -5.5530 O   0  0  0  0  0
    1.6640  -14.2790   -7.6570 O   0  0  0  0  0
    2.2266   -9.2419   -5.8635 H   0  0  0  0  0
    2.0683   -8.9361   -3.3978 H   0  0  0  0  0
    1.6713  -10.8678   -1.9204 H   0  0  0  0  0
    1.3919  -13.1775   -2.8789 H   0  0  0  0  0
    2.8591  -11.9221  -16.2213 H   0  0  0  0  0
    3.3235  -13.6446  -15.9408 H   0  0  0  0  0
    4.1594  -12.8014   -9.3871 H   0  0  0  0  0
    4.0641  -10.9400   -9.4515 H   0  0  0  0  0
    3.7901  -12.7800   -7.3355 H   0  0  0  0  0
    3.7586  -10.8864   -7.3908 H   0  0  0  0  0
    1.2435  -10.2401   -8.2346 H   0  0  0  0  0
   -0.0127  -11.4750   -7.7146 H   0  0  0  0  0
    0.4227  -11.2928  -10.1297 H   0  0  0  0  0
    0.6880  -12.9437   -9.3663 H   0  0  0  0  0
    6.1401  -13.0378  -12.8923 H   0  0  0  0  0
    6.0213  -11.3640  -13.6109 H   0  0  0  0  0
    5.7114  -14.0427  -15.0186 H   0  0  0  0  0
    6.9456  -12.8166  -15.2998 H   0  0  0  0  0
    5.1225  -11.1837  -15.9158 H   0  0  0  0  0
    5.2057  -12.5899  -17.0097 H   0  0  0  0  0
    4.6741  -12.1089  -11.2109 H   0  0  0  0  0
  1  2  1  0  0  0
 12  1  1  0  0  0
  1 14  1  0  0  0
  1 15  1  0  0  0
  2  3  4  0  0  0
  2 13  4  0  0  0
  3  4  4  0  0  0
  4  5  4  0  0  0
  6  5  4  0  0  0
 13  6  4  0  0  0
  8  7  1  0  0  0
  7 20  1  0  0  0
  9  8  1  0  0  0
  8 17  2  0  0  0
 21  9  1  0  0  0
  9 24  2  0  0  0
 10 21  4  0  0  0
 22 10  1  0  0  0
 10 23  1  0  0  0
 11 12  1  0  0  0
 11 22  1  0  0  0
 13 25  1  0  0  0
 14 25  1  0  0  0
 14 26  2  0  0  0
 15 16  1  0  0  0
 16 22  1  0  0  0
 17 18  1  0  0  0
 17 23  1  0  0  0
 18 19  1  0  0  0
 19 20  1  0  0  0
  3 27  1  0  0  0
  4 28  1  0  0  0
  5 29  1  0  0  0
  6 30  1  0  0  0
  7 31  1  0  0  0
  7 32  1  0  0  0
 11 33  1  0  0  0
 11 34  1  0  0  0
 12 35  1  0  0  0
 12 36  1  0  0  0
 15 37  1  0  0  0
 15 38  1  0  0  0
 16 39  1  0  0  0
 16 40  1  0  0  0
 18 41  1  0  0  0
 18 42  1  0  0  0
 19 43  1  0  0  0
 19 44  1  0  0  0
 20 45  1  0  0  0
 20 46  1  0  0  0
 23 47  1  0  0  0
M  END
$$$$
