5ipj_ligand
  -I-interpret- 

 50 53  0  0  0  0  0  0  0  0999 V2000
  -22.5710  -30.8010   -2.4210 C   0  0  0  0  0
  -21.5120  -31.2730   -1.4220 C   0  0  0  0  0
  -21.2750  -30.2770   -0.4180 N   0  0  0  0  0
  -21.4630  -30.8780    0.8670 C   0  0  0  0  0
  -21.3270  -30.3070    1.9580 O   0  0  0  0  0
  -21.8380  -32.3180    0.6550 C   0  0  0  0  0
  -22.1750  -33.5350    1.3010 C   0  0  0  0  0
  -22.4000  -34.5000    0.2940 C   0  0  0  0  0
  -22.2140  -33.8690   -0.9030 N   0  0  0  0  0
  -21.8650  -32.5520   -0.7080 C   0  0  0  0  0
  -22.7820  -35.8230    0.5940 C   0  0  0  0  0
  -23.0100  -36.3680    1.8650 C   0  0  0  0  0
  -23.4180  -37.7060    1.9420 C   0  0  0  0  0
  -23.5970  -38.4570    0.7640 C   0  0  0  0  0
  -23.3690  -37.8700   -0.5590 C   0  0  0  0  0
  -23.5720  -38.6790   -1.7570 C   0  0  0  0  0
  -23.9250  -39.8370   -1.6440 O   0  0  0  0  0
  -23.3700  -38.1360   -3.0300 N   0  0  0  0  0
  -23.5860  -38.9840   -4.2230 C   0  0  0  0  0
  -22.9830  -36.8510   -3.1330 C   0  0  0  0  0
  -22.7560  -36.2820   -4.4600 N   0  0  0  0  0
  -22.4610  -34.8970   -4.7520 C   0  0  0  0  0
  -21.0810  -34.5370   -4.1910 C   0  0  0  0  0
  -23.5480  -33.9850   -4.2190 C   0  0  0  0  0
  -22.4230  -34.7610   -6.2650 C   0  0  0  0  0
  -22.7780  -36.0640   -1.9970 N   0  0  0  0  0
  -22.9700  -36.5630   -0.6800 C   0  0  0  0  0
  -22.7149  -31.5656   -3.1844 H   0  0  0  0  0
  -23.5110  -30.6273   -1.8972 H   0  0  0  0  0
  -22.2387  -29.8751   -2.8904 H   0  0  0  0  0
  -20.6251  -31.4527   -2.0296 H   0  0  0  0  0
  -21.0164  -29.3055   -0.5904 H   0  0  0  0  0
  -22.2471  -33.6961    2.3766 H   0  0  0  0  0
  -22.8741  -35.7693    2.7657 H   0  0  0  0  0
  -23.5970  -38.1660    2.9139 H   0  0  0  0  0
  -23.9121  -39.4978    0.8382 H   0  0  0  0  0
  -24.3642  -38.5421   -4.8452 H   0  0  0  0  0
  -22.6587  -39.0515   -4.7920 H   0  0  0  0  0
  -23.8936  -39.9810   -3.9076 H   0  0  0  0  0
  -22.8107  -36.9209   -5.2532 H   0  0  0  0  0
  -21.0780  -34.6892   -3.1117 H   0  0  0  0  0
  -20.3257  -35.1740   -4.6512 H   0  0  0  0  0
  -20.8613  -33.4926   -4.4125 H   0  0  0  0  0
  -24.4991  -34.2455   -4.6834 H   0  0  0  0  0
  -23.6246  -34.1060   -3.1385 H   0  0  0  0  0
  -23.2993  -32.9499   -4.4532 H   0  0  0  0  0
  -21.6486  -35.4138   -6.6679 H   0  0  0  0  0
  -23.3907  -35.0450   -6.6785 H   0  0  0  0  0
  -22.2025  -33.7270   -6.5301 H   0  0  0  0  0
  -22.4797  -35.0960   -2.1171 H   0  0  0  0  0
  1  2  1  0  0  0
  2  3  1  0  0  0
  2 10  1  0  0  0
  3  4  1  0  0  0
  4  5  2  0  0  0
  4  6  1  0  0  0
  6  7  4  0  0  0
  6 10  4  0  0  0
  7  8  4  0  0  0
  8  9  4  0  0  0
  8 11  1  0  0  0
  9 10  4  0  0  0
 11 12  4  0  0  0
 11 27  4  0  0  0
 12 13  4  0  0  0
 13 14  4  0  0  0
 14 15  4  0  0  0
 15 16  1  0  0  0
 15 27  4  0  0  0
 16 17  2  0  0  0
 16 18  1  0  0  0
 18 19  1  0  0  0
 18 20  4  0  0  0
 20 21  1  0  0  0
 20 26  1  0  0  0
 21 22  1  0  0  0
 22 23  1  0  0  0
 22 24  1  0  0  0
 22 25  1  0  0  0
 26 27  1  0  0  0
  1 28  1  0  0  0
  1 29  1  0  0  0
  1 30  1  0  0  0
  2 31  1  0  0  0
  3 32  1  0  0  0
  7 33  1  0  0  0
 12 34  1  0  0  0
 13 35  1  0  0  0
 14 36  1  0  0  0
 19 37  1  0  0  0
 19 38  1  0  0  0
 19 39  1  0  0  0
 21 40  1  0  0  0
 23 41  1  0  0  0
 23 42  1  0  0  0
 23 43  1  0  0  0
 24 44  1  0  0  0
 24 45  1  0  0  0
 24 46  1  0  0  0
 25 47  1  0  0  0
 25 48  1  0  0  0
 25 49  1  0  0  0
 26 50  1  0  0  0
M  END
$$$$
