2a2g_ligand
  -I-interpret- 

 27 28  0  0  0  0  0  0  0  0999 V2000
   21.3400    1.4530   58.7970 C   0  0  0  0  0
   19.4020    2.4970   57.4160 C   0  0  0  0  0
   19.0920    0.3830   58.8100 C   0  0  0  0  0
   18.5390    1.2760   57.6840 C   0  0  0  0  0
   20.6000    0.1040   58.6340 C   0  0  0  0  0
   20.7750    2.5590   57.9450 C   0  0  0  0  0
   18.6860    3.7800   57.0670 C   0  0  0  0  0
   20.5580    2.2300   56.5260 O   0  0  0  0  0
   20.9370   -0.6800   57.3570 C   0  0  0  0  0
   20.0950   -0.7600   56.3450 C   0  0  0  0  0
   22.2440   -1.4480   57.3280 C   0  0  0  0  0
   22.3734    1.2978   58.4871 H   0  0  0  0  0
   21.2368    1.7581   59.8383 H   0  0  0  0  0
   18.5624   -0.5693   58.7827 H   0  0  0  0  0
   18.9482    0.9002   59.7586 H   0  0  0  0  0
   18.5132    0.6811   56.7711 H   0  0  0  0  0
   17.5541    1.6269   57.9922 H   0  0  0  0  0
   20.9522   -0.5800   59.4062 H   0  0  0  0  0
   21.3089    3.3166   58.5187 H   0  0  0  0  0
   19.3786    4.6169   57.1561 H   0  0  0  0  0
   18.3152    3.7209   56.0437 H   0  0  0  0  0
   17.8491    3.9250   57.7502 H   0  0  0  0  0
   20.3373   -1.3805   55.4822 H   0  0  0  0  0
   19.1569   -0.2056   56.3714 H   0  0  0  0  0
   22.0354   -2.5147   57.2459 H   0  0  0  0  0
   22.8348   -1.1250   56.4709 H   0  0  0  0  0
   22.7981   -1.2545   58.2465 H   0  0  0  0  0
  1  5  1  0  0  0
  6  1  1  0  0  0
  2  4  1  0  0  0
  2  6  1  0  0  0
  2  7  1  0  0  0
  2  8  1  0  0  0
  4  3  1  0  0  0
  3  5  1  0  0  0
  5  9  1  0  0  0
  6  8  1  0  0  0
  9 10  2  0  0  0
  9 11  1  0  0  0
  1 12  1  0  0  0
  1 13  1  0  0  0
  3 14  1  0  0  0
  3 15  1  0  0  0
  4 16  1  0  0  0
  4 17  1  0  0  0
  5 18  1  0  0  0
  6 19  1  0  0  0
  7 20  1  0  0  0
  7 21  1  0  0  0
  7 22  1  0  0  0
 10 23  1  0  0  0
 10 24  1  0  0  0
 11 25  1  0  0  0
 11 26  1  0  0  0
 11 27  1  0  0  0
M  END
$$$$
