4i9z_ligand
  -I-interpret- 

 64 66  0  0  0  0  0  0  0  0999 V2000
  -41.5040   14.4420   48.9880 C   0  0  0  0  0
  -40.2560   14.0480   49.7080 C   0  0  0  0  0
  -39.0870   14.7480   49.2230 N   0  3  0  0  0
  -37.7810   14.1780   49.5900 C   0  0  0  0  0
  -39.2550   15.3050   47.9060 C   0  0  0  0  0
  -40.0930   14.4180   47.0420 C   0  0  0  0  0
  -41.4320   14.2750   47.5540 N   0  3  0  0  0
  -42.5080   14.8770   46.7740 C   0  0  0  0  0
  -42.5990   14.7670   45.2710 C   0  0  0  0  0
  -41.7050   14.2860   44.5790 O   0  0  0  0  0
  -43.8410   15.3350   44.6020 C   0  0  0  0  0
  -43.8240   15.5780   43.2190 C   0  0  0  0  0
  -45.0000   15.6490   45.3550 C   0  0  0  0  0
  -46.1280   16.1810   44.7080 C   0  0  0  0  0
  -46.1010   16.4170   43.3300 C   0  0  0  0  0
  -47.1990   16.9480   42.6780 O   0  0  0  0  0
  -48.2950   17.4820   43.3530 C   0  0  0  0  0
  -49.3290   18.0810   42.4250 C   0  0  0  0  0
  -48.8110   18.9390   41.4360 C   0  0  0  0  0
  -44.9450   16.0890   42.5720 C   0  0  0  0  0
  -44.7940   16.3410   41.1010 C   0  0  0  0  0
  -44.3430   15.3830   40.2650 N   0  0  0  0  0
  -45.0250   17.6080   40.6460 N   0  0  0  0  0
  -44.8570   17.9290   39.3450 C   0  0  0  0  0
  -45.1230   19.2170   38.9280 O   0  0  0  0  0
  -44.4200   16.9730   38.4480 C   0  0  0  0  0
  -44.1390   17.4300   36.5800 Br  0  0  0  0  0
  -44.1530   15.6480   38.9690 C   0  0  0  0  0
  -43.6590   14.5220   38.0160 C   0  0  0  0  0
  -44.8460   13.7880   37.3930 C   0  0  0  0  0
  -42.6260   13.6300   38.5800 C   0  0  0  0  0
  -41.6691   15.5017   49.1826 H   0  0  0  0  0
  -42.3039   13.7957   49.3494 H   0  0  0  0  0
  -40.0987   12.9816   49.5460 H   0  0  0  0  0
  -40.3836   14.2993   50.7609 H   0  0  0  0  0
  -39.0220   15.5893   49.7960 H   0  0  0  0  0
  -37.5394   13.3600   48.9113 H   0  0  0  0  0
  -37.0154   14.9505   49.5171 H   0  0  0  0  0
  -37.8242   13.8028   50.6125 H   0  0  0  0  0
  -38.2723   15.4087   47.4459 H   0  0  0  0  0
  -39.7539   16.2696   47.9990 H   0  0  0  0  0
  -39.6306   13.4313   47.0165 H   0  0  0  0  0
  -40.1533   14.8663   46.0503 H   0  0  0  0  0
  -41.6545   13.2925   47.3942 H   0  0  0  0  0
  -42.3623   15.9451   46.9352 H   0  0  0  0  0
  -43.3919   14.3381   47.1152 H   0  0  0  0  0
  -42.9221   15.3638   42.6456 H   0  0  0  0  0
  -45.0161   15.4785   46.4315 H   0  0  0  0  0
  -47.0261   16.4103   45.2815 H   0  0  0  0  0
  -47.9293   18.2792   44.0002 H   0  0  0  0  0
  -48.7731   16.6710   43.9023 H   0  0  0  0  0
  -49.9988   18.6792   43.0427 H   0  0  0  0  0
  -49.8051   17.2501   41.9044 H   0  0  0  0  0
  -48.2968   19.7731   41.9135 H   0  0  0  0  0
  -48.1090   18.3880   40.8102 H   0  0  0  0  0
  -49.6277   19.3178   40.8214 H   0  0  0  0  0
  -45.3307   18.3265   41.3023 H   0  0  0  0  0
  -43.1170   15.0170   37.2102 H   0  0  0  0  0
  -45.4518   13.3436   38.1827 H   0  0  0  0  0
  -45.4502   14.4944   36.8238 H   0  0  0  0  0
  -44.4796   13.0044   36.7298 H   0  0  0  0  0
  -41.7481   14.2174   38.8491 H   0  0  0  0  0
  -43.0201   13.1356   39.4679 H   0  0  0  0  0
  -42.3500   12.8809   37.8378 H   0  0  0  0  0
  1  2  1  0  0  0
  1  7  1  0  0  0
  2  3  1  0  0  0
  3  4  1  0  0  0
  3  5  1  0  0  0
  5  6  1  0  0  0
  6  7  1  0  0  0
  7  8  1  0  0  0
  8  9  1  0  0  0
  9 10  2  0  0  0
  9 11  1  0  0  0
 11 12  4  0  0  0
 11 13  4  0  0  0
 12 20  4  0  0  0
 13 14  4  0  0  0
 14 15  4  0  0  0
 15 16  1  0  0  0
 15 20  4  0  0  0
 16 17  1  0  0  0
 17 18  1  0  0  0
 18 19  1  0  0  0
 20 21  1  0  0  0
 21 22  2  0  0  0
 21 23  1  0  0  0
 22 28  1  0  0  0
 23 24  1  0  0  0
 24 25  2  0  0  0
 24 26  1  0  0  0
 26 27  1  0  0  0
 26 28  2  0  0  0
 28 29  1  0  0  0
 29 30  1  0  0  0
 29 31  1  0  0  0
  1 32  1  0  0  0
  1 33  1  0  0  0
  2 34  1  0  0  0
  2 35  1  0  0  0
  3 36  1  0  0  0
  4 37  1  0  0  0
  4 38  1  0  0  0
  4 39  1  0  0  0
  5 40  1  0  0  0
  5 41  1  0  0  0
  6 42  1  0  0  0
  6 43  1  0  0  0
  7 44  1  0  0  0
  8 45  1  0  0  0
  8 46  1  0  0  0
 12 47  1  0  0  0
 13 48  1  0  0  0
 14 49  1  0  0  0
 17 50  1  0  0  0
 17 51  1  0  0  0
 18 52  1  0  0  0
 18 53  1  0  0  0
 19 54  1  0  0  0
 19 55  1  0  0  0
 19 56  1  0  0  0
 23 57  1  0  0  0
 29 58  1  0  0  0
 30 59  1  0  0  0
 30 60  1  0  0  0
 30 61  1  0  0  0
 31 62  1  0  0  0
 31 63  1  0  0  0
 31 64  1  0  0  0
M  END
$$$$
