5dhf_ligand
  -I-interpret- 

218219  0  0  0  0  0  0  0  0999 V2000
  -28.0910   79.6870   24.6560 N   0  3  0  0  0
  -28.5830   78.5150   25.3710 C   0  0  0  0  0
  -29.9080   78.7960   26.0770 C   0  0  0  0  0
  -30.3080   78.0530   26.9710 O   0  0  0  0  0
  -27.5450   78.0360   26.3920 C   0  0  0  0  0
  -26.4610   77.1820   25.8040 C   0  0  0  0  0
  -26.7320   75.8890   25.3890 C   0  0  0  0  0
  -25.1700   77.6650   25.6800 C   0  0  0  0  0
  -25.7370   75.0970   24.8500 C   0  0  0  0  0
  -24.1700   76.8770   25.1430 C   0  0  0  0  0
  -24.4540   75.5900   24.7280 C   0  0  0  0  0
  -30.5880   79.8670   25.6810 N   0  0  0  0  0
  -31.8850   80.1850   26.2660 C   0  0  0  0  0
  -32.9080   79.1310   25.8600 C   0  0  0  0  0
  -32.8170   78.5560   24.7740 O   0  0  0  0  0
  -32.3520   81.5780   25.8420 C   0  0  0  0  0
  -31.5610   82.7100   26.4860 C   0  0  0  0  0
  -32.1700   84.0780   26.2360 C   0  0  0  0  0
  -33.3620   84.1480   25.8670 O   0  0  0  0  0
  -31.4540   85.0860   26.4110 O   0  0  0  0  0
  -33.8720   78.8750   26.7400 N   0  0  0  0  0
  -34.8530   77.8170   26.5200 C   0  0  0  0  0
  -36.2250   78.2180   27.0510 C   0  0  0  0  0
  -36.8310   77.4980   27.8440 O   0  0  0  0  0
  -34.3920   76.5190   27.1880 C   0  0  0  0  0
  -32.9480   76.1500   26.8820 C   0  0  0  0  0
  -32.4150   74.4130   27.5820 Se  0  0  0  0  0
  -33.7530   73.3100   26.6960 C   0  0  0  0  0
  -36.7090   79.3720   26.6050 N   0  0  0  0  0
  -38.0220   79.8610   27.0040 C   0  0  0  0  0
  -39.1240   78.9230   26.5210 C   0  0  0  0  0
  -40.1920   78.8400   27.1280 O   0  0  0  0  0
  -38.2860   81.2730   26.4500 C   0  0  0  0  0
  -38.2740   81.2370   25.0180 O   0  0  0  0  0
  -37.2270   82.2480   26.9430 C   0  0  0  0  0
  -38.8570   78.2180   25.4250 N   0  0  0  0  0
  -39.8240   77.2880   24.8540 C   0  0  0  0  0
  -40.1290   76.1470   25.8200 C   0  0  0  0  0
  -41.2530   75.6500   25.8720 O   0  0  0  0  0
  -39.3070   76.7190   23.5290 C   0  0  0  0  0
  -38.7670   77.7640   22.5590 C   0  0  0  0  0
  -37.2470   77.8020   22.5080 C   0  0  0  0  0
  -36.5970   77.4780   23.5260 O   0  0  0  0  0
  -36.7000   78.1540   21.4420 O   0  0  0  0  0
  -39.1190   75.7390   26.5830 N   0  0  0  0  0
  -39.2570   74.6280   27.5220 C   0  0  0  0  0
  -40.2250   74.9510   28.6540 C   0  0  0  0  0
  -41.1230   74.1640   28.9520 O   0  0  0  0  0
  -37.8930   74.2520   28.1020 C   0  0  0  0  0
  -37.2880   73.0300   27.4770 C   0  0  0  0  0
  -37.1160   72.9490   26.1070 C   0  0  0  0  0
  -36.8820   71.9650   28.2630 C   0  0  0  0  0
  -36.5570   71.8250   25.5320 C   0  0  0  0  0
  -36.3220   70.8400   27.6940 C   0  0  0  0  0
  -36.1590   70.7700   26.3270 C   0  0  0  0  0
  -40.0290   76.1040   29.2870 N   0  0  0  0  0
  -40.9030   76.5370   30.3700 C   0  0  0  0  0
  -42.3490   76.6250   29.9050 C   0  0  0  0  0
  -43.2540   76.1210   30.5690 O   0  0  0  0  0
  -40.4520   77.8910   30.9180 C   0  0  0  0  0
  -39.1050   77.8210   31.6030 C   0  0  0  0  0
  -38.0630   77.9410   30.9600 O   0  0  0  0  0
  -39.1190   77.6270   32.9180 N   0  0  0  0  0
  -42.5530   77.2600   28.7560 N   0  0  0  0  0
  -43.8880   77.4390   28.1990 C   0  0  0  0  0
  -44.5920   76.0970   28.0120 C   0  0  0  0  0
  -45.7870   75.9740   28.2710 O   0  0  0  0  0
  -43.8100   78.1840   26.8650 C   0  0  0  0  0
  -45.1600   78.4540   26.2210 C   0  0  0  0  0
  -45.0340   79.1630   24.8890 C   0  0  0  0  0
  -44.2650   80.1140   24.7490 O   0  0  0  0  0
  -45.7850   78.6970   23.8970 N   0  0  0  0  0
  -43.8420   75.0940   27.5680 N   0  0  0  0  0
  -44.3990   73.7640   27.3540 C   0  0  0  0  0
  -44.6570   73.0630   28.6850 C   0  0  0  0  0
  -45.6010   72.2830   28.8120 O   0  0  0  0  0
  -43.4660   72.9330   26.4860 C   0  0  0  0  0
  -43.8140   73.3450   29.6740 N   0  0  0  0  0
  -43.9750   72.7700   31.0060 C   0  0  0  0  0
  -45.1500   73.3990   31.7440 C   0  0  0  0  0
  -45.9320   72.7030   32.3920 O   0  0  0  0  0
  -42.6970   72.9480   31.8280 C   0  0  0  0  0
  -41.6040   71.8960   31.6400 C   0  0  0  0  0
  -40.3360   72.3430   32.3400 C   0  0  0  0  0
  -42.0510   70.5400   32.1690 C   0  0  0  0  0
  -45.2680   74.7190   31.6450 N   0  0  0  0  0
  -46.3610   75.4390   32.2870 C   0  0  0  0  0
  -47.6990   75.0970   31.6330 C   0  0  0  0  0
  -48.7600   75.4180   32.1700 O   0  0  0  0  0
  -46.1170   76.9490   32.2250 C   0  0  0  0  0
  -44.8610   77.4180   32.9570 C   0  0  0  0  0
  -44.9810   77.3350   34.4690 C   0  0  0  0  0
  -46.0860   77.0400   34.9710 O   0  0  0  0  0
  -43.9640   77.5680   35.1560 O   0  0  0  0  0
  -47.6430   74.4370   30.4780 N   0  0  0  0  0
  -48.8460   74.0460   29.7480 C   0  0  0  0  0
  -49.4120   72.7200   30.2630 C   0  0  0  0  0
  -50.1740   72.0480   29.5670 O   0  0  0  0  0
  -48.5450   73.9410   28.2500 C   0  0  0  0  0
  -49.5790   74.6130   27.3590 C   0  0  0  0  0
  -49.5290   76.1280   27.4430 C   0  0  0  0  0
  -50.6010   76.7530   27.5860 O   0  0  0  0  0
  -48.4190   76.6960   27.3580 O   0  0  0  0  0
  -49.0340   72.3510   31.4840 N   0  0  0  0  0
  -49.5420   71.1380   32.1150 C   0  0  0  0  0
  -49.3890   71.2230   33.6310 C   0  0  0  0  0
  -50.2530   70.7610   34.3780 O   0  0  0  0  0
  -48.8180   69.8760   31.5980 C   0  0  0  0  0
  -49.2070   68.6600   32.4420 C   0  0  0  0  0
  -47.3080   70.0750   31.6210 C   0  0  0  0  0
  -48.8160   67.3470   31.8300 C   0  0  0  0  0
  -48.3990   71.7550   34.1350 O   0  0  0  0  0
  -28.7930   79.9920   23.9818 H   0  0  0  0  0
  -27.9083   80.4380   25.3216 H   0  0  0  0  0
  -27.2288   79.4479   24.1663 H   0  0  0  0  0
  -28.7535   77.7326   24.6315 H   0  0  0  0  0
  -28.0716   77.4290   27.1284 H   0  0  0  0  0
  -27.0679   78.9229   26.8089 H   0  0  0  0  0
  -27.7421   75.4917   25.4888 H   0  0  0  0  0
  -24.9395   78.6781   26.0096 H   0  0  0  0  0
  -25.9652   74.0831   24.5212 H   0  0  0  0  0
  -23.1580   77.2703   25.0468 H   0  0  0  0  0
  -23.6666   74.9658   24.3054 H   0  0  0  0  0
  -30.1980   80.4735   24.9595 H   0  0  0  0  0
  -31.7850   80.1836   27.3514 H   0  0  0  0  0
  -33.3899   81.6844   26.1574 H   0  0  0  0  0
  -32.2128   81.6548   24.7637 H   0  0  0  0  0
  -30.5623   82.7068   26.0494 H   0  0  0  0  0
  -31.5567   82.5407   27.5628 H   0  0  0  0  0
  -33.7259   83.2626   25.7946 H   0  0  0  0  0
  -33.9272   79.4333   27.5918 H   0  0  0  0  0
  -34.9375   77.6561   25.4453 H   0  0  0  0  0
  -35.0209   75.7153   26.8052 H   0  0  0  0  0
  -34.4693   76.6629   28.2657 H   0  0  0  0  0
  -32.3138   76.8996   27.3553 H   0  0  0  0  0
  -32.8461   76.1085   25.7976 H   0  0  0  0  0
  -34.7483   73.6341   26.9999 H   0  0  0  0  0
  -33.6499   73.4134   25.6158 H   0  0  0  0  0
  -33.6071   72.2673   26.9781 H   0  0  0  0  0
  -36.1453   79.9315   25.9650 H   0  0  0  0  0
  -38.0306   79.8993   28.0933 H   0  0  0  0  0
  -39.2615   81.6088   26.8017 H   0  0  0  0  0
  -38.4388   82.1185   24.6755 H   0  0  0  0  0
  -37.2484   82.2855   28.0321 H   0  0  0  0  0
  -36.2444   81.9148   26.6089 H   0  0  0  0  0
  -37.4322   83.2397   26.5399 H   0  0  0  0  0
  -37.9505   78.3312   24.9714 H   0  0  0  0  0
  -40.7448   77.8416   24.6703 H   0  0  0  0  0
  -40.1518   76.2354   23.0386 H   0  0  0  0  0
  -38.4804   76.0507   23.7701 H   0  0  0  0  0
  -39.1115   78.7407   22.8989 H   0  0  0  0  0
  -39.1255   77.5072   21.5622 H   0  0  0  0  0
  -37.2048   77.2427   24.2309 H   0  0  0  0  0
  -38.2205   76.2163   26.5105 H   0  0  0  0  0
  -39.6650   73.7844   26.9652 H   0  0  0  0  0
  -38.0368   74.0390   29.1613 H   0  0  0  0  0
  -37.2166   75.0849   27.9103 H   0  0  0  0  0
  -37.4250   73.7813   25.4746 H   0  0  0  0  0
  -37.0064   72.0161   29.3447 H   0  0  0  0  0
  -36.4302   71.7712   24.4507 H   0  0  0  0  0
  -36.0089   70.0077   28.3244 H   0  0  0  0  0
  -35.7163   69.8825   25.8748 H   0  0  0  0  0
  -39.2489   76.6991   29.0081 H   0  0  0  0  0
  -40.8389   75.7932   31.1642 H   0  0  0  0  0
  -41.1866   78.2167   31.6545 H   0  0  0  0  0
  -40.3664   78.5812   30.0787 H   0  0  0  0  0
  -38.2413   77.5722   33.4348 H   0  0  0  0  0
  -40.0074   77.5329   33.4102 H   0  0  0  0  0
  -41.7511   77.6336   28.2483 H   0  0  0  0  0
  -44.4706   78.0318   28.9042 H   0  0  0  0  0
  -43.2465   77.5533   26.1774 H   0  0  0  0  0
  -43.3498   79.1518   27.0641 H   0  0  0  0  0
  -45.7307   79.0962   26.8917 H   0  0  0  0  0
  -45.6481   77.4950   26.0473 H   0  0  0  0  0
  -45.7377   79.1301   22.9747 H   0  0  0  0  0
  -46.4088   77.9062   24.0577 H   0  0  0  0  0
  -42.8545   75.2584   27.3726 H   0  0  0  0  0
  -45.3524   73.8715   26.8367 H   0  0  0  0  0
  -43.3357   73.4239   25.5215 H   0  0  0  0  0
  -42.4993   72.8388   26.9807 H   0  0  0  0  0
  -43.8969   71.9431   26.3360 H   0  0  0  0  0
  -43.0350   73.9793   29.4973 H   0  0  0  0  0
  -44.1759   71.7061   30.8801 H   0  0  0  0  0
  -43.0012   72.8799   32.8725 H   0  0  0  0  0
  -42.2616   73.8930   31.5032 H   0  0  0  0  0
  -41.4071   71.7901   30.5732 H   0  0  0  0  0
  -40.0027   73.2900   31.9155 H   0  0  0  0  0
  -40.5355   72.4705   33.4040 H   0  0  0  0  0
  -39.5612   71.5888   32.2021 H   0  0  0  0  0
  -42.2768   70.6227   33.2321 H   0  0  0  0  0
  -42.9423   70.2174   31.6309 H   0  0  0  0  0
  -41.2527   69.8127   32.0213 H   0  0  0  0  0
  -44.5768   75.2412   31.1066 H   0  0  0  0  0
  -46.3995   75.1302   33.3316 H   0  0  0  0  0
  -46.9669   77.4297   32.7094 H   0  0  0  0  0
  -45.9896   77.2088   31.1741 H   0  0  0  0  0
  -44.6987   78.4638   32.6962 H   0  0  0  0  0
  -44.0410   76.7664   32.6552 H   0  0  0  0  0
  -43.2272   77.7729   34.5757 H   0  0  0  0  0
  -46.7306   74.1967   30.0905 H   0  0  0  0  0
  -49.5984   74.8174   29.9121 H   0  0  0  0  0
  -48.5409   72.8811   27.9958 H   0  0  0  0  0
  -47.5941   74.4448   28.0764 H   0  0  0  0  0
  -50.5663   74.2918   27.6911 H   0  0  0  0  0
  -49.3685   74.3279   26.3282 H   0  0  0  0  0
  -47.7302   76.0357   27.2527 H   0  0  0  0  0
  -48.3696   72.9333   31.9938 H   0  0  0  0  0
  -50.5975   71.0575   31.8550 H   0  0  0  0  0
  -50.9598   70.3808   33.8513 H   0  0  0  0  0
  -49.1248   69.7005   30.5669 H   0  0  0  0  0
  -50.2929   68.6639   32.5360 H   0  0  0  0  0
  -48.6822   68.7439   33.3936 H   0  0  0  0  0
  -47.0443   70.9193   30.9840 H   0  0  0  0  0
  -46.9846   70.2741   32.6427 H   0  0  0  0  0
  -46.8184   69.1735   31.2527 H   0  0  0  0  0
  -49.3048   67.2390   30.8618 H   0  0  0  0  0
  -47.7345   67.3169   31.6978 H   0  0  0  0  0
  -49.1257   66.5346   32.4874 H   0  0  0  0  0
  1  2  1  0  0  0
  2  3  1  0  0  0
  2  5  1  0  0  0
  3  4  2  0  0  0
  3 12  1  0  0  0
  5  6  1  0  0  0
  6  7  4  0  0  0
  6  8  4  0  0  0
  7  9  4  0  0  0
  8 10  4  0  0  0
  9 11  4  0  0  0
 10 11  4  0  0  0
 12 13  1  0  0  0
 13 14  1  0  0  0
 13 16  1  0  0  0
 14 15  2  0  0  0
 14 21  1  0  0  0
 16 17  1  0  0  0
 17 18  1  0  0  0
 18 19  1  0  0  0
 18 20  2  0  0  0
 21 22  1  0  0  0
 22 23  1  0  0  0
 22 25  1  0  0  0
 23 24  2  0  0  0
 23 29  1  0  0  0
 25 26  1  0  0  0
 26 27  1  0  0  0
 27 28  1  0  0  0
 29 30  1  0  0  0
 30 31  1  0  0  0
 30 33  1  0  0  0
 31 32  2  0  0  0
 31 36  1  0  0  0
 33 34  1  0  0  0
 33 35  1  0  0  0
 36 37  1  0  0  0
 37 38  1  0  0  0
 37 40  1  0  0  0
 38 39  2  0  0  0
 38 45  1  0  0  0
 40 41  1  0  0  0
 41 42  1  0  0  0
 42 43  1  0  0  0
 42 44  2  0  0  0
 45 46  1  0  0  0
 46 47  1  0  0  0
 46 49  1  0  0  0
 47 48  2  0  0  0
 47 56  1  0  0  0
 49 50  1  0  0  0
 50 51  4  0  0  0
 50 52  4  0  0  0
 51 53  4  0  0  0
 52 54  4  0  0  0
 53 55  4  0  0  0
 54 55  4  0  0  0
 56 57  1  0  0  0
 57 58  1  0  0  0
 57 60  1  0  0  0
 58 59  2  0  0  0
 58 64  1  0  0  0
 60 61  1  0  0  0
 61 62  2  0  0  0
 61 63  1  0  0  0
 64 65  1  0  0  0
 65 66  1  0  0  0
 65 68  1  0  0  0
 66 67  2  0  0  0
 66 73  1  0  0  0
 68 69  1  0  0  0
 69 70  1  0  0  0
 70 71  2  0  0  0
 70 72  1  0  0  0
 73 74  1  0  0  0
 74 75  1  0  0  0
 74 77  1  0  0  0
 75 76  2  0  0  0
 75 78  1  0  0  0
 78 79  1  0  0  0
 79 80  1  0  0  0
 79 82  1  0  0  0
 80 81  2  0  0  0
 80 86  1  0  0  0
 82 83  1  0  0  0
 83 84  1  0  0  0
 83 85  1  0  0  0
 86 87  1  0  0  0
 87 88  1  0  0  0
 87 90  1  0  0  0
 88 89  2  0  0  0
 88 95  1  0  0  0
 90 91  1  0  0  0
 91 92  1  0  0  0
 92 93  2  0  0  0
 92 94  1  0  0  0
 95 96  1  0  0  0
 96 97  1  0  0  0
 96 99  1  0  0  0
 97 98  2  0  0  0
 97104  1  0  0  0
 99100  1  0  0  0
100101  1  0  0  0
101102  2  0  0  0
101103  1  0  0  0
104105  1  0  0  0
105106  1  0  0  0
105108  1  0  0  0
106107  1  0  0  0
106112  2  0  0  0
108109  1  0  0  0
108110  1  0  0  0
109111  1  0  0  0
  1113  1  0  0  0
  1114  1  0  0  0
  1115  1  0  0  0
  2116  1  0  0  0
  5117  1  0  0  0
  5118  1  0  0  0
  7119  1  0  0  0
  8120  1  0  0  0
  9121  1  0  0  0
 10122  1  0  0  0
 11123  1  0  0  0
 12124  1  0  0  0
 13125  1  0  0  0
 16126  1  0  0  0
 16127  1  0  0  0
 17128  1  0  0  0
 17129  1  0  0  0
 19130  1  0  0  0
 21131  1  0  0  0
 22132  1  0  0  0
 25133  1  0  0  0
 25134  1  0  0  0
 26135  1  0  0  0
 26136  1  0  0  0
 28137  1  0  0  0
 28138  1  0  0  0
 28139  1  0  0  0
 29140  1  0  0  0
 30141  1  0  0  0
 33142  1  0  0  0
 34143  1  0  0  0
 35144  1  0  0  0
 35145  1  0  0  0
 35146  1  0  0  0
 36147  1  0  0  0
 37148  1  0  0  0
 40149  1  0  0  0
 40150  1  0  0  0
 41151  1  0  0  0
 41152  1  0  0  0
 43153  1  0  0  0
 45154  1  0  0  0
 46155  1  0  0  0
 49156  1  0  0  0
 49157  1  0  0  0
 51158  1  0  0  0
 52159  1  0  0  0
 53160  1  0  0  0
 54161  1  0  0  0
 55162  1  0  0  0
 56163  1  0  0  0
 57164  1  0  0  0
 60165  1  0  0  0
 60166  1  0  0  0
 63167  1  0  0  0
 63168  1  0  0  0
 64169  1  0  0  0
 65170  1  0  0  0
 68171  1  0  0  0
 68172  1  0  0  0
 69173  1  0  0  0
 69174  1  0  0  0
 72175  1  0  0  0
 72176  1  0  0  0
 73177  1  0  0  0
 74178  1  0  0  0
 77179  1  0  0  0
 77180  1  0  0  0
 77181  1  0  0  0
 78182  1  0  0  0
 79183  1  0  0  0
 82184  1  0  0  0
 82185  1  0  0  0
 83186  1  0  0  0
 84187  1  0  0  0
 84188  1  0  0  0
 84189  1  0  0  0
 85190  1  0  0  0
 85191  1  0  0  0
 85192  1  0  0  0
 86193  1  0  0  0
 87194  1  0  0  0
 90195  1  0  0  0
 90196  1  0  0  0
 91197  1  0  0  0
 91198  1  0  0  0
 94199  1  0  0  0
 95200  1  0  0  0
 96201  1  0  0  0
 99202  1  0  0  0
 99203  1  0  0  0
100204  1  0  0  0
100205  1  0  0  0
103206  1  0  0  0
104207  1  0  0  0
105208  1  0  0  0
107209  1  0  0  0
108210  1  0  0  0
109211  1  0  0  0
109212  1  0  0  0
110213  1  0  0  0
110214  1  0  0  0
110215  1  0  0  0
111216  1  0  0  0
111217  1  0  0  0
111218  1  0  0  0
M  END
$$$$
