5z5v_ligand
  -I-interpret- 

 35 37  0  0  0  0  0  0  0  0999 V2000
   -8.8410    5.9330    1.0570 C   0  0  0  0  0
   -9.3050    4.9850    1.9540 C   0  0  0  0  0
  -10.6300    4.5770    1.9440 C   0  0  0  0  0
  -11.4960    5.1400    1.0220 C   0  0  0  0  0
  -11.0230    6.0900    0.1290 C   0  0  0  0  0
   -9.6970    6.5040    0.1170 C   0  0  0  0  0
   -9.3310    7.4580   -0.8150 C   0  0  0  0  0
  -10.2710    7.9480   -1.6950 C   0  0  0  0  0
  -11.5750    7.4990   -1.6350 C   0  0  0  0  0
  -11.9060    6.5930   -0.7260 N   0  0  0  0  0
  -12.8460    4.7590    0.9730 O   0  0  0  0  0
  -12.6210    7.9650   -2.5280 N   0  0  0  0  0
   -7.8970    7.9800   -0.9320 C   0  0  0  0  0
   -7.3210    7.1830   -2.0060 N   0  0  0  0  0
   -6.2900    6.2340   -1.8750 C   0  0  0  0  0
   -6.0530    5.6840   -3.1070 N   0  0  0  0  0
   -6.9350    6.2660   -4.0110 C   0  0  0  0  0
   -7.7090    7.1920   -3.3300 C   0  0  0  0  0
  -12.5790    9.1620   -3.3580 C   0  0  0  0  0
  -11.6430    9.8920   -3.3680 O   0  0  0  0  0
  -13.7860    9.4810   -4.2350 C   0  0  0  0  0
   -7.7944    6.2359    1.0866 H   0  0  0  0  0
   -8.6167    4.5524    2.6801 H   0  0  0  0  0
  -10.9839    3.8258    2.6500 H   0  0  0  0  0
   -9.9847    8.6910   -2.4394 H   0  0  0  0  0
  -13.2907    5.2493    0.2777 H   0  0  0  0  0
  -13.4680    7.3991   -2.5793 H   0  0  0  0  0
   -7.3425    7.8798    0.0011 H   0  0  0  0  0
   -7.8614    9.0485   -1.1445 H   0  0  0  0  0
   -5.7694    5.9802   -0.9516 H   0  0  0  0  0
   -7.0055    6.0335   -5.0736 H   0  0  0  0  0
   -8.4883    7.8182   -3.7645 H   0  0  0  0  0
  -14.1955   10.4498   -3.9489 H   0  0  0  0  0
  -13.4768    9.5100   -5.2798 H   0  0  0  0  0
  -14.5450    8.7103   -4.1006 H   0  0  0  0  0
  1  2  4  0  0  0
  1  6  4  0  0  0
  2  3  4  0  0  0
  3  4  4  0  0  0
  4  5  4  0  0  0
  4 11  1  0  0  0
  5  6  4  0  0  0
  5 10  4  0  0  0
  6  7  4  0  0  0
  7  8  4  0  0  0
  7 13  1  0  0  0
  8  9  4  0  0  0
  9 10  4  0  0  0
  9 12  1  0  0  0
 12 19  1  0  0  0
 13 14  1  0  0  0
 14 15  4  0  0  0
 14 18  4  0  0  0
 15 16  4  0  0  0
 16 17  4  0  0  0
 17 18  4  0  0  0
 19 20  2  0  0  0
 19 21  1  0  0  0
  1 22  1  0  0  0
  2 23  1  0  0  0
  3 24  1  0  0  0
  8 25  1  0  0  0
 11 26  1  0  0  0
 12 27  1  0  0  0
 13 28  1  0  0  0
 13 29  1  0  0  0
 15 30  1  0  0  0
 17 31  1  0  0  0
 18 32  1  0  0  0
 21 33  1  0  0  0
 21 34  1  0  0  0
 21 35  1  0  0  0
M  END
$$$$
