6n6o_ligand
  -I-interpret- 

 66 69  0  0  0  0  0  0  0  0999 V2000
  -18.8730   40.6240  141.7840 C   0  0  0  0  0
  -16.7750   41.1200  140.9160 C   0  0  0  0  0
  -14.9380   40.4020  142.1480 C   0  0  0  0  0
  -17.3810   41.6370  139.7810 C   0  0  0  0  0
  -18.7570   41.6290  139.6880 C   0  0  0  0  0
  -17.9860   42.5140  137.8600 C   0  0  0  0  0
  -17.5390   40.6320  141.8960 N   0  0  0  0  0
  -19.0900   42.1560  138.5170 N   0  0  0  0  0
  -19.4800   41.1240  140.6900 N   0  0  0  0  0
  -15.4260   41.1280  141.0280 O   0  0  0  0  0
  -16.9340   42.2110  138.6060 C   0  0  0  0  0
  -13.6790   41.1480  142.5580 C   0  0  0  0  0
  -12.8610   40.3800  143.5970 C   0  0  0  0  0
  -12.4980   38.9780  143.1220 C   0  0  0  0  0
  -13.7660   38.2480  142.6790 C   0  0  0  0  0
  -14.5380   39.0340  141.6250 C   0  0  0  0  0
  -11.8270   38.2120  144.2660 C   0  0  0  0  0
  -19.1260   39.5140  143.8450 C   0  0  0  0  0
  -18.0560   38.6360  143.7640 C   0  0  0  0  0
  -11.6270   39.0700  141.9980 O   0  0  0  0  0
  -15.2810   42.5030  138.1570 Cl  0  0  0  0  0
  -19.6230   40.1300  142.7690 N   0  0  0  0  0
  -17.5980   38.0140  144.9210 C   0  0  0  0  0
  -18.1920   38.2710  146.1570 C   0  0  0  0  0
  -17.6880   37.5780  147.4390 C   0  0  0  0  0
  -18.5020   37.0820  148.2110 O   0  0  0  0  0
  -16.3670   37.5150  147.6350 N   0  0  0  0  0
  -15.4420   38.1170  146.6680 C   0  0  0  0  0
  -15.8610   36.8330  148.8280 C   0  0  0  0  0
  -19.2670   39.1480  146.2310 C   0  0  0  0  0
  -19.7300   39.7630  145.0750 C   0  0  0  0  0
  -20.7640   40.6460  145.0710 O   0  0  0  0  0
  -21.5900   40.7690  146.2220 C   0  0  0  0  0
  -22.9960   41.0300  145.6650 C   0  0  0  0  0
  -21.1360   42.0170  146.9680 C   0  0  0  0  0
  -21.1840   43.0750  146.1480 F   0  0  0  0  0
  -19.8960   41.8290  147.4240 F   0  0  0  0  0
  -21.9610   42.2170  147.9820 F   0  0  0  0  0
  -15.6495   40.3063  142.9682 H   0  0  0  0  0
  -17.9545   42.9782  136.8743 H   0  0  0  0  0
  -13.9781   42.0989  142.9990 H   0  0  0  0  0
  -13.0600   41.2796  141.6705 H   0  0  0  0  0
  -13.4628   40.2866  144.5010 H   0  0  0  0  0
  -11.9358   40.9286  143.7733 H   0  0  0  0  0
  -14.4092   38.1225  143.5500 H   0  0  0  0  0
  -13.4750   37.2911  142.2457 H   0  0  0  0  0
  -13.8993   39.1673  140.7519 H   0  0  0  0  0
  -15.4414   38.4804  141.3691 H   0  0  0  0  0
  -10.9234   38.7385  144.5733 H   0  0  0  0  0
  -12.5145   38.1450  145.1091 H   0  0  0  0  0
  -11.5672   37.2092  143.9269 H   0  0  0  0  0
  -17.5791   38.4354  142.8046 H   0  0  0  0  0
  -11.3983   38.1870  141.6987 H   0  0  0  0  0
  -20.6357   40.2281  142.6969 H   0  0  0  0  0
  -16.7631   37.3158  144.8611 H   0  0  0  0  0
  -15.5824   37.6496  145.6933 H   0  0  0  0  0
  -15.6425   39.1857  146.5921 H   0  0  0  0  0
  -14.4164   37.9613  147.0027 H   0  0  0  0  0
  -16.2484   37.3270  149.7191 H   0  0  0  0  0
  -16.1876   35.7931  148.8165 H   0  0  0  0  0
  -14.7717   36.8730  148.8333 H   0  0  0  0  0
  -19.7438   39.3520  147.1897 H   0  0  0  0  0
  -21.5541   39.9000  146.8790 H   0  0  0  0  0
  -22.9867   41.9450  145.0727 H   0  0  0  0  0
  -23.2978   40.1920  145.0367 H   0  0  0  0  0
  -23.6986   41.1378  146.4914 H   0  0  0  0  0
  1  7  4  0  0  0
  1  9  4  0  0  0
 22  1  1  0  0  0
  2  4  4  0  0  0
  7  2  4  0  0  0
  2 10  1  0  0  0
 10  3  1  0  0  0
  3 12  1  0  0  0
  3 16  1  0  0  0
  5  4  4  0  0  0
  4 11  4  0  0  0
  5  8  4  0  0  0
  9  5  4  0  0  0
  8  6  4  0  0  0
  6 11  4  0  0  0
 11 21  1  0  0  0
 12 13  1  0  0  0
 13 14  1  0  0  0
 15 14  1  0  0  0
 14 17  1  0  0  0
 14 20  1  0  0  0
 16 15  1  0  0  0
 18 19  4  0  0  0
 18 22  1  0  0  0
 18 31  4  0  0  0
 19 23  4  0  0  0
 23 24  4  0  0  0
 24 25  1  0  0  0
 24 30  4  0  0  0
 25 26  2  0  0  0
 25 27  1  0  0  0
 27 28  1  0  0  0
 27 29  1  0  0  0
 30 31  4  0  0  0
 31 32  1  0  0  0
 32 33  1  0  0  0
 33 34  1  0  0  0
 33 35  1  0  0  0
 35 36  1  0  0  0
 35 37  1  0  0  0
 35 38  1  0  0  0
  3 39  1  0  0  0
  6 40  1  0  0  0
 12 41  1  0  0  0
 12 42  1  0  0  0
 13 43  1  0  0  0
 13 44  1  0  0  0
 15 45  1  0  0  0
 15 46  1  0  0  0
 16 47  1  0  0  0
 16 48  1  0  0  0
 17 49  1  0  0  0
 17 50  1  0  0  0
 17 51  1  0  0  0
 19 52  1  0  0  0
 20 53  1  0  0  0
 22 54  1  0  0  0
 23 55  1  0  0  0
 28 56  1  0  0  0
 28 57  1  0  0  0
 28 58  1  0  0  0
 29 59  1  0  0  0
 29 60  1  0  0  0
 29 61  1  0  0  0
 30 62  1  0  0  0
 33 63  1  0  0  0
 34 64  1  0  0  0
 34 65  1  0  0  0
 34 66  1  0  0  0
M  END
$$$$
