4prn_ligand
  -I-interpret- 

177181  0  0  0  0  0  0  0  0999 V2000
  -13.0170  -14.4330   35.9710 N   0  3  0  0  0
  -11.9860  -13.9220   36.8810 C   0  0  0  0  0
  -10.6000  -14.2740   36.3310 C   0  0  0  0  0
  -10.3710  -15.4070   35.9350 O   0  0  0  0  0
  -12.1670  -14.5520   38.2660 C   0  0  0  0  0
  -11.4060  -13.8690   39.3620 C   0  0  0  0  0
  -10.0280  -13.8980   39.4530 N   0  0  0  0  0
  -11.8380  -13.1630   40.4350 C   0  0  0  0  0
   -9.6460  -13.2300   40.5270 C   0  0  0  0  0
  -10.7240  -12.7740   41.1400 N   0  0  0  0  0
   -9.6720  -13.3050   36.3090 N   0  0  0  0  0
   -8.3410  -13.5360   35.7330 C   0  0  0  0  0
   -7.4460  -14.3420   36.6570 C   0  0  0  0  0
   -7.7650  -14.4920   37.8350 O   0  0  0  0  0
   -7.7800  -12.1160   35.5760 C   0  0  0  0  0
   -8.4300  -11.3450   36.6690 C   0  0  0  0  0
   -9.8420  -11.9130   36.7700 C   0  0  0  0  0
   -6.3470  -14.8600   36.1220 N   0  0  0  0  0
   -5.3690  -15.5740   36.9330 C   0  0  0  0  0
   -4.4380  -14.5930   37.6310 C   0  0  0  0  0
   -4.0190  -13.5910   37.0550 O   0  0  0  0  0
   -4.5550  -16.5840   36.0970 C   0  0  0  0  0
   -3.7200  -15.8870   35.0200 C   0  0  0  0  0
   -3.6770  -17.4710   37.0120 C   0  0  0  0  0
   -4.1330  -14.8820   38.8890 N   0  0  0  0  0
   -3.1680  -14.0870   39.6360 C   0  0  0  0  0
   -1.7620  -14.5580   39.2890 C   0  0  0  0  0
   -1.4440  -15.7450   39.4080 O   0  0  0  0  0
   -3.4190  -14.2260   41.1300 C   0  0  0  0  0
   -0.9230  -13.6270   38.8520 N   0  0  0  0  0
    0.4600  -13.9320   38.5300 C   0  0  0  0  0
    1.3860  -13.5200   39.6690 C   0  0  0  0  0
    0.9560  -12.8950   40.6320 O   0  0  0  0  0
    0.8890  -13.1800   37.2680 C   0  0  0  0  0
   -0.0200  -13.3880   36.0770 C   0  0  0  0  0
    0.5250  -12.7560   34.8140 C   0  0  0  0  0
    1.7230  -12.3820   34.7990 O   0  0  0  0  0
   -0.2470  -12.6300   33.8400 O   0  0  0  0  0
    2.6630  -13.8650   39.5420 N   0  0  0  0  0
    3.6860  -13.3900   40.4700 C   0  0  0  0  0
    4.7420  -12.5890   39.7130 C   0  0  0  0  0
    4.5440  -12.2200   38.5530 O   0  0  0  0  0
    4.3230  -14.5530   41.2060 C   0  0  0  0  0
    5.8630  -12.3130   40.3690 N   0  0  0  0  0
    6.9580  -11.6210   39.7030 C   0  0  0  0  0
    7.7560  -12.6010   38.8520 C   0  0  0  0  0
    8.3880  -12.2080   37.8680 O   0  0  0  0  0
    7.8680  -10.9370   40.7250 C   0  0  0  0  0
    7.2130   -9.7360   41.3770 C   0  0  0  0  0
    6.1850   -9.2590   40.8510 O   0  0  0  0  0
    7.6540   -9.2000   42.4160 O   0  0  0  0  0
    7.7230  -13.8770   39.2300 N   0  0  0  0  0
    8.4170  -14.9040   38.4590 C   0  0  0  0  0
    7.6060  -15.3620   37.2480 C   0  0  0  0  0
    7.9990  -16.2890   36.5340 O   0  0  0  0  0
    8.8260  -16.0890   39.3400 C   0  0  0  0  0
    7.6900  -16.7660   40.0680 C   0  0  0  0  0
    6.8630  -17.6720   39.4160 C   0  0  0  0  0
    7.4640  -16.5240   41.4180 C   0  0  0  0  0
    5.8310  -18.3010   40.0800 C   0  0  0  0  0
    6.4380  -17.1500   42.0920 C   0  0  0  0  0
    5.6240  -18.0380   41.4180 C   0  0  0  0  0
    4.5960  -18.6650   42.0830 O   0  0  0  0  0
    6.4770  -14.6980   37.0200 N   0  0  0  0  0
    5.7130  -14.8930   35.8020 C   0  0  0  0  0
    6.2550  -14.0130   34.6770 C   0  0  0  0  0
    5.8470  -14.1660   33.5280 O   0  0  0  0  0
    4.2340  -14.5880   36.0310 C   0  0  0  0  0
    3.4410  -15.7620   36.5330 C   0  0  0  0  0
    3.8650  -16.4800   37.6380 C   0  0  0  0  0
    2.2590  -16.1340   35.9090 C   0  0  0  0  0
    3.1310  -17.5600   38.1060 C   0  0  0  0  0
    1.5170  -17.2080   36.3760 C   0  0  0  0  0
    1.9560  -17.9200   37.4770 C   0  0  0  0  0
    7.1750  -13.1050   35.0070 N   0  0  0  0  0
    7.8320  -12.2870   33.9870 C   0  0  0  0  0
    8.4210  -13.1480   32.8740 C   0  0  0  0  0
    8.8730  -14.2680   33.1030 O   0  0  0  0  0
    8.9120  -11.3790   34.5970 C   0  0  0  0  0
    8.3370  -10.2420   35.4200 C   0  0  0  0  0
    9.3250   -9.6600   36.4130 C   0  0  0  0  0
   10.5440   -9.6660   36.1270 O   0  0  0  0  0
    8.8740   -9.1980   37.4830 O   0  0  0  0  0
    8.3810  -12.6220   31.6910 N   0  0  0  0  0
    8.9270  -13.2840   30.5490 C   0  0  0  0  0
   10.4620  -13.2590   30.5620 C   0  0  0  0  0
   11.0580  -13.9760   29.8330 O   0  0  0  0  0
    8.3850  -12.6280   29.2890 C   0  0  0  0  0
    6.8770  -12.7900   29.0090 C   0  0  0  0  0
    5.9290  -12.3120   29.8510 C   0  0  0  0  0
    6.4440  -13.3780   27.8710 C   0  0  0  0  0
    4.5880  -12.4450   29.5870 C   0  0  0  0  0
    5.1120  -13.5420   27.6060 C   0  0  0  0  0
    4.1740  -13.0550   28.4440 C   0  0  0  0  0
    2.8700  -13.1910   28.1850 O   0  0  0  0  0
   11.0740  -12.5050   31.3190 O   0  0  0  0  0
  -12.8946  -14.0124   35.0499 H   0  0  0  0  0
  -12.9315  -15.4467   35.8972 H   0  0  0  0  0
  -13.9392  -14.1940   36.3354 H   0  0  0  0  0
  -12.0777  -12.8390   36.9635 H   0  0  0  0  0
  -11.7910  -15.5732   38.2042 H   0  0  0  0  0
  -13.2252  -14.4756   38.5160 H   0  0  0  0  0
  -12.8747  -12.9445   40.6911 H   0  0  0  0  0
   -8.6164  -13.0805   40.8521 H   0  0  0  0  0
   -8.3914  -14.1056   34.8050 H   0  0  0  0  0
   -7.9927  -11.6957   34.5930 H   0  0  0  0  0
   -6.6925  -12.0929   35.6464 H   0  0  0  0  0
   -8.4397  -10.2758   36.4575 H   0  0  0  0  0
   -7.8877  -11.4432   37.6094 H   0  0  0  0  0
  -10.2529  -11.8483   37.7775 H   0  0  0  0  0
  -10.5656  -11.3558   36.1751 H   0  0  0  0  0
   -6.1834  -14.7559   35.1206 H   0  0  0  0  0
   -5.9197  -16.1387   37.6853 H   0  0  0  0  0
   -5.2618  -17.2319   35.5786 H   0  0  0  0  0
   -4.3805  -15.3389   34.3481 H   0  0  0  0  0
   -3.0245  -15.1939   35.4932 H   0  0  0  0  0
   -3.1625  -16.6336   34.4544 H   0  0  0  0  0
   -2.9871  -16.8408   37.5732 H   0  0  0  0  0
   -4.3151  -18.0199   37.7046 H   0  0  0  0  0
   -3.1126  -18.1749   36.4004 H   0  0  0  0  0
   -4.5833  -15.6770   39.3424 H   0  0  0  0  0
   -3.2743  -13.0358   39.3680 H   0  0  0  0  0
   -4.4255  -13.8778   41.3620 H   0  0  0  0  0
   -3.3198  -15.2726   41.4180 H   0  0  0  0  0
   -2.6909  -13.6268   41.6767 H   0  0  0  0  0
   -1.2589  -12.6705   38.7391 H   0  0  0  0  0
    0.5315  -15.0079   38.3704 H   0  0  0  0  0
    1.8727  -13.5580   36.9894 H   0  0  0  0  0
    0.8659  -12.1166   37.5060 H   0  0  0  0  0
   -0.9789  -12.9203   36.3002 H   0  0  0  0  0
   -0.1085  -14.4607   35.9050 H   0  0  0  0  0
    2.1277  -12.5743   35.6480 H   0  0  0  0  0
    2.9365  -14.4789   38.7747 H   0  0  0  0  0
    3.2154  -12.7412   41.2088 H   0  0  0  0  0
    3.5578  -15.0886   41.7679 H   0  0  0  0  0
    4.7856  -15.2276   40.4856 H   0  0  0  0  0
    5.0818  -14.1757   41.8916 H   0  0  0  0  0
    5.9580  -12.5877   41.3467 H   0  0  0  0  0
    6.5380  -10.8525   39.0541 H   0  0  0  0  0
    8.7589  -10.5901   40.2015 H   0  0  0  0  0
    8.0966  -11.6604   41.5077 H   0  0  0  0  0
    8.4408   -9.6671   42.7065 H   0  0  0  0  0
    7.2062  -14.1404   40.0690 H   0  0  0  0  0
    9.3297  -14.4477   38.0757 H   0  0  0  0  0
    9.4984  -15.6963   40.1027 H   0  0  0  0  0
    9.2648  -16.8359   38.6784 H   0  0  0  0  0
    7.0328  -17.8894   38.3615 H   0  0  0  0  0
    8.1094  -15.8271   41.9527 H   0  0  0  0  0
    5.1837  -19.0008   39.5514 H   0  0  0  0  0
    6.2704  -16.9455   43.1495 H   0  0  0  0  0
    4.5861  -18.3771   42.9988 H   0  0  0  0  0
    6.1397  -14.0354   37.7183 H   0  0  0  0  0
    5.8129  -15.9388   35.5113 H   0  0  0  0  0
    3.8102  -14.2976   35.0697 H   0  0  0  0  0
    4.1775  -13.8094   36.7917 H   0  0  0  0  0
    4.7859  -16.1935   38.1460 H   0  0  0  0  0
    1.9095  -15.5750   35.0410 H   0  0  0  0  0
    3.4818  -18.1242   38.9701 H   0  0  0  0  0
    0.5902  -17.4903   35.8766 H   0  0  0  0  0
    1.3751  -18.7645   37.8478 H   0  0  0  0  0
    7.4249  -12.9787   35.9878 H   0  0  0  0  0
    7.0647  -11.6480   33.5500 H   0  0  0  0  0
    9.4787  -10.9402   33.7758 H   0  0  0  0  0
    9.5243  -11.9910   35.2593 H   0  0  0  0  0
    7.4953  -10.6391   35.9873 H   0  0  0  0  0
    8.0556   -9.4460   34.7305 H   0  0  0  0  0
   10.6668  -10.0651   35.2626 H   0  0  0  0  0
    7.9463  -11.7071   31.5712 H   0  0  0  0  0
    8.6268  -14.3316   30.5729 H   0  0  0  0  0
    8.8960  -13.1131   28.4573 H   0  0  0  0  0
    8.5511  -11.5582   29.4152 H   0  0  0  0  0
    6.2402  -11.8068   30.7653 H   0  0  0  0  0
    7.1763  -13.7310   27.1449 H   0  0  0  0  0
    3.8537  -12.0609   30.2950 H   0  0  0  0  0
    4.8045  -14.0735   26.7054 H   0  0  0  0  0
    2.7571  -13.6401   27.3441 H   0  0  0  0  0
   10.4468  -11.9962   31.8379 H   0  0  0  0  0
  1  2  1  0  0  0
  2  3  1  0  0  0
  2  5  1  0  0  0
  3  4  2  0  0  0
  3 11  1  0  0  0
  5  6  1  0  0  0
  6  7  4  0  0  0
  6  8  4  0  0  0
  7  9  4  0  0  0
  8 10  4  0  0  0
  9 10  4  0  0  0
 11 12  1  0  0  0
 11 17  1  0  0  0
 12 13  1  0  0  0
 12 15  1  0  0  0
 13 14  2  0  0  0
 13 18  1  0  0  0
 15 16  1  0  0  0
 16 17  1  0  0  0
 18 19  1  0  0  0
 19 20  1  0  0  0
 19 22  1  0  0  0
 20 21  2  0  0  0
 20 25  1  0  0  0
 22 23  1  0  0  0
 22 24  1  0  0  0
 25 26  1  0  0  0
 26 27  1  0  0  0
 26 29  1  0  0  0
 27 28  2  0  0  0
 27 30  1  0  0  0
 30 31  1  0  0  0
 31 32  1  0  0  0
 31 34  1  0  0  0
 32 33  2  0  0  0
 32 39  1  0  0  0
 34 35  1  0  0  0
 35 36  1  0  0  0
 36 37  1  0  0  0
 36 38  2  0  0  0
 39 40  1  0  0  0
 40 41  1  0  0  0
 40 43  1  0  0  0
 41 42  2  0  0  0
 41 44  1  0  0  0
 44 45  1  0  0  0
 45 46  1  0  0  0
 45 48  1  0  0  0
 46 47  2  0  0  0
 46 52  1  0  0  0
 48 49  1  0  0  0
 49 50  2  0  0  0
 49 51  1  0  0  0
 52 53  1  0  0  0
 53 54  1  0  0  0
 53 56  1  0  0  0
 54 55  2  0  0  0
 54 64  1  0  0  0
 56 57  1  0  0  0
 57 58  4  0  0  0
 57 59  4  0  0  0
 58 60  4  0  0  0
 59 61  4  0  0  0
 60 62  4  0  0  0
 61 62  4  0  0  0
 62 63  1  0  0  0
 64 65  1  0  0  0
 65 66  1  0  0  0
 65 68  1  0  0  0
 66 67  2  0  0  0
 66 75  1  0  0  0
 68 69  1  0  0  0
 69 70  4  0  0  0
 69 71  4  0  0  0
 70 72  4  0  0  0
 71 73  4  0  0  0
 72 74  4  0  0  0
 73 74  4  0  0  0
 75 76  1  0  0  0
 76 77  1  0  0  0
 76 79  1  0  0  0
 77 78  2  0  0  0
 77 84  1  0  0  0
 79 80  1  0  0  0
 80 81  1  0  0  0
 81 82  1  0  0  0
 81 83  2  0  0  0
 84 85  1  0  0  0
 85 86  1  0  0  0
 85 88  1  0  0  0
 86 87  2  0  0  0
 86 96  1  0  0  0
 88 89  1  0  0  0
 89 90  4  0  0  0
 89 91  4  0  0  0
 90 92  4  0  0  0
 91 93  4  0  0  0
 92 94  4  0  0  0
 93 94  4  0  0  0
 94 95  1  0  0  0
  1 97  1  0  0  0
  1 98  1  0  0  0
  1 99  1  0  0  0
  2100  1  0  0  0
  5101  1  0  0  0
  5102  1  0  0  0
  8103  1  0  0  0
  9104  1  0  0  0
 12105  1  0  0  0
 15106  1  0  0  0
 15107  1  0  0  0
 16108  1  0  0  0
 16109  1  0  0  0
 17110  1  0  0  0
 17111  1  0  0  0
 18112  1  0  0  0
 19113  1  0  0  0
 22114  1  0  0  0
 23115  1  0  0  0
 23116  1  0  0  0
 23117  1  0  0  0
 24118  1  0  0  0
 24119  1  0  0  0
 24120  1  0  0  0
 25121  1  0  0  0
 26122  1  0  0  0
 29123  1  0  0  0
 29124  1  0  0  0
 29125  1  0  0  0
 30126  1  0  0  0
 31127  1  0  0  0
 34128  1  0  0  0
 34129  1  0  0  0
 35130  1  0  0  0
 35131  1  0  0  0
 37132  1  0  0  0
 39133  1  0  0  0
 40134  1  0  0  0
 43135  1  0  0  0
 43136  1  0  0  0
 43137  1  0  0  0
 44138  1  0  0  0
 45139  1  0  0  0
 48140  1  0  0  0
 48141  1  0  0  0
 51142  1  0  0  0
 52143  1  0  0  0
 53144  1  0  0  0
 56145  1  0  0  0
 56146  1  0  0  0
 58147  1  0  0  0
 59148  1  0  0  0
 60149  1  0  0  0
 61150  1  0  0  0
 63151  1  0  0  0
 64152  1  0  0  0
 65153  1  0  0  0
 68154  1  0  0  0
 68155  1  0  0  0
 70156  1  0  0  0
 71157  1  0  0  0
 72158  1  0  0  0
 73159  1  0  0  0
 74160  1  0  0  0
 75161  1  0  0  0
 76162  1  0  0  0
 79163  1  0  0  0
 79164  1  0  0  0
 80165  1  0  0  0
 80166  1  0  0  0
 82167  1  0  0  0
 84168  1  0  0  0
 85169  1  0  0  0
 88170  1  0  0  0
 88171  1  0  0  0
 90172  1  0  0  0
 91173  1  0  0  0
 92174  1  0  0  0
 93175  1  0  0  0
 95176  1  0  0  0
 96177  1  0  0  0
M  END
$$$$
