### 
### Created by X-TOOL on Mon Sep 10 21:13:18 2018
### 

@<TRIPOS>MOLECULE
4prn_ligand
  174   178     1     0     0
SMALL
GAST_HUCK


@<TRIPOS>ATOM
      1 N         -13.0170  -14.4330   35.9710 N.4       1 HIS         0.2390
      2 CA        -11.9860  -13.9220   36.8810 C.3       1 HIS         0.0710
      3 C         -10.6000  -14.2740   36.3310 C.2       1 HIS         0.2307
      4 O         -10.3710  -15.4070   35.9350 O.2       1 HIS        -0.3904
      5 CB        -12.1670  -14.5520   38.2660 C.3       1 HIS         0.0347
      6 CG        -11.4060  -13.8690   39.3620 C.2       1 HIS         0.0005
      7 ND1       -10.0280  -13.8980   39.4530 N.2       1 HIS        -0.3251
      8 CD2       -11.8380  -13.1630   40.4350 C.2       1 HIS         0.0293
      9 CE1        -9.6460  -13.2300   40.5270 C.2       1 HIS         0.0907
     10 NE2       -10.7240  -12.7740   41.1400 N.pl3     1 HIS        -0.2752
     11 N          -9.6720  -13.3050   36.3090 N.am      1 PRO        -0.2470
     12 CA         -8.3410  -13.5360   35.7330 C.3       1 PRO         0.1339
     13 C          -7.4460  -14.3420   36.6570 C.2       1 PRO         0.2041
     14 O          -7.7650  -14.4920   37.8350 O.2       1 PRO        -0.3944
     15 CB         -7.7800  -12.1160   35.5760 C.3       1 PRO        -0.0104
     16 CG         -8.4300  -11.3450   36.6690 C.3       1 PRO        -0.0281
     17 CD         -9.8420  -11.9130   36.7700 C.3       1 PRO         0.0371
     18 N          -6.3470  -14.8600   36.1220 N.am      1 VAL        -0.2635
     19 CA         -5.3690  -15.5740   36.9330 C.3       1 VAL         0.1332
     20 C          -4.4380  -14.5930   37.6310 C.2       1 VAL         0.2041
     21 O          -4.0190  -13.5910   37.0550 O.2       1 VAL        -0.3944
     22 CB         -4.5550  -16.5840   36.0970 C.3       1 VAL        -0.0063
     23 CG1        -3.7200  -15.8870   35.0200 C.3       1 VAL        -0.0584
     24 CG2        -3.6770  -17.4710   37.0120 C.3       1 VAL        -0.0584
     25 N          -4.1330  -14.8820   38.8890 N.am      1 ALA        -0.2640
     26 CA         -3.1680  -14.0870   39.6360 C.3       1 ALA         0.1282
     27 C          -1.7620  -14.5580   39.2890 C.2       1 ALA         0.2036
     28 O          -1.4440  -15.7450   39.4080 O.2       1 ALA        -0.3944
     29 CB         -3.4190  -14.2260   41.1300 C.3       1 ALA        -0.0244
     30 N          -0.9230  -13.6270   38.8520 N.am      1 GLU        -0.2636
     31 CA          0.4600  -13.9320   38.5300 C.3       1 GLU         0.1325
     32 C           1.3860  -13.5200   39.6690 C.2       1 GLU         0.2040
     33 O           0.9560  -12.8950   40.6320 O.2       1 GLU        -0.3944
     34 CB          0.8890  -13.1800   37.2680 C.3       1 GLU        -0.0008
     35 CG         -0.0200  -13.3880   36.0770 C.3       1 GLU         0.0044
     36 CD          0.5250  -12.7560   34.8140 C.2       1 GLU         0.0350
     37 OE1         1.7230  -12.3820   34.7990 O.co2     1 GLU        -0.5690
     38 OE2        -0.2470  -12.6300   33.8400 O.co2     1 GLU        -0.5690
     39 N           2.6630  -13.8650   39.5420 N.am      1 ALA        -0.2640
     40 CA          3.6860  -13.3900   40.4700 C.3       1 ALA         0.1282
     41 C           4.7420  -12.5890   39.7130 C.2       1 ALA         0.2037
     42 O           4.5440  -12.2200   38.5530 O.2       1 ALA        -0.3944
     43 CB          4.3230  -14.5530   41.2060 C.3       1 ALA        -0.0244
     44 N           5.8630  -12.3130   40.3690 N.am      1 ASP        -0.2622
     45 CA          6.9580  -11.6210   39.7030 C.3       1 ASP         0.1423
     46 C           7.7560  -12.6010   38.8520 C.2       1 ASP         0.2057
     47 O           8.3880  -12.2080   37.8680 O.2       1 ASP        -0.3943
     48 CB          7.8680  -10.9370   40.7250 C.3       1 ASP         0.0406
     49 CG          7.2130   -9.7360   41.3770 C.2       1 ASP         0.0393
     50 OD1         6.1850   -9.2590   40.8510 O.co2     1 ASP        -0.5688
     51 OD2         7.6540   -9.2000   42.4160 O.co2     1 ASP        -0.5688
     52 N           7.7230  -13.8770   39.2300 N.am      1 TYR        -0.2620
     53 CA          8.4170  -14.9040   38.4590 C.3       1 TYR         0.1390
     54 C           7.6060  -15.3620   37.2480 C.2       1 TYR         0.2059
     55 O           7.9990  -16.2890   36.5340 O.2       1 TYR        -0.3942
     56 CB          8.8260  -16.0890   39.3400 C.3       1 TYR         0.0163
     57 CG          7.6900  -16.7660   40.0680 C.ar      1 TYR        -0.0493
     58 CD1         6.8630  -17.6720   39.4160 C.ar      1 TYR        -0.0685
     59 CD2         7.4640  -16.5240   41.4180 C.ar      1 TYR        -0.0685
     60 CE1         5.8310  -18.3010   40.0800 C.ar      1 TYR        -0.0398
     61 CE2         6.4380  -17.1500   42.0920 C.ar      1 TYR        -0.0398
     62 CZ          5.6240  -18.0380   41.4180 C.ar      1 TYR         0.0805
     63 OH          4.5960  -18.6650   42.0830 O.3       1 TYR        -0.3376
     64 N           6.4770  -14.6980   37.0200 N.am      1 PHE        -0.2618
     65 CA          5.7130  -14.8930   35.8020 C.3       1 PHE         0.1404
     66 C           6.2550  -14.0130   34.6770 C.2       1 PHE         0.2060
     67 O           5.8470  -14.1660   33.5280 O.2       1 PHE        -0.3942
     68 CB          4.2340  -14.5880   36.0310 C.3       1 PHE         0.0214
     69 CG          3.4410  -15.7620   36.5330 C.ar      1 PHE        -0.0386
     70 CD1         3.8650  -16.4800   37.6380 C.ar      1 PHE        -0.0601
     71 CD2         2.2590  -16.1340   35.9090 C.ar      1 PHE        -0.0601
     72 CE1         3.1310  -17.5600   38.1060 C.ar      1 PHE        -0.0686
     73 CE2         1.5170  -17.2080   36.3760 C.ar      1 PHE        -0.0686
     74 CZ          1.9560  -17.9200   37.4770 C.ar      1 PHE        -0.0687
     75 N           7.1750  -13.1050   35.0070 N.am      1 GLU        -0.2635
     76 CA          7.8320  -12.2870   33.9870 C.3       1 GLU         0.1324
     77 C           8.4210  -13.1480   32.8740 C.2       1 GLU         0.2036
     78 O           8.8730  -14.2680   33.1030 O.2       1 GLU        -0.3944
     79 CB          8.9120  -11.3790   34.5970 C.3       1 GLU        -0.0008
     80 CG          8.3370  -10.2420   35.4200 C.3       1 GLU         0.0044
     81 CD          9.3250   -9.6600   36.4130 C.2       1 GLU         0.0350
     82 OE1        10.5440   -9.6660   36.1270 O.co2     1 GLU        -0.5690
     83 OE2         8.8740   -9.1980   37.4830 O.co2     1 GLU        -0.5690
     84 N           8.3810  -12.6220   31.6910 N.am      1 TYR        -0.2679
     85 CA          8.9270  -13.2840   30.5490 C.3       1 TYR         0.1025
     86 C          10.4620  -13.2590   30.5620 C.2       1 TYR         0.0619
     87 O          11.0580  -13.9760   29.8330 O.co2     1 TYR        -0.5665
     88 CB          8.3850  -12.6280   29.2890 C.3       1 TYR         0.0108
     89 CG          6.8770  -12.7900   29.0090 C.ar      1 TYR        -0.0499
     90 CD1         5.9290  -12.3120   29.8510 C.ar      1 TYR        -0.0686
     91 CD2         6.4440  -13.3780   27.8710 C.ar      1 TYR        -0.0686
     92 CE1         4.5880  -12.4450   29.5870 C.ar      1 TYR        -0.0398
     93 CE2         5.1120  -13.5420   27.6060 C.ar      1 TYR        -0.0398
     94 CZ          4.1740  -13.0550   28.4440 C.ar      1 TYR         0.0805
     95 OH          2.8700  -13.1910   28.1850 O.3       1 TYR        -0.3376
     96 OXT        11.0740  -12.5050   31.3190 O.co2     1 TYR        -0.5665
     97 H         -13.9290  -14.2015   36.3326 H         1 HIS         0.2016
     98 H         -12.9305  -15.4343   35.8935 H         1 HIS         0.2016
     99 H         -12.9000  -14.0143   35.0616 H         1 HIS         0.2016
    100 H         -12.0795  -12.8290   36.9625 H         1 HIS         0.1116
    101 H         -11.8311  -15.5982   38.2145 H         1 HIS         0.0453
    102 H         -13.2368  -14.5224   38.5201 H         1 HIS         0.0453
    103 H         -12.8738  -12.9447   40.6908 H         1 HIS         0.0729
    104 H          -8.6174  -13.0806   40.8518 H         1 HIS         0.1199
    105 H         -10.7288  -12.2169   42.0063 H         1 HIS         0.2361
    106 H          -8.4188  -14.0452   34.7611 H         1 PRO         0.0802
    107 H          -8.0443  -11.6984   34.5933 H         1 PRO         0.0313
    108 H          -6.6863  -12.1132   35.6935 H         1 PRO         0.0313
    109 H          -8.4614  -10.2739   36.4203 H         1 PRO         0.0287
    110 H          -7.8884  -11.4859   37.6160 H         1 PRO         0.0287
    111 H         -10.2078  -11.8815   37.8069 H         1 PRO         0.0524
    112 H         -10.5372  -11.3627   36.1190 H         1 PRO         0.0524
    113 H          -6.1866  -14.7580   35.1402 H         1 VAL         0.1883
    114 H          -5.9158  -16.1364   37.7041 H         1 VAL         0.0802
    115 H          -5.2708  -17.2425   35.5832 H         1 VAL         0.0343
    116 H          -3.1569  -16.6395   34.4485 H         1 VAL         0.0234
    117 H          -3.0176  -15.1872   35.4963 H         1 VAL         0.0234
    118 H          -4.3854  -15.3335   34.3412 H         1 VAL         0.0234
    119 H          -4.3098  -17.9540   37.7711 H         1 VAL         0.0234
    120 H          -2.9191  -16.8477   37.5091 H         1 VAL         0.0234
    121 H          -3.1780  -18.2418   36.4062 H         1 VAL         0.0234
    122 H          -4.5745  -15.6614   39.3335 H         1 ALA         0.1883
    123 H          -3.2745  -13.0293   39.3532 H         1 ALA         0.0797
    124 H          -2.6847  -13.6217   41.6829 H         1 ALA         0.0277
    125 H          -3.3191  -15.2818   41.4219 H         1 ALA         0.0277
    126 H          -4.4345  -13.8749   41.3655 H         1 ALA         0.0277
    127 H          -1.2523  -12.6893   38.7414 H         1 GLU         0.1883
    128 H           0.5546  -15.0145   38.3593 H         1 GLU         0.0801
    129 H           1.8991  -13.5178   36.9929 H         1 GLU         0.0330
    130 H           0.9122  -12.1049   37.4994 H         1 GLU         0.0330
    131 H          -1.0006  -12.9422   36.2996 H         1 GLU         0.0433
    132 H          -0.1383  -14.4685   35.9080 H         1 GLU         0.0433
    133 H           2.9312  -14.4669   38.7898 H         1 ALA         0.1883
    134 H           3.2090  -12.7301   41.2095 H         1 ALA         0.0797
    135 H           5.0890  -14.1735   41.8983 H         1 ALA         0.0277
    136 H           4.7903  -15.2346   40.4801 H         1 ALA         0.0277
    137 H           3.5518  -15.0944   41.7736 H         1 ALA         0.0277
    138 H           5.9561  -12.5823   41.3275 H         1 ASP         0.1884
    139 H           6.5338  -10.8494   39.0437 H         1 ASP         0.0819
    140 H           8.7839  -10.6047   40.2144 H         1 ASP         0.0478
    141 H           8.1280  -11.6647   41.5079 H         1 ASP         0.0478
    142 H           7.2163  -14.1352   40.0526 H         1 TYR         0.1885
    143 H           9.3422  -14.4494   38.0752 H         1 TYR         0.0821
    144 H           9.5429  -15.7246   40.0905 H         1 TYR         0.0453
    145 H           9.3147  -16.8377   38.6992 H         1 TYR         0.0453
    146 H           7.0318  -17.8882   38.3673 H         1 TYR         0.0530
    147 H           8.1059  -15.8309   41.9497 H         1 TYR         0.0530
    148 H           5.1873  -18.9969   39.5543 H         1 TYR         0.0525
    149 H           6.2714  -16.9466   43.1436 H         1 TYR         0.0525
    150 H           4.1353  -19.2390   41.4824 H         1 TYR         0.2458
    151 H           6.1463  -14.0484   37.7046 H         1 PHE         0.1885
    152 H           5.8089  -15.9461   35.4990 H         1 PHE         0.0823
    153 H           3.7968  -14.2570   35.0774 H         1 PHE         0.0474
    154 H           4.1579  -13.7771   36.7703 H         1 PHE         0.0474
    155 H           4.7808  -16.1951   38.1432 H         1 PHE         0.0557
    156 H           1.9114  -15.5781   35.0457 H         1 PHE         0.0557
    157 H           3.4799  -18.1211   38.9653 H         1 PHE         0.0599
    158 H           0.5953  -17.4888   35.8794 H         1 PHE         0.0599
    159 H           1.3783  -18.7598   37.8458 H         1 PHE         0.0559
    160 H           7.4200  -12.9812   35.9686 H         1 GLU         0.1883
    161 H           7.0650  -11.6387   33.5383 H         1 GLU         0.0801
    162 H           9.5123  -10.9515   33.7804 H         1 GLU         0.0330
    163 H           9.5573  -11.9894   35.2458 H         1 GLU         0.0330
    164 H           7.4653  -10.6189   35.9751 H         1 GLU         0.0433
    165 H           8.0180   -9.4422   34.7355 H         1 GLU         0.0433
    166 H           7.9548  -11.7250   31.5735 H         1 TYR         0.1877
    167 H           8.6016  -14.3346   30.5660 H         1 TYR         0.0747
    168 H           8.9291  -13.0535   28.4329 H         1 TYR         0.0446
    169 H           8.5957  -11.5506   29.3587 H         1 TYR         0.0446
    170 H           6.2385  -11.8095   30.7603 H         1 TYR         0.0530
    171 H           7.1723  -13.7290   27.1489 H         1 TYR         0.0530
    172 H           3.8577  -12.0630   30.2911 H         1 TYR         0.0525
    173 H           4.8062  -14.0705   26.7103 H         1 TYR         0.0525
    174 H           2.6540  -14.1145   28.1293 H         1 TYR         0.2458
@<TRIPOS>BOND
     1    1    2 1  
     2    2    3 1  
     3    2    5 1  
     4    3    4 2  
     5    3   11 am 
     6    5    6 1  
     7    6    7 1  
     8    6    8 2  
     9    7    9 2  
    10    8   10 1  
    11    9   10 1  
    12   11   12 1  
    13   11   17 1  
    14   12   13 1  
    15   12   15 1  
    16   13   14 2  
    17   13   18 am 
    18   15   16 1  
    19   16   17 1  
    20   18   19 1  
    21   19   20 1  
    22   19   22 1  
    23   20   21 2  
    24   20   25 am 
    25   22   23 1  
    26   22   24 1  
    27   25   26 1  
    28   26   27 1  
    29   26   29 1  
    30   27   28 2  
    31   27   30 am 
    32   30   31 1  
    33   31   32 1  
    34   31   34 1  
    35   32   33 2  
    36   32   39 am 
    37   34   35 1  
    38   35   36 1  
    39   36   37 ar 
    40   36   38 ar 
    41   39   40 1  
    42   40   41 1  
    43   40   43 1  
    44   41   42 2  
    45   41   44 am 
    46   44   45 1  
    47   45   46 1  
    48   45   48 1  
    49   46   47 2  
    50   46   52 am 
    51   48   49 1  
    52   49   50 ar 
    53   49   51 ar 
    54   52   53 1  
    55   53   54 1  
    56   53   56 1  
    57   54   55 2  
    58   54   64 am 
    59   56   57 1  
    60   57   58 ar 
    61   57   59 ar 
    62   58   60 ar 
    63   59   61 ar 
    64   60   62 ar 
    65   61   62 ar 
    66   62   63 1  
    67   64   65 1  
    68   65   66 1  
    69   65   68 1  
    70   66   67 2  
    71   66   75 am 
    72   68   69 1  
    73   69   70 ar 
    74   69   71 ar 
    75   70   72 ar 
    76   71   73 ar 
    77   72   74 ar 
    78   73   74 ar 
    79   75   76 1  
    80   76   77 1  
    81   76   79 1  
    82   77   78 2  
    83   77   84 am 
    84   79   80 1  
    85   80   81 1  
    86   81   82 ar 
    87   81   83 ar 
    88   84   85 1  
    89   85   86 1  
    90   85   88 1  
    91   86   87 ar 
    92   86   96 ar 
    93   88   89 1  
    94   89   90 ar 
    95   89   91 ar 
    96   90   92 ar 
    97   91   93 ar 
    98   92   94 ar 
    99   93   94 ar 
   100   94   95 1  
   101    1   97 1  
   102    1   98 1  
   103    1   99 1  
   104    2  100 1  
   105    5  101 1  
   106    5  102 1  
   107    8  103 1  
   108    9  104 1  
   109   10  105 1  
   110   12  106 1  
   111   15  107 1  
   112   15  108 1  
   113   16  109 1  
   114   16  110 1  
   115   17  111 1  
   116   17  112 1  
   117   18  113 1  
   118   19  114 1  
   119   22  115 1  
   120   23  116 1  
   121   23  117 1  
   122   23  118 1  
   123   24  119 1  
   124   24  120 1  
   125   24  121 1  
   126   25  122 1  
   127   26  123 1  
   128   29  124 1  
   129   29  125 1  
   130   29  126 1  
   131   30  127 1  
   132   31  128 1  
   133   34  129 1  
   134   34  130 1  
   135   35  131 1  
   136   35  132 1  
   137   39  133 1  
   138   40  134 1  
   139   43  135 1  
   140   43  136 1  
   141   43  137 1  
   142   44  138 1  
   143   45  139 1  
   144   48  140 1  
   145   48  141 1  
   146   52  142 1  
   147   53  143 1  
   148   56  144 1  
   149   56  145 1  
   150   58  146 1  
   151   59  147 1  
   152   60  148 1  
   153   61  149 1  
   154   63  150 1  
   155   64  151 1  
   156   65  152 1  
   157   68  153 1  
   158   68  154 1  
   159   70  155 1  
   160   71  156 1  
   161   72  157 1  
   162   73  158 1  
   163   74  159 1  
   164   75  160 1  
   165   76  161 1  
   166   79  162 1  
   167   79  163 1  
   168   80  164 1  
   169   80  165 1  
   170   84  166 1  
   171   85  167 1  
   172   88  168 1  
   173   88  169 1  
   174   90  170 1  
   175   91  171 1  
   176   92  172 1  
   177   93  173 1  
   178   95  174 1  
@<TRIPOS>SUBSTRUCTURE
     1 HIS         1

