2ya6_ligand
  -I-interpret- 

 37 37  0  0  0  0  0  0  0  0999 V2000
   14.7300  -20.0150   45.0510 C   0  0  0  0  0
   14.8800  -19.3650   43.6560 C   0  0  0  0  0
   13.7730  -18.9950   42.8870 C   0  0  0  0  0
   13.9910  -18.3190   41.5050 C   0  0  0  0  0
   15.3440  -18.7190   40.9140 C   0  0  0  0  0
   16.4470  -18.4740   41.9720 C   0  0  0  0  0
   17.8730  -18.8580   41.5400 C   0  0  0  0  0
   18.9180  -18.7430   42.6540 C   0  0  0  0  0
   20.2950  -19.1650   42.1230 C   0  0  0  0  0
   16.2050  -18.4270   38.6370 C   0  0  0  0  0
   16.3490  -17.4660   37.4380 C   0  0  0  0  0
   15.5830  -17.9210   39.6870 N   0  0  0  0  0
   13.5970  -20.2510   45.5230 O   0  0  0  0  0
   15.7900  -20.2480   45.6440 O   0  0  0  0  0
   12.8860  -18.5430   40.6180 O   0  0  0  0  0
   16.1630  -19.1910   43.2170 O   0  0  0  0  0
   17.8740  -20.1850   41.0540 O   0  0  0  0  0
   18.9640  -17.3940   43.1280 O   0  0  0  0  0
   21.2820  -19.0410   43.1470 O   0  0  0  0  0
   16.6830  -19.5700   38.6050 O   0  0  0  0  0
   12.7635  -19.1795   43.2543 H   0  0  0  0  0
   14.0240  -17.2393   41.6509 H   0  0  0  0  0
   15.3559  -19.7756   40.6465 H   0  0  0  0  0
   16.4226  -17.3930   42.1095 H   0  0  0  0  0
   18.1566  -18.1433   40.7674 H   0  0  0  0  0
   18.6436  -19.4016   43.4780 H   0  0  0  0  0
   20.5667  -18.5196   41.2877 H   0  0  0  0  0
   20.2475  -20.2048   41.7994 H   0  0  0  0  0
   17.4063  -17.2915   37.2388 H   0  0  0  0  0
   15.8810  -17.9104   36.5596 H   0  0  0  0  0
   15.8610  -16.5198   37.6718 H   0  0  0  0  0
   15.2582  -16.9547   39.6528 H   0  0  0  0  0
   12.9262  -19.9896   44.8879 H   0  0  0  0  0
   12.0717  -18.2722   41.0483 H   0  0  0  0  0
   17.2219  -20.2689   40.3544 H   0  0  0  0  0
   19.6193  -17.3235   43.8260 H   0  0  0  0  0
   22.1365  -19.3081   42.8003 H   0  0  0  0  0
  2  1  1  0  0  0
  1 13  1  0  0  0
  1 14  2  0  0  0
  3  2  2  0  0  0
 16  2  1  0  0  0
  4  3  1  0  0  0
  5  4  1  0  0  0
  4 15  1  0  0  0
  5  6  1  0  0  0
 12  5  1  0  0  0
  6  7  1  0  0  0
  6 16  1  0  0  0
  7  8  1  0  0  0
  7 17  1  0  0  0
  8  9  1  0  0  0
  8 18  1  0  0  0
  9 19  1  0  0  0
 10 11  1  0  0  0
 10 12  1  0  0  0
 10 20  2  0  0  0
  3 21  1  0  0  0
  4 22  1  0  0  0
  5 23  1  0  0  0
  6 24  1  0  0  0
  7 25  1  0  0  0
  8 26  1  0  0  0
  9 27  1  0  0  0
  9 28  1  0  0  0
 11 29  1  0  0  0
 11 30  1  0  0  0
 11 31  1  0  0  0
 12 32  1  0  0  0
 13 33  1  0  0  0
 15 34  1  0  0  0
 17 35  1  0  0  0
 18 36  1  0  0  0
 19 37  1  0  0  0
M  END
$$$$
