3jq8_ligand
  -I-interpret- 

 29 30  0  0  0  0  0  0  0  0999 V2000
    3.6170  -11.3040   43.0230 C   0  0  0  0  0
    2.7760  -10.8990   44.0560 C   0  0  0  0  0
    2.7470   -9.5490   44.3960 C   0  0  0  0  0
    3.5270   -8.6800   43.7310 N   0  0  0  0  0
    4.3730  -10.3960   42.3900 N   0  0  0  0  0
    3.6910  -12.6470   42.6470 N   0  0  0  0  0
    2.7470  -13.6530   43.1900 C   0  0  0  0  0
    3.5470  -14.8860   43.6300 C   0  0  0  0  0
    1.8010  -13.9980   42.0440 C   0  0  0  0  0
    1.9390  -13.0860   44.3830 C   0  0  0  0  0
    1.0250  -13.9870   45.2280 C   0  0  0  0  0
    2.0100  -11.7860   44.7150 N   0  0  0  0  0
    4.3270   -9.1000   42.7340 C   0  0  0  0  0
    5.0910   -8.2320   42.0820 N   0  0  0  0  0
    1.9570   -9.1200   45.3760 N   0  0  0  0  0
    4.4091  -12.9417   41.9853 H   0  0  0  0  0
    2.8597  -15.6632   43.9642 H   0  0  0  0  0
    4.1343  -15.2555   42.7893 H   0  0  0  0  0
    4.2134  -14.6122   44.4480 H   0  0  0  0  0
    2.3789  -14.3627   41.1948 H   0  0  0  0  0
    1.1043  -14.7704   42.3697 H   0  0  0  0  0
    1.2463  -13.1065   41.7516 H   0  0  0  0  0
    1.3606  -13.9724   46.2650 H   0  0  0  0  0
    0.0007  -13.6188   45.1711 H   0  0  0  0  0
    1.0677  -15.0067   44.8453 H   0  0  0  0  0
    5.0723   -7.2444   42.3365 H   0  0  0  0  0
    5.6967   -8.5526   41.3265 H   0  0  0  0  0
    1.3683   -9.7810   45.8828 H   0  0  0  0  0
    1.9398   -8.1300   45.6208 H   0  0  0  0  0
  1  2  4  0  0  0
  1  5  4  0  0  0
  1  6  1  0  0  0
  2  3  4  0  0  0
  2 12  1  0  0  0
  3  4  4  0  0  0
  3 15  1  0  0  0
  4 13  4  0  0  0
  5 13  4  0  0  0
  6  7  1  0  0  0
  7  8  1  0  0  0
  7  9  1  0  0  0
  7 10  1  0  0  0
 10 11  1  0  0  0
 10 12  2  0  0  0
 13 14  1  0  0  0
  6 16  1  0  0  0
  8 17  1  0  0  0
  8 18  1  0  0  0
  8 19  1  0  0  0
  9 20  1  0  0  0
  9 21  1  0  0  0
  9 22  1  0  0  0
 11 23  1  0  0  0
 11 24  1  0  0  0
 11 25  1  0  0  0
 14 26  1  0  0  0
 14 27  1  0  0  0
 15 28  1  0  0  0
 15 29  1  0  0  0
M  END
$$$$
