2xab_ligand
  -I-interpret- 

 39 41  0  0  0  0  0  0  0  0999 V2000
    1.5700   31.0780    0.7170 C   0  0  0  0  0
    1.2980   32.4770    1.2660 C   0  0  0  0  0
    2.3800   33.4510    0.8000 C   0  0  0  0  0
   -0.1020   32.9390    0.8900 C   0  0  0  0  0
   -0.3330   33.5240   -0.3600 C   0  0  0  0  0
   -1.6150   33.9090   -0.7520 C   0  0  0  0  0
   -1.7930   34.5850   -2.0730 C   0  0  0  0  0
   -2.3910   34.0190   -2.9760 O   0  0  0  0  0
   -1.3150   35.8650   -2.2110 N   0  0  0  0  0
   -1.4720   36.6600   -3.4400 C   0  0  0  0  0
   -1.2560   38.0640   -2.9470 C   0  0  0  0  0
   -1.3730   39.2700   -3.6300 C   0  0  0  0  0
   -1.1180   40.4610   -2.9790 C   0  0  0  0  0
   -0.7460   40.4580   -1.6500 C   0  0  0  0  0
   -0.6220   39.2650   -0.9650 C   0  0  0  0  0
   -0.8740   38.0600   -1.6150 C   0  0  0  0  0
   -0.7830   36.6550   -1.0930 C   0  0  0  0  0
   -2.7060   33.6740    0.1160 C   0  0  0  0  0
   -3.9690   34.0230   -0.2640 O   0  0  0  0  0
   -2.5010   33.0620    1.3460 C   0  0  0  0  0
   -1.2140   32.6970    1.7400 C   0  0  0  0  0
   -1.0260   32.1340    2.9650 O   0  0  0  0  0
    0.8441   30.3788    1.1320 H   0  0  0  0  0
    1.4828   31.0921   -0.3694 H   0  0  0  0  0
    2.5766   30.7682    0.9980 H   0  0  0  0  0
    1.3389   32.4473    2.3548 H   0  0  0  0  0
    2.3375   33.5473   -0.2849 H   0  0  0  0  0
    2.2124   34.4252    1.2594 H   0  0  0  0  0
    3.3589   33.0726    1.0944 H   0  0  0  0  0
    0.5043   33.6817   -1.0398 H   0  0  0  0  0
   -1.6898   36.3175   -4.4516 H   0  0  0  0  0
   -1.6662   39.2751   -4.6798 H   0  0  0  0  0
   -1.2107   41.4051   -3.5158 H   0  0  0  0  0
   -0.5493   41.4005   -1.1390 H   0  0  0  0  0
   -0.3269   39.2670    0.0843 H   0  0  0  0  0
   -0.4148   36.3086   -0.1273 H   0  0  0  0  0
   -4.5864   33.7967    0.4354 H   0  0  0  0  0
   -3.3475   32.8667    2.0044 H   0  0  0  0  0
   -1.8733   32.0406    3.4065 H   0  0  0  0  0
  1  2  1  0  0  0
  2  3  1  0  0  0
  2  4  1  0  0  0
  4  5  4  0  0  0
  4 21  4  0  0  0
  5  6  4  0  0  0
  6  7  1  0  0  0
  6 18  4  0  0  0
  7  8  2  0  0  0
  7  9  1  0  0  0
  9 10  4  0  0  0
  9 17  4  0  0  0
 10 11  4  0  0  0
 11 12  4  0  0  0
 11 16  4  0  0  0
 12 13  4  0  0  0
 13 14  4  0  0  0
 14 15  4  0  0  0
 15 16  4  0  0  0
 16 17  4  0  0  0
 18 19  1  0  0  0
 18 20  4  0  0  0
 20 21  4  0  0  0
 21 22  1  0  0  0
  1 23  1  0  0  0
  1 24  1  0  0  0
  1 25  1  0  0  0
  2 26  1  0  0  0
  3 27  1  0  0  0
  3 28  1  0  0  0
  3 29  1  0  0  0
  5 30  1  0  0  0
 10 31  1  0  0  0
 12 32  1  0  0  0
 13 33  1  0  0  0
 14 34  1  0  0  0
 15 35  1  0  0  0
 17 36  1  0  0  0
 19 37  1  0  0  0
 20 38  1  0  0  0
 22 39  1  0  0  0
M  END
$$$$
