1y2c_ligand
  -I-interpret- 

 34 35  0  0  0  0  0  0  0  0999 V2000
   14.6490    6.2990    9.9730 C   0  0  0  0  0
   13.5220    6.0870    9.2700 O   0  0  0  0  0
   13.5320    6.1430    7.8330 C   0  0  0  0  0
   12.1140    6.3670    7.3450 C   0  0  0  0  0
   14.5900    6.1160   11.4350 C   0  0  0  0  0
   15.7760    6.0350   12.3110 C   0  0  0  0  0
   15.3120    5.8250   13.5150 N   0  0  0  0  0
   17.2280    5.9230   11.9280 C   0  0  0  0  0
   13.4890    6.0910   12.2260 C   0  0  0  0  0
   12.0490    6.2220   11.7990 C   0  0  0  0  0
   13.8870    5.9290   13.5250 N   0  0  0  0  0
   13.1040    5.8140   14.6890 C   0  0  0  0  0
   13.1990    6.7770   15.7030 C   0  0  0  0  0
   12.4240    6.6300   16.8640 C   0  0  0  0  0
   11.5790    5.5170   17.0150 C   0  0  0  0  0
   11.5050    4.5500   16.0080 C   0  0  0  0  0
   12.2750    4.6980   14.8450 C   0  0  0  0  0
   15.7210    6.3190    9.4340 O   0  0  0  0  0
   13.9191    5.2077    7.4288 H   0  0  0  0  0
   14.1718    6.9598    7.4989 H   0  0  0  0  0
   11.4818    5.5445    7.6796 H   0  0  0  0  0
   11.7358    7.3056    7.7500 H   0  0  0  0  0
   12.1087    6.4113    6.2559 H   0  0  0  0  0
   17.3800    5.0136   11.3466 H   0  0  0  0  0
   17.5128    6.7893   11.3310 H   0  0  0  0  0
   17.8385    5.8853   12.8302 H   0  0  0  0  0
   11.9036    7.1831   11.3057 H   0  0  0  0  0
   11.8016    5.4163   11.1078 H   0  0  0  0  0
   11.4044    6.1610   12.6758 H   0  0  0  0  0
   13.8674    7.6307   15.5912 H   0  0  0  0  0
   12.4777    7.3818   17.6514 H   0  0  0  0  0
   10.9801    5.4076   17.9191 H   0  0  0  0  0
   10.8521    3.6852   16.1261 H   0  0  0  0  0
   12.2274    3.9420   14.0612 H   0  0  0  0  0
  1 18  2  0  0  0
  1  5  1  0  0  0
  1  2  1  0  0  0
  2  3  1  0  0  0
  3  4  1  0  0  0
  5  9  4  0  0  0
  5  6  4  0  0  0
  6  8  1  0  0  0
  6  7  4  0  0  0
  7 11  4  0  0  0
 11 12  1  0  0  0
 11  9  4  0  0  0
  9 10  1  0  0  0
 12 17  4  0  0  0
 12 13  4  0  0  0
 13 14  4  0  0  0
 14 15  4  0  0  0
 15 16  4  0  0  0
 16 17  4  0  0  0
  3 19  1  0  0  0
  3 20  1  0  0  0
  4 21  1  0  0  0
  4 22  1  0  0  0
  4 23  1  0  0  0
  8 24  1  0  0  0
  8 25  1  0  0  0
  8 26  1  0  0  0
 10 27  1  0  0  0
 10 28  1  0  0  0
 10 29  1  0  0  0
 13 30  1  0  0  0
 14 31  1  0  0  0
 15 32  1  0  0  0
 16 33  1  0  0  0
 17 34  1  0  0  0
M  END
$$$$
