### 
### Created by X-TOOL on Mon Sep 10 21:13:02 2018
### 

@<TRIPOS>MOLECULE
2x4o_ligand
  151   151     1     0     0
SMALL
GAST_HUCK


@<TRIPOS>ATOM
      1 N          22.6910   32.4980   44.7320 N.4       1 LYS         0.2379
      2 CA         23.8870   33.2080   45.1650 C.3       1 LYS         0.0650
      3 C          24.9120   33.4050   44.0440 C.2       1 LYS         0.2267
      4 O          25.1880   32.4790   43.2800 O.2       1 LYS        -0.3907
      5 CB         24.5470   32.4530   46.3140 C.3       1 LYS         0.0080
      6 CG         24.0100   32.8030   47.6810 C.3       1 LYS        -0.0410
      7 CD         24.9630   32.2910   48.7520 C.3       1 LYS        -0.0123
      8 CE         24.5430   32.7190   50.1430 C.3       1 LYS        -0.0354
      9 NZ         25.6310   32.4000   51.1200 N.4       1 LYS         0.2185
     10 N          25.4840   34.6100   43.9740 N.am      1 LEU        -0.2610
     11 CA         26.5440   34.9500   43.0210 C.3       1 LEU         0.1313
     12 C          27.8540   34.2300   43.2960 C.2       1 LEU         0.2040
     13 O          28.1530   33.8770   44.4390 O.2       1 LEU        -0.3944
     14 CB         26.8640   36.4370   43.1020 C.3       1 LEU        -0.0101
     15 CG         25.7710   37.4570   42.8730 C.3       1 LEU        -0.0425
     16 CD1        26.3770   38.8470   42.9740 C.3       1 LEU        -0.0625
     17 CD2        25.1510   37.2170   41.5160 C.3       1 LEU        -0.0625
     18 N          28.6630   34.0650   42.2550 N.am      1 THR        -0.2613
     19 CA         30.0070   33.5310   42.4360 C.3       1 THR         0.1567
     20 C          30.8590   34.5350   43.2080 C.2       1 THR         0.2090
     21 O          30.7550   35.7410   42.9870 O.2       1 THR        -0.3941
     22 CB         30.6770   33.1670   41.1000 C.3       1 THR         0.0924
     23 OG1        31.9360   32.5290   41.3560 O.3       1 THR        -0.3874
     24 CG2        30.9040   34.4000   40.2460 C.3       1 THR        -0.0346
     25 N          31.6860   34.0370   44.1380 N.am      1 PRO        -0.2498
     26 CA         32.5900   34.8700   44.9400 C.3       1 PRO         0.1338
     27 C          33.8860   35.2250   44.2150 C.2       1 PRO         0.2041
     28 O          34.6360   36.0760   44.6960 O.2       1 PRO        -0.3944
     29 CB         32.9030   33.9830   46.1530 C.3       1 PRO        -0.0104
     30 CG         31.9260   32.8310   46.0850 C.3       1 PRO        -0.0281
     31 CD         31.6410   32.6530   44.6300 C.3       1 PRO         0.0369
     32 N          34.1450   34.5880   43.0770 N.am      1 LEU        -0.2637
     33 CA         35.3890   34.8120   42.3380 C.3       1 LEU         0.1312
     34 C          35.5180   36.2230   41.7600 C.2       1 LEU         0.2039
     35 O          34.6210   37.0600   41.8970 O.2       1 LEU        -0.3944
     36 CB         35.5230   33.8070   41.1870 C.3       1 LEU        -0.0101
     37 CG         35.4930   32.3020   41.4810 C.3       1 LEU        -0.0425
     38 CD1        35.9280   31.5530   40.2360 C.3       1 LEU        -0.0625
     39 CD2        36.3730   31.9310   42.6730 C.3       1 LEU        -0.0625
     40 N          36.6530   36.4660   41.1080 N.am      1 CYS        -0.2629
     41 CA         36.9090   37.7170   40.3960 C.3       1 CYS         0.1396
     42 C          37.6070   37.4490   39.0630 C.2       1 CYS         0.2047
     43 O          38.7980   37.7190   38.9090 O.2       1 CYS        -0.3944
     44 CB         37.7520   38.6730   41.2510 C.3       1 CYS         0.0311
     45 SG         36.8240   39.6130   42.4970 S.3       1 CYS        -0.1735
     46 N          36.8640   36.9070   38.1050 N.am      1 VAL        -0.2634
     47 CA         37.4210   36.6500   36.7820 C.3       1 VAL         0.1333
     48 C          37.3700   37.9330   35.9550 C.2       1 VAL         0.2042
     49 O          36.4400   38.7250   36.0930 O.2       1 VAL        -0.3944
     50 CB         36.6670   35.5120   36.0520 C.3       1 VAL        -0.0063
     51 CG1        36.4920   34.3100   36.9800 C.3       1 VAL        -0.0584
     52 CG2        35.3200   35.9970   35.5430 C.3       1 VAL        -0.0584
     53 N          38.3740   38.1440   35.1100 N.am      1 THR        -0.2613
     54 CA         38.4550   39.3740   34.3230 C.3       1 THR         0.1564
     55 C          38.9450   39.1380   32.8940 C.2       1 THR         0.2059
     56 O          39.8510   38.3350   32.6590 O.2       1 THR        -0.3943
     57 CB         39.3340   40.4450   35.0280 C.3       1 THR         0.0924
     58 OG1        39.4660   41.5970   34.1870 O.3       1 THR        -0.3874
     59 CG2        40.7140   39.8980   35.3460 C.3       1 THR        -0.0346
     60 N          38.3240   39.8440   31.9480 N.am      1 LEU        -0.2694
     61 CA         38.6230   39.7230   30.5180 C.3       1 LEU         0.0946
     62 C          40.0820   40.0310   30.1490 C.2       1 LEU         0.0601
     63 O          40.4810   39.8770   28.9920 O.co2     1 LEU        -0.5666
     64 CB         37.6880   40.6360   29.7090 C.3       1 LEU        -0.0156
     65 CG         36.3860   40.0830   29.1100 C.3       1 LEU        -0.0431
     66 CD1        35.9670   38.7490   29.7110 C.3       1 LEU        -0.0625
     67 CD2        35.2640   41.1120   29.2320 C.3       1 LEU        -0.0625
     68 OXT        40.8980   40.4510   30.9710 O.co2     1 LEU        -0.5666
     69 H1         22.0581   32.4001   45.5104 H         1 LYS         0.2015
     70 H2         22.9474   31.5849   44.3906 H         1 LYS         0.2015
     71 H3         22.2399   33.0177   43.9955 H         1 LYS         0.2015
     72 H4         23.5795   34.2011   45.5245 H         1 LYS         0.1098
     73 H5         25.6237   32.6776   46.2997 H         1 LYS         0.0346
     74 H6         24.3949   31.3760   46.1502 H         1 LYS         0.0346
     75 H7         23.0229   32.3370   47.8166 H         1 LYS         0.0270
     76 H8         23.9148   33.8954   47.7680 H         1 LYS         0.0270
     77 H9         25.9695   32.6855   48.5487 H         1 LYS         0.0317
     78 H10        24.9847   31.1920   48.7109 H         1 LYS         0.0317
     79 H11        23.6262   32.1828   50.4292 H         1 LYS         0.0813
     80 H12        24.3517   33.8022   50.1499 H         1 LYS         0.0813
     81 H13        25.3474   32.6863   52.0439 H         1 LYS         0.1994
     82 H14        26.4716   32.8914   50.8592 H         1 LYS         0.1994
     83 H15        25.8067   31.4075   51.1150 H         1 LYS         0.1994
     84 H16        25.1718   35.3189   44.6065 H         1 LEU         0.1884
     85 H17        26.1959   34.6962   42.0089 H         1 LEU         0.0800
     86 H18        27.6458   36.6353   42.3540 H         1 LEU         0.0315
     87 H19        27.2652   36.6216   44.1095 H         1 LEU         0.0315
     88 H20        24.9955   37.3463   43.6452 H         1 LEU         0.0298
     89 H21        25.5935   39.6014   42.8095 H         1 LEU         0.0232
     90 H22        27.1617   38.9612   42.2117 H         1 LEU         0.0232
     91 H23        26.8143   38.9846   43.9739 H         1 LEU         0.0232
     92 H24        24.7244   36.2037   41.4819 H         1 LEU         0.0232
     93 H25        25.9220   37.3166   40.7378 H         1 LEU         0.0232
     94 H26        24.3552   37.9559   41.3406 H         1 LEU         0.0232
     95 H27        28.3467   34.3096   41.3384 H         1 THR         0.1884
     96 H28        29.9291   32.6113   43.0344 H         1 THR         0.0826
     97 H29        30.0235   32.4714   40.5531 H         1 THR         0.0639
     98 H30        32.3495   32.3043   40.5307 H         1 THR         0.2101
     99 H31        31.3832   34.1076   39.3000 H         1 THR         0.0257
    100 H32        31.5552   35.1042   40.7845 H         1 THR         0.0257
    101 H33        29.9383   34.8822   40.0341 H         1 THR         0.0257
    102 H34        32.0840   35.7970   45.2474 H         1 PRO         0.0802
    103 H35        32.7643   34.5480   47.0865 H         1 PRO         0.0313
    104 H36        33.9370   33.6117   46.0993 H         1 PRO         0.0313
    105 H37        31.0035   33.0732   46.6330 H         1 PRO         0.0287
    106 H38        32.3737   31.9187   46.5059 H         1 PRO         0.0287
    107 H39        32.4085   32.0315   44.1456 H         1 PRO         0.0524
    108 H40        30.6500   32.2036   44.4690 H         1 PRO         0.0524
    109 H41        33.4737   33.9401   42.7170 H         1 LEU         0.1883
    110 H42        36.2223   34.6553   43.0387 H         1 LEU         0.0800
    111 H43        36.4831   34.0156   40.6923 H         1 LEU         0.0315
    112 H44        34.6984   34.0113   40.4883 H         1 LEU         0.0315
    113 H45        34.4583   32.0156   41.7205 H         1 LEU         0.0298
    114 H46        35.9107   30.4711   40.4342 H         1 LEU         0.0232
    115 H47        36.9483   31.8592   39.9616 H         1 LEU         0.0232
    116 H48        35.2405   31.7853   39.4093 H         1 LEU         0.0232
    117 H49        36.0388   32.4857   43.5622 H         1 LEU         0.0232
    118 H50        37.4189   32.1896   42.4512 H         1 LEU         0.0232
    119 H51        36.2950   30.8506   42.8642 H         1 LEU         0.0232
    120 H52        37.3624   35.7611   41.1051 H         1 CYS         0.1884
    121 H53        35.9420   38.1990   40.1900 H         1 CYS         0.0808
    122 H54        38.2415   39.3914   40.5770 H         1 CYS         0.0422
    123 H55        38.5172   38.0792   41.7723 H         1 CYS         0.0422
    124 H56        37.4570   40.2098   43.0061 H         1 CYS         0.1019
    125 H57        35.9104   36.6721   38.2932 H         1 VAL         0.1883
    126 H58        38.4718   36.3468   36.8998 H         1 VAL         0.0802
    127 H59        37.2693   35.1971   35.1871 H         1 VAL         0.0343
    128 H60        35.9553   33.5109   36.4477 H         1 VAL         0.0234
    129 H61        35.9147   34.6120   37.8663 H         1 VAL         0.0234
    130 H62        37.4800   33.9421   37.2938 H         1 VAL         0.0234
    131 H63        35.4686   36.8608   34.8783 H         1 VAL         0.0234
    132 H64        34.6913   36.2941   36.3953 H         1 VAL         0.0234
    133 H65        34.8250   35.1873   34.9868 H         1 VAL         0.0234
    134 H66        39.0866   37.4495   35.0106 H         1 THR         0.1884
    135 H67        37.4343   39.7783   34.2536 H         1 THR         0.0826
    136 H68        38.8442   40.7401   35.9676 H         1 THR         0.0639
    137 H69        39.8753   41.3444   33.3678 H         1 THR         0.2101
    138 H70        41.3114   40.6765   35.8431 H         1 THR         0.0257
    139 H71        41.2116   39.5935   34.4134 H         1 THR         0.0257
    140 H72        40.6190   39.0277   36.0120 H         1 THR         0.0257
    141 H73        37.6157   40.4913   32.2296 H         1 LEU         0.1875
    142 H74        38.4232   38.6807   30.2287 H         1 LEU         0.0726
    143 H75        38.2798   41.0285   28.8689 H         1 LEU         0.0308
    144 H76        37.4022   41.4638   30.3745 H         1 LEU         0.0308
    145 H77        36.5675   39.9125   28.0386 H         1 LEU         0.0297
    146 H78        35.0320   38.4120   29.2396 H         1 LEU         0.0232
    147 H79        35.8099   38.8676   30.7932 H         1 LEU         0.0232
    148 H80        36.7561   38.0033   29.5345 H         1 LEU         0.0232
    149 H81        35.5912   42.0652   28.7913 H         1 LEU         0.0232
    150 H82        35.0195   41.2637   30.2937 H         1 LEU         0.0232
    151 H83        34.3733   40.7482   28.6989 H         1 LEU         0.0232
@<TRIPOS>BOND
     1    1    2 1  
     2    2    3 1  
     3    2    5 1  
     4    3    4 2  
     5    3   10 am 
     6    5    6 1  
     7    6    7 1  
     8    7    8 1  
     9    8    9 1  
    10   10   11 1  
    11   11   12 1  
    12   11   14 1  
    13   12   13 2  
    14   12   18 am 
    15   14   15 1  
    16   15   16 1  
    17   15   17 1  
    18   18   19 1  
    19   19   20 1  
    20   19   22 1  
    21   20   21 2  
    22   20   25 am 
    23   22   23 1  
    24   22   24 1  
    25   25   26 1  
    26   25   31 1  
    27   26   27 1  
    28   26   29 1  
    29   27   28 2  
    30   27   32 am 
    31   29   30 1  
    32   30   31 1  
    33   32   33 1  
    34   33   34 1  
    35   33   36 1  
    36   34   35 2  
    37   34   40 am 
    38   36   37 1  
    39   37   38 1  
    40   37   39 1  
    41   40   41 1  
    42   41   42 1  
    43   41   44 1  
    44   42   43 2  
    45   42   46 am 
    46   44   45 1  
    47   46   47 1  
    48   47   48 1  
    49   47   50 1  
    50   48   49 2  
    51   48   53 am 
    52   50   51 1  
    53   50   52 1  
    54   53   54 1  
    55   54   55 1  
    56   54   57 1  
    57   55   56 2  
    58   55   60 am 
    59   57   58 1  
    60   57   59 1  
    61   60   61 1  
    62   61   62 1  
    63   61   64 1  
    64   62   63 ar 
    65   62   68 ar 
    66   64   65 1  
    67   65   66 1  
    68   65   67 1  
    69    1   69 1  
    70    1   70 1  
    71    1   71 1  
    72    2   72 1  
    73    5   73 1  
    74    5   74 1  
    75    6   75 1  
    76    6   76 1  
    77    7   77 1  
    78    7   78 1  
    79    8   79 1  
    80    8   80 1  
    81    9   81 1  
    82    9   82 1  
    83    9   83 1  
    84   10   84 1  
    85   11   85 1  
    86   14   86 1  
    87   14   87 1  
    88   15   88 1  
    89   16   89 1  
    90   16   90 1  
    91   16   91 1  
    92   17   92 1  
    93   17   93 1  
    94   17   94 1  
    95   18   95 1  
    96   19   96 1  
    97   22   97 1  
    98   23   98 1  
    99   24   99 1  
   100   24  100 1  
   101   24  101 1  
   102   26  102 1  
   103   29  103 1  
   104   29  104 1  
   105   30  105 1  
   106   30  106 1  
   107   31  107 1  
   108   31  108 1  
   109   32  109 1  
   110   33  110 1  
   111   36  111 1  
   112   36  112 1  
   113   37  113 1  
   114   38  114 1  
   115   38  115 1  
   116   38  116 1  
   117   39  117 1  
   118   39  118 1  
   119   39  119 1  
   120   40  120 1  
   121   41  121 1  
   122   44  122 1  
   123   44  123 1  
   124   45  124 1  
   125   46  125 1  
   126   47  126 1  
   127   50  127 1  
   128   51  128 1  
   129   51  129 1  
   130   51  130 1  
   131   52  131 1  
   132   52  132 1  
   133   52  133 1  
   134   53  134 1  
   135   54  135 1  
   136   57  136 1  
   137   58  137 1  
   138   59  138 1  
   139   59  139 1  
   140   59  140 1  
   141   60  141 1  
   142   61  142 1  
   143   64  143 1  
   144   64  144 1  
   145   65  145 1  
   146   66  146 1  
   147   66  147 1  
   148   66  148 1  
   149   67  149 1  
   150   67  150 1  
   151   67  151 1  
@<TRIPOS>SUBSTRUCTURE
     1 LYS         1

