2x4o_ligand
  -I-interpret- 

152152  0  0  0  0  0  0  0  0999 V2000
   22.6910   32.4980   44.7320 N   0  3  0  0  0
   23.8870   33.2080   45.1650 C   0  0  0  0  0
   24.9120   33.4050   44.0440 C   0  0  0  0  0
   25.1880   32.4790   43.2800 O   0  0  0  0  0
   24.5470   32.4530   46.3140 C   0  0  0  0  0
   24.0100   32.8030   47.6810 C   0  0  0  0  0
   24.9630   32.2910   48.7520 C   0  0  0  0  0
   24.5430   32.7190   50.1430 C   0  0  0  0  0
   25.6310   32.4000   51.1200 N   0  3  0  0  0
   25.4840   34.6100   43.9740 N   0  0  0  0  0
   26.5440   34.9500   43.0210 C   0  0  0  0  0
   27.8540   34.2300   43.2960 C   0  0  0  0  0
   28.1530   33.8770   44.4390 O   0  0  0  0  0
   26.8640   36.4370   43.1020 C   0  0  0  0  0
   25.7710   37.4570   42.8730 C   0  0  0  0  0
   26.3770   38.8470   42.9740 C   0  0  0  0  0
   25.1510   37.2170   41.5160 C   0  0  0  0  0
   28.6630   34.0650   42.2550 N   0  0  0  0  0
   30.0070   33.5310   42.4360 C   0  0  0  0  0
   30.8590   34.5350   43.2080 C   0  0  0  0  0
   30.7550   35.7410   42.9870 O   0  0  0  0  0
   30.6770   33.1670   41.1000 C   0  0  0  0  0
   31.9360   32.5290   41.3560 O   0  0  0  0  0
   30.9040   34.4000   40.2460 C   0  0  0  0  0
   31.6860   34.0370   44.1380 N   0  0  0  0  0
   32.5900   34.8700   44.9400 C   0  0  0  0  0
   33.8860   35.2250   44.2150 C   0  0  0  0  0
   34.6360   36.0760   44.6960 O   0  0  0  0  0
   32.9030   33.9830   46.1530 C   0  0  0  0  0
   31.9260   32.8310   46.0850 C   0  0  0  0  0
   31.6410   32.6530   44.6300 C   0  0  0  0  0
   34.1450   34.5880   43.0770 N   0  0  0  0  0
   35.3890   34.8120   42.3380 C   0  0  0  0  0
   35.5180   36.2230   41.7600 C   0  0  0  0  0
   34.6210   37.0600   41.8970 O   0  0  0  0  0
   35.5230   33.8070   41.1870 C   0  0  0  0  0
   35.4930   32.3020   41.4810 C   0  0  0  0  0
   35.9280   31.5530   40.2360 C   0  0  0  0  0
   36.3730   31.9310   42.6730 C   0  0  0  0  0
   36.6530   36.4660   41.1080 N   0  0  0  0  0
   36.9090   37.7170   40.3960 C   0  0  0  0  0
   37.6070   37.4490   39.0630 C   0  0  0  0  0
   38.7980   37.7190   38.9090 O   0  0  0  0  0
   37.7520   38.6730   41.2510 C   0  0  0  0  0
   36.8240   39.6130   42.4970 S   0  0  0  0  0
   36.8640   36.9070   38.1050 N   0  0  0  0  0
   37.4210   36.6500   36.7820 C   0  0  0  0  0
   37.3700   37.9330   35.9550 C   0  0  0  0  0
   36.4400   38.7250   36.0930 O   0  0  0  0  0
   36.6670   35.5120   36.0520 C   0  0  0  0  0
   36.4920   34.3100   36.9800 C   0  0  0  0  0
   35.3200   35.9970   35.5430 C   0  0  0  0  0
   38.3740   38.1440   35.1100 N   0  0  0  0  0
   38.4550   39.3740   34.3230 C   0  0  0  0  0
   38.9450   39.1380   32.8940 C   0  0  0  0  0
   39.8510   38.3350   32.6590 O   0  0  0  0  0
   39.3340   40.4450   35.0280 C   0  0  0  0  0
   39.4660   41.5970   34.1870 O   0  0  0  0  0
   40.7140   39.8980   35.3460 C   0  0  0  0  0
   38.3240   39.8440   31.9480 N   0  0  0  0  0
   38.6230   39.7230   30.5180 C   0  0  0  0  0
   40.0820   40.0310   30.1490 C   0  0  0  0  0
   40.4810   39.8770   28.9920 O   0  0  0  0  0
   37.6880   40.6360   29.7090 C   0  0  0  0  0
   36.3860   40.0830   29.1100 C   0  0  0  0  0
   35.9670   38.7490   29.7110 C   0  0  0  0  0
   35.2640   41.1120   29.2320 C   0  0  0  0  0
   40.8980   40.4510   30.9710 O   0  0  0  0  0
   22.2541   33.0073   43.9638 H   0  0  0  0  0
   22.9476   31.5619   44.4185 H   0  0  0  0  0
   22.0368   32.4294   45.5116 H   0  0  0  0  0
   23.5613   34.1979   45.4846 H   0  0  0  0  0
   25.6036   32.7209   46.3074 H   0  0  0  0  0
   24.3498   31.3928   46.1549 H   0  0  0  0  0
   23.0326   32.3396   47.8151 H   0  0  0  0  0
   23.9174   33.8857   47.7669 H   0  0  0  0  0
   25.9512   32.7058   48.5533 H   0  0  0  0  0
   24.9594   31.2016   48.7166 H   0  0  0  0  0
   23.6357   32.1855   50.4263 H   0  0  0  0  0
   24.3557   33.7928   50.1492 H   0  0  0  0  0
   25.3430   32.6902   52.0545 H   0  0  0  0  0
   25.8079   31.3955   51.1140 H   0  0  0  0  0
   26.4810   32.8977   50.8550 H   0  0  0  0  0
   25.1656   35.3330   44.6191 H   0  0  0  0  0
   26.1595   34.6517   42.0457 H   0  0  0  0  0
   27.5723   36.6087   42.2915 H   0  0  0  0  0
   27.1724   36.5943   44.1355 H   0  0  0  0  0
   24.9860   37.3671   43.6238 H   0  0  0  0  0
   26.8100   38.9820   43.9651 H   0  0  0  0  0
   27.1544   38.9588   42.2182 H   0  0  0  0  0
   25.5997   39.5936   42.8109 H   0  0  0  0  0
   25.9157   37.3174   40.7457 H   0  0  0  0  0
   24.7298   36.2122   41.4830 H   0  0  0  0  0
   24.3619   37.9489   41.3439 H   0  0  0  0  0
   28.3403   34.3145   41.3201 H   0  0  0  0  0
   29.9230   32.6067   43.0075 H   0  0  0  0  0
   30.0152   32.4908   40.5588 H   0  0  0  0  0
   32.3538   32.3020   40.5221 H   0  0  0  0  0
   29.9464   34.8769   40.0368 H   0  0  0  0  0
   31.5493   35.0970   40.7807 H   0  0  0  0  0
   31.3788   34.1090   39.3090 H   0  0  0  0  0
   32.1313   35.8286   45.1826 H   0  0  0  0  0
   32.7986   34.5366   47.0861 H   0  0  0  0  0
   33.9340   33.6300   46.1302 H   0  0  0  0  0
   31.0185   33.0364   46.6527 H   0  0  0  0  0
   32.3373   31.9251   46.5303 H   0  0  0  0  0
   32.3496   31.9936   44.1289 H   0  0  0  0  0
   30.6909   32.1559   44.4340 H   0  0  0  0  0
   33.4603   33.9271   42.7098 H   0  0  0  0  0
   36.1853   34.6782   43.0702 H   0  0  0  0  0
   36.5183   33.9870   40.7807 H   0  0  0  0  0
   34.6442   33.9825   40.5664 H   0  0  0  0  0
   34.4748   32.0199   41.7488 H   0  0  0  0  0
   35.2461   31.7841   39.4177 H   0  0  0  0  0
   36.9390   31.8573   39.9651 H   0  0  0  0  0
   35.9104   30.4812   40.4336 H   0  0  0  0  0
   37.4042   32.2160   42.4643 H   0  0  0  0  0
   36.0216   32.4576   43.5603 H   0  0  0  0  0
   36.3190   30.8555   42.8420 H   0  0  0  0  0
   37.3765   35.7471   41.1051 H   0  0  0  0  0
   35.9471   38.1895   40.1970 H   0  0  0  0  0
   38.1887   39.4022   40.5686 H   0  0  0  0  0
   38.4711   38.0585   41.7927 H   0  0  0  0  0
   37.6592   40.4005   43.1688 H   0  0  0  0  0
   35.8913   36.6674   38.2970 H   0  0  0  0  0
   38.4552   36.3278   36.9033 H   0  0  0  0  0
   37.2611   35.2022   35.1923 H   0  0  0  0  0
   37.4716   33.9465   37.2902 H   0  0  0  0  0
   35.9199   34.6105   37.8578 H   0  0  0  0  0
   35.9601   33.5189   36.4514 H   0  0  0  0  0
   34.7158   36.3364   36.3844 H   0  0  0  0  0
   35.4717   36.8219   34.8468 H   0  0  0  0  0
   34.8096   35.1794   35.0339 H   0  0  0  0  0
   39.1008   37.4356   35.0086 H   0  0  0  0  0
   37.4345   39.7506   34.2529 H   0  0  0  0  0
   38.8443   40.7203   35.9621 H   0  0  0  0  0
   40.0096   42.2536   34.6286 H   0  0  0  0  0
   40.6184   39.0357   36.0059 H   0  0  0  0  0
   41.2060   39.5967   34.4212 H   0  0  0  0  0
   41.3049   40.6703   35.8385 H   0  0  0  0  0
   37.6015   40.5042   32.2353 H   0  0  0  0  0
   38.4587   38.6748   30.2683 H   0  0  0  0  0
   39.7617   39.5483   28.4477 H   0  0  0  0  0
   38.2806   40.9266   28.8416 H   0  0  0  0  0
   37.3561   41.3853   30.4277 H   0  0  0  0  0
   36.5840   39.8913   28.0554 H   0  0  0  0  0
   36.7497   38.0110   29.5355 H   0  0  0  0  0
   35.8117   38.8678   30.7833 H   0  0  0  0  0
   35.0405   38.4161   29.2431 H   0  0  0  0  0
   35.1000   41.3459   30.2839 H   0  0  0  0  0
   35.5446   42.0189   28.6963 H   0  0  0  0  0
   34.3494   40.7031   28.8026 H   0  0  0  0  0
  1  2  1  0  0  0
  2  3  1  0  0  0
  2  5  1  0  0  0
  3  4  2  0  0  0
  3 10  1  0  0  0
  5  6  1  0  0  0
  6  7  1  0  0  0
  7  8  1  0  0  0
  8  9  1  0  0  0
 10 11  1  0  0  0
 11 12  1  0  0  0
 11 14  1  0  0  0
 12 13  2  0  0  0
 12 18  1  0  0  0
 14 15  1  0  0  0
 15 16  1  0  0  0
 15 17  1  0  0  0
 18 19  1  0  0  0
 19 20  1  0  0  0
 19 22  1  0  0  0
 20 21  2  0  0  0
 20 25  1  0  0  0
 22 23  1  0  0  0
 22 24  1  0  0  0
 25 26  1  0  0  0
 25 31  1  0  0  0
 26 27  1  0  0  0
 26 29  1  0  0  0
 27 28  2  0  0  0
 27 32  1  0  0  0
 29 30  1  0  0  0
 30 31  1  0  0  0
 32 33  1  0  0  0
 33 34  1  0  0  0
 33 36  1  0  0  0
 34 35  2  0  0  0
 34 40  1  0  0  0
 36 37  1  0  0  0
 37 38  1  0  0  0
 37 39  1  0  0  0
 40 41  1  0  0  0
 41 42  1  0  0  0
 41 44  1  0  0  0
 42 43  2  0  0  0
 42 46  1  0  0  0
 44 45  1  0  0  0
 46 47  1  0  0  0
 47 48  1  0  0  0
 47 50  1  0  0  0
 48 49  2  0  0  0
 48 53  1  0  0  0
 50 51  1  0  0  0
 50 52  1  0  0  0
 53 54  1  0  0  0
 54 55  1  0  0  0
 54 57  1  0  0  0
 55 56  2  0  0  0
 55 60  1  0  0  0
 57 58  1  0  0  0
 57 59  1  0  0  0
 60 61  1  0  0  0
 61 62  1  0  0  0
 61 64  1  0  0  0
 62 63  1  0  0  0
 62 68  2  0  0  0
 64 65  1  0  0  0
 65 66  1  0  0  0
 65 67  1  0  0  0
  1 69  1  0  0  0
  1 70  1  0  0  0
  1 71  1  0  0  0
  2 72  1  0  0  0
  5 73  1  0  0  0
  5 74  1  0  0  0
  6 75  1  0  0  0
  6 76  1  0  0  0
  7 77  1  0  0  0
  7 78  1  0  0  0
  8 79  1  0  0  0
  8 80  1  0  0  0
  9 81  1  0  0  0
  9 82  1  0  0  0
  9 83  1  0  0  0
 10 84  1  0  0  0
 11 85  1  0  0  0
 14 86  1  0  0  0
 14 87  1  0  0  0
 15 88  1  0  0  0
 16 89  1  0  0  0
 16 90  1  0  0  0
 16 91  1  0  0  0
 17 92  1  0  0  0
 17 93  1  0  0  0
 17 94  1  0  0  0
 18 95  1  0  0  0
 19 96  1  0  0  0
 22 97  1  0  0  0
 23 98  1  0  0  0
 24 99  1  0  0  0
 24100  1  0  0  0
 24101  1  0  0  0
 26102  1  0  0  0
 29103  1  0  0  0
 29104  1  0  0  0
 30105  1  0  0  0
 30106  1  0  0  0
 31107  1  0  0  0
 31108  1  0  0  0
 32109  1  0  0  0
 33110  1  0  0  0
 36111  1  0  0  0
 36112  1  0  0  0
 37113  1  0  0  0
 38114  1  0  0  0
 38115  1  0  0  0
 38116  1  0  0  0
 39117  1  0  0  0
 39118  1  0  0  0
 39119  1  0  0  0
 40120  1  0  0  0
 41121  1  0  0  0
 44122  1  0  0  0
 44123  1  0  0  0
 45124  1  0  0  0
 46125  1  0  0  0
 47126  1  0  0  0
 50127  1  0  0  0
 51128  1  0  0  0
 51129  1  0  0  0
 51130  1  0  0  0
 52131  1  0  0  0
 52132  1  0  0  0
 52133  1  0  0  0
 53134  1  0  0  0
 54135  1  0  0  0
 57136  1  0  0  0
 58137  1  0  0  0
 59138  1  0  0  0
 59139  1  0  0  0
 59140  1  0  0  0
 60141  1  0  0  0
 61142  1  0  0  0
 63143  1  0  0  0
 64144  1  0  0  0
 64145  1  0  0  0
 65146  1  0  0  0
 66147  1  0  0  0
 66148  1  0  0  0
 66149  1  0  0  0
 67150  1  0  0  0
 67151  1  0  0  0
 67152  1  0  0  0
M  END
$$$$
