### 
### Created by X-TOOL on Wed Jan  1 15:39:38 2020
### 

@<TRIPOS>MOLECULE
5yfz_ligand
   60    63     1     0     0
SMALL
GAST_HUCK


@<TRIPOS>ATOM
      1 C4         20.7820   14.3390   97.0930 C.3       1 8UO        -0.0113
      2 C14        22.1110   14.9480   97.6600 C.3       1 8UO        -0.0861
      3 C5         21.0450   13.9260   95.6840 C.2       1 8UO         0.0050
      4 C6         21.3150   12.5490   95.2810 C.2       1 8UO         0.2879
      5 C8         20.0400   13.3270   99.1260 C.1       1 8UO         0.1037
      6 C13        20.9470   16.1190   94.0960 C.3       1 8UO        -0.0237
      7 C15        22.5110   16.3220   97.0890 C.3       1 8UO        -0.0762
      8 C16        19.5610   15.2720   97.1390 C.ar      1 8UO        -0.1010
      9 C20        18.4500   15.1940   96.2490 C.ar      1 8UO        -0.0457
     10 C19        17.3450   16.0760   96.3400 C.ar      1 8UO         0.0548
     11 C18        18.4340   17.1090   98.2330 C.ar      1 8UO         0.1378
     12 N11        21.4080   13.7120   93.4600 N.2       1 8UO        -0.2155
     13 C2         20.7700   11.8440   97.5430 C.2       1 8UO         0.2090
     14 N7         20.5590   10.7660   98.2970 N.2       1 8UO        -0.3612
     15 C3         20.4970   13.1120   97.9610 C.3       1 8UO         0.1410
     16 O1         21.3160   11.5660   96.2260 O.3       1 8UO        -0.1437
     17 C10        21.1340   14.6530   94.3870 C.2       1 8UO         0.0147
     18 O33        13.5700   16.8870   91.1270 O.co2     1 8UO        -0.5690
     19 C31        12.5660   16.7140   91.8650 C.2       1 8UO         0.0351
     20 O32        11.4580   17.2580   91.6390 O.co2     1 8UO        -0.5690
     21 C29        12.6800   15.8070   93.0780 C.3       1 8UO         0.0032
     22 C26        13.9540   16.0980   93.8840 C.3       1 8UO        -0.0259
     23 C25        13.7560   15.7680   95.3430 C.3       1 8UO        -0.0289
     24 C24        14.9040   16.3530   96.1550 C.3       1 8UO         0.0272
     25 C27        15.1600   15.3480   93.3640 C.3       1 8UO        -0.0289
     26 C28        16.4290   15.8980   94.0250 C.3       1 8UO         0.0272
     27 N23        16.2080   16.0650   95.4790 N.pl3     1 8UO        -0.3066
     28 C30        17.3700   17.0340   97.3580 C.ar      1 8UO         0.0064
     29 F21        18.4500   18.0190   99.2020 F         1 8UO        -0.1823
     30 C17        19.5060   16.2550   98.1340 C.ar      1 8UO        -0.0377
     31 C22        23.3470   14.0170   97.6290 C.3       1 8UO        -0.0762
     32 N9         19.6220   13.5190  100.1960 N.1       1 8UO        -0.3009
     33 N12        21.5260   12.4000   93.9620 N.pl3     1 8UO        -0.1617
     34 H1         21.8975   15.1204   98.7252 H         1 8UO         0.0120
     35 H2         21.0878   16.3001   93.0202 H         1 8UO         0.0396
     36 H3         21.6848   16.7030   94.6658 H         1 8UO         0.0396
     37 H4         19.9318   16.4245   94.3894 H         1 8UO         0.0396
     38 H5         23.4519   16.6522   97.5533 H         1 8UO         0.0219
     39 H6         21.7188   17.0538   97.3055 H         1 8UO         0.0219
     40 H7         22.6480   16.2410   96.0006 H         1 8UO         0.0219
     41 H8         18.4507   14.4338   95.4762 H         1 8UO         0.0601
     42 H9         20.7786    9.8497   97.9390 H         1 8UO         0.0744
     43 H10        19.4801   13.0332   97.5491 H         1 8UO         0.0724
     44 H11        12.7027   14.7604   92.7402 H         1 8UO         0.0433
     45 H12        11.8045   15.9646   93.7251 H         1 8UO         0.0433
     46 H13        14.1624   17.1747   93.7988 H         1 8UO         0.0320
     47 H14        13.7343   14.6759   95.4725 H         1 8UO         0.0288
     48 H15        12.8048   16.1974   95.6905 H         1 8UO         0.0288
     49 H16        14.9068   15.9028   97.1586 H         1 8UO         0.0513
     50 H17        14.7713   17.4415   96.2417 H         1 8UO         0.0513
     51 H18        15.2295   15.4766   92.2738 H         1 8UO         0.0288
     52 H19        15.0571   14.2789   93.6013 H         1 8UO         0.0288
     53 H20        16.6791   16.8723   93.5799 H         1 8UO         0.0513
     54 H21        17.2595   15.1957   93.8607 H         1 8UO         0.0513
     55 H22        16.5427   17.7268   97.4611 H         1 8UO         0.0649
     56 H23        20.3242   16.3442   98.8395 H         1 8UO         0.0626
     57 H24        23.0741   13.0316   98.0346 H         1 8UO         0.0219
     58 H25        24.1511   14.4546   98.2389 H         1 8UO         0.0219
     59 H26        23.6943   13.9030   96.5915 H         1 8UO         0.0219
     60 H27        21.7262   11.5337   93.4420 H         1 8UO         0.2634
@<TRIPOS>BOND
     1    1    2 1  
     2    1    3 1  
     3    8    1 1  
     4    1   15 1  
     5    2    7 1  
     6    2   31 1  
     7    3    4 2  
     8    3   17 1  
     9    4   16 1  
    10    4   33 1  
    11   15    5 1  
    12    5   32 3  
    13   17    6 1  
    14    9    8 ar 
    15    8   30 ar 
    16   10    9 ar 
    17   27   10 1  
    18   10   28 ar 
    19   28   11 ar 
    20   11   29 1  
    21   11   30 ar 
    22   17   12 2  
    23   12   33 1  
    24   13   14 2  
    25   15   13 1  
    26   13   16 1  
    27   19   18 ar 
    28   19   20 ar 
    29   21   19 1  
    30   22   21 1  
    31   23   22 1  
    32   22   25 1  
    33   24   23 1  
    34   24   27 1  
    35   25   26 1  
    36   26   27 1  
    37    2   34 1  
    38    6   35 1  
    39    6   36 1  
    40    6   37 1  
    41    7   38 1  
    42    7   39 1  
    43    7   40 1  
    44    9   41 1  
    45   14   42 1  
    46   15   43 1  
    47   21   44 1  
    48   21   45 1  
    49   22   46 1  
    50   23   47 1  
    51   23   48 1  
    52   24   49 1  
    53   24   50 1  
    54   25   51 1  
    55   25   52 1  
    56   26   53 1  
    57   26   54 1  
    58   28   55 1  
    59   30   56 1  
    60   31   57 1  
    61   31   58 1  
    62   31   59 1  
    63   33   60 1  
@<TRIPOS>SUBSTRUCTURE
     1 8UO         1

