5yfz_ligand
  -I-interpret- 

 60 63  0  0  0  0  0  0  0  0999 V2000
   20.7820   14.3390   97.0930 C   0  0  0  0  0
   22.1110   14.9480   97.6600 C   0  0  0  0  0
   21.0450   13.9260   95.6840 C   0  0  0  0  0
   21.3150   12.5490   95.2810 C   0  0  0  0  0
   20.0400   13.3270   99.1260 C   0  0  0  0  0
   20.9470   16.1190   94.0960 C   0  0  0  0  0
   22.5110   16.3220   97.0890 C   0  0  0  0  0
   19.5610   15.2720   97.1390 C   0  0  0  0  0
   18.4500   15.1940   96.2490 C   0  0  0  0  0
   17.3450   16.0760   96.3400 C   0  0  0  0  0
   18.4340   17.1090   98.2330 C   0  0  0  0  0
   21.4080   13.7120   93.4600 N   0  0  0  0  0
   20.7700   11.8440   97.5430 C   0  0  0  0  0
   20.5590   10.7660   98.2970 N   0  0  0  0  0
   20.4970   13.1120   97.9610 C   0  0  0  0  0
   21.3160   11.5660   96.2260 O   0  0  0  0  0
   21.1340   14.6530   94.3870 C   0  0  0  0  0
   13.5700   16.8870   91.1270 O   0  0  0  0  0
   12.5660   16.7140   91.8650 C   0  0  0  0  0
   11.4580   17.2580   91.6390 O   0  0  0  0  0
   12.6800   15.8070   93.0780 C   0  0  0  0  0
   13.9540   16.0980   93.8840 C   0  0  0  0  0
   13.7560   15.7680   95.3430 C   0  0  0  0  0
   14.9040   16.3530   96.1550 C   0  0  0  0  0
   15.1600   15.3480   93.3640 C   0  0  0  0  0
   16.4290   15.8980   94.0250 C   0  0  0  0  0
   16.2080   16.0650   95.4790 N   0  0  0  0  0
   17.3700   17.0340   97.3580 C   0  0  0  0  0
   18.4500   18.0190   99.2020 F   0  0  0  0  0
   19.5060   16.2550   98.1340 C   0  0  0  0  0
   23.3470   14.0170   97.6290 C   0  0  0  0  0
   19.6220   13.5190  100.1960 N   0  0  0  0  0
   21.5260   12.4000   93.9620 N   0  0  0  0  0
   21.8194   15.0839   98.7014 H   0  0  0  0  0
   19.9408   16.4205   94.3872 H   0  0  0  0  0
   21.6786   16.6965   94.6612 H   0  0  0  0  0
   21.0868   16.2972   93.0298 H   0  0  0  0  0
   23.3103   16.7475   97.6958 H   0  0  0  0  0
   22.8575   16.2006   96.0627 H   0  0  0  0  0
   21.6472   16.9865   97.1060 H   0  0  0  0  0
   18.4507   14.4296   95.4719 H   0  0  0  0  0
   20.1752   10.8679   99.2365 H   0  0  0  0  0
   20.0512   12.4291   97.2378 H   0  0  0  0  0
   14.3111   16.3849   91.4739 H   0  0  0  0  0
   12.7195   14.7738   92.7328 H   0  0  0  0  0
   11.8179   15.9827   93.7215 H   0  0  0  0  0
   14.1470   17.1645   93.7682 H   0  0  0  0  0
   13.7341   14.6858   95.4714 H   0  0  0  0  0
   12.8132   16.1931   95.6874 H   0  0  0  0  0
   14.9074   15.9024   97.1475 H   0  0  0  0  0
   14.7726   17.4320   96.2359 H   0  0  0  0  0
   15.2289   15.4757   92.2837 H   0  0  0  0  0
   15.0580   14.2886   93.5995 H   0  0  0  0  0
   16.6732   16.8649   93.5852 H   0  0  0  0  0
   17.2499   15.1992   93.8641 H   0  0  0  0  0
   16.5381   17.7306   97.4617 H   0  0  0  0  0
   20.3287   16.3447   98.8434 H   0  0  0  0  0
   23.6901   13.9049   96.6005 H   0  0  0  0  0
   24.1430   14.4517   98.2336 H   0  0  0  0  0
   23.0753   13.0410   98.0311 H   0  0  0  0  0
  1  2  1  0  0  0
  1  3  1  0  0  0
  8  1  1  0  0  0
  1 15  1  0  0  0
  2  7  1  0  0  0
  2 31  1  0  0  0
  3  4  4  0  0  0
  3 17  4  0  0  0
  4 16  1  0  0  0
  4 33  4  0  0  0
 15  5  1  0  0  0
  5 32  3  0  0  0
 17  6  1  0  0  0
  9  8  4  0  0  0
  8 30  4  0  0  0
 10  9  4  0  0  0
 27 10  1  0  0  0
 10 28  4  0  0  0
 28 11  4  0  0  0
 11 29  1  0  0  0
 11 30  4  0  0  0
 17 12  4  0  0  0
 12 33  4  0  0  0
 13 14  2  0  0  0
 15 13  1  0  0  0
 13 16  1  0  0  0
 19 18  1  0  0  0
 19 20  2  0  0  0
 21 19  1  0  0  0
 22 21  1  0  0  0
 23 22  1  0  0  0
 22 25  1  0  0  0
 24 23  1  0  0  0
 24 27  1  0  0  0
 25 26  1  0  0  0
 26 27  1  0  0  0
  2 34  1  0  0  0
  6 35  1  0  0  0
  6 36  1  0  0  0
  6 37  1  0  0  0
  7 38  1  0  0  0
  7 39  1  0  0  0
  7 40  1  0  0  0
  9 41  1  0  0  0
 14 42  1  0  0  0
 15 43  1  0  0  0
 18 44  1  0  0  0
 21 45  1  0  0  0
 21 46  1  0  0  0
 22 47  1  0  0  0
 23 48  1  0  0  0
 23 49  1  0  0  0
 24 50  1  0  0  0
 24 51  1  0  0  0
 25 52  1  0  0  0
 25 53  1  0  0  0
 26 54  1  0  0  0
 26 55  1  0  0  0
 28 56  1  0  0  0
 30 57  1  0  0  0
 31 58  1  0  0  0
 31 59  1  0  0  0
 31 60  1  0  0  0
M  END
$$$$
