6apr_ligand
  -I-interpret- 

111110  0  0  0  0  0  0  0  0999 V2000
   52.1939   64.0107  103.4933 O   0  0  0  0  0
   38.6450   71.5040  100.9170 C   0  0  0  0  0
   37.2650   72.0830  100.9250 C   0  0  0  0  0
   37.0180   72.8100   99.5870 C   0  0  0  0  0
   36.9240   73.0310  102.0570 C   0  0  0  0  0
   39.4620   70.8180  101.9670 C   0  0  0  0  0
   40.3590   71.3930  102.6390 O   0  0  0  0  0
   39.2070   69.5250  102.1030 N   0  0  0  0  0
   39.9690   68.6480  103.0430 C   0  0  0  0  0
   40.6500   67.6930  102.0640 C   0  0  0  0  0
   40.0140   67.3510  101.0410 O   0  0  0  0  0
   39.0310   68.1180  104.1200 C   0  0  0  0  0
   38.7020   66.6410  104.0640 C   0  0  0  0  0
   39.5410   68.5060  105.5010 C   0  0  0  0  0
   41.8990   67.3660  102.3230 N   0  0  0  0  0
   42.6160   66.4330  101.4010 C   0  0  0  0  0
   43.6010   65.6680  102.2770 C   0  0  0  0  0
   44.6980   66.1270  102.5800 O   0  0  0  0  0
   43.1070   67.0170  100.0750 C   0  0  0  0  0
   43.1930   68.5280   99.9680 C   0  0  0  0  0
   44.4100   66.4240   99.5600 C   0  0  0  0  0
   43.1110   64.5030  102.6260 N   0  0  0  0  0
   43.7320   63.4820  103.4710 C   0  0  0  0  0
   42.7990   63.2230  104.6480 C   0  0  0  0  0
   42.2430   64.5090  105.3000 C   0  0  0  0  0
   41.0760   64.1330  106.2450 C   0  0  0  0  0
   43.3490   65.2420  106.0850 C   0  0  0  0  0
   44.0900   62.2320  102.6410 C   0  0  0  0  0
   42.9050   61.7100  102.0370 O   0  0  0  0  0
   45.2090   62.3000  101.6400 C   0  0  0  0  0
   46.5140   62.5680  102.4030 C   0  0  0  0  0
   46.8060   63.7310  102.5660 O   0  0  0  0  0
   47.1900   61.4930  102.7750 N   0  0  0  0  0
   48.6310   61.4290  103.0860 C   0  0  0  0  0
   49.4080   61.4180  101.7700 C   0  0  0  0  0
   49.8910   60.4230  101.2350 O   0  0  0  0  0
   48.9840   60.2680  103.9870 C   0  0  0  0  0
   49.4570   62.6240  101.2340 N   0  0  0  0  0
   50.1240   62.9700   99.9680 C   0  0  0  0  0
   49.3160   63.8340   99.0640 C   0  0  0  0  0
   48.1780   63.4160   98.1560 C   0  0  0  0  0
   47.6090   61.9960   98.3640 C   0  0  0  0  0
   46.9690   64.3630   98.4550 C   0  0  0  0  0
   51.4780   63.5320  100.5100 C   0  0  0  0  0
   52.3740   63.5500   99.3980 O   0  0  0  0  0
   51.4450   64.7730  101.3700 C   0  0  0  0  0
   52.4890   64.6840  102.4700 C   0  0  0  0  0
   53.5890   65.2100  102.4450 O   0  0  0  0  0
   51.3096   63.6504  103.3939 H   0  0  0  0  0
   39.2214   72.4239  100.8185 H   0  0  0  0  0
   38.4788   70.6619  100.2451 H   0  0  0  0  0
   36.6139   71.2222  101.0774 H   0  0  0  0  0
   35.9707   73.1052   99.5233 H   0  0  0  0  0
   37.6504   73.6962   99.5343 H   0  0  0  0  0
   37.2590   72.1405   98.7613 H   0  0  0  0  0
   37.5570   73.9160  101.9912 H   0  0  0  0  0
   35.8772   73.3249  101.9802 H   0  0  0  0  0
   37.0934   72.5316  103.0109 H   0  0  0  0  0
   38.4608   69.1116  101.5438 H   0  0  0  0  0
   40.7383   69.0849  103.6798 H   0  0  0  0  0
   38.0778   68.6023  103.9080 H   0  0  0  0  0
   38.2222   66.4128  103.1123 H   0  0  0  0  0
   39.6206   66.0617  104.1574 H   0  0  0  0  0
   38.0273   66.3891  104.8822 H   0  0  0  0  0
   40.5338   68.0824  105.6525 H   0  0  0  0  0
   39.5927   69.5922  105.5759 H   0  0  0  0  0
   38.8603   68.1202  106.2599 H   0  0  0  0  0
   42.3719   67.7450  103.1434 H   0  0  0  0  0
   41.9282   65.7222  100.9429 H   0  0  0  0  0
   42.2809   66.7040   99.4365 H   0  0  0  0  0
   42.2045   68.9590  100.1266 H   0  0  0  0  0
   43.8812   68.9059  100.7241 H   0  0  0  0  0
   43.5549   68.8007   98.9767 H   0  0  0  0  0
   45.1999   66.5957  100.2912 H   0  0  0  0  0
   44.2837   65.3526   99.4045 H   0  0  0  0  0
   44.6767   66.9004   98.6166 H   0  0  0  0  0
   42.1835   64.2811  102.2643 H   0  0  0  0  0
   44.6860   63.8172  103.8780 H   0  0  0  0  0
   43.3750   62.6964  105.4089 H   0  0  0  0  0
   41.9479   62.6573  104.2690 H   0  0  0  0  0
   41.8816   65.1792  104.5201 H   0  0  0  0  0
   40.2897   63.6420  105.6717 H   0  0  0  0  0
   41.4399   63.4566  107.0184 H   0  0  0  0  0
   40.6796   65.0366  106.7080 H   0  0  0  0  0
   43.7329   64.5868  106.8669 H   0  0  0  0  0
   44.1575   65.5113  105.4054 H   0  0  0  0  0
   42.9358   66.1443  106.5357 H   0  0  0  0  0
   44.5204   61.5661  103.3890 H   0  0  0  0  0
   43.1267   60.9320  101.5202 H   0  0  0  0  0
   45.0228   63.0980  100.9213 H   0  0  0  0  0
   45.2802   61.3610  101.0911 H   0  0  0  0  0
   46.6632   60.6232  102.8546 H   0  0  0  0  0
   48.9139   62.3116  103.6596 H   0  0  0  0  0
   48.4431   60.3629  104.9286 H   0  0  0  0  0
   48.7059   59.3337  103.4994 H   0  0  0  0  0
   50.0567   60.2730  104.1806 H   0  0  0  0  0
   48.9938   63.3791  101.7396 H   0  0  0  0  0
   50.2751   62.1477   99.2686 H   0  0  0  0  0
   50.0672   64.1389   98.3354 H   0  0  0  0  0
   48.7922   64.4625   99.7842 H   0  0  0  0  0
   48.6010   63.4578   97.1523 H   0  0  0  0  0
   48.3994   61.2624   98.2052 H   0  0  0  0  0
   47.2258   61.9048   99.3803 H   0  0  0  0  0
   46.8015   61.8218   97.6528 H   0  0  0  0  0
   46.6802   64.2621   99.5012 H   0  0  0  0  0
   47.2588   65.3945   98.2546 H   0  0  0  0  0
   46.1287   64.0899   97.8168 H   0  0  0  0  0
   51.8442   62.8653  101.2907 H   0  0  0  0  0
   53.2262   63.8897   99.6807 H   0  0  0  0  0
   50.4582   64.8638  101.8240 H   0  0  0  0  0
   51.6589   65.6418  100.7474 H   0  0  0  0  0
 38 35  1  0  0  0
 47  1  1  0  0  0
  9  8  1  0  0  0
  9 12  1  0  0  0
 10  9  1  0  0  0
 10 11  2  0  0  0
 12 14  1  0  0  0
 12 13  1  0  0  0
 16 15  1  0  0  0
 16 19  1  0  0  0
 17 16  1  0  0  0
 17 18  2  0  0  0
 19 21  1  0  0  0
 19 20  1  0  0  0
 15 10  1  0  0  0
 34 33  1  0  0  0
 34 37  1  0  0  0
 35 34  1  0  0  0
 35 36  2  0  0  0
  2  3  1  0  0  0
  6  2  1  0  0  0
  3  4  1  0  0  0
  3  5  1  0  0  0
  6  7  2  0  0  0
  8  6  1  0  0  0
 22 17  1  0  0  0
 23 22  1  0  0  0
 23 24  1  0  0  0
 28 23  1  0  0  0
 24 25  1  0  0  0
 25 26  1  0  0  0
 25 27  1  0  0  0
 28 29  1  0  0  0
 30 28  1  0  0  0
 31 30  1  0  0  0
 31 32  2  0  0  0
 33 31  1  0  0  0
 39 38  1  0  0  0
 39 40  1  0  0  0
 44 39  1  0  0  0
 40 41  1  0  0  0
 41 42  1  0  0  0
 41 43  1  0  0  0
 44 45  1  0  0  0
 46 44  1  0  0  0
 46 47  1  0  0  0
 47 48  2  0  0  0
  1 49  1  0  0  0
  2 50  1  0  0  0
  2 51  1  0  0  0
  3 52  1  0  0  0
  4 53  1  0  0  0
  4 54  1  0  0  0
  4 55  1  0  0  0
  5 56  1  0  0  0
  5 57  1  0  0  0
  5 58  1  0  0  0
  8 59  1  0  0  0
  9 60  1  0  0  0
 12 61  1  0  0  0
 13 62  1  0  0  0
 13 63  1  0  0  0
 13 64  1  0  0  0
 14 65  1  0  0  0
 14 66  1  0  0  0
 14 67  1  0  0  0
 15 68  1  0  0  0
 16 69  1  0  0  0
 19 70  1  0  0  0
 20 71  1  0  0  0
 20 72  1  0  0  0
 20 73  1  0  0  0
 21 74  1  0  0  0
 21 75  1  0  0  0
 21 76  1  0  0  0
 22 77  1  0  0  0
 23 78  1  0  0  0
 24 79  1  0  0  0
 24 80  1  0  0  0
 25 81  1  0  0  0
 26 82  1  0  0  0
 26 83  1  0  0  0
 26 84  1  0  0  0
 27 85  1  0  0  0
 27 86  1  0  0  0
 27 87  1  0  0  0
 28 88  1  0  0  0
 29 89  1  0  0  0
 30 90  1  0  0  0
 30 91  1  0  0  0
 33 92  1  0  0  0
 34 93  1  0  0  0
 37 94  1  0  0  0
 37 95  1  0  0  0
 37 96  1  0  0  0
 38 97  1  0  0  0
 39 98  1  0  0  0
 40 99  1  0  0  0
 40100  1  0  0  0
 41101  1  0  0  0
 42102  1  0  0  0
 42103  1  0  0  0
 42104  1  0  0  0
 43105  1  0  0  0
 43106  1  0  0  0
 43107  1  0  0  0
 44108  1  0  0  0
 45109  1  0  0  0
 46110  1  0  0  0
 46111  1  0  0  0
M  END
$$$$
