### 
### Created by X-TOOL on Mon Sep 10 21:12:44 2018
### 

@<TRIPOS>MOLECULE
6apr_ligand
  110   109     1     0     0
SMALL
GAST_HUCK


@<TRIPOS>ATOM
      1 O1         52.1939   64.0107  103.4933 O.co2     1 STA        -0.5689
      2 H1         39.2764   72.3532  100.6166 H         1 IVA         0.0505
      3 H2         38.6082   70.7676  100.1007 H         1 IVA         0.0505
      4 H3         36.5660   71.2366  100.9960 H         1 IVA         0.0320
      5 H4         36.0051   73.2390   99.5843 H         1 IVA         0.0234
      6 H5         37.1152   72.0943   98.7574 H         1 IVA         0.0234
      7 H6         37.7575   73.6152   99.4652 H         1 IVA         0.0234
      8 H7         37.0946   72.5281  103.0203 H         1 IVA         0.0234
      9 H8         35.8677   73.3284  101.9807 H         1 IVA         0.0234
     10 H9         37.5622   73.9246  101.9918 H         1 IVA         0.0234
     11 H10        38.4754   69.1197  101.5548 H         1 VAL         0.1883
     12 H11        40.7501   69.2236  103.5612 H         1 VAL         0.0802
     13 H12        38.0756   68.6425  103.9710 H         1 VAL         0.0343
     14 H13        38.0211   66.3855  104.8893 H         1 VAL         0.0234
     15 H14        39.6282   66.0552  104.1582 H         1 VAL         0.0234
     16 H15        38.2176   66.4094  103.1040 H         1 VAL         0.0234
     17 H16        39.7729   69.5811  105.5175 H         1 VAL         0.0234
     18 H17        40.4502   67.9312  105.7310 H         1 VAL         0.0234
     19 H18        38.7683   68.2861  106.2524 H         1 VAL         0.0234
     20 H19        42.3626   67.7376  103.1274 H         1 VAL         0.1883
     21 H20        41.8682   65.6899  101.0872 H         1 VAL         0.0802
     22 H21        42.3355   66.7188   99.3499 H         1 VAL         0.0343
     23 H22        43.5581   68.8045   98.9679 H         1 VAL         0.0234
     24 H23        43.8873   68.9107  100.7305 H         1 VAL         0.0234
     25 H24        42.1960   68.9643  100.1279 H         1 VAL         0.0234
     26 H25        44.3665   65.3271   99.6298 H         1 VAL         0.0234
     27 H26        45.2479   66.7970  100.1672 H         1 VAL         0.0234
     28 H27        44.5577   66.7190   98.5107 H         1 VAL         0.0234
     29 H28        42.2016   64.2854  102.2714 H         1 STA         0.1856
     30 H29        44.6734   63.8851  103.8726 H         1 STA         0.0583
     31 H30        43.3537   62.6590  105.4123 H         1 STA         0.0291
     32 H31        41.9505   62.6206  104.2915 H         1 STA         0.0291
     33 H32        41.8665   65.1768  104.5112 H         1 STA         0.0296
     34 H33        40.6750   65.0442  106.7130 H         1 STA         0.0232
     35 H34        41.4420   63.4503  107.0260 H         1 STA         0.0232
     36 H35        40.2817   63.6374  105.6676 H         1 STA         0.0232
     37 H36        44.1713   65.5032  105.4026 H         1 STA         0.0232
     38 H37        43.7286   64.5864  106.8825 H         1 STA         0.0232
     39 H38        42.9363   66.1594  106.5299 H         1 STA         0.0232
     40 H39        44.4224   61.4878  103.3796 H         1 STA         0.0642
     41 H40        43.1244   60.9401  101.5256 H         1 STA         0.2101
     42 H41        45.0210   63.1144  100.9249 H         1 STA         0.0529
     43 H42        45.2831   61.3458  101.0978 H         1 STA         0.0529
     44 H43        46.6736   60.6402  102.8530 H         1 ALA         0.1882
     45 H44        48.8997   62.3481  103.6274 H         1 ALA         0.0797
     46 H45        50.0664   60.2720  104.1831 H         1 ALA         0.0277
     47 H46        48.7038   59.3244  103.4960 H         1 ALA         0.0277
     48 H47        48.4388   60.3626  104.9377 H         1 ALA         0.0277
     49 H48        49.0029   63.3643  101.7297 H         1 STA         0.1855
     50 H49        50.3293   62.0500   99.4011 H         1 STA         0.0583
     51 H50        50.0514   64.3025   98.3934 H         1 STA         0.0291
     52 H51        48.8811   64.5995   99.7234 H         1 STA         0.0291
     53 H52        48.5100   63.5196   97.1125 H         1 STA         0.0296
     54 H53        46.7940   61.8189   97.6468 H         1 STA         0.0232
     55 H54        47.2218   61.9027   99.3894 H         1 STA         0.0232
     56 H55        48.4057   61.2546   98.2039 H         1 STA         0.0232
     57 H56        47.2836   65.4097   98.3306 H         1 STA         0.0232
     58 H57        46.6252   64.2038   99.4877 H         1 STA         0.0232
     59 H58        46.1483   64.1414   97.7570 H         1 STA         0.0232
     60 H59        51.8632   62.7591  101.1914 H         1 STA         0.0635
     61 H60        53.2174   63.8861   99.6777 H         1 STA         0.2100
     62 H61        50.4481   64.8728  101.8240 H         1 STA         0.0456
     63 H62        51.6526   65.6533  100.7439 H         1 STA         0.0456
     64 CA         38.6450   71.5040  100.9170 C.3       1 IVA         0.0397
     65 CB         37.2650   72.0830  100.9250 C.3       1 IVA        -0.0298
     66 CG1        37.0180   72.8100   99.5870 C.3       1 IVA        -0.0606
     67 CG2        36.9240   73.0310  102.0570 C.3       1 IVA        -0.0606
     68 C          39.4620   70.8180  101.9670 C.2       1 IVA         0.1785
     69 O          40.3590   71.3930  102.6390 O.2       1 IVA        -0.3969
     70 N          39.2070   69.5250  102.1030 N.am      1 VAL        -0.2654
     71 CA         39.9690   68.6480  103.0430 C.3       1 VAL         0.1332
     72 C          40.6500   67.6930  102.0640 C.2       1 VAL         0.2042
     73 O          40.0140   67.3510  101.0410 O.2       1 VAL        -0.3944
     74 CB         39.0310   68.1180  104.1200 C.3       1 VAL        -0.0063
     75 CG1        38.7020   66.6410  104.0640 C.3       1 VAL        -0.0584
     76 CG2        39.5410   68.5060  105.5010 C.3       1 VAL        -0.0584
     77 N          41.8990   67.3660  102.3230 N.am      1 VAL        -0.2635
     78 CA         42.6160   66.4330  101.4010 C.3       1 VAL         0.1331
     79 C          43.6010   65.6680  102.2770 C.2       1 VAL         0.2022
     80 O          44.6980   66.1270  102.5800 O.2       1 VAL        -0.3945
     81 CB         43.1070   67.0170  100.0750 C.3       1 VAL        -0.0063
     82 CG1        43.1930   68.5280   99.9680 C.3       1 VAL        -0.0584
     83 CG2        44.4100   66.4240   99.5600 C.3       1 VAL        -0.0584
     84 N          43.1110   64.5030  102.6260 N.am      1 STA        -0.2793
     85 CA         43.7320   63.4820  103.4710 C.3       1 STA         0.0703
     86 CB         42.7990   63.2230  104.6480 C.3       1 STA        -0.0250
     87 CG         42.2430   64.5090  105.3000 C.3       1 STA        -0.0446
     88 CD1        41.0760   64.1330  106.2450 C.3       1 STA        -0.0626
     89 CD2        43.3490   65.2420  106.0850 C.3       1 STA        -0.0626
     90 CH         44.0900   62.2320  102.6410 C.3       1 STA         0.0947
     91 OH         42.9050   61.7100  102.0370 O.3       1 STA        -0.3872
     92 CM         45.2090   62.3000  101.6400 C.3       1 STA         0.0655
     93 C          46.5140   62.5680  102.4030 C.2       1 STA         0.1808
     94 O          46.8060   63.7310  102.5660 O.2       1 STA        -0.3968
     95 N          47.1900   61.4930  102.7750 N.am      1 ALA        -0.2658
     96 CA         48.6310   61.4290  103.0860 C.3       1 ALA         0.1280
     97 C          49.4080   61.4180  101.7700 C.2       1 ALA         0.2017
     98 O          49.8910   60.4230  101.2350 O.2       1 ALA        -0.3945
     99 CB         48.9840   60.2680  103.9870 C.3       1 ALA        -0.0244
    100 N          49.4570   62.6240  101.2340 N.am      1 STA        -0.2794
    101 CA         50.1240   62.9700   99.9680 C.3       1 STA         0.0697
    102 CB         49.3160   63.8340   99.0640 C.3       1 STA        -0.0250
    103 CG         48.1780   63.4160   98.1560 C.3       1 STA        -0.0446
    104 CD1        47.6090   61.9960   98.3640 C.3       1 STA        -0.0626
    105 CD2        46.9690   64.3630   98.4550 C.3       1 STA        -0.0626
    106 CH         51.4780   63.5320  100.5100 C.3       1 STA         0.0894
    107 OH         52.3740   63.5500   99.3980 O.3       1 STA        -0.3878
    108 CM         51.4450   64.7730  101.3700 C.3       1 STA         0.0284
    109 C          52.4890   64.6840  102.4700 C.2       1 STA         0.0373
    110 O          53.5890   65.2100  102.4450 O.co2     1 STA        -0.5689
@<TRIPOS>BOND
     1  100   97 am 
     2  109    1 ar 
     3   64    2 1  
     4   64    3 1  
     5   65    4 1  
     6   66    5 1  
     7   66    6 1  
     8   66    7 1  
     9   67    8 1  
    10   67    9 1  
    11   67   10 1  
    12   70   11 1  
    13   71   12 1  
    14   74   13 1  
    15   75   14 1  
    16   75   15 1  
    17   75   16 1  
    18   76   17 1  
    19   76   18 1  
    20   76   19 1  
    21   77   20 1  
    22   78   21 1  
    23   81   22 1  
    24   82   23 1  
    25   82   24 1  
    26   82   25 1  
    27   83   26 1  
    28   83   27 1  
    29   83   28 1  
    30   84   29 1  
    31   85   30 1  
    32   86   31 1  
    33   86   32 1  
    34   87   33 1  
    35   88   34 1  
    36   88   35 1  
    37   88   36 1  
    38   89   37 1  
    39   89   38 1  
    40   89   39 1  
    41   90   40 1  
    42   91   41 1  
    43   92   42 1  
    44   92   43 1  
    45   95   44 1  
    46   96   45 1  
    47   99   46 1  
    48   99   47 1  
    49   99   48 1  
    50  100   49 1  
    51  101   50 1  
    52  102   51 1  
    53  102   52 1  
    54  103   53 1  
    55  104   54 1  
    56  104   55 1  
    57  104   56 1  
    58  105   57 1  
    59  105   58 1  
    60  105   59 1  
    61  106   60 1  
    62  107   61 1  
    63  108   62 1  
    64  108   63 1  
    65   71   70 1  
    66   71   74 1  
    67   72   71 1  
    68   72   73 2  
    69   74   76 1  
    70   74   75 1  
    71   78   77 1  
    72   78   81 1  
    73   79   78 1  
    74   79   80 2  
    75   81   83 1  
    76   81   82 1  
    77   77   72 am 
    78   96   95 1  
    79   96   99 1  
    80   97   96 1  
    81   97   98 2  
    82   64   65 1  
    83   68   64 1  
    84   65   66 1  
    85   65   67 1  
    86   68   69 2  
    87   70   68 am 
    88   84   79 am 
    89   85   84 1  
    90   85   86 1  
    91   90   85 1  
    92   86   87 1  
    93   87   88 1  
    94   87   89 1  
    95   90   91 1  
    96   92   90 1  
    97   93   92 1  
    98   93   94 2  
    99   95   93 am 
   100  101  100 1  
   101  101  102 1  
   102  106  101 1  
   103  102  103 1  
   104  103  104 1  
   105  103  105 1  
   106  106  107 1  
   107  108  106 1  
   108  108  109 1  
   109  109  110 ar 
@<TRIPOS>SUBSTRUCTURE
     1 STA         1

