4u45_ligand
  -I-interpret- 

 31 34  0  0  0  0  0  0  0  0999 V2000
  -21.3570    8.8040  -16.1800 C   0  0  0  0  0
  -22.2480    7.7620  -15.9890 C   0  0  0  0  0
  -22.5140    6.9180  -17.0620 C   0  0  0  0  0
  -26.2420    2.3540  -16.6190 C   0  0  0  0  0
  -24.3230    5.4610  -16.0290 C   0  0  0  0  0
  -25.0510    4.2440  -16.1960 C   0  0  0  0  0
  -25.1760    3.1890  -17.0880 C   0  0  0  0  0
  -26.7480    2.8740  -15.4430 C   0  0  0  0  0
  -20.7300    9.0410  -17.3350 N   0  0  0  0  0
  -21.8810    7.1570  -18.2760 C   0  0  0  0  0
  -21.0000    8.2190  -18.3540 C   0  0  0  0  0
  -23.3740    5.7980  -16.9580 N   0  0  0  0  0
  -26.0410    4.0280  -15.1730 N   0  0  0  0  0
  -26.2800    4.8860  -14.1200 N   0  0  0  0  0
  -25.5060    5.9740  -14.1390 C   0  0  0  0  0
  -24.5570    6.2960  -15.0200 N   0  0  0  0  0
  -26.7640    1.1740  -17.2520 C   0  0  0  0  0
  -27.8020    0.3710  -16.8070 C   0  0  0  0  0
  -27.9500   -0.6180  -17.6920 N   0  0  0  0  0
  -27.0620   -0.5310  -18.7040 N   0  0  0  0  0
  -26.3440    0.5550  -18.4440 C   0  0  0  0  0
  -21.1557    9.4688  -15.3400 H   0  0  0  0  0
  -22.7285    7.6070  -15.0230 H   0  0  0  0  0
  -24.5738    3.0252  -17.9817 H   0  0  0  0  0
  -27.5536    2.4523  -14.8420 H   0  0  0  0  0
  -22.0740    6.5245  -19.1425 H   0  0  0  0  0
  -20.4950    8.3970  -19.3034 H   0  0  0  0  0
  -23.2677    5.1187  -17.7115 H   0  0  0  0  0
  -25.6702    6.6893  -13.3331 H   0  0  0  0  0
  -28.3897    0.5194  -15.9011 H   0  0  0  0  0
  -25.5327    0.9206  -19.0735 H   0  0  0  0  0
  2  1  4  0  0  0
  1  9  4  0  0  0
  3  2  4  0  0  0
  3 10  4  0  0  0
 12  3  1  0  0  0
  7  4  4  0  0  0
  4  8  4  0  0  0
  4 17  1  0  0  0
  6  5  4  0  0  0
  5 12  1  0  0  0
  5 16  4  0  0  0
  6  7  4  0  0  0
  6 13  4  0  0  0
  8 13  4  0  0  0
  9 11  4  0  0  0
 10 11  4  0  0  0
 13 14  4  0  0  0
 14 15  4  0  0  0
 15 16  4  0  0  0
 17 18  4  0  0  0
 17 21  4  0  0  0
 18 19  4  0  0  0
 19 20  4  0  0  0
 20 21  4  0  0  0
  1 22  1  0  0  0
  2 23  1  0  0  0
  7 24  1  0  0  0
  8 25  1  0  0  0
 10 26  1  0  0  0
 11 27  1  0  0  0
 12 28  1  0  0  0
 15 29  1  0  0  0
 18 30  1  0  0  0
 21 31  1  0  0  0
M  END
$$$$
