2kdh_ligand
  -I-interpret- 

 51 54  0  0  0  0  0  0  0  0999 V2000
    9.7290    8.0200  -10.4520 O   0  0  0  0  0
    8.9990    8.9490   -9.7740 C   0  0  0  0  0
    7.9120    9.6100  -10.4460 C   0  0  0  0  0
    7.6290    9.2950  -11.7470 O   0  0  0  0  0
    7.1120   10.6050   -9.7640 C   0  0  0  0  0
    6.0910   11.2100  -10.4360 O   0  0  0  0  0
    7.4070   10.9400   -8.3900 C   0  0  0  0  0
    8.4910   10.2690   -7.7060 C   0  0  0  0  0
    8.7190   10.6120   -6.3660 C   0  0  0  0  0
    9.9450    9.8100   -4.3260 C   0  0  0  0  0
   10.3130    8.7170   -3.4590 C   0  0  0  0  0
   11.0250    8.9880   -2.2410 C   0  0  0  0  0
   11.3170   10.3370   -1.8390 C   0  0  0  0  0
   10.9140   11.4400   -2.6870 C   0  0  0  0  0
   10.1670   11.1920   -3.8980 C   0  0  0  0  0
    9.4390   11.9810   -6.1990 C   0  0  0  0  0
   10.6850   12.5270   -8.1650 C   0  0  0  0  0
   11.7280   12.1100   -8.9890 C   0  0  0  0  0
   12.2010   12.9950  -10.0380 C   0  0  0  0  0
   12.3270   10.8120   -8.7970 C   0  0  0  0  0
    9.6290   12.2730   -4.6760 C   0  0  0  0  0
    9.3890    9.5430   -5.5730 O   0  0  0  0  0
   11.4310    7.9510   -1.4500 O   0  0  0  0  0
   11.2420   12.7150   -2.3360 O   0  0  0  0  0
    9.2990    9.2780   -8.4010 C   0  0  0  0  0
   10.7100   12.0110   -6.8960 O   0  0  0  0  0
    9.8220   13.3070   -8.5880 O   0  0  0  0  0
   13.3890   10.3790   -9.6690 C   0  0  0  0  0
   13.9740    9.1490   -9.5270 O   0  0  0  0  0
   13.8560   11.2520  -10.7190 C   0  0  0  0  0
   14.8570   10.8430  -11.5490 O   0  0  0  0  0
   13.2700   12.5660  -10.9030 C   0  0  0  0  0
   13.7520   13.3690  -11.8980 O   0  0  0  0  0
   10.4129    7.6698   -9.8765 H   0  0  0  0  0
    6.8825    9.8189  -12.0468 H   0  0  0  0  0
    5.6570   11.8402   -9.8563 H   0  0  0  0  0
    6.8158   11.6946   -7.8712 H   0  0  0  0  0
    7.7198   10.7214   -5.9444 H   0  0  0  0  0
   10.0526    7.6929   -3.7263 H   0  0  0  0  0
   11.8387   10.5287   -0.9014 H   0  0  0  0  0
    8.8198   12.7586   -6.6463 H   0  0  0  0  0
   11.7499   13.9784  -10.1703 H   0  0  0  0  0
   11.9776   10.1613   -7.9954 H   0  0  0  0  0
   10.3456   13.0913   -4.6052 H   0  0  0  0  0
    8.6367   12.4787   -4.2746 H   0  0  0  0  0
   11.8889    8.2972   -0.6805 H   0  0  0  0  0
   10.9048   13.3244   -2.9967 H   0  0  0  0  0
   10.1258    8.7871   -7.8877 H   0  0  0  0  0
   14.6560    9.0414  -10.1940 H   0  0  0  0  0
   15.0463   11.5359  -12.1859 H   0  0  0  0  0
   14.4569   12.9124  -12.3629 H   0  0  0  0  0
  2  1  1  0  0  0
  2  3  4  0  0  0
 25  2  4  0  0  0
  3  4  1  0  0  0
  5  3  4  0  0  0
  5  6  1  0  0  0
  7  5  4  0  0  0
  8  7  4  0  0  0
  9  8  1  0  0  0
  8 25  4  0  0  0
 16  9  1  0  0  0
  9 22  1  0  0  0
 10 11  4  0  0  0
 15 10  4  0  0  0
 22 10  1  0  0  0
 11 12  4  0  0  0
 13 12  4  0  0  0
 12 23  1  0  0  0
 14 13  4  0  0  0
 15 14  4  0  0  0
 14 24  1  0  0  0
 21 15  1  0  0  0
 16 21  1  0  0  0
 26 16  1  0  0  0
 17 18  1  0  0  0
 17 26  1  0  0  0
 17 27  2  0  0  0
 18 19  4  0  0  0
 18 20  4  0  0  0
 19 32  4  0  0  0
 20 28  4  0  0  0
 28 29  1  0  0  0
 28 30  4  0  0  0
 30 31  1  0  0  0
 30 32  4  0  0  0
 32 33  1  0  0  0
  1 34  1  0  0  0
  4 35  1  0  0  0
  6 36  1  0  0  0
  7 37  1  0  0  0
  9 38  1  0  0  0
 11 39  1  0  0  0
 13 40  1  0  0  0
 16 41  1  0  0  0
 19 42  1  0  0  0
 20 43  1  0  0  0
 21 44  1  0  0  0
 21 45  1  0  0  0
 23 46  1  0  0  0
 24 47  1  0  0  0
 25 48  1  0  0  0
 29 49  1  0  0  0
 31 50  1  0  0  0
 33 51  1  0  0  0
M  END
$$$$
