4hni_ligand
  -I-interpret- 

 43 46  0  0  0  0  0  0  0  0999 V2000
  -24.2520  -11.7370  -30.9200 C   0  0  0  0  0
  -23.8020  -12.4060  -29.7660 C   0  0  0  0  0
  -22.5180  -12.0460  -29.1520 C   0  0  0  0  0
  -27.3490  -16.5450  -25.4750 C   0  0  0  0  0
  -27.2870  -16.3570  -27.8910 C   0  0  0  0  0
  -26.7670  -15.0120  -27.8400 C   0  0  0  0  0
  -26.5700  -14.4970  -26.5430 C   0  0  0  0  0
  -26.6120  -14.6040  -29.1940 C   0  0  0  0  0
  -26.0760  -13.3550  -29.6910 C   0  0  0  0  0
  -29.7740  -18.8020  -31.1800 C   0  0  0  0  0
  -27.4900  -19.8010  -31.2580 C   0  0  0  0  0
  -26.9340  -18.5460  -30.6780 C   0  0  0  0  0
  -27.9020  -17.8340  -29.7360 C   0  0  0  0  0
  -27.5650  -17.0960  -26.7250 N   0  0  0  0  0
  -26.8570  -15.2560  -25.4200 N   0  0  0  0  0
  -27.3910  -16.5940  -29.2010 N   0  0  0  0  0
  -27.0100  -15.6030  -29.9410 N   0  0  0  0  0
  -26.1330  -13.2400  -26.3320 N   0  0  0  0  0
  -24.6850  -13.3780  -29.2840 O   0  0  0  0  0
  -28.7200  -19.4870  -31.9110 O   0  0  0  0  0
  -29.2350  -17.5840  -30.4430 C   0  0  0  0  0
  -21.6890  -10.9800  -29.7340 C   0  0  0  0  0
  -22.1750  -10.3000  -30.9230 C   0  0  0  0  0
  -23.4530  -10.7400  -31.4370 C   0  0  0  0  0
  -24.3660  -10.2070  -32.7160 Cl  0  0  0  0  0
  -25.2005  -11.9987  -31.3890 H   0  0  0  0  0
  -22.1774  -12.5717  -28.2600 H   0  0  0  0  0
  -27.5596  -17.1081  -24.5658 H   0  0  0  0  0
  -26.6073  -12.4913  -29.2912 H   0  0  0  0  0
  -26.1870  -13.2606  -30.7712 H   0  0  0  0  0
  -30.1937  -19.4924  -30.4484 H   0  0  0  0  0
  -30.5303  -18.4703  -31.8914 H   0  0  0  0  0
  -27.6620  -20.5332  -30.4690 H   0  0  0  0  0
  -26.7855  -20.2266  -31.9726 H   0  0  0  0  0
  -26.7205  -17.8680  -31.5044 H   0  0  0  0  0
  -26.0498  -18.8143  -30.0999 H   0  0  0  0  0
  -28.0416  -18.5012  -28.8854 H   0  0  0  0  0
  -25.9340  -12.6295  -27.1245 H   0  0  0  0  0
  -26.0012  -12.8990  -25.3798 H   0  0  0  0  0
  -29.9644  -17.3162  -29.6786 H   0  0  0  0  0
  -29.0696  -16.8015  -31.1836 H   0  0  0  0  0
  -20.7341  -10.7067  -29.2850 H   0  0  0  0  0
  -21.6071   -9.5019  -31.4012 H   0  0  0  0  0
  2  1  4  0  0  0
  1 24  4  0  0  0
  2  3  4  0  0  0
 19  2  1  0  0  0
  3 22  4  0  0  0
 14  4  4  0  0  0
  4 15  4  0  0  0
  5  6  4  0  0  0
  5 14  4  0  0  0
 16  5  4  0  0  0
  6  7  4  0  0  0
  6  8  4  0  0  0
  7 15  4  0  0  0
  7 18  1  0  0  0
  8  9  1  0  0  0
  8 17  4  0  0  0
  9 19  1  0  0  0
 20 10  1  0  0  0
 10 21  1  0  0  0
 12 11  1  0  0  0
 11 20  1  0  0  0
 13 12  1  0  0  0
 13 16  1  0  0  0
 13 21  1  0  0  0
 16 17  4  0  0  0
 22 23  4  0  0  0
 23 24  4  0  0  0
 24 25  1  0  0  0
  1 26  1  0  0  0
  3 27  1  0  0  0
  4 28  1  0  0  0
  9 29  1  0  0  0
  9 30  1  0  0  0
 10 31  1  0  0  0
 10 32  1  0  0  0
 11 33  1  0  0  0
 11 34  1  0  0  0
 12 35  1  0  0  0
 12 36  1  0  0  0
 13 37  1  0  0  0
 18 38  1  0  0  0
 18 39  1  0  0  0
 21 40  1  0  0  0
 21 41  1  0  0  0
 22 42  1  0  0  0
 23 43  1  0  0  0
M  END
$$$$
