4o05_ligand
  -I-interpret- 

 67 71  0  0  0  0  0  0  0  0999 V2000
    0.7140   -9.1120  -26.3690 N   0  0  0  0  0
    0.8080   -7.9940  -28.5230 C   0  0  0  0  0
    9.0410  -11.7730  -23.8750 O   0  0  0  0  0
    7.9020  -12.1850  -24.0010 C   0  0  0  0  0
    7.6580  -13.6180  -24.4150 C   0  0  0  0  0
    6.4210  -13.8490  -25.2970 C   0  0  0  0  0
    6.1630  -15.3470  -25.4440 C   0  0  0  0  0
    6.6450  -13.2460  -26.6890 C   0  0  0  0  0
    5.2100  -13.1900  -24.6230 C   0  0  0  0  0
    5.4820  -11.8010  -24.1240 C   0  0  0  0  0
    6.7380  -11.2980  -23.8380 C   0  0  0  0  0
    6.5580   -9.9210  -23.4420 C   0  0  0  0  0
    7.6270   -8.9270  -23.0450 C   0  0  0  0  0
    7.0220   -7.5190  -23.0450 C   0  0  0  0  0
    5.6900   -7.4320  -22.4490 N   0  3  0  0  0
    5.2230   -6.0350  -22.4000 C   0  0  0  0  0
    4.7300   -8.2680  -23.1640 C   0  0  0  0  0
    5.2150   -9.6450  -23.4980 C   0  0  0  0  0
    4.5580  -10.7870  -23.9190 N   0  0  0  0  0
    3.1490  -10.8610  -24.2010 C   0  0  0  0  0
    2.5970   -9.9590  -25.1110 C   0  0  0  0  0
    2.3610  -11.8420  -23.5930 C   0  0  0  0  0
    1.0120  -11.9520  -23.9210 C   0  0  0  0  0
    0.1890  -13.0570  -23.3040 C   0  0  0  0  0
   -1.2720  -12.6780  -23.2240 C   0  0  0  0  0
   -1.7260  -12.0360  -24.4710 N   0  0  0  0  0
   -0.9740  -11.2530  -25.2680 C   0  0  0  0  0
   -1.4470  -10.7670  -26.2900 O   0  0  0  0  0
    0.4430  -11.0440  -24.8580 C   0  0  0  0  0
    1.2430  -10.0150  -25.4450 C   0  0  0  0  0
    1.4550   -8.1200  -27.1700 C   0  0  0  0  0
    1.5420   -6.7910  -26.4630 C   0  0  0  0  0
   -0.2964   -9.1417  -26.5051 H   0  0  0  0  0
   -0.2023   -7.6018  -28.4061 H   0  0  0  0  0
    1.3935   -7.3146  -29.1424 H   0  0  0  0  0
    0.7659   -8.9747  -28.9969 H   0  0  0  0  0
    7.4954  -14.1833  -23.4973 H   0  0  0  0  0
    8.5221  -13.9223  -25.0056 H   0  0  0  0  0
    5.2782  -15.5032  -26.0611 H   0  0  0  0  0
    7.0249  -15.8182  -25.9165 H   0  0  0  0  0
    6.0024  -15.7851  -24.4589 H   0  0  0  0  0
    7.5051  -13.7250  -27.1569 H   0  0  0  0  0
    5.7584  -13.4099  -27.3015 H   0  0  0  0  0
    6.8302  -12.1760  -26.5945 H   0  0  0  0  0
    4.9436  -13.8008  -23.7604 H   0  0  0  0  0
    4.4187  -13.1200  -25.3693 H   0  0  0  0  0
    8.4534   -8.9724  -23.7542 H   0  0  0  0  0
    8.0011   -9.1668  -22.0497 H   0  0  0  0  0
    6.9262   -7.2128  -24.0867 H   0  0  0  0  0
    7.6807   -6.8886  -22.4477 H   0  0  0  0  0
    5.7599   -7.7813  -21.4932 H   0  0  0  0  0
    5.9142   -5.4430  -21.8001 H   0  0  0  0  0
    5.1807   -5.6317  -23.4118 H   0  0  0  0  0
    4.2299   -6.0007  -21.9521 H   0  0  0  0  0
    4.5224   -7.7693  -24.1107 H   0  0  0  0  0
    3.8679   -8.3886  -22.5080 H   0  0  0  0  0
    3.2321   -9.1999  -25.5676 H   0  0  0  0  0
    2.8019  -12.5205  -22.8627 H   0  0  0  0  0
    0.5553  -13.2384  -22.2935 H   0  0  0  0  0
    0.2821  -13.9468  -23.9267 H   0  0  0  0  0
   -1.4040  -11.9739  -22.4024 H   0  0  0  0  0
   -1.8579  -13.5834  -23.0659 H   0  0  0  0  0
   -2.6922  -12.1987  -24.7544 H   0  0  0  0  0
    2.4811   -8.4630  -27.3026 H   0  0  0  0  0
    2.1345   -6.1000  -27.0626 H   0  0  0  0  0
    0.5388   -6.3873  -26.3263 H   0  0  0  0  0
    2.0153   -6.9284  -25.4908 H   0  0  0  0  0
 30  1  1  0  0  0
  1 31  1  0  0  0
 31  2  1  0  0  0
  4  3  2  0  0  0
  4  5  1  0  0  0
 11  4  1  0  0  0
  6  5  1  0  0  0
  6  7  1  0  0  0
  6  8  1  0  0  0
  9  6  1  0  0  0
 10  9  1  0  0  0
 10 11  4  0  0  0
 19 10  4  0  0  0
 12 11  4  0  0  0
 12 13  1  0  0  0
 18 12  4  0  0  0
 13 14  1  0  0  0
 15 14  1  0  0  0
 15 16  1  0  0  0
 17 15  1  0  0  0
 18 17  1  0  0  0
 19 18  4  0  0  0
 20 19  1  0  0  0
 21 20  4  0  0  0
 20 22  4  0  0  0
 21 30  4  0  0  0
 22 23  4  0  0  0
 23 24  1  0  0  0
 23 29  4  0  0  0
 24 25  1  0  0  0
 25 26  1  0  0  0
 26 27  1  0  0  0
 27 28  2  0  0  0
 27 29  1  0  0  0
 29 30  4  0  0  0
 31 32  1  0  0  0
  1 33  1  0  0  0
  2 34  1  0  0  0
  2 35  1  0  0  0
  2 36  1  0  0  0
  5 37  1  0  0  0
  5 38  1  0  0  0
  7 39  1  0  0  0
  7 40  1  0  0  0
  7 41  1  0  0  0
  8 42  1  0  0  0
  8 43  1  0  0  0
  8 44  1  0  0  0
  9 45  1  0  0  0
  9 46  1  0  0  0
 13 47  1  0  0  0
 13 48  1  0  0  0
 14 49  1  0  0  0
 14 50  1  0  0  0
 15 51  1  0  0  0
 16 52  1  0  0  0
 16 53  1  0  0  0
 16 54  1  0  0  0
 17 55  1  0  0  0
 17 56  1  0  0  0
 21 57  1  0  0  0
 22 58  1  0  0  0
 24 59  1  0  0  0
 24 60  1  0  0  0
 25 61  1  0  0  0
 25 62  1  0  0  0
 26 63  1  0  0  0
 31 64  1  0  0  0
 32 65  1  0  0  0
 32 66  1  0  0  0
 32 67  1  0  0  0
M  END
$$$$
