4v27_ligand
  -I-interpret- 

 45 46  0  0  0  0  0  0  0  0999 V2000
   21.6970    3.0360   -6.9630 C   0  0  0  0  0
   21.5890    2.0420   -8.1250 C   0  0  0  0  0
   22.3760    2.5340   -9.3410 C   0  0  0  0  0
   22.0260    3.9870   -9.6720 C   0  0  0  0  0
   22.2030    4.8580   -8.4300 C   0  0  0  0  0
   21.8280    6.3100   -8.7380 C   0  0  0  0  0
   20.2280    2.0050   -8.4620 O   0  0  0  0  0
   22.1190    1.6860  -10.4450 O   0  0  0  0  0
   22.8150    4.5030  -10.7330 O   0  0  0  0  0
   21.3680    4.3470   -7.4020 O   0  0  0  0  0
   22.1180    7.1290   -7.6310 O   0  0  0  0  0
   24.0450    1.3040   -4.2440 O   0  0  0  0  0
   24.3010    2.7170   -4.3600 C   0  0  0  0  0
   23.1000    3.3690   -5.0530 C   0  0  0  0  0
   22.9900    2.8500   -6.3850 O   0  0  0  0  0
   23.2180    4.9010   -5.1010 C   0  0  0  0  0
   23.4350    5.3870   -3.7470 N   0  3  0  0  0
   24.6210    4.8690   -3.0750 C   0  0  0  0  0
   24.5260    3.3360   -2.9750 C   0  0  0  0  0
   25.7640    2.7940   -2.2670 C   0  0  0  0  0
   26.9400    2.9690   -3.0790 O   0  0  0  0  0
   20.9723    2.8632   -6.1673 H   0  0  0  0  0
   21.9867    1.0683   -7.8390 H   0  0  0  0  0
   23.4406    2.5011   -9.1094 H   0  0  0  0  0
   20.9859    4.0047   -9.9976 H   0  0  0  0  0
   23.2452    4.8381   -8.1113 H   0  0  0  0  0
   20.7613    6.3659   -8.9549 H   0  0  0  0  0
   22.4031    6.6535   -9.5978 H   0  0  0  0  0
   19.7208    1.6975   -7.7071 H   0  0  0  0  0
   22.3460    0.7826  -10.2128 H   0  0  0  0  0
   22.7012    3.9531  -11.5116 H   0  0  0  0  0
   21.8794    8.0363   -7.8344 H   0  0  0  0  0
   24.7893    0.8796   -3.8111 H   0  0  0  0  0
   25.2031    2.8849   -4.9483 H   0  0  0  0  0
   22.2074    3.1309   -4.4745 H   0  0  0  0  0
   22.3049    5.3329   -5.5107 H   0  0  0  0  0
   24.0522    5.1912   -5.7398 H   0  0  0  0  0
   22.6328    5.0802   -3.1968 H   0  0  0  0  0
   23.5598    6.3968   -3.8180 H   0  0  0  0  0
   24.6864    5.2950   -2.0738 H   0  0  0  0  0
   25.5094    5.1415   -3.6447 H   0  0  0  0  0
   23.6610    3.0537   -2.3749 H   0  0  0  0  0
   25.6226    1.7294   -2.0807 H   0  0  0  0  0
   25.8995    3.3389   -1.3328 H   0  0  0  0  0
   27.7039    2.6211   -2.6131 H   0  0  0  0  0
  1  2  1  0  0  0
  1 10  1  0  0  0
 15  1  1  0  0  0
  2  3  1  0  0  0
  2  7  1  0  0  0
  3  4  1  0  0  0
  3  8  1  0  0  0
  5  4  1  0  0  0
  4  9  1  0  0  0
  5  6  1  0  0  0
 10  5  1  0  0  0
  6 11  1  0  0  0
 13 12  1  0  0  0
 14 13  1  0  0  0
 13 19  1  0  0  0
 14 15  1  0  0  0
 14 16  1  0  0  0
 16 17  1  0  0  0
 17 18  1  0  0  0
 18 19  1  0  0  0
 19 20  1  0  0  0
 20 21  1  0  0  0
  1 22  1  0  0  0
  2 23  1  0  0  0
  3 24  1  0  0  0
  4 25  1  0  0  0
  5 26  1  0  0  0
  6 27  1  0  0  0
  6 28  1  0  0  0
  7 29  1  0  0  0
  8 30  1  0  0  0
  9 31  1  0  0  0
 11 32  1  0  0  0
 12 33  1  0  0  0
 13 34  1  0  0  0
 14 35  1  0  0  0
 16 36  1  0  0  0
 16 37  1  0  0  0
 17 38  1  0  0  0
 17 39  1  0  0  0
 18 40  1  0  0  0
 18 41  1  0  0  0
 19 42  1  0  0  0
 20 43  1  0  0  0
 20 44  1  0  0  0
 21 45  1  0  0  0
M  END
$$$$
