6me2_ligand
  -I-interpret- 

 38 40  0  0  0  0  0  0  0  0999 V2000
   24.3780  -21.3590   46.3860 C   0  0  0  0  0
   23.2130  -19.1850   46.9310 C   0  0  0  0  0
   24.4320  -18.7560   47.7700 C   0  0  0  0  0
   22.2350  -18.4420   46.8470 O   0  0  0  0  0
   24.8590  -17.3290   47.4170 C   0  0  0  0  0
   28.9750  -24.4470   48.3670 O   0  0  0  0  0
   23.1860  -24.7890   46.8420 C   0  0  0  0  0
   23.6150  -25.8030   47.8900 C   0  0  0  0  0
   24.9800  -25.6230   48.1190 C   0  0  0  0  0
   25.8450  -26.3760   48.9110 C   0  0  0  0  0
   27.1980  -26.0450   48.9990 C   0  0  0  0  0
   27.7010  -24.9220   48.3450 C   0  0  0  0  0
   29.0800  -23.5230   47.2630 C   0  0  0  0  0
   27.6630  -23.0530   47.0120 C   0  0  0  0  0
   26.8400  -24.1630   47.5750 C   0  0  0  0  0
   25.4760  -24.4970   47.4540 C   0  0  0  0  0
   24.3530  -23.8430   46.6910 C   0  0  0  0  0
   23.9950  -22.4960   47.3260 C   0  0  0  0  0
   23.2580  -20.3990   46.3270 N   0  0  0  0  0
   24.5817  -21.7532   45.3904 H   0  0  0  0  0
   25.2752  -20.8604   46.7529 H   0  0  0  0  0
   25.2598  -19.4331   47.5593 H   0  0  0  0  0
   24.1625  -18.7915   48.8256 H   0  0  0  0  0
   25.1239  -17.2812   46.3608 H   0  0  0  0  0
   24.0349  -16.6444   47.6175 H   0  0  0  0  0
   25.7212  -17.0489   48.0222 H   0  0  0  0  0
   22.2817  -24.2612   47.1449 H   0  0  0  0  0
   22.9402  -25.2727   45.8966 H   0  0  0  0  0
   23.4190  -26.8166   47.5404 H   0  0  0  0  0
   23.0527  -25.6571   48.8123 H   0  0  0  0  0
   25.4612  -27.2314   49.4669 H   0  0  0  0  0
   27.8690  -26.6721   49.5860 H   0  0  0  0  0
   29.9823  -23.2281   46.7272 H   0  0  0  0  0
   27.3269  -22.1312   46.5372 H   0  0  0  0  0
   24.6195  -23.6584   45.6503 H   0  0  0  0  0
   22.9216  -22.4612   47.5125 H   0  0  0  0  0
   24.5397  -22.3853   48.2636 H   0  0  0  0  0
   22.4416  -20.6742   45.7810 H   0  0  0  0  0
 18  1  1  0  0  0
  1 19  1  0  0  0
  2  3  1  0  0  0
  2  4  2  0  0  0
 19  2  1  0  0  0
  3  5  1  0  0  0
 12  6  4  0  0  0
 13  6  4  0  0  0
  7  8  1  0  0  0
 17  7  1  0  0  0
  9  8  1  0  0  0
  9 10  4  0  0  0
 16  9  4  0  0  0
 10 11  4  0  0  0
 12 11  4  0  0  0
 15 12  4  0  0  0
 14 13  4  0  0  0
 15 14  4  0  0  0
 16 15  4  0  0  0
 17 16  1  0  0  0
 17 18  1  0  0  0
  1 20  1  0  0  0
  1 21  1  0  0  0
  3 22  1  0  0  0
  3 23  1  0  0  0
  5 24  1  0  0  0
  5 25  1  0  0  0
  5 26  1  0  0  0
  7 27  1  0  0  0
  7 28  1  0  0  0
  8 29  1  0  0  0
  8 30  1  0  0  0
 10 31  1  0  0  0
 11 32  1  0  0  0
 13 33  1  0  0  0
 14 34  1  0  0  0
 17 35  1  0  0  0
 18 36  1  0  0  0
 18 37  1  0  0  0
 19 38  1  0  0  0
M  END
$$$$
