1fls_ligand
  -I-interpret- 

 51 53  0  0  0  0  0  0  0  0999 V2000
    2.1390   -4.3260    1.5530 C   0  0  0  0  0
    0.7740   -4.5220    1.2400 C   0  0  0  0  0
   -0.1770   -4.3200    2.2390 C   0  0  0  0  0
    0.1870   -3.9360    3.5180 C   0  0  0  0  0
    1.5230   -3.7460    3.8190 C   0  0  0  0  0
    2.5040   -3.9350    2.8550 C   0  0  0  0  0
    0.2170   -4.9310   -0.0740 C   0  0  0  0  0
    0.0890   -6.1120   -0.3870 O   0  0  0  0  0
   -0.1050   -4.0060   -0.9910 N   0  0  0  0  0
   -0.5610   -4.4770   -2.2300 O   0  0  0  0  0
    3.9430   -3.7100    3.2560 C   0  0  0  0  0
    3.1430   -4.5010    0.6370 N   0  0  0  0  0
    3.8010   -3.1590   -0.0450 S   0  0  0  0  0
    3.8010   -5.8060    0.5330 C   0  0  0  0  0
    7.2490   -6.0910    2.0710 C   0  0  0  0  0
    6.8830   -6.4270    3.3670 C   0  0  0  0  0
    5.6080   -6.5620    3.7530 N   0  0  0  0  0
    4.6600   -6.3570    2.8280 C   0  0  0  0  0
    4.9260   -6.0170    1.5070 C   0  0  0  0  0
    6.2550   -5.8830    1.1280 C   0  0  0  0  0
    4.2230   -3.5160   -1.7270 C   0  0  0  0  0
    3.4360   -3.0190   -2.7540 C   0  0  0  0  0
    3.7680   -3.3010   -4.0730 C   0  0  0  0  0
    4.8860   -4.0780   -4.3710 C   0  0  0  0  0
    5.6680   -4.5700   -3.3270 C   0  0  0  0  0
    5.3380   -4.2910   -2.0070 C   0  0  0  0  0
    5.2180   -4.3600   -5.6970 O   0  0  0  0  0
    6.3700   -5.1560   -5.9010 C   0  0  0  0  0
    5.0220   -2.8860    0.6440 O   0  0  0  0  0
    2.7850   -2.1530   -0.0720 O   0  0  0  0  0
   -1.2318   -4.4679    2.0075 H   0  0  0  0  0
   -0.5746   -3.7844    4.2829 H   0  0  0  0  0
    1.8098   -3.4439    4.8263 H   0  0  0  0  0
   -0.0220   -3.0083   -0.7960 H   0  0  0  0  0
   -0.7595   -3.7314   -2.8012 H   0  0  0  0  0
    4.5068   -4.6319    3.1139 H   0  0  0  0  0
    4.3720   -2.9213    2.6380 H   0  0  0  0  0
    3.9848   -3.4150    4.3045 H   0  0  0  0  0
    4.2296   -5.8680   -0.4673 H   0  0  0  0  0
    3.0460   -6.5618    0.7495 H   0  0  0  0  0
    8.3001   -5.9924    1.7996 H   0  0  0  0  0
    7.6695   -6.5883    4.1043 H   0  0  0  0  0
    3.6180   -6.4633    3.1299 H   0  0  0  0  0
    6.5130   -5.6178    0.1027 H   0  0  0  0  0
    2.5609   -2.4099   -2.5277 H   0  0  0  0  0
    3.1492   -2.9115   -4.8814 H   0  0  0  0  0
    6.5450   -5.1782   -3.5483 H   0  0  0  0  0
    5.9527   -4.6795   -1.1950 H   0  0  0  0  0
    7.2380   -4.6525   -5.4753 H   0  0  0  0  0
    6.2336   -6.1217   -5.4143 H   0  0  0  0  0
    6.5227   -5.3047   -6.9700 H   0  0  0  0  0
  1  2  4  0  0  0
  1  6  4  0  0  0
 12  1  1  0  0  0
  2  3  4  0  0  0
  2  7  1  0  0  0
  3  4  4  0  0  0
  5  4  4  0  0  0
  6  5  4  0  0  0
  6 11  1  0  0  0
  7  8  2  0  0  0
  7  9  1  0  0  0
  9 10  1  0  0  0
 12 13  1  0  0  0
 14 12  1  0  0  0
 13 21  1  0  0  0
 13 29  2  0  0  0
 13 30  2  0  0  0
 19 14  1  0  0  0
 16 15  4  0  0  0
 15 20  4  0  0  0
 17 16  4  0  0  0
 18 17  4  0  0  0
 18 19  4  0  0  0
 19 20  4  0  0  0
 21 22  4  0  0  0
 21 26  4  0  0  0
 22 23  4  0  0  0
 23 24  4  0  0  0
 24 25  4  0  0  0
 24 27  1  0  0  0
 25 26  4  0  0  0
 27 28  1  0  0  0
  3 31  1  0  0  0
  4 32  1  0  0  0
  5 33  1  0  0  0
  9 34  1  0  0  0
 10 35  1  0  0  0
 11 36  1  0  0  0
 11 37  1  0  0  0
 11 38  1  0  0  0
 14 39  1  0  0  0
 14 40  1  0  0  0
 15 41  1  0  0  0
 16 42  1  0  0  0
 18 43  1  0  0  0
 20 44  1  0  0  0
 22 45  1  0  0  0
 23 46  1  0  0  0
 25 47  1  0  0  0
 26 48  1  0  0  0
 28 49  1  0  0  0
 28 50  1  0  0  0
 28 51  1  0  0  0
M  END
$$$$
