5ku6_ligand
  -I-interpret- 

 23 23  0  0  0  0  0  0  0  0999 V2000
   33.0390    8.4230   18.1770 N   0  0  0  0  0
   33.2790    9.6110   19.2490 S   0  0  0  0  0
   32.5000    9.3860   20.4190 O   0  0  0  0  0
   32.9320   10.8930   18.7010 O   0  0  0  0  0
   34.8930    9.5830   19.6210 C   0  0  0  0  0
   35.9970   10.8700   19.1610 S   0  0  0  0  0
   37.1820    9.8770   19.9700 C   0  0  0  0  0
   36.7490    8.7370   20.4970 N   0  3  0  0  0
   37.4500    7.6680   21.2330 C   0  0  0  0  0
   35.3790    8.5160   20.3030 N   0  0  0  0  0
   38.4970   10.2050   20.0710 N   0  0  0  0  0
   38.9350   11.4300   20.3540 C   0  0  0  0  0
   38.3300   12.4440   20.0340 O   0  0  0  0  0
   40.2470   11.4760   21.0840 C   0  0  0  0  0
   32.3993    7.6595   18.3966 H   0  0  0  0  0
   33.5274    8.4377   17.2816 H   0  0  0  0  0
   38.2316    7.2460   20.6012 H   0  0  0  0  0
   37.8962    8.0832   22.1367 H   0  0  0  0  0
   36.7384    6.8877   21.5030 H   0  0  0  0  0
   39.1884    9.4702   19.9213 H   0  0  0  0  0
   40.9785   12.0133   20.4805 H   0  0  0  0  0
   40.1134   11.9884   22.0368 H   0  0  0  0  0
   40.5978   10.4596   21.2626 H   0  0  0  0  0
  1  2  1  0  0  0
  2  3  2  0  0  0
  2  4  2  0  0  0
  2  5  1  0  0  0
  5  6  4  0  0  0
  5 10  4  0  0  0
  6  7  4  0  0  0
  7  8  4  0  0  0
  7 11  1  0  0  0
  8  9  1  0  0  0
  8 10  4  0  0  0
 11 12  1  0  0  0
 12 13  2  0  0  0
 12 14  1  0  0  0
  1 15  1  0  0  0
  1 16  1  0  0  0
  9 17  1  0  0  0
  9 18  1  0  0  0
  9 19  1  0  0  0
 11 20  1  0  0  0
 14 21  1  0  0  0
 14 22  1  0  0  0
 14 23  1  0  0  0
M  END
$$$$
