4urx_ligand
  -I-interpret- 

 26 27  0  0  0  0  0  0  0  0999 V2000
   44.2210   43.6590   80.3970 C   0  0  0  0  0
   46.9220   39.6980   78.8740 N   0  3  0  0  0
   42.9980   44.8090   81.2920 Br  0  0  0  0  0
   45.3090   43.1700   81.0790 C   0  0  0  0  0
   46.1700   42.2990   80.4370 C   0  0  0  0  0
   46.0130   42.0000   79.0930 C   0  0  0  0  0
   46.9800   41.0820   78.3900 C   0  0  0  0  0
   45.6940   39.0120   78.4600 C   0  0  0  0  0
   46.0200   37.5480   78.6380 C   0  0  0  0  0
   47.4970   37.4490   78.5000 C   0  0  0  0  0
   47.9980   38.8670   78.3190 C   0  0  0  0  0
   44.9370   42.5490   78.4150 C   0  0  0  0  0
   44.0200   43.3540   79.0650 C   0  0  0  0  0
   46.9888   39.7907   79.8876 H   0  0  0  0  0
   45.4910   43.4648   82.1125 H   0  0  0  0  0
   46.9850   41.8404   80.9969 H   0  0  0  0  0
   46.7161   41.0727   77.3325 H   0  0  0  0  0
   47.9863   41.4556   78.5796 H   0  0  0  0  0
   45.4105   39.2519   77.4352 H   0  0  0  0  0
   44.8293   39.3187   79.0486 H   0  0  0  0  0
   45.3195   36.7348   78.8278 H   0  0  0  0  0
   48.0978   36.5399   78.5242 H   0  0  0  0  0
   48.9507   39.0356   78.8210 H   0  0  0  0  0
   48.2045   39.1019   77.2748 H   0  0  0  0  0
   44.8113   42.3430   77.3520 H   0  0  0  0  0
   43.1509   43.7424   78.5339 H   0  0  0  0  0
  1  3  1  0  0  0
  4  1  4  0  0  0
  1 13  4  0  0  0
  7  2  1  0  0  0
  2  8  1  0  0  0
  2 11  1  0  0  0
  5  4  4  0  0  0
  6  5  4  0  0  0
  6  7  1  0  0  0
  6 12  4  0  0  0
  8  9  1  0  0  0
  9 10  2  0  0  0
 10 11  1  0  0  0
 12 13  4  0  0  0
  2 14  1  0  0  0
  4 15  1  0  0  0
  5 16  1  0  0  0
  7 17  1  0  0  0
  7 18  1  0  0  0
  8 19  1  0  0  0
  8 20  1  0  0  0
  9 21  1  0  0  0
 10 22  1  0  0  0
 11 23  1  0  0  0
 11 24  1  0  0  0
 12 25  1  0  0  0
 13 26  1  0  0  0
M  END
$$$$
