5var_ligand
  -I-interpret- 

 42 44  0  0  0  0  0  0  0  0999 V2000
   22.5670  -11.8910    7.8120 C   0  0  0  0  0
   23.7830  -11.9880    7.0960 C   0  0  0  0  0
   24.0440  -11.0790    6.0620 C   0  0  0  0  0
   23.0940  -10.0740    5.7250 C   0  0  0  0  0
   21.8670   -9.9740    6.4270 C   0  0  0  0  0
   21.0190   -7.5610    6.7680 C   0  0  0  0  0
   19.3230   -8.0850    4.3390 C   0  0  0  0  0
   19.3800   -9.2240    6.3770 C   0  0  0  0  0
   19.3660   -4.2010    8.1570 C   0  0  0  0  0
   22.0090   -6.7090    6.2280 O   0  0  0  0  0
   20.2470   -4.5950    7.0200 N   0  3  0  0  0
   21.6270  -10.9030    7.4930 C   0  0  0  0  0
   20.8480   -8.9390    6.0310 C   0  0  0  0  0
   19.6100   -6.9090    6.6000 C   0  0  0  0  0
   18.8230   -7.9310    5.7870 C   0  0  0  0  0
   20.7190   -8.6750    4.5030 C   0  0  0  0  0
   19.5870   -5.4810    6.0300 C   0  0  0  0  0
   20.8030   -3.4060    6.3230 C   0  0  0  0  0
   22.3594  -12.5923    8.6202 H   0  0  0  0  0
   24.5092  -12.7615    7.3459 H   0  0  0  0  0
   24.9824  -11.1420    5.5111 H   0  0  0  0  0
   23.3125   -9.3740    4.9186 H   0  0  0  0  0
   21.3516   -7.7150    7.7945 H   0  0  0  0  0
   19.3311   -7.1389    3.7978 H   0  0  0  0  0
   18.6707   -8.7183    3.7378 H   0  0  0  0  0
   19.1547   -9.4187    7.4255 H   0  0  0  0  0
   18.9606  -10.1549    5.9955 H   0  0  0  0  0
   18.4966   -3.6672    7.7732 H   0  0  0  0  0
   19.0397   -5.0948    8.6888 H   0  0  0  0  0
   19.9201   -3.5540    8.8371 H   0  0  0  0  0
   22.0430   -5.8963    6.7379 H   0  0  0  0  0
   21.0035   -5.1290    7.4477 H   0  0  0  0  0
   20.7000  -10.8392    8.0629 H   0  0  0  0  0
   19.1569   -6.7147    7.5721 H   0  0  0  0  0
   17.7608   -7.6872    5.8053 H   0  0  0  0  0
   21.4943   -8.0025    4.1360 H   0  0  0  0  0
   20.8515   -9.5844    3.9169 H   0  0  0  0  0
   20.1116   -5.4432    5.0753 H   0  0  0  0  0
   18.5612   -5.1576    5.8533 H   0  0  0  0  0
   19.9854   -2.8001    5.9323 H   0  0  0  0  0
   21.3904   -2.8158    7.0264 H   0  0  0  0  0
   21.4396   -3.7331    5.5009 H   0  0  0  0  0
  1  2  4  0  0  0
 12  1  4  0  0  0
  3  2  4  0  0  0
  4  3  4  0  0  0
  5  4  4  0  0  0
  5 12  4  0  0  0
 13  5  1  0  0  0
  6 10  1  0  0  0
  6 13  1  0  0  0
 14  6  1  0  0  0
 15  7  1  0  0  0
  7 16  1  0  0  0
  8 13  1  0  0  0
 15  8  1  0  0  0
 11  9  1  0  0  0
 17 11  1  0  0  0
 11 18  1  0  0  0
 13 16  1  0  0  0
 14 15  1  0  0  0
 14 17  1  0  0  0
  1 19  1  0  0  0
  2 20  1  0  0  0
  3 21  1  0  0  0
  4 22  1  0  0  0
  6 23  1  0  0  0
  7 24  1  0  0  0
  7 25  1  0  0  0
  8 26  1  0  0  0
  8 27  1  0  0  0
  9 28  1  0  0  0
  9 29  1  0  0  0
  9 30  1  0  0  0
 10 31  1  0  0  0
 11 32  1  0  0  0
 12 33  1  0  0  0
 14 34  1  0  0  0
 15 35  1  0  0  0
 16 36  1  0  0  0
 16 37  1  0  0  0
 17 38  1  0  0  0
 17 39  1  0  0  0
 18 40  1  0  0  0
 18 41  1  0  0  0
 18 42  1  0  0  0
M  END
$$$$
