5w4w_ligand
  -I-interpret- 

 39 42  0  0  0  0  0  0  0  0999 V2000
   51.3930   92.6500  117.7890 C   0  0  0  0  0
   52.4630   93.4170  116.0500 N   0  0  0  0  0
   49.0620   93.5820  116.9720 C   0  0  0  0  0
   47.1090   94.2330  118.2480 C   0  0  0  0  0
   53.1040   92.9190  120.5290 C   0  0  0  0  0
   48.4670   93.9580  118.1770 C   0  0  0  0  0
   51.6180   91.2410  121.3260 C   0  0  0  0  0
   49.7150   90.4430  120.3060 C   0  0  0  0  0
   51.9360   92.0480  120.1930 C   0  0  0  0  0
   53.4840   93.7610  115.0690 C   0  0  0  0  0
   52.6280   92.7470  117.1970 C   0  0  0  0  0
   50.5160   93.3200  116.8850 C   0  0  0  0  0
   51.1750   93.7800  115.8250 N   0  0  0  0  0
   46.3620   94.1040  117.1050 C   0  0  0  0  0
   46.9040   93.7490  115.8930 C   0  0  0  0  0
   48.2620   93.4840  115.8340 C   0  0  0  0  0
   45.0130   94.2620  117.1920 F   0  0  0  0  0
   51.0800   91.9640  119.0720 C   0  0  0  0  0
   49.9480   91.1530  119.1450 C   0  0  0  0  0
   50.5250   90.4640  121.3770 N   0  0  0  0  0
   53.5810   93.8380  119.8860 O   0  0  0  0  0
   53.5310   92.5170  121.7620 N   0  0  0  0  0
   52.7150   91.4410  122.3190 C   0  0  0  0  0
   54.6850   93.0630  122.4630 C   0  0  0  0  0
   46.6485   94.5430  119.1861 H   0  0  0  0  0
   49.0784   94.0368  119.0759 H   0  0  0  0  0
   48.8173   89.8268  120.3565 H   0  0  0  0  0
   54.2451   94.3822  115.5412 H   0  0  0  0  0
   53.9428   92.8483  114.6887 H   0  0  0  0  0
   53.0253   94.3089  114.2459 H   0  0  0  0  0
   53.5661   92.3527  117.5875 H   0  0  0  0  0
   46.2812   93.6779  115.0013 H   0  0  0  0  0
   48.7120   93.1946  114.8843 H   0  0  0  0  0
   49.2606   91.0810  118.3021 H   0  0  0  0  0
   53.2942   90.5305  122.4727 H   0  0  0  0  0
   52.3278   91.6946  123.3058 H   0  0  0  0  0
   54.3656   93.4744  123.4205 H   0  0  0  0  0
   55.4144   92.2707  122.6316 H   0  0  0  0  0
   55.1356   93.8510  121.8596 H   0  0  0  0  0
  1 11  4  0  0  0
  1 12  4  0  0  0
 18  1  1  0  0  0
  2 10  1  0  0  0
 11  2  4  0  0  0
  2 13  4  0  0  0
  3  6  4  0  0  0
 12  3  1  0  0  0
  3 16  4  0  0  0
  6  4  4  0  0  0
  4 14  4  0  0  0
  9  5  1  0  0  0
  5 21  2  0  0  0
  5 22  1  0  0  0
  9  7  4  0  0  0
  7 20  4  0  0  0
  7 23  1  0  0  0
  8 19  4  0  0  0
 20  8  4  0  0  0
  9 18  4  0  0  0
 12 13  4  0  0  0
 14 15  4  0  0  0
 14 17  1  0  0  0
 15 16  4  0  0  0
 18 19  4  0  0  0
 22 23  1  0  0  0
 22 24  1  0  0  0
  4 25  1  0  0  0
  6 26  1  0  0  0
  8 27  1  0  0  0
 10 28  1  0  0  0
 10 29  1  0  0  0
 10 30  1  0  0  0
 11 31  1  0  0  0
 15 32  1  0  0  0
 16 33  1  0  0  0
 19 34  1  0  0  0
 23 35  1  0  0  0
 23 36  1  0  0  0
 24 37  1  0  0  0
 24 38  1  0  0  0
 24 39  1  0  0  0
M  END
$$$$
