6e3n_ligand
  -I-interpret- 

 29 30  0  0  0  0  0  0  0  0999 V2000
  -16.9800   15.5750  133.8560 O   0  0  0  0  0
  -17.9440   15.7400  134.6300 C   0  0  0  0  0
  -17.8360   15.3260  135.8200 O   0  0  0  0  0
  -19.1130   16.3720  134.1660 C   0  0  0  0  0
  -20.1110   16.6720  135.1140 N   0  0  0  0  0
  -19.3490   16.7260  132.8110 C   0  0  0  0  0
  -18.4000   16.4410  131.8580 O   0  0  0  0  0
  -20.5510   17.3660  132.4070 C   0  0  0  0  0
  -20.8030   17.6950  131.2390 O   0  0  0  0  0
  -21.5120   17.6430  133.3760 C   0  0  0  0  0
  -21.3070   17.2970  134.7190 C   0  0  0  0  0
  -22.2960   17.5800  135.6630 C   0  0  0  0  0
  -22.0570   18.5430  136.6480 C   0  0  0  0  0
  -23.0320   18.8660  137.6010 C   0  0  0  0  0
  -24.2530   18.2040  137.5770 C   0  0  0  0  0
  -24.4800   17.2380  136.5980 C   0  0  0  0  0
  -23.5240   16.9220  135.6370 C   0  0  0  0  0
  -23.8540   15.9480  134.6920 C   0  0  0  0  0
  -18.6456   15.5176  136.2990 H   0  0  0  0  0
  -19.7722   16.9738  133.7844 H   0  0  0  0  0
  -17.6486   16.0125  132.2744 H   0  0  0  0  0
  -22.4391   18.1371  133.0854 H   0  0  0  0  0
  -21.0937   19.0523  136.6751 H   0  0  0  0  0
  -22.8344   19.6292  138.3537 H   0  0  0  0  0
  -25.0225   18.4366  138.3131 H   0  0  0  0  0
  -25.4357   16.7139  136.5846 H   0  0  0  0  0
  -23.8039   16.3811  133.6930 H   0  0  0  0  0
  -23.1502   15.1189  134.7657 H   0  0  0  0  0
  -24.8645   15.5865  134.8824 H   0  0  0  0  0
  1  2  2  0  0  0
  2  3  1  0  0  0
  2  4  1  0  0  0
  4  5  2  0  0  0
  4  6  1  0  0  0
  5 11  1  0  0  0
  6  7  1  0  0  0
  6  8  1  0  0  0
  8  9  2  0  0  0
  8 10  1  0  0  0
 10 11  2  0  0  0
 11 12  1  0  0  0
 12 13  4  0  0  0
 12 17  4  0  0  0
 13 14  4  0  0  0
 14 15  4  0  0  0
 15 16  4  0  0  0
 16 17  4  0  0  0
 17 18  1  0  0  0
  3 19  1  0  0  0
  6 20  1  0  0  0
  7 21  1  0  0  0
 10 22  1  0  0  0
 13 23  1  0  0  0
 14 24  1  0  0  0
 15 25  1  0  0  0
 16 26  1  0  0  0
 18 27  1  0  0  0
 18 28  1  0  0  0
 18 29  1  0  0  0
M  END
$$$$
