6afa_ligand
  -I-interpret- 

 18 19  0  0  0  0  0  0  0  0999 V2000
   36.7960  -12.6750  -12.7650 C   0  0  0  0  0
   36.1840  -11.8940  -13.7470 C   0  0  0  0  0
   35.5470  -12.5480  -14.8000 C   0  0  0  0  0
   35.5530  -13.9510  -14.8360 C   0  0  0  0  0
   36.1740  -14.7470  -13.8520 C   0  0  0  0  0
   37.4930  -14.6660  -11.7080 N   0  0  0  0  0
   36.8160  -14.1710  -12.7830 C   0  0  0  0  0
   37.4950  -12.2780  -11.5350 C   0  0  0  0  0
   37.8940  -13.5990  -10.9970 C   0  0  0  0  0
   38.4020  -11.1950  -11.5560 O   0  0  0  0  0
   38.5700  -13.6490   -9.9230 O   0  0  0  0  0
   36.2038  -10.8056  -13.6918 H   0  0  0  0  0
   35.0508  -11.9775  -15.5851 H   0  0  0  0  0
   35.0527  -14.4500  -15.6660 H   0  0  0  0  0
   36.1443  -15.8330  -13.9406 H   0  0  0  0  0
   37.6610  -15.6477  -11.4881 H   0  0  0  0  0
   36.8742  -11.7144  -10.8386 H   0  0  0  0  0
   37.9716  -10.4259  -11.9366 H   0  0  0  0  0
  1  2  4  0  0  0
  1  7  4  0  0  0
  1  8  1  0  0  0
  2  3  4  0  0  0
  3  4  4  0  0  0
  4  5  4  0  0  0
  5  7  4  0  0  0
  7  6  1  0  0  0
  6  9  1  0  0  0
  8  9  1  0  0  0
  8 10  1  0  0  0
  9 11  2  0  0  0
  2 12  1  0  0  0
  3 13  1  0  0  0
  4 14  1  0  0  0
  5 15  1  0  0  0
  6 16  1  0  0  0
  8 17  1  0  0  0
 10 18  1  0  0  0
M  END
$$$$
