6otg_ligand
  -I-interpret- 

 83 86  0  0  0  0  0  0  0  0999 V2000
   21.0630   27.5430   15.1740 C   0  0  0  0  0
   19.7120   27.4680   14.8190 C   0  0  0  0  0
   18.9500   26.3210   15.0770 C   0  0  0  0  0
   19.5460   25.2070   15.7100 C   0  0  0  0  0
   20.9150   25.3310   16.0380 C   0  0  0  0  0
   21.6730   26.4750   15.7990 C   0  0  0  0  0
   18.6820   23.8150   16.0940 S   0  0  0  0  0
   17.6470   23.7230   15.0970 O   0  0  0  0  0
   19.5920   22.6690   16.2140 O   0  0  0  0  0
   18.0180   24.1990   17.5710 N   0  0  0  0  0
   18.9210   23.9940   18.7010 C   0  0  0  0  0
   18.4380   23.5350   20.0230 C   0  0  0  0  0
   18.3500   22.0740   19.8220 C   0  0  0  0  0
   19.5090   23.8910   21.0460 C   0  0  0  0  0
   16.6620   24.8080   17.6230 C   0  0  0  0  0
   15.5440   23.8990   18.1050 C   0  0  0  0  0
   14.3870   24.6600   18.4300 O   0  0  0  0  0
   15.1780   22.7880   17.1130 C   0  0  0  0  0
   14.2610   21.8310   17.7200 N   0  0  0  0  0
   14.5380   20.5450   17.9350 C   0  0  0  0  0
   15.6210   19.9720   17.6820 O   0  0  0  0  0
   13.4670   19.8810   18.5700 O   0  0  0  0  0
   13.7000   18.5260   18.9220 C   0  0  0  0  0
   13.3070   18.4530   20.4050 C   0  0  0  0  0
   11.8600   18.4880   20.3730 O   0  0  0  0  0
   11.4030   17.8930   19.1560 C   0  0  0  0  0
   10.4680   18.7580   18.4880 O   0  0  0  0  0
   10.9590   19.0720   17.1510 C   0  0  0  0  0
   12.0840   18.1340   16.8110 C   0  0  0  0  0
   12.6050   17.7220   18.2100 C   0  0  0  0  0
   11.6080   16.9400   16.0870 N   0  3  0  0  0
   11.1780   17.2140   14.7190 C   0  0  0  0  0
   14.3730   23.2490   15.9190 C   0  0  0  0  0
   12.6950   21.6480   14.8690 C   0  0  0  0  0
   12.4060   20.5760   14.0380 C   0  0  0  0  0
   13.4270   19.9260   13.3230 C   0  0  0  0  0
   14.7150   20.4060   13.4710 C   0  0  0  0  0
   15.0240   21.4650   14.3300 C   0  0  0  0  0
   14.0230   22.0820   15.0250 C   0  0  0  0  0
   21.8040   28.6930   14.9740 O   0  0  0  0  0
   23.1280   28.6920   15.4260 C   0  0  0  0  0
   19.2415   28.3213   14.3306 H   0  0  0  0  0
   17.8990   26.2879   14.7899 H   0  0  0  0  0
   21.4080   24.4793   16.5067 H   0  0  0  0  0
   22.7201   26.5250   16.0978 H   0  0  0  0  0
   19.3066   24.9932   18.9035 H   0  0  0  0  0
   19.5648   23.1798   18.3682 H   0  0  0  0  0
   17.4987   23.9662   20.3692 H   0  0  0  0  0
   17.6517   21.8613   19.0125 H   0  0  0  0  0
   19.3350   21.6838   19.5658 H   0  0  0  0  0
   17.9986   21.6028   20.7399 H   0  0  0  0  0
   20.4409   23.3901   20.7838 H   0  0  0  0  0
   19.6632   24.9700   21.0482 H   0  0  0  0  0
   19.1866   23.5667   22.0355 H   0  0  0  0  0
   16.4113   25.0866   16.5995 H   0  0  0  0  0
   16.7211   25.6278   18.3389 H   0  0  0  0  0
   15.9274   23.4032   18.9968 H   0  0  0  0  0
   13.6921   24.0705   18.7321 H   0  0  0  0  0
   16.1525   22.3943   16.8242 H   0  0  0  0  0
   13.3408   22.1700   18.0005 H   0  0  0  0  0
   14.7103   18.1848   18.6963 H   0  0  0  0  0
   13.7319   19.2683   20.9905 H   0  0  0  0  0
   13.6926   17.5595   20.8960 H   0  0  0  0  0
   10.9297   16.9407   19.3953 H   0  0  0  0  0
   11.3168   20.1012   17.1227 H   0  0  0  0  0
   10.1527   18.9574   16.4266 H   0  0  0  0  0
   12.8301   18.5928   16.1621 H   0  0  0  0  0
   13.0434   16.7425   18.0193 H   0  0  0  0  0
   10.7998   16.5788   16.5936 H   0  0  0  0  0
   12.3876   16.2842   16.0356 H   0  0  0  0  0
   10.3585   17.9325   14.7341 H   0  0  0  0  0
   12.0133   17.6255   14.1525 H   0  0  0  0  0
   10.8422   16.2878   14.2526 H   0  0  0  0  0
   14.9674   23.9628   15.3487 H   0  0  0  0  0
   13.4507   23.7093   16.2734 H   0  0  0  0  0
   11.8909   22.1551   15.4022 H   0  0  0  0  0
   11.3760   20.2337   13.9382 H   0  0  0  0  0
   13.2113   19.0755   12.6762 H   0  0  0  0  0
   15.5179   19.9425   12.8978 H   0  0  0  0  0
   16.0563   21.7958   14.4442 H   0  0  0  0  0
   23.1430   28.5209   16.5024 H   0  0  0  0  0
   23.6817   27.8992   14.9231 H   0  0  0  0  0
   23.5873   29.6551   15.2035 H   0  0  0  0  0
  2  1  4  0  0  0
  6  1  4  0  0  0
  1 40  1  0  0  0
  3  2  4  0  0  0
  4  3  4  0  0  0
  4  5  4  0  0  0
  7  4  1  0  0  0
  5  6  4  0  0  0
  7  8  2  0  0  0
  7  9  2  0  0  0
 10  7  1  0  0  0
 10 11  1  0  0  0
 15 10  1  0  0  0
 11 12  1  0  0  0
 12 13  1  0  0  0
 12 14  1  0  0  0
 16 15  1  0  0  0
 16 17  1  0  0  0
 18 16  1  0  0  0
 18 19  1  0  0  0
 33 18  1  0  0  0
 19 20  1  0  0  0
 20 21  2  0  0  0
 20 22  1  0  0  0
 22 23  1  0  0  0
 23 24  1  0  0  0
 23 30  1  0  0  0
 24 25  1  0  0  0
 26 25  1  0  0  0
 26 27  1  0  0  0
 30 26  1  0  0  0
 28 27  1  0  0  0
 29 28  1  0  0  0
 30 29  1  0  0  0
 29 31  1  0  0  0
 31 32  1  0  0  0
 39 33  1  0  0  0
 34 35  4  0  0  0
 34 39  4  0  0  0
 35 36  4  0  0  0
 36 37  4  0  0  0
 37 38  4  0  0  0
 38 39  4  0  0  0
 40 41  1  0  0  0
  2 42  1  0  0  0
  3 43  1  0  0  0
  5 44  1  0  0  0
  6 45  1  0  0  0
 11 46  1  0  0  0
 11 47  1  0  0  0
 12 48  1  0  0  0
 13 49  1  0  0  0
 13 50  1  0  0  0
 13 51  1  0  0  0
 14 52  1  0  0  0
 14 53  1  0  0  0
 14 54  1  0  0  0
 15 55  1  0  0  0
 15 56  1  0  0  0
 16 57  1  0  0  0
 17 58  1  0  0  0
 18 59  1  0  0  0
 19 60  1  0  0  0
 23 61  1  0  0  0
 24 62  1  0  0  0
 24 63  1  0  0  0
 26 64  1  0  0  0
 28 65  1  0  0  0
 28 66  1  0  0  0
 29 67  1  0  0  0
 30 68  1  0  0  0
 31 69  1  0  0  0
 31 70  1  0  0  0
 32 71  1  0  0  0
 32 72  1  0  0  0
 32 73  1  0  0  0
 33 74  1  0  0  0
 33 75  1  0  0  0
 34 76  1  0  0  0
 35 77  1  0  0  0
 36 78  1  0  0  0
 37 79  1  0  0  0
 38 80  1  0  0  0
 41 81  1  0  0  0
 41 82  1  0  0  0
 41 83  1  0  0  0
M  END
$$$$
