4x61_ligand
  -I-interpret- 

 54 57  0  0  0  0  0  0  0  0999 V2000
   22.6510  -51.8580   -9.4550 C   0  0  0  0  0
   21.9380  -50.2840  -11.0900 C   0  0  0  0  0
   23.2330  -50.2620  -11.6190 C   0  0  0  0  0
   24.2320  -51.0540  -11.0560 C   0  0  0  0  0
   22.7520  -44.4700  -10.7190 C   0  0  0  0  0
   23.3010  -43.1850  -10.1290 C   0  0  0  0  0
   23.1310  -43.1450   -8.7430 C   0  0  0  0  0
   23.8130  -42.1520   -8.0340 C   0  0  0  0  0
   23.6900  -42.0550   -6.6490 C   0  0  0  0  0
   22.8750  -42.9580   -5.9650 C   0  0  0  0  0
   22.1870  -43.9530   -6.6600 C   0  0  0  0  0
   22.3060  -44.0540   -8.0490 C   0  0  0  0  0
   21.5990  -45.0730   -8.6970 C   0  0  0  0  0
   21.4480  -44.8130  -10.1400 N   0  3  0  0  0
   20.9930  -46.0270  -10.8270 C   0  0  0  0  0
   19.5560  -46.4180  -10.4680 C   0  0  0  0  0
   18.6720  -45.4030  -10.9380 O   0  0  0  0  0
   19.2150  -47.7730  -11.1070 C   0  0  0  0  0
   20.2740  -48.7360  -10.7550 N   0  0  0  0  0
   20.9420  -49.4860  -11.6490 C   0  0  0  0  0
   20.7280  -49.4880  -12.8610 O   0  0  0  0  0
   21.6520  -51.0610  -10.0300 N   0  0  0  0  0
   23.9480  -51.8310   -9.9940 N   0  0  0  0  0
   25.4660  -51.0300  -11.5680 N   0  0  0  0  0
   26.5470  -51.9240  -11.1060 C   0  0  0  0  0
   27.3110  -51.2860   -9.9700 C   0  0  0  0  0
   28.4490  -51.1120  -10.8430 O   0  0  0  0  0
   27.7670  -51.7200  -11.9640 C   0  0  0  0  0
   22.4240  -52.4924   -8.5982 H   0  0  0  0  0
   23.4610  -49.6243  -12.4730 H   0  0  0  0  0
   23.4507  -45.2772  -10.4991 H   0  0  0  0  0
   22.6274  -44.3314  -11.7930 H   0  0  0  0  0
   22.7617  -42.3454  -10.5676 H   0  0  0  0  0
   24.3675  -43.1324  -10.3479 H   0  0  0  0  0
   24.4476  -41.4461   -8.5698 H   0  0  0  0  0
   24.2269  -41.2788   -6.1037 H   0  0  0  0  0
   22.7754  -42.8855   -4.8820 H   0  0  0  0  0
   21.5538  -44.6549   -6.1173 H   0  0  0  0  0
   20.6038  -45.1295   -8.2560 H   0  0  0  0  0
   22.1552  -46.0026   -8.5757 H   0  0  0  0  0
   20.7766  -44.0537  -10.2545 H   0  0  0  0  0
   21.6451  -46.8450  -10.5208 H   0  0  0  0  0
   21.0253  -45.8327  -11.8991 H   0  0  0  0  0
   19.4501  -46.5120   -9.3872 H   0  0  0  0  0
   17.7683  -45.6399  -10.7172 H   0  0  0  0  0
   19.1524  -47.6683  -12.1902 H   0  0  0  0  0
   18.2525  -48.1269  -10.7375 H   0  0  0  0  0
   20.5157  -48.8402   -9.7695 H   0  0  0  0  0
   25.6709  -50.3634  -12.3124 H   0  0  0  0  0
   26.0602  -52.8932  -10.9972 H   0  0  0  0  0
   27.4233  -51.8118   -9.0218 H   0  0  0  0  0
   26.8916  -50.4310   -9.4397 H   0  0  0  0  0
   27.6864  -51.1848  -12.9102 H   0  0  0  0  0
   28.2170  -52.5657  -12.4840 H   0  0  0  0  0
 22  1  4  0  0  0
  1 23  4  0  0  0
  2  3  4  0  0  0
 20  2  1  0  0  0
  2 22  4  0  0  0
  3  4  4  0  0  0
  4 23  4  0  0  0
  4 24  1  0  0  0
  5  6  1  0  0  0
 14  5  1  0  0  0
  6  7  1  0  0  0
  7  8  4  0  0  0
 12  7  4  0  0  0
  8  9  4  0  0  0
 10  9  4  0  0  0
 11 10  4  0  0  0
 12 11  4  0  0  0
 13 12  1  0  0  0
 14 13  1  0  0  0
 15 14  1  0  0  0
 16 15  1  0  0  0
 16 17  1  0  0  0
 18 16  1  0  0  0
 19 18  1  0  0  0
 19 20  1  0  0  0
 20 21  2  0  0  0
 24 25  1  0  0  0
 25 26  1  0  0  0
 25 28  1  0  0  0
 26 27  1  0  0  0
 27 28  1  0  0  0
  1 29  1  0  0  0
  3 30  1  0  0  0
  5 31  1  0  0  0
  5 32  1  0  0  0
  6 33  1  0  0  0
  6 34  1  0  0  0
  8 35  1  0  0  0
  9 36  1  0  0  0
 10 37  1  0  0  0
 11 38  1  0  0  0
 13 39  1  0  0  0
 13 40  1  0  0  0
 14 41  1  0  0  0
 15 42  1  0  0  0
 15 43  1  0  0  0
 16 44  1  0  0  0
 17 45  1  0  0  0
 18 46  1  0  0  0
 18 47  1  0  0  0
 19 48  1  0  0  0
 24 49  1  0  0  0
 25 50  1  0  0  0
 26 51  1  0  0  0
 26 52  1  0  0  0
 28 53  1  0  0  0
 28 54  1  0  0  0
M  END
$$$$
