6agt_ligand
  -I-interpret- 

 40 42  0  0  0  0  0  0  0  0999 V2000
   -5.6650   -2.5510   32.2060 C   0  0  0  0  0
   -3.3980    0.2960   27.6430 C   0  0  0  0  0
   -4.9000    0.0530   27.5710 C   0  0  0  0  0
   -2.6500   -1.0070   27.7480 C   0  0  0  0  0
   -1.2040   -0.7520   27.9360 C   0  0  0  0  0
   -0.7010    0.0290   26.7680 C   0  0  0  0  0
   -1.5240    1.3110   26.6940 C   0  0  0  0  0
   -2.9350    0.9930   26.4620 C   0  0  0  0  0
   -5.2040   -0.7480   28.6930 N   0  0  0  0  0
   -5.7340   -1.9350   28.6800 C   0  0  0  0  0
   -6.0270   -2.4630   27.6510 O   0  0  0  0  0
   -5.9660   -2.5760   29.9070 C   0  0  0  0  0
   -5.5700   -1.9830   31.0340 O   0  0  0  0  0
   -5.2270   -1.8740   33.3120 C   0  0  0  0  0
   -5.3200   -2.4430   34.5410 C   0  0  0  0  0
   -5.8890   -3.6840   34.6440 C   0  0  0  0  0
   -6.3410   -4.3400   33.5330 C   0  0  0  0  0
   -6.2420   -3.7800   32.3010 C   0  0  0  0  0
   -6.6630   -4.4450   31.1840 C   0  0  0  0  0
   -7.1340   -5.5520   31.2570 O   0  0  0  0  0
   -6.5180   -3.8290   29.9700 C   0  0  0  0  0
   -3.2087    0.9023   28.5288 H   0  0  0  0  0
   -5.1819   -0.4386   26.6399 H   0  0  0  0  0
   -5.4582    0.9891   27.5843 H   0  0  0  0  0
   -2.7956   -1.5772   26.8305 H   0  0  0  0  0
   -3.0278   -1.5676   28.6031 H   0  0  0  0  0
   -0.6672   -1.6979   28.0082 H   0  0  0  0  0
   -1.0434   -0.1888   28.8553 H   0  0  0  0  0
   -0.8042   -0.5468   25.8483 H   0  0  0  0  0
    0.3577    0.2591   26.8875 H   0  0  0  0  0
   -1.1563    1.9243   25.8713 H   0  0  0  0  0
   -1.4299    1.8505   27.6364 H   0  0  0  0  0
   -3.5163    1.8989   26.2901 H   0  0  0  0  0
   -3.0549    0.3754   25.5719 H   0  0  0  0  0
   -4.9852   -0.3548   29.6084 H   0  0  0  0  0
   -4.8025   -0.8757   33.2057 H   0  0  0  0  0
   -4.9503   -1.9239   35.4253 H   0  0  0  0  0
   -5.9827   -4.1543   35.6229 H   0  0  0  0  0
   -6.7880   -5.3285   33.6385 H   0  0  0  0  0
   -6.8398   -4.3324   29.0583 H   0  0  0  0  0
 13  1  1  0  0  0
  1 14  4  0  0  0
  1 18  4  0  0  0
  3  2  1  0  0  0
  2  4  1  0  0  0
  2  8  1  0  0  0
  9  3  1  0  0  0
  4  5  1  0  0  0
  5  6  1  0  0  0
  7  6  1  0  0  0
  8  7  1  0  0  0
 10  9  1  0  0  0
 10 11  2  0  0  0
 12 10  1  0  0  0
 12 13  1  0  0  0
 12 21  2  0  0  0
 14 15  4  0  0  0
 15 16  4  0  0  0
 16 17  4  0  0  0
 17 18  4  0  0  0
 18 19  1  0  0  0
 19 20  2  0  0  0
 19 21  1  0  0  0
  2 22  1  0  0  0
  3 23  1  0  0  0
  3 24  1  0  0  0
  4 25  1  0  0  0
  4 26  1  0  0  0
  5 27  1  0  0  0
  5 28  1  0  0  0
  6 29  1  0  0  0
  6 30  1  0  0  0
  7 31  1  0  0  0
  7 32  1  0  0  0
  8 33  1  0  0  0
  8 34  1  0  0  0
  9 35  1  0  0  0
 14 36  1  0  0  0
 15 37  1  0  0  0
 16 38  1  0  0  0
 17 39  1  0  0  0
 21 40  1  0  0  0
M  END
$$$$
