6hx5_ligand
  -I-interpret- 

 12 12  0  0  0  0  0  0  0  0999 V2000
   -4.9330   -0.0780   16.3220 Se  0  0  0  0  0
   -5.4300    1.5020   16.0820 C   0  0  0  0  0
   -6.4200    2.1590   16.8210 C   0  0  0  0  0
   -6.7720    3.4960   16.5480 C   0  0  0  0  0
   -6.2620    4.2370   15.4890 C   0  0  0  0  0
   -5.3200    3.6320   14.7120 C   0  0  0  0  0
   -4.9260    2.3140   15.0200 C   0  0  0  0  0
   -6.9292    1.6260   17.6240 H   0  0  0  0  0
   -7.4903    3.9798   17.2099 H   0  0  0  0  0
   -6.5994    5.2540   15.2892 H   0  0  0  0  0
   -4.8783    4.1587   13.8660 H   0  0  0  0  0
   -4.1601    1.8699   14.3842 H   0  0  0  0  0
  1  2  1  0  0  0
  2  3  4  0  0  0
  2  7  4  0  0  0
  3  4  4  0  0  0
  4  5  4  0  0  0
  5  6  4  0  0  0
  6  7  4  0  0  0
  3  8  1  0  0  0
  4  9  1  0  0  0
  5 10  1  0  0  0
  6 11  1  0  0  0
  7 12  1  0  0  0
M  END
$$$$
