1d9i_ligand
  -I-interpret- 

 63 66  0  0  0  0  0  0  0  0999 V2000
   15.5640  -12.1770   21.3760 N   0  0  0  0  0
   14.6340  -11.3620   20.5950 C   0  0  0  0  0
   13.1470  -11.2940   21.1010 C   0  0  0  0  0
   12.4150  -12.6670   20.9440 C   0  0  0  0  0
   11.1010  -12.8180   21.7700 C   0  0  0  0  0
   11.3930  -12.4610   23.2340 C   0  0  0  0  0
   11.6930  -10.9390   23.2670 C   0  0  0  0  0
   13.0620  -10.6940   22.5400 C   0  0  0  0  0
   10.3290  -12.8470   24.1710 N   0  3  0  0  0
   17.3710  -16.9340   24.3950 C   0  0  0  0  0
   17.9450  -15.9540   23.4870 N   0  0  0  0  0
   19.0400  -16.1960   22.6510 C   0  0  0  0  0
   19.7450  -17.2000   22.5880 O   0  0  0  0  0
   19.2010  -15.0530   21.8590 N   0  0  0  0  0
   18.2070  -14.1460   22.2110 N   0  0  0  0  0
   17.4300  -14.6990   23.2110 C   0  0  0  0  0
   16.4570  -14.1480   23.6930 O   0  0  0  0  0
   20.4440  -14.5980   21.2530 C   0  0  0  0  0
   20.1380  -13.4830   20.2800 C   0  0  0  0  0
   19.0090  -12.7640   20.4130 C   0  0  0  0  0
   17.9940  -12.8890   21.5140 C   0  0  0  0  0
   16.5950  -12.9620   20.8130 C   0  0  0  0  0
   16.3630  -13.7750   19.9310 O   0  0  0  0  0
   16.9020  -16.4020   25.7390 C   0  0  0  0  0
   18.2030  -17.0280   26.7510 S   0  0  0  0  0
   17.9480  -16.9120   28.1580 O   0  0  0  0  0
   18.5360  -18.3710   26.2200 O   0  0  0  0  0
   19.7060  -16.1130   26.4360 C   0  0  0  0  0
   20.2580  -15.3020   27.4200 C   0  0  0  0  0
   21.4520  -14.6360   27.1510 C   0  0  0  0  0
   22.0830  -14.7810   25.9190 C   0  0  0  0  0
   21.5350  -15.5990   24.9340 C   0  0  0  0  0
   20.3480  -16.2710   25.2010 C   0  0  0  0  0
   15.4618  -12.1788   22.3909 H   0  0  0  0  0
   14.5918  -11.8219   19.6077 H   0  0  0  0  0
   15.0140  -10.3418   20.6495 H   0  0  0  0  0
   12.6021  -10.6027   20.4581 H   0  0  0  0  0
   13.1022  -13.4311   21.3073 H   0  0  0  0  0
   12.1360  -12.7543   19.8939 H   0  0  0  0  0
   10.7399  -13.8444   21.7051 H   0  0  0  0  0
   10.3363  -12.1507   21.3726 H   0  0  0  0  0
   12.2492  -13.0376   23.5841 H   0  0  0  0  0
   11.7483  -10.5900   24.2981 H   0  0  0  0  0
   10.8976  -10.3890   22.7640 H   0  0  0  0  0
   13.1835   -9.6151   22.4436 H   0  0  0  0  0
   13.8320  -11.1839   23.1360 H   0  0  0  0  0
   10.1720  -13.8530   24.1096 H   0  0  0  0  0
   10.6090  -12.6027   25.1209 H   0  0  0  0  0
    9.4700  -12.3524   23.9306 H   0  0  0  0  0
   18.1618  -17.6529   24.6093 H   0  0  0  0  0
   16.4864  -17.3313   23.8973 H   0  0  0  0  0
   20.9203  -15.4249   20.7263 H   0  0  0  0  0
   21.1191  -14.2346   22.0278 H   0  0  0  0  0
   20.8327  -13.2612   19.4698 H   0  0  0  0  0
   18.8105  -12.0159   19.6455 H   0  0  0  0  0
   18.0652  -12.0584   22.2162 H   0  0  0  0  0
   16.7636  -15.3217   25.7834 H   0  0  0  0  0
   15.8997  -16.7137   26.0330 H   0  0  0  0  0
   19.7655  -15.1887   28.3858 H   0  0  0  0  0
   21.8961  -13.9953   27.9128 H   0  0  0  0  0
   23.0144  -14.2496   25.7233 H   0  0  0  0  0
   22.0292  -15.7105   23.9689 H   0  0  0  0  0
   19.9140  -16.9250   24.4447 H   0  0  0  0  0
  1  2  1  0  0  0
  2  3  1  0  0  0
  3  8  1  0  0  0
  3  4  1  0  0  0
  4  5  1  0  0  0
  5  6  1  0  0  0
  6  9  1  0  0  0
  7  6  1  0  0  0
  8  7  1  0  0  0
 11 10  1  0  0  0
 16 11  1  0  0  0
 11 12  1  0  0  0
 14 12  1  0  0  0
 12 13  2  0  0  0
 14 18  1  0  0  0
 15 14  1  0  0  0
 21 15  1  0  0  0
 15 16  1  0  0  0
 16 17  2  0  0  0
 22 21  1  0  0  0
 21 20  1  0  0  0
 20 19  2  0  0  0
 19 18  1  0  0  0
 22 23  2  0  0  0
 24 25  1  0  0  0
 25 28  1  0  0  0
 25 27  2  0  0  0
 25 26  2  0  0  0
 28 33  4  0  0  0
 28 29  4  0  0  0
 29 30  4  0  0  0
 30 31  4  0  0  0
 32 31  4  0  0  0
 33 32  4  0  0  0
 10 24  1  0  0  0
 22  1  1  0  0  0
  1 34  1  0  0  0
  2 35  1  0  0  0
  2 36  1  0  0  0
  3 37  1  0  0  0
  4 38  1  0  0  0
  4 39  1  0  0  0
  5 40  1  0  0  0
  5 41  1  0  0  0
  6 42  1  0  0  0
  7 43  1  0  0  0
  7 44  1  0  0  0
  8 45  1  0  0  0
  8 46  1  0  0  0
  9 47  1  0  0  0
  9 48  1  0  0  0
  9 49  1  0  0  0
 10 50  1  0  0  0
 10 51  1  0  0  0
 18 52  1  0  0  0
 18 53  1  0  0  0
 19 54  1  0  0  0
 20 55  1  0  0  0
 21 56  1  0  0  0
 24 57  1  0  0  0
 24 58  1  0  0  0
 29 59  1  0  0  0
 30 60  1  0  0  0
 31 61  1  0  0  0
 32 62  1  0  0  0
 33 63  1  0  0  0
M  END
$$$$
