3tpp_ligand
  -I-interpret- 

 80 83  0  0  0  0  0  0  0  0999 V2000
   26.3450   36.1600    2.4520 C   0  0  0  0  0
   27.6890   35.5430    2.2710 C   0  0  0  0  0
   26.7370   34.7200    3.0660 C   0  0  0  0  0
   28.7400   36.1130    3.0810 N   0  3  0  0  0
   29.4950   37.0920    2.2420 C   0  0  0  0  0
   30.8220   37.4050    2.9060 C   0  0  0  0  0
   31.5150   38.3460    1.9300 C   0  0  0  0  0
   31.0010   39.7030    1.7940 N   0  0  0  0  0
   30.1900   40.0840    0.7690 C   0  0  0  0  0
   29.9240   39.3110   -0.1310 O   0  0  0  0  0
   31.5100   36.1420    3.0210 O   0  0  0  0  0
   33.0390   38.5410    2.3710 C   0  0  0  0  0
   29.7870   41.5160    0.8260 C   0  0  0  0  0
   30.7350   42.4270    1.3270 C   0  0  0  0  0
   30.3550   43.7710    1.4300 C   0  0  0  0  0
   29.0860   44.2090    0.9470 C   0  0  0  0  0
   28.1500   43.2680    0.5480 C   0  0  0  0  0
   28.4700   41.9470    0.4230 C   0  0  0  0  0
   31.3150   44.8100    1.9260 C   0  0  0  0  0
   26.8170   43.5970    0.1170 N   0  0  0  0  0
   31.4640   45.9420    1.4200 O   0  0  0  0  0
   26.1550   42.8100   -0.9810 C   0  0  0  0  0
   25.9860   44.7960    0.7960 S   0  0  0  0  0
   26.3030   46.2370   -0.1690 C   0  0  0  0  0
   24.5950   44.4440    0.7080 O   0  0  0  0  0
   26.5450   45.0600    2.1220 O   0  0  0  0  0
   33.5910   39.7890    0.2230 C   0  0  0  0  0
   34.2860   40.7690   -0.4490 C   0  0  0  0  0
   35.1450   41.6850    0.2020 C   0  0  0  0  0
   35.3230   41.5390    1.5960 C   0  0  0  0  0
   34.5870   40.5130    2.2660 C   0  0  0  0  0
   33.7960   39.6420    1.5800 C   0  0  0  0  0
   32.0780   44.3060    2.9780 N   0  0  0  0  0
   33.0830   45.1870    3.5950 C   0  0  0  0  0
   34.4230   44.4130    3.7510 C   0  0  0  0  0
   32.6190   45.5730    4.9960 C   0  0  0  0  0
   32.1930   44.5870    5.9230 C   0  0  0  0  0
   31.7960   45.0120    7.2010 C   0  0  0  0  0
   31.6650   46.3500    7.5640 C   0  0  0  0  0
   32.0410   47.2890    6.6000 C   0  0  0  0  0
   32.4990   46.8990    5.3430 C   0  0  0  0  0
   25.5559   36.6407    1.8737 H   0  0  0  0  0
   25.8860   37.1033    2.7480 H   0  0  0  0  0
   28.2861   35.3553    1.3786 H   0  0  0  0  0
   26.3555   33.7007    3.1267 H   0  0  0  0  0
   26.6861   34.1640    4.0021 H   0  0  0  0  0
   29.3655   35.3786    3.4123 H   0  0  0  0  0
   28.3414   36.5817    3.8945 H   0  0  0  0  0
   28.9138   38.0084    2.1395 H   0  0  0  0  0
   29.6732   36.6648    1.2552 H   0  0  0  0  0
   30.7657   37.8633    3.8934 H   0  0  0  0  0
   31.3467   37.8430    0.9778 H   0  0  0  0  0
   31.2597   40.3962    2.4961 H   0  0  0  0  0
   31.0428   35.5799    3.6434 H   0  0  0  0  0
   33.5517   37.5983    2.1799 H   0  0  0  0  0
   33.0341   38.8438    3.4181 H   0  0  0  0  0
   31.7307   42.0981    1.6246 H   0  0  0  0  0
   28.8550   45.2728    0.8924 H   0  0  0  0  0
   27.7470   41.2336    0.0276 H   0  0  0  0  0
   26.7492   42.8883   -1.8915 H   0  0  0  0  0
   26.0809   41.7642   -0.6828 H   0  0  0  0  0
   25.1569   43.2092   -1.1615 H   0  0  0  0  0
   26.0468   46.0393   -1.2099 H   0  0  0  0  0
   25.6982   47.0633    0.2047 H   0  0  0  0  0
   27.3592   46.4962   -0.0964 H   0  0  0  0  0
   32.8921   39.1414   -0.3065 H   0  0  0  0  0
   34.1692   40.8423   -1.5302 H   0  0  0  0  0
   35.6516   42.4753   -0.3520 H   0  0  0  0  0
   36.0026   42.1906    2.1452 H   0  0  0  0  0
   34.6605   40.4258    3.3500 H   0  0  0  0  0
   31.9435   43.3515    3.3116 H   0  0  0  0  0
   33.2141   46.0688    2.9679 H   0  0  0  0  0
   34.2653   43.5402    4.3846 H   0  0  0  0  0
   34.7725   44.0927    2.7695 H   0  0  0  0  0
   35.1670   45.0656    4.2079 H   0  0  0  0  0
   32.1745   43.5316    5.6513 H   0  0  0  0  0
   31.5781   44.2518    7.9512 H   0  0  0  0  0
   31.2908   46.6476    8.5435 H   0  0  0  0  0
   31.9745   48.3509    6.8366 H   0  0  0  0  0
   32.7693   47.6645    4.6156 H   0  0  0  0  0
  2  1  1  0  0  0
  3  1  1  0  0  0
  2  3  1  0  0  0
  4  2  1  0  0  0
  5  4  1  0  0  0
  6  5  1  0  0  0
  7  6  1  0  0  0
  6 11  1  0  0  0
  7  8  1  0  0  0
 12  7  1  0  0  0
  8  9  1  0  0  0
  9 10  2  0  0  0
  9 13  1  0  0  0
 32 12  1  0  0  0
 13 14  4  0  0  0
 13 18  4  0  0  0
 14 15  4  0  0  0
 15 16  4  0  0  0
 15 19  1  0  0  0
 17 16  4  0  0  0
 18 17  4  0  0  0
 17 20  1  0  0  0
 19 21  2  0  0  0
 19 33  1  0  0  0
 20 22  1  0  0  0
 20 23  1  0  0  0
 23 24  1  0  0  0
 23 25  2  0  0  0
 23 26  2  0  0  0
 27 28  4  0  0  0
 27 32  4  0  0  0
 28 29  4  0  0  0
 29 30  4  0  0  0
 30 31  4  0  0  0
 31 32  4  0  0  0
 33 34  1  0  0  0
 34 35  1  0  0  0
 34 36  1  0  0  0
 36 37  4  0  0  0
 36 41  4  0  0  0
 37 38  4  0  0  0
 38 39  4  0  0  0
 39 40  4  0  0  0
 40 41  4  0  0  0
  1 42  1  0  0  0
  1 43  1  0  0  0
  2 44  1  0  0  0
  3 45  1  0  0  0
  3 46  1  0  0  0
  4 47  1  0  0  0
  4 48  1  0  0  0
  5 49  1  0  0  0
  5 50  1  0  0  0
  6 51  1  0  0  0
  7 52  1  0  0  0
  8 53  1  0  0  0
 11 54  1  0  0  0
 12 55  1  0  0  0
 12 56  1  0  0  0
 14 57  1  0  0  0
 16 58  1  0  0  0
 18 59  1  0  0  0
 22 60  1  0  0  0
 22 61  1  0  0  0
 22 62  1  0  0  0
 24 63  1  0  0  0
 24 64  1  0  0  0
 24 65  1  0  0  0
 27 66  1  0  0  0
 28 67  1  0  0  0
 29 68  1  0  0  0
 30 69  1  0  0  0
 31 70  1  0  0  0
 33 71  1  0  0  0
 34 72  1  0  0  0
 35 73  1  0  0  0
 35 74  1  0  0  0
 35 75  1  0  0  0
 37 76  1  0  0  0
 38 77  1  0  0  0
 39 78  1  0  0  0
 40 79  1  0  0  0
 41 80  1  0  0  0
M  END
$$$$
