3co9_ligand
  -I-interpret- 

 56 59  0  0  0  0  0  0  0  0999 V2000
   31.5070   46.1490   49.3590 C   0  0  0  0  0
   32.1790   45.1600   58.3310 C   0  0  0  0  0
   32.5910   44.2980   48.6480 C   0  0  0  0  0
   33.3850   44.5320   56.2850 C   0  0  0  0  0
   32.7350   44.0560   58.9890 C   0  0  0  0  0
   32.1910   45.6160   50.4330 C   0  0  0  0  0
   32.9510   45.3700   54.1260 C   0  0  0  0  0
   37.8190   44.1400   49.2730 C   0  0  0  0  0
   30.5320   45.1650   61.6150 C   0  0  0  0  0
   36.6720   43.8530   50.2510 C   0  0  0  0  0
   32.8040   46.2900   61.0340 O   0  0  0  0  0
   32.3000   45.0150   61.5210 S   0  0  0  0  0
   32.7500   44.4650   62.7890 O   0  0  0  0  0
   32.4240   43.7740   60.3520 N   0  0  0  0  0
   33.6070   43.1910   58.3110 C   0  0  0  0  0
   32.5140   45.3780   56.9900 C   0  0  0  0  0
   31.8750   46.7790   56.1520 S   0  0  0  0  0
   30.4710   46.9510   56.4700 O   0  0  0  0  0
   32.8590   47.8040   56.4120 O   0  0  0  0  0
   31.9800   46.3070   54.5390 N   0  0  0  0  0
   33.7440   44.7300   54.9460 N   0  0  0  0  0
   33.9340   43.4290   56.9670 C   0  0  0  0  0
   32.9890   45.1780   52.6660 C   0  0  0  0  0
   32.3320   45.9880   51.7900 C   0  0  0  0  0
   31.7980   47.2230   52.0720 O   0  0  0  0  0
   33.7690   44.0090   52.1530 C   0  0  0  0  0
   34.3780   43.3240   52.9660 O   0  0  0  0  0
   33.6550   43.6980   50.7990 N   0  0  0  0  0
   32.8480   44.5000   49.9800 N   0  0  0  0  0
   31.7620   45.3200   48.2420 C   0  0  0  0  0
   34.3380   42.5190   50.2860 C   0  0  0  0  0
   35.6610   42.8730   49.5860 C   0  0  0  0  0
   37.2660   43.3580   51.5780 C   0  0  0  0  0
   30.8849   47.0440   49.3699 H   0  0  0  0  0
   31.5000   45.8349   58.8521 H   0  0  0  0  0
   32.9702   43.4846   48.0294 H   0  0  0  0  0
   38.3245   43.2070   49.0240 H   0  0  0  0  0
   37.4169   44.5902   48.3654 H   0  0  0  0  0
   38.5275   44.8260   49.7372 H   0  0  0  0  0
   30.2730   45.9718   62.3007 H   0  0  0  0  0
   30.1343   45.3864   60.6246 H   0  0  0  0  0
   30.1079   44.2285   61.9772 H   0  0  0  0  0
   36.1019   44.7517   50.4865 H   0  0  0  0  0
   32.2716   42.8065   60.6367 H   0  0  0  0  0
   34.0318   42.3315   58.8296 H   0  0  0  0  0
   31.3357   46.7021   53.8540 H   0  0  0  0  0
   34.6168   42.7562   56.4481 H   0  0  0  0  0
   31.3901   47.5823   51.2807 H   0  0  0  0  0
   31.3706   45.4647   47.2351 H   0  0  0  0  0
   33.6856   42.0397   49.5561 H   0  0  0  0  0
   34.5641   41.8647   51.1279 H   0  0  0  0  0
   36.1991   41.9264   49.5363 H   0  0  0  0  0
   35.3528   43.3845   48.6741 H   0  0  0  0  0
   37.8383   42.4473   51.4012 H   0  0  0  0  0
   37.9207   44.1257   51.9904 H   0  0  0  0  0
   36.4591   43.1509   52.2809 H   0  0  0  0  0
  6  1  4  0  0  0
  1 30  4  0  0  0
  2  5  4  0  0  0
 16  2  4  0  0  0
 29  3  4  0  0  0
  3 30  4  0  0  0
  4 16  4  0  0  0
 21  4  1  0  0  0
  4 22  4  0  0  0
  5 14  1  0  0  0
 15  5  4  0  0  0
  6 24  1  0  0  0
 29  6  4  0  0  0
  7 20  1  0  0  0
  7 21  2  0  0  0
 23  7  1  0  0  0
 10  8  1  0  0  0
 12  9  1  0  0  0
 32 10  1  0  0  0
 10 33  1  0  0  0
 12 11  2  0  0  0
 12 13  2  0  0  0
 14 12  1  0  0  0
 22 15  4  0  0  0
 17 16  1  0  0  0
 17 18  2  0  0  0
 17 19  2  0  0  0
 20 17  1  0  0  0
 23 24  2  0  0  0
 26 23  1  0  0  0
 24 25  1  0  0  0
 26 27  2  0  0  0
 28 26  1  0  0  0
 28 29  1  0  0  0
 31 28  1  0  0  0
 31 32  1  0  0  0
  1 34  1  0  0  0
  2 35  1  0  0  0
  3 36  1  0  0  0
  8 37  1  0  0  0
  8 38  1  0  0  0
  8 39  1  0  0  0
  9 40  1  0  0  0
  9 41  1  0  0  0
  9 42  1  0  0  0
 10 43  1  0  0  0
 14 44  1  0  0  0
 15 45  1  0  0  0
 20 46  1  0  0  0
 22 47  1  0  0  0
 25 48  1  0  0  0
 30 49  1  0  0  0
 31 50  1  0  0  0
 31 51  1  0  0  0
 32 52  1  0  0  0
 32 53  1  0  0  0
 33 54  1  0  0  0
 33 55  1  0  0  0
 33 56  1  0  0  0
M  END
$$$$
