3iad_ligand
  -I-interpret- 

 47 49  0  0  0  0  0  0  0  0999 V2000
   22.7280   -6.9260   32.5510 C   0  0  0  0  0
   23.7980   -7.6260   32.0000 C   0  0  0  0  0
   24.0620   -8.9420   32.3790 C   0  0  0  0  0
   23.2290   -9.5510   33.3150 C   0  0  0  0  0
   22.1500   -8.8520   33.8610 C   0  0  0  0  0
   21.8910   -7.5420   33.4750 C   0  0  0  0  0
   21.9200   -2.9210   31.0500 C   0  0  0  0  0
   21.9750   -3.9730   30.1330 C   0  0  0  0  0
   22.2490   -5.3420   30.6390 C   0  0  0  0  0
   22.4640   -5.5410   32.0890 C   0  0  0  0  0
   22.3830   -4.3650   32.9880 C   0  0  0  0  0
   22.1160   -3.1070   32.4250 C   0  0  0  0  0
   21.7650   -3.7260   28.6470 C   0  0  0  0  0
   20.6390   -4.5900   28.1350 C   0  0  0  0  0
   20.8920   -5.7970   27.4800 C   0  0  0  0  0
   19.8420   -6.5970   27.0240 C   0  0  0  0  0
   18.5120   -6.1960   27.2040 C   0  0  0  0  0
   18.2840   -4.9860   27.8660 C   0  0  0  0  0
   19.3260   -4.1850   28.3270 C   0  0  0  0  0
   22.8380   -3.4540   35.2200 C   0  0  0  0  0
   22.5770   -4.5430   34.3370 O   0  0  0  0  0
   25.1590   -9.6290   31.8220 N   0  0  0  0  0
   25.3700  -10.8050   32.0950 O   0  0  0  0  0
   17.3810   -6.8720   26.8370 N   0  0  0  0  0
   26.0270   -8.9730   30.9450 O   0  0  0  0  0
   17.2050   -8.1250   26.3590 C   0  0  0  0  0
   18.1480   -9.0010   25.9820 N   0  0  0  0  0
   16.0460   -8.5010   26.2890 O   0  0  0  0  0
   22.3170   -6.4070   29.8180 F   0  0  0  0  0
   24.4373   -7.1395   31.2633 H   0  0  0  0  0
   23.4204  -10.5789   33.6230 H   0  0  0  0  0
   21.5065   -9.3372   34.5949 H   0  0  0  0  0
   21.0404   -7.0030   33.8924 H   0  0  0  0  0
   21.7166   -1.9155   30.6816 H   0  0  0  0  0
   22.0589   -2.2404   33.0837 H   0  0  0  0  0
   22.6802   -3.9735   28.1092 H   0  0  0  0  0
   21.5127   -2.6773   28.4897 H   0  0  0  0  0
   21.9215   -6.1187   27.3227 H   0  0  0  0  0
   20.0592   -7.5409   26.5241 H   0  0  0  0  0
   17.2568   -4.6586   28.0267 H   0  0  0  0  0
   19.1111   -3.2453   28.8357 H   0  0  0  0  0
   23.7521   -2.9476   34.9100 H   0  0  0  0  0
   22.0038   -2.7532   35.1870 H   0  0  0  0  0
   22.9569   -3.8318   36.2355 H   0  0  0  0  0
   16.5188   -6.3373   26.9423 H   0  0  0  0  0
   17.8803   -9.9299   25.6567 H   0  0  0  0  0
   19.1328   -8.7383   26.0206 H   0  0  0  0  0
  1  2  4  0  0  0
  1  6  4  0  0  0
 10  1  1  0  0  0
  2  3  4  0  0  0
  3  4  4  0  0  0
  3 22  1  0  0  0
  5  4  4  0  0  0
  6  5  4  0  0  0
  8  7  4  0  0  0
  7 12  4  0  0  0
  9  8  4  0  0  0
  8 13  1  0  0  0
  9 10  4  0  0  0
  9 29  1  0  0  0
 10 11  4  0  0  0
 11 12  4  0  0  0
 11 21  1  0  0  0
 13 14  1  0  0  0
 14 15  4  0  0  0
 14 19  4  0  0  0
 15 16  4  0  0  0
 16 17  4  0  0  0
 17 18  4  0  0  0
 17 24  1  0  0  0
 18 19  4  0  0  0
 21 20  1  0  0  0
 22 23  2  0  0  0
 22 25  2  0  0  0
 24 26  1  0  0  0
 26 27  1  0  0  0
 26 28  2  0  0  0
  2 30  1  0  0  0
  4 31  1  0  0  0
  5 32  1  0  0  0
  6 33  1  0  0  0
  7 34  1  0  0  0
 12 35  1  0  0  0
 13 36  1  0  0  0
 13 37  1  0  0  0
 15 38  1  0  0  0
 16 39  1  0  0  0
 18 40  1  0  0  0
 19 41  1  0  0  0
 20 42  1  0  0  0
 20 43  1  0  0  0
 20 44  1  0  0  0
 24 45  1  0  0  0
 27 46  1  0  0  0
 27 47  1  0  0  0
M  END
$$$$
