2o4k_ligand
  -I-interpret- 

104106  0  0  0  0  0  0  0  0999 V2000
   19.9960   24.6420   15.9400 C   0  0  0  0  0
   18.6010   24.7680   16.2440 O   0  0  0  0  0
   18.0660   23.9900   17.3300 C   0  0  0  0  0
   18.8570   23.4040   18.0640 O   0  0  0  0  0
   16.7420   23.9590   17.4700 N   0  0  0  0  0
   16.0550   23.2110   18.5180 C   0  0  0  0  0
   15.6220   24.1410   19.6690 C   0  0  0  0  0
   14.8510   25.3620   19.1550 C   0  0  0  0  0
   14.7800   23.3760   20.6930 C   0  0  0  0  0
   16.8360   24.6950   20.4060 C   0  0  0  0  0
   14.9460   22.4340   17.8320 C   0  0  0  0  0
   13.8950   22.9880   17.5010 O   0  0  0  0  0
   15.2360   21.1330   17.5810 N   0  0  0  0  0
   14.3530   20.1860   16.8830 C   0  0  0  0  0
   15.0910   19.7310   15.6190 C   0  0  0  0  0
   15.5160   20.9260   14.7900 C   0  0  0  0  0
   14.5530   21.6110   14.0390 C   0  0  0  0  0
   14.9390   22.7120   13.2720 C   0  0  0  0  0
   16.2720   23.1330   13.2480 C   0  0  0  0  0
   17.2340   22.4490   13.9910 C   0  0  0  0  0
   16.8530   21.3450   14.7570 C   0  0  0  0  0
   14.1300   18.9750   17.7880 C   0  0  0  0  0
   15.3430   18.3350   18.2380 O   0  0  0  0  0
   13.4270   19.5100   18.9990 C   0  0  0  0  0
   12.0240   19.1580   19.0510 N   0  3  0  0  0
   11.2680   18.3190   18.1710 N   0  0  0  0  0
   10.5070   18.6270   17.1130 C   0  0  0  0  0
   10.3380   19.7450   16.6320 O   0  0  0  0  0
    9.7910   17.4260   16.5440 C   0  0  0  0  0
    9.8220   17.2830   15.0160 C   0  0  0  0  0
   11.2620   17.4200   14.5270 C   0  0  0  0  0
    9.3190   15.8950   14.6260 C   0  0  0  0  0
    8.9460   18.3060   14.2990 C   0  0  0  0  0
    8.4160   17.4600   17.0610 N   0  0  0  0  0
    7.8660   16.4210   17.6960 C   0  0  0  0  0
    8.4370   15.3410   17.9260 O   0  0  0  0  0
    6.5120   16.6080   18.1490 O   0  0  0  0  0
    5.9140   15.6250   18.9930 C   0  0  0  0  0
   11.4270   19.6170   20.3090 C   0  0  0  0  0
    9.9240   19.7340   20.2450 C   0  0  0  0  0
    9.3950   20.9700   19.9050 C   0  0  0  0  0
    8.0150   21.1300   19.8370 C   0  0  0  0  0
    9.0890   18.6560   20.5260 C   0  0  0  0  0
    7.7010   18.8210   20.4470 C   0  0  0  0  0
    7.1570   20.0630   20.1090 C   0  0  0  0  0
    5.6730   20.2450   20.0080 C   0  0  0  0  0
    5.1410   21.1270   19.0610 C   0  0  0  0  0
    3.7590   21.2810   18.9690 C   0  0  0  0  0
    2.9350   20.5490   19.8220 C   0  0  0  0  0
    3.5030   19.6770   20.7510 C   0  0  0  0  0
    4.8380   19.5490   20.8240 N   0  0  0  0  0
   20.5840   24.9333   16.8104 H   0  0  0  0  0
   20.2178   23.6070   15.6799 H   0  0  0  0  0
   20.2434   25.2903   15.0994 H   0  0  0  0  0
   16.1758   24.4883   16.8069 H   0  0  0  0  0
   16.6994   22.4913   19.0228 H   0  0  0  0  0
   13.9256   25.0331   18.6822 H   0  0  0  0  0
   14.6189   26.0219   19.9910 H   0  0  0  0  0
   15.4622   25.8962   18.4276 H   0  0  0  0  0
   14.5477   24.0311   21.5326 H   0  0  0  0  0
   13.8544   23.0424   20.2239 H   0  0  0  0  0
   15.3404   22.5116   21.0492 H   0  0  0  0  0
   17.4411   25.2832   19.7161 H   0  0  0  0  0
   16.5025   25.3274   21.2288 H   0  0  0  0  0
   17.4294   23.8691   20.7983 H   0  0  0  0  0
   16.1388   20.7833   17.9020 H   0  0  0  0  0
   13.3946   20.6422   16.6351 H   0  0  0  0  0
   14.4223   19.1086   15.0244 H   0  0  0  0  0
   15.9788   19.1702   15.9111 H   0  0  0  0  0
   13.5121   21.2879   14.0530 H   0  0  0  0  0
   14.1933   23.2489   12.6858 H   0  0  0  0  0
   16.5597   23.9964   12.6482 H   0  0  0  0  0
   18.2745   22.7733   13.9740 H   0  0  0  0  0
   17.6026   20.8041   15.3346 H   0  0  0  0  0
   13.5782   18.2219   17.2254 H   0  0  0  0  0
   15.1204   17.5878   18.7982 H   0  0  0  0  0
   13.4920   20.5975   18.9632 H   0  0  0  0  0
   13.9074   19.0766   19.8762 H   0  0  0  0  0
   11.8602   19.3009   18.0544 H   0  0  0  0  0
   11.3171   17.3229   18.3851 H   0  0  0  0  0
   10.3314   16.5375   16.8706 H   0  0  0  0  0
   11.6493   18.3985   14.8110 H   0  0  0  0  0
   11.8740   16.6401   14.9801 H   0  0  0  0  0
   11.2871   17.3189   13.4420 H   0  0  0  0  0
    9.9608   15.1376   15.0761 H   0  0  0  0  0
    8.2974   15.7665   14.9835 H   0  0  0  0  0
    9.3411   15.7936   13.5410 H   0  0  0  0  0
    7.9115   18.1857   14.6208 H   0  0  0  0  0
    9.2893   19.3112   14.5434 H   0  0  0  0  0
    9.0135   18.1493   13.2224 H   0  0  0  0  0
    7.8620   18.3064   16.9306 H   0  0  0  0  0
    5.8958   14.6660   18.4753 H   0  0  0  0  0
    6.4956   15.5332   19.9103 H   0  0  0  0  0
    4.8954   15.9276   19.2359 H   0  0  0  0  0
   11.8269   20.6083   20.5224 H   0  0  0  0  0
   11.6690   18.8824   21.0771 H   0  0  0  0  0
   10.0560   21.8102   19.6925 H   0  0  0  0  0
    7.5983   22.1006   19.5680 H   0  0  0  0  0
    9.5125   17.6913   20.8053 H   0  0  0  0  0
    7.0418   17.9770   20.6500 H   0  0  0  0  0
    5.8018   21.6888   18.4009 H   0  0  0  0  0
    3.3277   21.9657   18.2387 H   0  0  0  0  0
    1.8520   20.6573   19.7635 H   0  0  0  0  0
    2.8631   19.0993   21.4180 H   0  0  0  0  0
  1  2  1  0  0  0
  2  3  1  0  0  0
  3  4  2  0  0  0
  3  5  1  0  0  0
  5  6  1  0  0  0
  6  7  1  0  0  0
  6 11  1  0  0  0
  7  8  1  0  0  0
  7  9  1  0  0  0
  7 10  1  0  0  0
 11 12  2  0  0  0
 11 13  1  0  0  0
 13 14  1  0  0  0
 14 15  1  0  0  0
 14 22  1  0  0  0
 15 16  1  0  0  0
 16 17  4  0  0  0
 16 21  4  0  0  0
 17 18  4  0  0  0
 18 19  4  0  0  0
 19 20  4  0  0  0
 20 21  4  0  0  0
 22 23  1  0  0  0
 22 24  1  0  0  0
 24 25  1  0  0  0
 25 26  1  0  0  0
 25 39  1  0  0  0
 26 27  1  0  0  0
 27 28  2  0  0  0
 27 29  1  0  0  0
 29 30  1  0  0  0
 29 34  1  0  0  0
 30 31  1  0  0  0
 30 32  1  0  0  0
 30 33  1  0  0  0
 34 35  1  0  0  0
 35 36  2  0  0  0
 35 37  1  0  0  0
 37 38  1  0  0  0
 39 40  1  0  0  0
 40 41  4  0  0  0
 40 43  4  0  0  0
 41 42  4  0  0  0
 42 45  4  0  0  0
 43 44  4  0  0  0
 44 45  4  0  0  0
 45 46  1  0  0  0
 46 47  4  0  0  0
 46 51  4  0  0  0
 47 48  4  0  0  0
 48 49  4  0  0  0
 49 50  4  0  0  0
 50 51  4  0  0  0
  1 52  1  0  0  0
  1 53  1  0  0  0
  1 54  1  0  0  0
  5 55  1  0  0  0
  6 56  1  0  0  0
  8 57  1  0  0  0
  8 58  1  0  0  0
  8 59  1  0  0  0
  9 60  1  0  0  0
  9 61  1  0  0  0
  9 62  1  0  0  0
 10 63  1  0  0  0
 10 64  1  0  0  0
 10 65  1  0  0  0
 13 66  1  0  0  0
 14 67  1  0  0  0
 15 68  1  0  0  0
 15 69  1  0  0  0
 17 70  1  0  0  0
 18 71  1  0  0  0
 19 72  1  0  0  0
 20 73  1  0  0  0
 21 74  1  0  0  0
 22 75  1  0  0  0
 23 76  1  0  0  0
 24 77  1  0  0  0
 24 78  1  0  0  0
 25 79  1  0  0  0
 26 80  1  0  0  0
 29 81  1  0  0  0
 31 82  1  0  0  0
 31 83  1  0  0  0
 31 84  1  0  0  0
 32 85  1  0  0  0
 32 86  1  0  0  0
 32 87  1  0  0  0
 33 88  1  0  0  0
 33 89  1  0  0  0
 33 90  1  0  0  0
 34 91  1  0  0  0
 38 92  1  0  0  0
 38 93  1  0  0  0
 38 94  1  0  0  0
 39 95  1  0  0  0
 39 96  1  0  0  0
 41 97  1  0  0  0
 42 98  1  0  0  0
 43 99  1  0  0  0
 44100  1  0  0  0
 47101  1  0  0  0
 48102  1  0  0  0
 49103  1  0  0  0
 50104  1  0  0  0
M  END
$$$$
