4wf2_ligand
  -I-interpret- 

 67 71  0  0  0  0  0  0  0  0999 V2000
   -1.9090   24.1670    8.2790 P   0  0  0  0  0
   -0.8070   23.5500    9.1220 O   0  0  0  0  0
   -1.6360   25.5120    7.6430 O   0  0  0  0  0
   -3.2130   24.3390    9.1800 O   0  0  0  0  0
   -3.2290   23.9500   10.5510 C   0  0  0  0  0
   -3.5130   25.1240   11.4530 C   0  0  0  0  0
   -4.4840   25.9810   10.8100 O   0  0  0  0  0
   -4.0610   24.7540   12.8300 C   0  0  0  0  0
   -3.1160   25.1520   13.8240 O   0  0  0  0  0
   -5.3370   25.5890   12.9960 C   0  0  0  0  0
   -5.2130   26.6640   13.9010 O   0  0  0  0  0
   -5.6610   26.0780   11.5790 C   0  0  0  0  0
   -6.7400   25.3500   10.9010 N   0  0  0  0  0
   -7.2260   24.1450   11.2660 C   0  0  0  0  0
   -8.2230   23.8170   10.3970 N   0  0  0  0  0
   -8.3530   24.8240    9.4980 C   0  0  0  0  0
   -9.1990   25.0040    8.4170 C   0  0  0  0  0
  -10.2440   24.2250    7.8370 N   0  0  0  0  0
   -9.1170   26.1230    7.6750 N   0  0  0  0  0
   -8.1880   27.0900    7.9900 C   0  0  0  0  0
   -7.3540   26.9150    9.0520 N   0  0  0  0  0
   -7.4380   25.7780    9.8080 C   0  0  0  0  0
   -2.2880   23.4630    5.7520 C   0  0  0  0  0
   -2.2880   23.1100    7.1540 O   0  0  0  0  0
   -2.4770   22.1910    4.8980 C   0  0  0  0  0
   -3.8900   21.6000    5.1250 C   0  0  0  0  0
   -4.0370   20.2600    4.3620 C   0  0  0  0  0
   -5.4550   19.7260    4.5750 C   0  0  0  0  0
   -5.8490   18.6930    3.4100 C   0  0  0  0  0
   -7.4360   18.2150    3.5390 S   0  0  0  0  0
   -7.4190   16.8140    2.6160 C   0  0  0  0  0
   -6.0730   16.2430    2.8700 C   0  0  0  0  0
   -6.2200   15.3030    3.7950 N   0  0  0  0  0
   -5.4090   15.7510    5.0670 C   0  0  0  0  0
   -5.3130   15.1290    6.1290 O   0  0  0  0  0
   -4.7510   17.1060    4.7330 N   0  0  0  0  0
   -5.0960   17.4320    3.4880 C   0  0  0  0  0
   -1.1040   22.7042    9.4656 H   0  0  0  0  0
   -2.2498   23.5456   10.8074 H   0  0  0  0  0
   -4.0151   23.2080   10.6910 H   0  0  0  0  0
   -2.5522   25.6128   11.6146 H   0  0  0  0  0
   -4.2503   23.6850   12.9275 H   0  0  0  0  0
   -2.3138   24.6337   13.7270 H   0  0  0  0  0
   -6.1325   24.9866   13.4346 H   0  0  0  0  0
   -6.0472   27.1365   13.9511 H   0  0  0  0  0
   -6.0216   27.1020   11.6760 H   0  0  0  0  0
   -6.8822   23.5417   12.1062 H   0  0  0  0  0
  -10.4916   23.3220    8.2415 H   0  0  0  0  0
  -10.7436   24.5711    7.0178 H   0  0  0  0  0
   -8.1204   27.9964    7.3884 H   0  0  0  0  0
   -1.3382   23.9329    5.4967 H   0  0  0  0  0
   -3.1044   24.1574    5.5533 H   0  0  0  0  0
   -1.7302   21.4520    5.1883 H   0  0  0  0  0
   -2.3625   22.4479    3.8449 H   0  0  0  0  0
   -4.6354   22.3046    4.7562 H   0  0  0  0  0
   -4.0359   21.4222    6.1905 H   0  0  0  0  0
   -3.3102   19.5393    4.7367 H   0  0  0  0  0
   -3.8571   20.4182    3.2986 H   0  0  0  0  0
   -6.1542   20.5620    4.5579 H   0  0  0  0  0
   -5.4986   19.2106    5.5345 H   0  0  0  0  0
   -5.6364   19.2336    2.4877 H   0  0  0  0  0
   -7.5951   17.0102    1.5584 H   0  0  0  0  0
   -8.2205   16.1270    2.8874 H   0  0  0  0  0
   -5.6365   15.8425    1.9550 H   0  0  0  0  0
   -6.7616   14.4440    3.6988 H   0  0  0  0  0
   -4.1573   17.6548    5.3549 H   0  0  0  0  0
   -4.1682   17.5469    2.9276 H   0  0  0  0  0
  1  2  1  0  0  0
  1  3  2  0  0  0
  1  4  1  0  0  0
  1 24  1  0  0  0
  4  5  1  0  0  0
  5  6  1  0  0  0
  6  7  1  0  0  0
  6  8  1  0  0  0
  7 12  1  0  0  0
  8  9  1  0  0  0
  8 10  1  0  0  0
 10 11  1  0  0  0
 10 12  1  0  0  0
 12 13  1  0  0  0
 13 14  4  0  0  0
 13 22  4  0  0  0
 14 15  4  0  0  0
 15 16  4  0  0  0
 16 17  4  0  0  0
 16 22  4  0  0  0
 17 18  1  0  0  0
 17 19  4  0  0  0
 19 20  4  0  0  0
 20 21  4  0  0  0
 21 22  4  0  0  0
 24 23  1  0  0  0
 23 25  1  0  0  0
 25 26  1  0  0  0
 26 27  1  0  0  0
 27 28  1  0  0  0
 28 29  1  0  0  0
 29 30  1  0  0  0
 29 37  1  0  0  0
 30 31  1  0  0  0
 31 32  1  0  0  0
 32 33  1  0  0  0
 32 37  1  0  0  0
 33 34  1  0  0  0
 34 35  2  0  0  0
 34 36  1  0  0  0
 36 37  1  0  0  0
  2 38  1  0  0  0
  5 39  1  0  0  0
  5 40  1  0  0  0
  6 41  1  0  0  0
  8 42  1  0  0  0
  9 43  1  0  0  0
 10 44  1  0  0  0
 11 45  1  0  0  0
 12 46  1  0  0  0
 14 47  1  0  0  0
 18 48  1  0  0  0
 18 49  1  0  0  0
 20 50  1  0  0  0
 23 51  1  0  0  0
 23 52  1  0  0  0
 25 53  1  0  0  0
 25 54  1  0  0  0
 26 55  1  0  0  0
 26 56  1  0  0  0
 27 57  1  0  0  0
 27 58  1  0  0  0
 28 59  1  0  0  0
 28 60  1  0  0  0
 29 61  1  0  0  0
 31 62  1  0  0  0
 31 63  1  0  0  0
 32 64  1  0  0  0
 33 65  1  0  0  0
 36 66  1  0  0  0
 37 67  1  0  0  0
M  END
$$$$
