### 
### Created by X-TOOL on Mon Sep 10 21:13:17 2018
### 

@<TRIPOS>MOLECULE
4wf2_ligand
   66    70     1     0     0
SMALL
GAST_HUCK


@<TRIPOS>ATOM
      1 P          -1.9090   24.1670    8.2790 P.3       1 BTX         0.2552
      2 O1P        -0.8070   23.5500    9.1220 O.co2     1 BTX        -0.6177
      3 O2P        -1.6360   25.5120    7.6430 O.co2     1 BTX        -0.6177
      4 O5'        -3.2130   24.3390    9.1800 O.3       1 BTX        -0.2514
      5 C5'        -3.2290   23.9500   10.5510 C.3       1 BTX         0.1124
      6 C4'        -3.5130   25.1240   11.4530 C.3       1 BTX         0.1189
      7 O4'        -4.4840   25.9810   10.8100 O.3       1 BTX        -0.3364
      8 C3'        -4.0610   24.7540   12.8300 C.3       1 BTX         0.1149
      9 O3'        -3.1160   25.1520   13.8240 O.3       1 BTX        -0.3864
     10 C2'        -5.3370   25.5890   12.9960 C.3       1 BTX         0.1385
     11 O2'        -5.2130   26.6640   13.9010 O.3       1 BTX        -0.3836
     12 C1'        -5.6610   26.0780   11.5790 C.3       1 BTX         0.2010
     13 N9         -6.7400   25.3500   10.9010 N.pl3     1 BTX        -0.1919
     14 C8         -7.2260   24.1450   11.2660 C.2       1 BTX         0.1123
     15 N7         -8.2230   23.8170   10.3970 N.2       1 BTX        -0.2958
     16 C5         -8.3530   24.8240    9.4980 C.ar      1 BTX         0.1045
     17 C6         -9.1990   25.0040    8.4170 C.ar      1 BTX         0.1298
     18 N6        -10.2440   24.2250    7.8370 N.pl3     1 BTX        -0.3152
     19 N1         -9.1170   26.1230    7.6750 N.ar      1 BTX        -0.2698
     20 C2         -8.1880   27.0900    7.9900 C.ar      1 BTX         0.0533
     21 N3         -7.3540   26.9150    9.0520 N.ar      1 BTX        -0.2714
     22 C4         -7.4380   25.7780    9.8080 C.ar      1 BTX         0.1613
     23 CBB        -2.2880   23.4630    5.7520 C.3       1 BTX         0.0837
     24 OBB        -2.2880   23.1100    7.1540 O.3       1 BTX        -0.2541
     25 CAB        -2.4770   22.1910    4.8980 C.3       1 BTX        -0.0243
     26 C9B        -3.8900   21.6000    5.1250 C.3       1 BTX        -0.0506
     27 C8B        -4.0370   20.2600    4.3620 C.3       1 BTX        -0.0519
     28 C7B        -5.4550   19.7260    4.5750 C.3       1 BTX        -0.0390
     29 C2B        -5.8490   18.6930    3.4100 C.3       1 BTX         0.0302
     30 S1B        -7.4360   18.2150    3.5390 S.3       1 BTX        -0.1527
     31 C6B        -7.4190   16.8140    2.6160 C.3       1 BTX         0.0190
     32 C5B        -6.0730   16.2430    2.8700 C.3       1 BTX         0.0750
     33 N1B        -6.2200   15.3030    3.7950 N.am      1 BTX        -0.2671
     34 C3B        -5.4090   15.7510    5.0670 C.2       1 BTX         0.2580
     35 O3B        -5.3130   15.1290    6.1290 O.2       1 BTX        -0.4008
     36 N2B        -4.7510   17.1060    4.7330 N.am      1 BTX        -0.2668
     37 C4B        -5.0960   17.4320    3.4880 C.3       1 BTX         0.0775
     38 H1         -2.2488   23.5256   10.8140 H         1 BTX         0.0647
     39 H2         -4.0095   23.1889   10.6979 H         1 BTX         0.0647
     40 H3         -2.5736   25.6784   11.5948 H         1 BTX         0.0651
     41 H4         -4.2728   23.6771   12.9028 H         1 BTX         0.0648
     42 H5         -2.9805   26.0909   13.7726 H         1 BTX         0.2100
     43 H6         -6.1477   24.9393   13.3573 H         1 BTX         0.0676
     44 H7         -6.0385   27.1316   13.9506 H         1 BTX         0.2101
     45 H8         -5.9617   27.1340   11.6459 H         1 BTX         0.0996
     46 H9         -6.8826   23.5422   12.1054 H         1 BTX         0.1349
     47 H10       -10.7485   24.5745    7.0098 H         1 BTX         0.1820
     48 H11       -10.4940   23.3131    8.2455 H         1 BTX         0.1820
     49 H12        -8.1208   27.9914    7.3917 H         1 BTX         0.0996
     50 H13        -1.3300   23.9381    5.4940 H         1 BTX         0.0620
     51 H14        -3.1111   24.1645    5.5510 H         1 BTX         0.0620
     52 H15        -1.7209   21.4452    5.1845 H         1 BTX         0.0291
     53 H16        -2.3562   22.4458    3.8348 H         1 BTX         0.0291
     54 H17        -4.6448   22.3115    4.7589 H         1 BTX         0.0266
     55 H18        -4.0424   21.4247    6.2002 H         1 BTX         0.0266
     56 H19        -3.3064   19.5332    4.7466 H         1 BTX         0.0266
     57 H20        -3.8609   20.4241    3.2887 H         1 BTX         0.0266
     58 H21        -6.1635   20.5674    4.5673 H         1 BTX         0.0277
     59 H22        -5.5061   19.2125    5.5464 H         1 BTX         0.0277
     60 H23        -5.6732   19.1773    2.4381 H         1 BTX         0.0435
     61 H24        -7.5521   17.0454    1.5489 H         1 BTX         0.0399
     62 H25        -8.2076   16.1198    2.9418 H         1 BTX         0.0399
     63 H26        -5.6420   15.8262    1.9478 H         1 BTX         0.0584
     64 H27        -6.7510   14.4609    3.7007 H         1 BTX         0.1849
     65 H28        -4.1689   17.6440    5.3427 H         1 BTX         0.1849
     66 H29        -4.1831   17.5201    2.8806 H         1 BTX         0.0587
@<TRIPOS>BOND
     1    1    2 ar 
     2    1    3 ar 
     3    1    4 1  
     4    1   24 1  
     5    4    5 1  
     6    5    6 1  
     7    6    7 1  
     8    6    8 1  
     9    7   12 1  
    10    8    9 1  
    11    8   10 1  
    12   10   11 1  
    13   10   12 1  
    14   12   13 1  
    15   13   14 1  
    16   13   22 1  
    17   14   15 2  
    18   15   16 1  
    19   16   17 ar 
    20   16   22 ar 
    21   17   18 1  
    22   17   19 ar 
    23   19   20 ar 
    24   20   21 ar 
    25   21   22 ar 
    26   24   23 1  
    27   23   25 1  
    28   25   26 1  
    29   26   27 1  
    30   27   28 1  
    31   28   29 1  
    32   29   30 1  
    33   29   37 1  
    34   30   31 1  
    35   31   32 1  
    36   32   33 1  
    37   32   37 1  
    38   33   34 am 
    39   34   35 2  
    40   34   36 am 
    41   36   37 1  
    42    5   38 1  
    43    5   39 1  
    44    6   40 1  
    45    8   41 1  
    46    9   42 1  
    47   10   43 1  
    48   11   44 1  
    49   12   45 1  
    50   14   46 1  
    51   18   47 1  
    52   18   48 1  
    53   20   49 1  
    54   23   50 1  
    55   23   51 1  
    56   25   52 1  
    57   25   53 1  
    58   26   54 1  
    59   26   55 1  
    60   27   56 1  
    61   27   57 1  
    62   28   58 1  
    63   28   59 1  
    64   29   60 1  
    65   31   61 1  
    66   31   62 1  
    67   32   63 1  
    68   33   64 1  
    69   36   65 1  
    70   37   66 1  
@<TRIPOS>SUBSTRUCTURE
     1 BTX         1

