2uwp_ligand
  -I-interpret- 

 52 54  0  0  0  0  0  0  0  0999 V2000
   13.8890    7.1760   26.1240 Cl  0  0  0  0  0
   12.1960    7.4610   26.0640 C   0  0  0  0  0
   11.3440    7.0710   27.0180 C   0  0  0  0  0
    9.9840    7.4670   26.6680 C   0  0  0  0  0
    9.8990    8.1260   25.5140 C   0  0  0  0  0
    8.6340    8.6640   24.9060 C   0  0  0  0  0
    6.5040    8.5600   23.3070 S   0  0  0  0  0
    6.3800    9.8990   22.8120 O   0  0  0  0  0
    5.7680    8.1660   24.4680 O   0  0  0  0  0
    5.9590    7.6380   21.9600 N   0  0  0  0  0
    5.9090    6.2060   22.0910 C   0  0  0  0  0
    4.6250    5.5960   21.5360 C   0  0  0  0  0
    5.0760    4.4400   20.6470 C   0  0  0  0  0
    7.0300    5.5660   21.2890 C   0  0  0  0  0
    8.1800    5.9910   21.2610 O   0  0  0  0  0
    6.5420    4.4800   20.6680 N   0  0  0  0  0
    7.3880    3.4230   20.1030 C   0  0  0  0  0
    7.0020    2.0600   20.7060 C   0  0  0  0  0
    7.2960    3.4220   18.5590 C   0  0  0  0  0
    6.2350    3.7630   18.0380 O   0  0  0  0  0
    8.3940    3.0620   17.8140 N   0  0  0  0  0
    9.6610    2.5140   18.3470 C   0  0  0  0  0
   10.1760    1.3400   17.5190 C   0  0  0  0  0
   10.1400    1.7080   16.1540 O   0  0  0  0  0
    8.8510    2.0060   15.6560 C   0  0  0  0  0
    8.3430    3.2580   16.3530 C   0  0  0  0  0
   11.4660    8.3100   24.7160 S   0  0  0  0  0
    8.2600    8.2020   23.5050 C   0  0  0  0  0
   11.6246    6.5354   27.9249 H   0  0  0  0  0
    9.1188    7.2443   27.2925 H   0  0  0  0  0
    8.7883    9.7399   24.8235 H   0  0  0  0  0
    7.8302    8.3092   25.5510 H   0  0  0  0  0
    5.6789    8.0945   21.0919 H   0  0  0  0  0
    5.9842    6.0160   23.1617 H   0  0  0  0  0
    4.0438    6.3284   20.9757 H   0  0  0  0  0
    3.9671    5.2534   22.3347 H   0  0  0  0  0
    4.6877    4.5400   19.6334 H   0  0  0  0  0
    4.6968    3.4848   21.0102 H   0  0  0  0  0
    8.4286    3.6171   20.3628 H   0  0  0  0  0
    7.1393    2.0904   21.7869 H   0  0  0  0  0
    5.9582    1.8453   20.4769 H   0  0  0  0  0
    7.6362    1.2828   20.2796 H   0  0  0  0  0
    9.4764    2.1585   19.3607 H   0  0  0  0  0
   10.4110    3.3044   18.3173 H   0  0  0  0  0
    9.5509    0.4628   17.6858 H   0  0  0  0  0
   11.1967    1.0951   17.8129 H   0  0  0  0  0
    8.1755    1.1725   15.8487 H   0  0  0  0  0
    8.8968    2.1716   14.5796 H   0  0  0  0  0
    8.9694    4.1066   16.0781 H   0  0  0  0  0
    7.3147    3.4519   16.0480 H   0  0  0  0  0
    8.4605    7.1384   23.3760 H   0  0  0  0  0
    8.8532    8.7183   22.7502 H   0  0  0  0  0
  2  1  1  0  0  0
  2  3  4  0  0  0
 27  2  4  0  0  0
  4  3  4  0  0  0
  5  4  4  0  0  0
  6  5  1  0  0  0
  5 27  4  0  0  0
 28  6  1  0  0  0
  7  8  2  0  0  0
  7  9  2  0  0  0
  7 10  1  0  0  0
  7 28  1  0  0  0
 10 11  1  0  0  0
 11 12  1  0  0  0
 11 14  1  0  0  0
 12 13  1  0  0  0
 13 16  1  0  0  0
 14 15  2  0  0  0
 14 16  1  0  0  0
 16 17  1  0  0  0
 17 18  1  0  0  0
 17 19  1  0  0  0
 19 20  2  0  0  0
 19 21  1  0  0  0
 21 22  1  0  0  0
 21 26  1  0  0  0
 22 23  1  0  0  0
 23 24  1  0  0  0
 24 25  1  0  0  0
 25 26  1  0  0  0
  3 29  1  0  0  0
  4 30  1  0  0  0
  6 31  1  0  0  0
  6 32  1  0  0  0
 10 33  1  0  0  0
 11 34  1  0  0  0
 12 35  1  0  0  0
 12 36  1  0  0  0
 13 37  1  0  0  0
 13 38  1  0  0  0
 17 39  1  0  0  0
 18 40  1  0  0  0
 18 41  1  0  0  0
 18 42  1  0  0  0
 22 43  1  0  0  0
 22 44  1  0  0  0
 23 45  1  0  0  0
 23 46  1  0  0  0
 25 47  1  0  0  0
 25 48  1  0  0  0
 26 49  1  0  0  0
 26 50  1  0  0  0
 28 51  1  0  0  0
 28 52  1  0  0  0
M  END
$$$$
