5fdo_ligand
  -I-interpret- 

 60 63  0  0  0  0  0  0  0  0999 V2000
    6.5900   23.8180   -6.5320 C   0  0  0  0  0
    4.2030   19.3050  -10.2150 C   0  0  0  0  0
    6.7360   21.1070   -6.8640 C   0  0  0  0  0
    6.7980   19.6160   -7.1380 C   0  0  0  0  0
    7.7000   18.7030   -6.3170 C   0  0  0  0  0
   10.2280   25.7450   -8.4830 C   0  0  0  0  0
   11.4500   24.9770   -9.0660 C   0  0  0  0  0
   11.2120   23.6290   -9.6620 C   0  0  0  0  0
    9.8550   23.0430   -9.7080 C   0  0  0  0  0
    8.7000   23.8020   -9.1440 C   0  0  0  0  0
    8.9420   25.2190   -8.5100 C   0  0  0  0  0
    8.0900   26.1280   -7.9390 C   0  0  0  0  0
    6.5860   25.9860   -7.7560 C   0  0  0  0  0
    6.3010   25.3120   -6.4240 C   0  0  0  0  0
    5.7220   23.3240   -7.4920 O   0  0  0  0  0
    8.8730   27.2040   -7.5730 C   0  0  0  0  0
   10.1700   26.9710   -7.9040 N   0  0  0  0  0
    5.9580   19.0050   -8.2300 C   0  0  0  0  0
    6.1070   17.2500   -8.4830 Cl  0  0  0  0  0
    5.0400   19.8670   -9.0750 C   0  0  0  0  0
    4.9840   21.3500   -8.8100 C   0  0  0  0  0
    5.8210   21.9590   -7.7050 C   0  0  0  0  0
    8.5560   28.4930   -6.8950 C   0  0  0  0  0
    7.5240   28.7390   -6.3710 O   0  0  0  0  0
    9.7090   29.3520   -6.9360 N   0  0  0  0  0
    9.6770   30.8880   -6.2480 S   0  0  0  0  0
   10.9470   31.5760   -6.5210 O   0  0  0  0  0
    9.5780   30.8210   -4.7860 O   0  0  0  0  0
    6.0580   33.1910   -8.4320 C   0  0  0  0  0
    7.2790   32.7500   -9.2200 C   0  0  0  0  0
    8.3940   32.0240   -8.4920 C   0  0  0  0  0
    8.2980   31.7520   -7.0110 C   0  0  0  0  0
    7.0930   32.1730   -6.2000 C   0  0  0  0  0
    5.9790   32.9060   -6.9350 C   0  0  0  0  0
    6.4414   23.3191   -5.5743 H   0  0  0  0  0
    7.6281   23.6381   -6.8115 H   0  0  0  0  0
    4.8604   18.8576  -10.9605 H   0  0  0  0  0
    3.5238   18.5465   -9.8257 H   0  0  0  0  0
    3.6274   20.1097  -10.6724 H   0  0  0  0  0
    7.3412   21.5529   -6.0747 H   0  0  0  0  0
    8.7359   19.0242   -6.4260 H   0  0  0  0  0
    7.4102   18.7562   -5.2676 H   0  0  0  0  0
    7.5969   17.6776   -6.6722 H   0  0  0  0  0
   12.1142   24.8052   -8.2190 H   0  0  0  0  0
   11.8153   25.5951   -9.8861 H   0  0  0  0  0
   12.0524   23.0674  -10.0700 H   0  0  0  0  0
    9.6987   22.0600  -10.1523 H   0  0  0  0  0
    8.3410   23.1870   -8.3188 H   0  0  0  0  0
    8.0478   23.9881   -9.9972 H   0  0  0  0  0
    6.1764   25.3812   -8.5650 H   0  0  0  0  0
    6.1227   26.9725   -7.7712 H   0  0  0  0  0
    6.9376   25.7486   -5.6544 H   0  0  0  0  0
    5.2535   25.4595   -6.1611 H   0  0  0  0  0
    4.3387   21.9860   -9.4160 H   0  0  0  0  0
   10.5615   29.0245   -7.3902 H   0  0  0  0  0
    5.2410   33.7093   -8.9340 H   0  0  0  0  0
    7.3527   32.9514  -10.2887 H   0  0  0  0  0
    9.2741   31.6952   -9.0446 H   0  0  0  0  0
    7.0247   31.9605   -5.1331 H   0  0  0  0  0
    5.1024   33.2357   -6.3774 H   0  0  0  0  0
 14  1  1  0  0  0
  1 15  1  0  0  0
 20  2  1  0  0  0
  3  4  4  0  0  0
 22  3  4  0  0  0
  4  5  1  0  0  0
  4 18  4  0  0  0
  6  7  1  0  0  0
  6 11  4  0  0  0
 17  6  4  0  0  0
  7  8  1  0  0  0
  8  9  2  0  0  0
 10  9  1  0  0  0
 11 10  1  0  0  0
 12 11  4  0  0  0
 12 13  1  0  0  0
 16 12  4  0  0  0
 13 14  1  0  0  0
 15 22  1  0  0  0
 16 17  4  0  0  0
 23 16  1  0  0  0
 18 19  1  0  0  0
 20 18  4  0  0  0
 21 20  4  0  0  0
 22 21  4  0  0  0
 23 24  2  0  0  0
 25 23  1  0  0  0
 26 25  1  0  0  0
 26 27  2  0  0  0
 26 28  2  0  0  0
 32 26  1  0  0  0
 30 29  4  0  0  0
 29 34  4  0  0  0
 31 30  4  0  0  0
 31 32  4  0  0  0
 32 33  4  0  0  0
 33 34  4  0  0  0
  1 35  1  0  0  0
  1 36  1  0  0  0
  2 37  1  0  0  0
  2 38  1  0  0  0
  2 39  1  0  0  0
  3 40  1  0  0  0
  5 41  1  0  0  0
  5 42  1  0  0  0
  5 43  1  0  0  0
  7 44  1  0  0  0
  7 45  1  0  0  0
  8 46  1  0  0  0
  9 47  1  0  0  0
 10 48  1  0  0  0
 10 49  1  0  0  0
 13 50  1  0  0  0
 13 51  1  0  0  0
 14 52  1  0  0  0
 14 53  1  0  0  0
 21 54  1  0  0  0
 25 55  1  0  0  0
 29 56  1  0  0  0
 30 57  1  0  0  0
 31 58  1  0  0  0
 33 59  1  0  0  0
 34 60  1  0  0  0
M  END
$$$$
