4mg5_ligand
  -I-interpret- 

 21 25  0  0  0  0  0  0  0  0999 V2000
   -8.8520   -2.6510   23.9450 O   0  0  0  0  0
   -7.9330   -3.0470   23.2330 C   0  0  0  0  0
   -7.8710   -4.2350   22.5280 C   0  0  0  0  0
   -9.3540   -5.2490   22.5040 Cl  0  0  0  0  0
   -6.5680   -4.8820   23.0400 C   0  0  0  0  0
   -6.6530   -6.3350   24.1090 Cl  0  0  0  0  0
   -6.2310   -5.0860   21.5350 C   0  0  0  0  0
   -6.6240   -6.6860   20.7750 Cl  0  0  0  0  0
   -7.1630   -3.9050   21.2060 C   0  0  0  0  0
   -8.1500   -3.8370   19.6940 Cl  0  0  0  0  0
   -6.3020   -2.6560   21.6050 C   0  0  0  0  0
   -6.6620   -2.4870   23.1030 C   0  0  0  0  0
   -6.3940   -0.8790   23.8420 Cl  0  0  0  0  0
   -5.6910   -3.6570   23.4220 C   0  0  0  0  0
   -4.8540   -3.6190   25.0130 Cl  0  0  0  0  0
   -4.9740   -3.2660   22.1080 C   0  0  0  0  0
   -3.5420   -2.1600   22.2200 Cl  0  0  0  0  0
   -4.8030   -4.5720   21.3510 C   0  0  0  0  0
   -4.3500   -4.3340   19.6220 Cl  0  0  0  0  0
   -3.5240   -5.6230   22.0660 Cl  0  0  0  0  0
   -6.3587   -1.8704   20.8515 H   0  0  0  0  0
  1  2  2  0  0  0
  2  3  1  0  0  0
  2 12  1  0  0  0
  3  4  1  0  0  0
  3  5  1  0  0  0
  3  9  1  0  0  0
  5  6  1  0  0  0
  5  7  1  0  0  0
  5 14  1  0  0  0
  7  8  1  0  0  0
  7  9  1  0  0  0
  7 18  1  0  0  0
  9 10  1  0  0  0
  9 11  1  0  0  0
 11 12  1  0  0  0
 11 16  1  0  0  0
 12 13  1  0  0  0
 12 14  1  0  0  0
 14 15  1  0  0  0
 14 16  1  0  0  0
 16 17  1  0  0  0
 16 18  1  0  0  0
 18 19  1  0  0  0
 18 20  1  0  0  0
 11 21  1  0  0  0
M  END
$$$$
