2mc1_ligand
  -I-interpret- 

204207  0  0  0  0  0  0  0  0999 V2000
   15.1710    2.1550    6.9350 N   0  3  0  0  0
   16.1500    1.0600    7.1760 C   0  0  0  0  0
   15.4950   -0.0620    7.9880 C   0  0  0  0  0
   15.0150   -1.0490    7.4260 O   0  0  0  0  0
   17.3530    1.6320    7.9320 C   0  0  0  0  0
   16.8660    2.4570    9.1080 C   0  0  0  0  0
   16.4780    3.5870    8.8840 O   0  0  0  0  0
   16.8500    1.9220   10.2100 O   0  0  0  0  0
   15.5020    0.0920    9.3090 N   0  0  0  0  0
   14.9410   -0.9070   10.2150 C   0  0  0  0  0
   13.5050   -0.5710   10.6070 C   0  0  0  0  0
   12.9520   -1.1730   11.5280 O   0  0  0  0  0
   15.8070   -0.9770   11.4800 C   0  0  0  0  0
   17.0660   -0.3580   11.2340 O   0  0  0  0  0
   16.0320   -2.4370   11.8720 C   0  0  0  0  0
   12.9030    0.3870    9.9120 N   0  0  0  0  0
   11.5310    0.7870   10.2070 C   0  0  0  0  0
   10.5570    0.1700    9.2020 C   0  0  0  0  0
   10.9660   -0.5350    8.2780 O   0  0  0  0  0
   11.4260    2.3180   10.1750 C   0  0  0  0  0
   11.0480    2.8110    8.7660 C   0  0  0  0  0
   11.8750    2.1110    7.6880 C   0  0  0  0  0
   13.0570    1.8870    7.9130 O   0  0  0  0  0
   11.3130    1.8140    6.6470 O   0  0  0  0  0
    9.2690    0.4490    9.3890 N   0  0  0  0  0
    8.2340   -0.0690    8.4960 C   0  0  0  0  0
    6.9600    0.7720    8.6250 C   0  0  0  0  0
    7.0220    1.9730    8.8920 O   0  0  0  0  0
    7.9230   -1.5410    8.8300 C   0  0  0  0  0
    9.1020   -2.4320    8.4390 C   0  0  0  0  0
    7.6590   -1.6830   10.3310 C   0  0  0  0  0
    5.8100    0.1290    8.4420 N   0  0  0  0  0
    4.5200    0.8100    8.5510 C   0  0  0  0  0
    3.8510    0.4570    9.8780 C   0  0  0  0  0
    3.2750   -0.6220   10.0230 O   0  0  0  0  0
    3.5910    0.4110    7.3890 C   0  0  0  0  0
    4.0130   -0.9140    6.7880 C   0  0  0  0  0
    4.3660   -1.9950    7.6140 C   0  0  0  0  0
    4.0550   -1.0630    5.3970 C   0  0  0  0  0
    4.7620   -3.2110    7.0460 C   0  0  0  0  0
    4.4530   -2.2760    4.8370 C   0  0  0  0  0
    4.8060   -3.3480    5.6590 C   0  0  0  0  0
    5.2230   -4.5370    5.0930 O   0  0  0  0  0
    3.9340    1.3670   10.8470 N   0  0  0  0  0
    3.3330    1.1320   12.1590 C   0  0  0  0  0
    1.8430    0.8270   12.0150 C   0  0  0  0  0
    1.4320   -0.3370   12.0130 O   0  0  0  0  0
    3.5280    2.3630   13.0540 C   0  0  0  0  0
    5.0230    2.5610   13.3460 C   0  0  0  0  0
    5.7750    2.9270   12.0710 C   0  0  0  0  0
    5.1880    3.5810   11.2210 O   0  0  0  0  0
    6.9240    2.5410   11.9520 O   0  0  0  0  0
    1.0380    1.8790   11.8890 N   0  0  0  0  0
   -0.4080    1.7220   11.7370 C   0  0  0  0  0
   -1.1180    3.0680   11.8290 C   0  0  0  0  0
   -1.6770    3.4060   12.8720 O   0  0  0  0  0
   -0.9600    0.7910   12.8170 C   0  0  0  0  0
   -0.7960   -0.5560   12.3880 O   0  0  0  0  0
   -1.1190    3.8290   10.7610 N   0  0  0  0  0
   -1.7880    5.1600   10.7190 C   0  0  0  0  0
   -3.0990    5.1780   11.5140 C   0  0  0  0  0
   -3.2930    6.0330   12.3820 O   0  0  0  0  0
   -2.0110    5.3640    9.2170 C   0  0  0  0  0
   -0.8330    4.7190    8.5860 C   0  0  0  0  0
   -0.4820    3.5130    9.4670 C   0  0  0  0  0
   -3.9920    4.2250   11.2270 N   0  0  0  0  0
   -5.2750    4.1600   11.9360 C   0  0  0  0  0
   -5.9650    2.7960   11.7570 C   0  0  0  0  0
   -5.7240    2.0780   10.7830 O   0  0  0  0  0
   -6.2060    5.2890   11.4430 C   0  0  0  0  0
   -5.4630    6.1750   10.4630 C   0  0  0  0  0
   -5.1310    5.6940    9.1890 C   0  0  0  0  0
   -5.0790    7.4650   10.8440 C   0  0  0  0  0
   -4.4140    6.5010    8.2980 C   0  0  0  0  0
   -4.3680    8.2730    9.9540 C   0  0  0  0  0
   -4.0320    7.7900    8.6850 C   0  0  0  0  0
   -3.3080    8.5870    7.8200 O   0  0  0  0  0
   -1.7700    8.9910    8.2130 P   0  0  0  0  0
   -0.7450    8.5590    7.1610 O   0  0  0  0  0
   -1.7830   10.5210    8.2930 O   0  0  0  0  0
   -1.3860    8.4110    9.5730 O   0  0  0  0  0
   -6.8340    2.4710   12.7160 N   0  0  0  0  0
   -7.6080    1.2200   12.7250 C   0  0  0  0  0
   -8.9700    1.5050   13.3400 C   0  0  0  0  0
   -9.1560    2.5280   14.0020 O   0  0  0  0  0
   -6.8780    0.1570   13.5510 C   0  0  0  0  0
   -9.9210    0.6200   13.1030 N   0  0  0  0  0
  -11.2660    0.8080   13.6160 C   0  0  0  0  0
  -11.6390   -0.3020   14.6020 C   0  0  0  0  0
  -11.6590   -1.4800   14.2440 O   0  0  0  0  0
  -12.2430    0.8170   12.4400 C   0  0  0  0  0
  -11.7670    1.7780   11.3480 C   0  0  0  0  0
  -10.7190    1.5300   10.7640 O   0  0  0  0  0
  -12.4850    2.7270   11.0730 O   0  0  0  0  0
  -11.9270    0.0590   15.8310 N   0  0  0  0  0
  -12.3040   -0.9170   16.8970 C   0  0  0  0  0
  -13.7650   -1.3570   16.8130 C   0  0  0  0  0
  -14.4980   -0.9540   15.9060 O   0  0  0  0  0
  -12.0520   -0.1340   18.1840 C   0  0  0  0  0
  -12.2770    1.2960   17.8240 C   0  0  0  0  0
  -11.9240    1.4420   16.3430 C   0  0  0  0  0
  -14.1720   -2.1860   17.7690 N   0  0  0  0  0
  -15.5400   -2.6840   17.8170 C   0  0  0  0  0
  -16.4930   -1.6200   18.3720 C   0  0  0  0  0
  -16.0140   -0.6600   18.9590 O   0  0  0  0  0
  -15.5980   -3.9440   18.6920 C   0  0  0  0  0
  -14.9590   -3.6640   20.0590 C   0  0  0  0  0
  -13.4660   -3.9790   20.0220 C   0  0  0  0  0
  -12.7260   -3.1860   19.4590 O   0  0  0  0  0
  -13.0860   -5.0080   20.5550 O   0  0  0  0  0
  -17.6930   -1.7800   18.2000 O   0  0  0  0  0
   14.3651    1.7842    6.4315 H   0  0  0  0  0
   14.8669    2.5405    7.8291 H   0  0  0  0  0
   15.6124    2.8880    6.3798 H   0  0  0  0  0
   16.4811    0.6439    6.2245 H   0  0  0  0  0
   17.9361    2.2637    7.2619 H   0  0  0  0  0
   17.9759    0.8145    8.2950 H   0  0  0  0  0
   17.2050    1.0330   10.1380 H   0  0  0  0  0
   15.9137    0.9377    9.7035 H   0  0  0  0  0
   14.9328   -1.8673    9.6994 H   0  0  0  0  0
   15.2961   -0.4571   12.2904 H   0  0  0  0  0
   17.6044   -0.4040   12.0275 H   0  0  0  0  0
   15.0703   -2.9122   12.0656 H   0  0  0  0  0
   16.5382   -2.9565   11.0583 H   0  0  0  0  0
   16.6474   -2.4799   12.7706 H   0  0  0  0  0
   13.4089    0.8518    9.1581 H   0  0  0  0  0
   11.2657    0.4258   11.2006 H   0  0  0  0  0
   12.3921    2.7423   10.4483 H   0  0  0  0  0
   10.6529    2.6320   10.8763 H   0  0  0  0  0
   11.2435    3.8819    8.7106 H   0  0  0  0  0
    9.9951    2.5883    8.5929 H   0  0  0  0  0
   13.2805    2.2054    8.7907 H   0  0  0  0  0
    8.9973    1.0392   10.1753 H   0  0  0  0  0
    8.5998   -0.0107    7.4709 H   0  0  0  0  0
    7.0403   -1.8492    8.2697 H   0  0  0  0  0
    9.2862   -2.3398    7.3686 H   0  0  0  0  0
    9.9895   -2.1205    8.9898 H   0  0  0  0  0
    8.8681   -3.4688    8.6807 H   0  0  0  0  0
    8.5415   -1.3640   10.8856 H   0  0  0  0  0
    6.8086   -1.0606   10.6095 H   0  0  0  0  0
    7.4395   -2.7252   10.5630 H   0  0  0  0  0
    5.8282   -0.8663    8.2196 H   0  0  0  0  0
    4.6990    1.8843    8.5062 H   0  0  0  0  0
    3.6463    1.1788    6.6173 H   0  0  0  0  0
    2.5747    0.3142    7.7709 H   0  0  0  0  0
    4.3313   -1.8860    8.6980 H   0  0  0  0  0
    3.7764   -0.2302    4.7513 H   0  0  0  0  0
    5.0355   -4.0495    7.6865 H   0  0  0  0  0
    4.4888   -2.3880    3.7534 H   0  0  0  0  0
    5.1938   -4.4623    4.1364 H   0  0  0  0  0
    4.4255    2.2432   10.6707 H   0  0  0  0  0
    3.8244    0.2741   12.6179 H   0  0  0  0  0
    2.9936    2.2151   13.9924 H   0  0  0  0  0
    3.1401    3.2449   12.5442 H   0  0  0  0  0
    5.4315    1.6315   13.7425 H   0  0  0  0  0
    5.1378    3.3694   14.0681 H   0  0  0  0  0
    4.2981    3.7737   11.5251 H   0  0  0  0  0
    1.4389    2.8169   11.8987 H   0  0  0  0  0
   -0.5912    1.2909   10.7528 H   0  0  0  0  0
   -2.0170    1.0007   12.9808 H   0  0  0  0  0
   -0.4221    0.9493   13.7517 H   0  0  0  0  0
   -1.1400   -1.1489   13.0602 H   0  0  0  0  0
   -1.2018    5.9551   11.1798 H   0  0  0  0  0
   -2.0952    6.4180    8.9521 H   0  0  0  0  0
   -2.9508    4.9290    8.8769 H   0  0  0  0  0
    0.0050    5.4127    8.5175 H   0  0  0  0  0
   -1.0551    4.4084    7.5651 H   0  0  0  0  0
   -0.8382    2.5726    9.0464 H   0  0  0  0  0
    0.5938    3.3633    9.5582 H   0  0  0  0  0
   -3.7788    3.5350   10.5067 H   0  0  0  0  0
   -5.0704    4.2882   12.9989 H   0  0  0  0  0
   -6.5307    5.8865   12.2949 H   0  0  0  0  0
   -7.0728    4.8513   10.9479 H   0  0  0  0  0
   -5.4318    4.6894    8.8915 H   0  0  0  0  0
   -5.3346    7.8395   11.8352 H   0  0  0  0  0
   -4.1546    6.1270    7.3076 H   0  0  0  0  0
   -4.0747    9.2807   10.2485 H   0  0  0  0  0
   -0.9897    8.9253    6.3081 H   0  0  0  0  0
   -2.0245   10.8830    7.4373 H   0  0  0  0  0
   -6.9692    3.1265   13.4857 H   0  0  0  0  0
   -7.7248    0.8471   11.7074 H   0  0  0  0  0
   -5.8974   -0.0309   13.1138 H   0  0  0  0  0
   -6.7588    0.5126   14.5745 H   0  0  0  0  0
   -7.4600   -0.7646   13.5506 H   0  0  0  0  0
   -9.7069   -0.2099   12.5500 H   0  0  0  0  0
  -11.3150    1.7566   14.1507 H   0  0  0  0  0
  -13.2198    1.1445   12.7961 H   0  0  0  0  0
  -12.3018   -0.1885   12.0232 H   0  0  0  0  0
  -10.3213    0.7427   11.1430 H   0  0  0  0  0
  -11.7355   -1.8437   16.8189 H   0  0  0  0  0
  -11.0435   -0.2987   18.5633 H   0  0  0  0  0
  -12.7163   -0.4554   18.9862 H   0  0  0  0  0
  -11.6567    1.9510   18.4358 H   0  0  0  0  0
  -13.3132    1.5818   18.0046 H   0  0  0  0  0
  -12.6327    2.0780   15.8125 H   0  0  0  0  0
  -10.9616    1.9322   16.1965 H   0  0  0  0  0
  -13.5100   -2.4807   18.4868 H   0  0  0  0  0
  -15.8554   -2.9271   16.8023 H   0  0  0  0  0
  -15.0576   -0.7411   18.9754 H   0  0  0  0  0
  -15.0519   -4.7483   18.1990 H   0  0  0  0  0
  -16.6391   -4.2332   18.8354 H   0  0  0  0  0
  -15.4364   -4.2934   20.8100 H   0  0  0  0  0
  -15.0939   -2.6108   20.3053 H   0  0  0  0  0
  -13.2443   -2.4541   19.1165 H   0  0  0  0  0
  1  2  1  0  0  0
  2  3  1  0  0  0
  2  5  1  0  0  0
  3  4  2  0  0  0
  3  9  1  0  0  0
  5  6  1  0  0  0
  6  7  2  0  0  0
  6  8  1  0  0  0
  9 10  1  0  0  0
 10 11  1  0  0  0
 10 13  1  0  0  0
 11 12  2  0  0  0
 11 16  1  0  0  0
 13 14  1  0  0  0
 13 15  1  0  0  0
 16 17  1  0  0  0
 17 18  1  0  0  0
 17 20  1  0  0  0
 18 19  2  0  0  0
 18 25  1  0  0  0
 20 21  1  0  0  0
 21 22  1  0  0  0
 22 23  1  0  0  0
 22 24  2  0  0  0
 25 26  1  0  0  0
 26 27  1  0  0  0
 26 29  1  0  0  0
 27 28  2  0  0  0
 27 32  1  0  0  0
 29 30  1  0  0  0
 29 31  1  0  0  0
 32 33  1  0  0  0
 33 34  1  0  0  0
 33 36  1  0  0  0
 34 35  2  0  0  0
 34 44  1  0  0  0
 36 37  1  0  0  0
 37 38  4  0  0  0
 37 39  4  0  0  0
 38 40  4  0  0  0
 39 41  4  0  0  0
 40 42  4  0  0  0
 41 42  4  0  0  0
 42 43  1  0  0  0
 44 45  1  0  0  0
 45 46  1  0  0  0
 45 48  1  0  0  0
 46 47  2  0  0  0
 46 53  1  0  0  0
 48 49  1  0  0  0
 49 50  1  0  0  0
 50 51  1  0  0  0
 50 52  2  0  0  0
 53 54  1  0  0  0
 54 55  1  0  0  0
 54 57  1  0  0  0
 55 56  2  0  0  0
 55 59  1  0  0  0
 57 58  1  0  0  0
 59 60  1  0  0  0
 59 65  1  0  0  0
 60 61  1  0  0  0
 60 63  1  0  0  0
 61 62  2  0  0  0
 61 66  1  0  0  0
 63 64  1  0  0  0
 64 65  1  0  0  0
 66 67  1  0  0  0
 67 68  1  0  0  0
 67 70  1  0  0  0
 68 69  2  0  0  0
 68 82  1  0  0  0
 70 71  1  0  0  0
 71 72  4  0  0  0
 71 73  4  0  0  0
 72 74  4  0  0  0
 73 75  4  0  0  0
 74 76  4  0  0  0
 75 76  4  0  0  0
 76 77  1  0  0  0
 77 78  1  0  0  0
 78 79  1  0  0  0
 78 80  1  0  0  0
 78 81  2  0  0  0
 82 83  1  0  0  0
 83 84  1  0  0  0
 83 86  1  0  0  0
 84 85  2  0  0  0
 84 87  1  0  0  0
 87 88  1  0  0  0
 88 89  1  0  0  0
 88 91  1  0  0  0
 89 90  2  0  0  0
 89 95  1  0  0  0
 91 92  1  0  0  0
 92 93  1  0  0  0
 92 94  2  0  0  0
 95 96  1  0  0  0
 95101  1  0  0  0
 96 97  1  0  0  0
 96 99  1  0  0  0
 97 98  2  0  0  0
 97102  1  0  0  0
 99100  1  0  0  0
100101  1  0  0  0
102103  1  0  0  0
103104  1  0  0  0
103106  1  0  0  0
104105  1  0  0  0
104111  2  0  0  0
106107  1  0  0  0
107108  1  0  0  0
108109  1  0  0  0
108110  2  0  0  0
  1112  1  0  0  0
  1113  1  0  0  0
  1114  1  0  0  0
  2115  1  0  0  0
  5116  1  0  0  0
  5117  1  0  0  0
  8118  1  0  0  0
  9119  1  0  0  0
 10120  1  0  0  0
 13121  1  0  0  0
 14122  1  0  0  0
 15123  1  0  0  0
 15124  1  0  0  0
 15125  1  0  0  0
 16126  1  0  0  0
 17127  1  0  0  0
 20128  1  0  0  0
 20129  1  0  0  0
 21130  1  0  0  0
 21131  1  0  0  0
 23132  1  0  0  0
 25133  1  0  0  0
 26134  1  0  0  0
 29135  1  0  0  0
 30136  1  0  0  0
 30137  1  0  0  0
 30138  1  0  0  0
 31139  1  0  0  0
 31140  1  0  0  0
 31141  1  0  0  0
 32142  1  0  0  0
 33143  1  0  0  0
 36144  1  0  0  0
 36145  1  0  0  0
 38146  1  0  0  0
 39147  1  0  0  0
 40148  1  0  0  0
 41149  1  0  0  0
 43150  1  0  0  0
 44151  1  0  0  0
 45152  1  0  0  0
 48153  1  0  0  0
 48154  1  0  0  0
 49155  1  0  0  0
 49156  1  0  0  0
 51157  1  0  0  0
 53158  1  0  0  0
 54159  1  0  0  0
 57160  1  0  0  0
 57161  1  0  0  0
 58162  1  0  0  0
 60163  1  0  0  0
 63164  1  0  0  0
 63165  1  0  0  0
 64166  1  0  0  0
 64167  1  0  0  0
 65168  1  0  0  0
 65169  1  0  0  0
 66170  1  0  0  0
 67171  1  0  0  0
 70172  1  0  0  0
 70173  1  0  0  0
 72174  1  0  0  0
 73175  1  0  0  0
 74176  1  0  0  0
 75177  1  0  0  0
 79178  1  0  0  0
 80179  1  0  0  0
 82180  1  0  0  0
 83181  1  0  0  0
 86182  1  0  0  0
 86183  1  0  0  0
 86184  1  0  0  0
 87185  1  0  0  0
 88186  1  0  0  0
 91187  1  0  0  0
 91188  1  0  0  0
 93189  1  0  0  0
 96190  1  0  0  0
 99191  1  0  0  0
 99192  1  0  0  0
100193  1  0  0  0
100194  1  0  0  0
101195  1  0  0  0
101196  1  0  0  0
102197  1  0  0  0
103198  1  0  0  0
105199  1  0  0  0
106200  1  0  0  0
106201  1  0  0  0
107202  1  0  0  0
107203  1  0  0  0
109204  1  0  0  0
M  END
$$$$
