### 
### Created by X-TOOL on Mon Sep 10 21:13:16 2018
### 

@<TRIPOS>MOLECULE
2mc1_ligand
  196   199     1     0     0
SMALL
GAST_HUCK


@<TRIPOS>ATOM
      1 N          15.1710    2.1550    6.9350 N.4       1 ASP         0.2391
      2 CA         16.1500    1.0600    7.1760 C.3       1 ASP         0.0764
      3 C          15.4950   -0.0620    7.9880 C.2       1 ASP         0.2285
      4 O          15.0150   -1.0490    7.4260 O.2       1 ASP        -0.3906
      5 CB         17.3530    1.6320    7.9320 C.3       1 ASP         0.0607
      6 CG         16.8660    2.4570    9.1080 C.2       1 ASP         0.0425
      7 OD1        16.4780    3.5870    8.8840 O.co2     1 ASP        -0.5686
      8 OD2        16.8500    1.9220   10.2100 O.co2     1 ASP        -0.5686
      9 N          15.5020    0.0920    9.3090 N.am      1 THR        -0.2585
     10 CA         14.9410   -0.9070   10.2150 C.3       1 THR         0.1566
     11 C          13.5050   -0.5710   10.6070 C.2       1 THR         0.2065
     12 O          12.9520   -1.1730   11.5280 O.2       1 THR        -0.3943
     13 CB         15.8070   -0.9770   11.4800 C.3       1 THR         0.0924
     14 OG1        17.0660   -0.3580   11.2340 O.3       1 THR        -0.3874
     15 CG2        16.0320   -2.4370   11.8720 C.3       1 THR        -0.0346
     16 N          12.9030    0.3870    9.9120 N.am      1 GLU        -0.2635
     17 CA         11.5310    0.7870   10.2070 C.3       1 GLU         0.1325
     18 C          10.5570    0.1700    9.2020 C.2       1 GLU         0.2040
     19 O          10.9660   -0.5350    8.2780 O.2       1 GLU        -0.3944
     20 CB         11.4260    2.3180   10.1750 C.3       1 GLU        -0.0008
     21 CG         11.0480    2.8110    8.7660 C.3       1 GLU         0.0044
     22 CD         11.8750    2.1110    7.6880 C.2       1 GLU         0.0350
     23 OE1        13.0570    1.8870    7.9130 O.co2     1 GLU        -0.5690
     24 OE2        11.3130    1.8140    6.6470 O.co2     1 GLU        -0.5690
     25 N           9.2690    0.4490    9.3890 N.am      1 VAL        -0.2635
     26 CA          8.2340   -0.0690    8.4960 C.3       1 VAL         0.1333
     27 C           6.9600    0.7720    8.6250 C.2       1 VAL         0.2043
     28 O           7.0220    1.9730    8.8920 O.2       1 VAL        -0.3944
     29 CB          7.9230   -1.5410    8.8300 C.3       1 VAL        -0.0063
     30 CG1         9.1020   -2.4320    8.4390 C.3       1 VAL        -0.0584
     31 CG2         7.6590   -1.6830   10.3310 C.3       1 VAL        -0.0584
     32 N           5.8100    0.1290    8.4420 N.am      1 TYR        -0.2621
     33 CA          4.5200    0.8100    8.5510 C.3       1 TYR         0.1390
     34 C           3.8510    0.4570    9.8780 C.2       1 TYR         0.2057
     35 O           3.2750   -0.6220   10.0230 O.2       1 TYR        -0.3942
     36 CB          3.5910    0.4110    7.3890 C.3       1 TYR         0.0163
     37 CG          4.0130   -0.9140    6.7880 C.ar      1 TYR        -0.0493
     38 CD1         4.3660   -1.9950    7.6140 C.ar      1 TYR        -0.0685
     39 CD2         4.0550   -1.0630    5.3970 C.ar      1 TYR        -0.0685
     40 CE1         4.7620   -3.2110    7.0460 C.ar      1 TYR        -0.0398
     41 CE2         4.4530   -2.2760    4.8370 C.ar      1 TYR        -0.0398
     42 CZ          4.8060   -3.3480    5.6590 C.ar      1 TYR         0.0805
     43 OH          5.2230   -4.5370    5.0930 O.3       1 TYR        -0.3376
     44 N           3.9340    1.3670   10.8470 N.am      1 GLU        -0.2635
     45 CA          3.3330    1.1320   12.1590 C.3       1 GLU         0.1325
     46 C           1.8430    0.8270   12.0150 C.2       1 GLU         0.2041
     47 O           1.4320   -0.3370   12.0130 O.2       1 GLU        -0.3944
     48 CB          3.5280    2.3630   13.0540 C.3       1 GLU        -0.0008
     49 CG          5.0230    2.5610   13.3460 C.3       1 GLU         0.0044
     50 CD          5.7750    2.9270   12.0710 C.2       1 GLU         0.0350
     51 OE1         5.1880    3.5810   11.2210 O.co2     1 GLU        -0.5690
     52 OE2         6.9240    2.5410   11.9520 O.co2     1 GLU        -0.5690
     53 N           1.0380    1.8790   11.8890 N.am      1 SER        -0.2616
     54 CA         -0.4080    1.7220   11.7370 C.3       1 SER         0.1541
     55 C          -1.1180    3.0680   11.8290 C.2       1 SER         0.2087
     56 O          -1.6770    3.4060   12.8720 O.2       1 SER        -0.3941
     57 CB         -0.9600    0.7910   12.8170 C.3       1 SER         0.0843
     58 OG         -0.7960   -0.5560   12.3880 O.3       1 SER        -0.3903
     59 N          -1.1190    3.8290   10.7610 N.am      1 PRO        -0.2498
     60 CA         -1.7880    5.1600   10.7190 C.3       1 PRO         0.1338
     61 C          -3.0990    5.1780   11.5140 C.2       1 PRO         0.2043
     62 O          -3.2930    6.0330   12.3820 O.2       1 PRO        -0.3944
     63 CB         -2.0110    5.3640    9.2170 C.3       1 PRO        -0.0104
     64 CG         -0.8330    4.7190    8.5860 C.3       1 PRO        -0.0281
     65 CD         -0.4820    3.5130    9.4670 C.3       1 PRO         0.0369
     66 N          -3.9920    4.2250   11.2270 N.am      1 PTR        -0.2607
     67 CA         -5.2750    4.1600   11.9360 C.3       1 PTR         0.1468
     68 C          -5.9650    2.7960   11.7570 C.2       1 PTR         0.2074
     69 O          -5.7240    2.0780   10.7830 O.2       1 PTR        -0.3941
     70 CB         -6.2060    5.2890   11.4430 C.3       1 PTR         0.0400
     71 CG         -5.4630    6.1750   10.4630 C.ar      1 PTR        -0.0004
     72 CD1        -5.1310    5.6940    9.1890 C.ar      1 PTR        -0.0239
     73 CD2        -5.0790    7.4650   10.8440 C.ar      1 PTR        -0.0239
     74 CE1        -4.4140    6.5010    8.2980 C.ar      1 PTR         0.0115
     75 CE2        -4.3680    8.2730    9.9540 C.ar      1 PTR         0.0115
     76 CZ         -4.0320    7.7900    8.6850 C.ar      1 PTR         0.1728
     77 OH         -3.3080    8.5870    7.8200 O.3       1 PTR        -0.2040
     78 P          -1.7700    8.9910    8.2130 P.3       1 PTR         0.1348
     79 O1P        -0.7450    8.5590    7.1610 O.co2     1 PTR        -0.6653
     80 O2P        -1.7830   10.5210    8.2930 O.co2     1 PTR        -0.6653
     81 O3P        -1.3860    8.4110    9.5730 O.co2     1 PTR        -0.6653
     82 N          -6.8340    2.4710   12.7160 N.am      1 ALA        -0.2638
     83 CA         -7.6080    1.2200   12.7250 C.3       1 ALA         0.1282
     84 C          -8.9700    1.5050   13.3400 C.2       1 ALA         0.2037
     85 O          -9.1560    2.5280   14.0020 O.2       1 ALA        -0.3944
     86 CB         -6.8780    0.1570   13.5510 C.3       1 ALA        -0.0244
     87 N          -9.9210    0.6200   13.1030 N.am      1 ASP        -0.2622
     88 CA        -11.2660    0.8080   13.6160 C.3       1 ASP         0.1425
     89 C         -11.6390   -0.3020   14.6020 C.2       1 ASP         0.2081
     90 O         -11.6590   -1.4800   14.2440 O.2       1 ASP        -0.3941
     91 CB        -12.2430    0.8170   12.4400 C.3       1 ASP         0.0406
     92 CG        -11.7670    1.7780   11.3480 C.2       1 ASP         0.0393
     93 OD1       -10.7190    1.5300   10.7640 O.co2     1 ASP        -0.5688
     94 OD2       -12.4850    2.7270   11.0730 O.co2     1 ASP        -0.5688
     95 N         -11.9270    0.0590   15.8310 N.am      1 PRO        -0.2497
     96 CA        -12.3040   -0.9170   16.8970 C.3       1 PRO         0.1337
     97 C         -13.7650   -1.3570   16.8130 C.2       1 PRO         0.2035
     98 O         -14.4980   -0.9540   15.9060 O.2       1 PRO        -0.3944
     99 CB        -12.0520   -0.1340   18.1840 C.3       1 PRO        -0.0104
    100 CG        -12.2770    1.2960   17.8240 C.3       1 PRO        -0.0281
    101 CD        -11.9240    1.4420   16.3430 C.3       1 PRO         0.0369
    102 N         -14.1720   -2.1860   17.7690 N.am      1 GLU        -0.2694
    103 CA        -15.5400   -2.6840   17.8170 C.3       1 GLU         0.0959
    104 C         -16.4930   -1.6200   18.3720 C.2       1 GLU         0.0602
    105 O         -16.0140   -0.6600   18.9590 O.co2     1 GLU        -0.5666
    106 CB        -15.5980   -3.9440   18.6920 C.3       1 GLU        -0.0064
    107 CG        -14.9590   -3.6640   20.0590 C.3       1 GLU         0.0038
    108 CD        -13.4660   -3.9790   20.0220 C.2       1 GLU         0.0350
    109 OE1       -12.7260   -3.1860   19.4590 O.co2     1 GLU        -0.5690
    110 OE2       -13.0860   -5.0080   20.5550 O.co2     1 GLU        -0.5690
    111 OXT       -17.6930   -1.7800   18.2000 O.co2     1 GLU        -0.5666
    112 H1         15.6112    2.8876    6.4006 H         1 ASP         0.2016
    113 H2         14.8572    2.5256    7.8183 H         1 ASP         0.2016
    114 H3         14.3817    1.7934    6.4229 H         1 ASP         0.2016
    115 H4         16.4872    0.6541    6.2109 H         1 ASP         0.1117
    116 H5         17.9416    2.2694    7.2558 H         1 ASP         0.0512
    117 H6         17.9818    0.8071    8.2983 H         1 ASP         0.0512
    118 H7         15.9057    0.9212    9.6957 H         1 THR         0.1885
    119 H8         14.9508   -1.8858    9.7132 H         1 THR         0.0826
    120 H9         15.2956   -0.4528   12.3007 H         1 THR         0.0639
    121 H10        16.9293    0.5512   10.9950 H         1 THR         0.2101
    122 H11        16.6530   -2.4816   12.7789 H         1 THR         0.0257
    123 H12        16.5428   -2.9624   11.0516 H         1 THR         0.0257
    124 H13        15.0622   -2.9178   12.0677 H         1 THR         0.0257
    125 H14        13.3990    0.8427    9.1729 H         1 GLU         0.1883
    126 H15        11.2678    0.4328   11.2146 H         1 GLU         0.0801
    127 H16        12.3955    2.7520   10.4608 H         1 GLU         0.0330
    128 H17        10.6545    2.6416   10.8892 H         1 GLU         0.0330
    129 H18        11.2268    3.8947    8.7064 H         1 GLU         0.0433
    130 H19         9.9821    2.6049    8.5890 H         1 GLU         0.0433
    131 H20         9.0026    1.0276   10.1599 H         1 VAL         0.1883
    132 H21         8.5976   -0.0090    7.4596 H         1 VAL         0.0802
    133 H22         7.0295   -1.8568    8.2715 H         1 VAL         0.0343
    134 H23         8.8671   -3.4787    8.6825 H         1 VAL         0.0234
    135 H24         9.9984   -2.1187    8.9943 H         1 VAL         0.0234
    136 H25         9.2889   -2.3399    7.3589 H         1 VAL         0.0234
    137 H26         6.8110   -1.0431   10.6163 H         1 VAL         0.0234
    138 H27         8.5545   -1.3764   10.8914 H         1 VAL         0.0234
    139 H28         7.4217   -2.7315   10.5640 H         1 VAL         0.0234
    140 H29         5.8278   -0.8468    8.2239 H         1 TYR         0.1885
    141 H30         4.6900    1.8961    8.5134 H         1 TYR         0.0821
    142 H31         3.6327    1.1882    6.6117 H         1 TYR         0.0453
    143 H32         2.5611    0.3237    7.7653 H         1 TYR         0.0453
    144 H33         4.3315   -1.8866    8.6920 H         1 TYR         0.0530
    145 H34         3.7779   -0.2348    4.7548 H         1 TYR         0.0530
    146 H35         5.0340   -4.0449    7.6830 H         1 TYR         0.0525
    147 H36         4.4886   -2.3874    3.7593 H         1 TYR         0.0525
    148 H37         5.4246   -5.1603    5.7809 H         1 TYR         0.2458
    149 H38         4.4158    2.2261   10.6742 H         1 GLU         0.1883
    150 H39         3.8289    0.2687   12.6268 H         1 GLU         0.0801
    151 H40         2.9872    2.2160   14.0005 H         1 GLU         0.0330
    152 H41         3.1348    3.2534   12.5415 H         1 GLU         0.0330
    153 H42         5.4381    1.6282   13.7553 H         1 GLU         0.0433
    154 H43         5.1436    3.3699   14.0816 H         1 GLU         0.0433
    155 H44         1.4310    2.7985   11.8985 H         1 SER         0.1884
    156 H45        -0.6099    1.2817   10.7494 H         1 SER         0.0823
    157 H46        -2.0280    1.0011   12.9758 H         1 SER         0.0606
    158 H47        -0.4114    0.9490   13.7572 H         1 SER         0.0606
    159 H48         0.1271   -0.7331   12.2503 H         1 SER         0.2097
    160 H49        -1.1239    5.9397   11.1203 H         1 PRO         0.0802
    161 H50        -2.0489    6.4351    8.9697 H         1 PRO         0.0313
    162 H51        -2.9430    4.8791    8.8911 H         1 PRO         0.0313
    163 H52         0.0120    5.4222    8.5481 H         1 PRO         0.0287
    164 H53        -1.0802    4.3874    7.5667 H         1 PRO         0.0287
    165 H54        -0.8931    2.5848    9.0435 H         1 PRO         0.0524
    166 H55         0.6076    3.4134    9.5799 H         1 PRO         0.0524
    167 H56        -3.7830    3.5486   10.5208 H         1 PTR         0.1886
    168 H57        -5.0818    4.3083   13.0087 H         1 PTR         0.0840
    169 H58        -6.5364    5.8914   12.3021 H         1 PTR         0.0584
    170 H59        -7.0825    4.8486   10.9452 H         1 PTR         0.0584
    171 H60        -5.4301    4.6950    8.8931 H         1 PTR         0.0703
    172 H61        -5.3332    7.8374   11.8298 H         1 PTR         0.0703
    173 H62        -4.1560    6.1291    7.3130 H         1 PTR         0.0736
    174 H63        -4.0763    9.2751   10.2468 H         1 PTR         0.0736
    175 H64        -6.9665    3.1136   13.4706 H         1 ALA         0.1883
    176 H65        -7.7354    0.8566   11.6946 H         1 ALA         0.0797
    177 H66        -7.4645   -0.7736   13.5514 H         1 ALA         0.0277
    178 H67        -6.7571    0.5146   14.5842 H         1 ALA         0.0277
    179 H68        -5.8882   -0.0336   13.1107 H         1 ALA         0.0277
    180 H69        -9.7111   -0.1936   12.5609 H         1 ASP         0.1884
    181 H70       -11.3186    1.7754   14.1370 H         1 ASP         0.0819
    182 H71       -13.2334    1.1371   12.7959 H         1 ASP         0.0478
    183 H72       -12.3140   -0.1979   12.0218 H         1 ASP         0.0478
    184 H73       -11.6599   -1.8073   16.8469 H         1 PRO         0.0802
    185 H74       -11.0196   -0.2860   18.5318 H         1 PRO         0.0313
    186 H75       -12.7540   -0.4485   18.9703 H         1 PRO         0.0313
    187 H76       -11.6308    1.9455   18.4327 H         1 PRO         0.0287
    188 H77       -13.3301    1.5668   17.9903 H         1 PRO         0.0287
    189 H78       -12.6758    2.0525   15.8214 H         1 PRO         0.0524
    190 H79       -10.9314    1.9004   16.2222 H         1 PRO         0.0524
    191 H80       -13.5229   -2.4750   18.4727 H         1 GLU         0.1875
    192 H81       -15.8576   -2.9430   16.7962 H         1 GLU         0.0727
    193 H82       -15.0512   -4.7585   18.1944 H         1 GLU         0.0323
    194 H83       -16.6476   -4.2405   18.8345 H         1 GLU         0.0323
    195 H84       -15.4433   -4.2921   20.8212 H         1 GLU         0.0432
    196 H85       -15.0995   -2.6034   20.3146 H         1 GLU         0.0432
@<TRIPOS>BOND
     1    1    2 1  
     2    2    3 1  
     3    2    5 1  
     4    3    4 2  
     5    3    9 am 
     6    5    6 1  
     7    6    7 ar 
     8    6    8 ar 
     9    9   10 1  
    10   10   11 1  
    11   10   13 1  
    12   11   12 2  
    13   11   16 am 
    14   13   14 1  
    15   13   15 1  
    16   16   17 1  
    17   17   18 1  
    18   17   20 1  
    19   18   19 2  
    20   18   25 am 
    21   20   21 1  
    22   21   22 1  
    23   22   23 ar 
    24   22   24 ar 
    25   25   26 1  
    26   26   27 1  
    27   26   29 1  
    28   27   28 2  
    29   27   32 am 
    30   29   30 1  
    31   29   31 1  
    32   32   33 1  
    33   33   34 1  
    34   33   36 1  
    35   34   35 2  
    36   34   44 am 
    37   36   37 1  
    38   37   38 ar 
    39   37   39 ar 
    40   38   40 ar 
    41   39   41 ar 
    42   40   42 ar 
    43   41   42 ar 
    44   42   43 1  
    45   44   45 1  
    46   45   46 1  
    47   45   48 1  
    48   46   47 2  
    49   46   53 am 
    50   48   49 1  
    51   49   50 1  
    52   50   51 ar 
    53   50   52 ar 
    54   53   54 1  
    55   54   55 1  
    56   54   57 1  
    57   55   56 2  
    58   55   59 am 
    59   57   58 1  
    60   59   60 1  
    61   59   65 1  
    62   60   61 1  
    63   60   63 1  
    64   61   62 2  
    65   61   66 am 
    66   63   64 1  
    67   64   65 1  
    68   66   67 1  
    69   67   68 1  
    70   67   70 1  
    71   68   69 2  
    72   68   82 am 
    73   70   71 1  
    74   71   72 ar 
    75   71   73 ar 
    76   72   74 ar 
    77   73   75 ar 
    78   74   76 ar 
    79   75   76 ar 
    80   76   77 1  
    81   77   78 1  
    82   78   79 ar 
    83   78   80 ar 
    84   78   81 ar 
    85   82   83 1  
    86   83   84 1  
    87   83   86 1  
    88   84   85 2  
    89   84   87 am 
    90   87   88 1  
    91   88   89 1  
    92   88   91 1  
    93   89   90 2  
    94   89   95 am 
    95   91   92 1  
    96   92   93 ar 
    97   92   94 ar 
    98   95   96 1  
    99   95  101 1  
   100   96   97 1  
   101   96   99 1  
   102   97   98 2  
   103   97  102 am 
   104   99  100 1  
   105  100  101 1  
   106  102  103 1  
   107  103  104 1  
   108  103  106 1  
   109  104  105 ar 
   110  104  111 ar 
   111  106  107 1  
   112  107  108 1  
   113  108  109 ar 
   114  108  110 ar 
   115    1  112 1  
   116    1  113 1  
   117    1  114 1  
   118    2  115 1  
   119    5  116 1  
   120    5  117 1  
   121    9  118 1  
   122   10  119 1  
   123   13  120 1  
   124   14  121 1  
   125   15  122 1  
   126   15  123 1  
   127   15  124 1  
   128   16  125 1  
   129   17  126 1  
   130   20  127 1  
   131   20  128 1  
   132   21  129 1  
   133   21  130 1  
   134   25  131 1  
   135   26  132 1  
   136   29  133 1  
   137   30  134 1  
   138   30  135 1  
   139   30  136 1  
   140   31  137 1  
   141   31  138 1  
   142   31  139 1  
   143   32  140 1  
   144   33  141 1  
   145   36  142 1  
   146   36  143 1  
   147   38  144 1  
   148   39  145 1  
   149   40  146 1  
   150   41  147 1  
   151   43  148 1  
   152   44  149 1  
   153   45  150 1  
   154   48  151 1  
   155   48  152 1  
   156   49  153 1  
   157   49  154 1  
   158   53  155 1  
   159   54  156 1  
   160   57  157 1  
   161   57  158 1  
   162   58  159 1  
   163   60  160 1  
   164   63  161 1  
   165   63  162 1  
   166   64  163 1  
   167   64  164 1  
   168   65  165 1  
   169   65  166 1  
   170   66  167 1  
   171   67  168 1  
   172   70  169 1  
   173   70  170 1  
   174   72  171 1  
   175   73  172 1  
   176   74  173 1  
   177   75  174 1  
   178   82  175 1  
   179   83  176 1  
   180   86  177 1  
   181   86  178 1  
   182   86  179 1  
   183   87  180 1  
   184   88  181 1  
   185   91  182 1  
   186   91  183 1  
   187   96  184 1  
   188   99  185 1  
   189   99  186 1  
   190  100  187 1  
   191  100  188 1  
   192  101  189 1  
   193  101  190 1  
   194  102  191 1  
   195  103  192 1  
   196  106  193 1  
   197  106  194 1  
   198  107  195 1  
   199  107  196 1  
@<TRIPOS>SUBSTRUCTURE
     1 ASP         1

