4bvb_ligand
  -I-interpret- 

 29 31  0  0  0  0  0  0  0  0999 V2000
    5.3730  -15.6230    0.9110 N   0  0  0  0  0
    6.9950  -16.2250    2.3200 O   0  0  0  0  0
    6.4230  -15.3480    1.6730 C   0  0  0  0  0
    9.3650  -13.9460    2.3000 N   0  0  0  0  0
    6.6770  -12.5900    4.4030 C   0  0  0  0  0
   11.3910  -13.5720    3.6200 C   0  0  0  0  0
   11.9350  -13.0100    4.7490 C   0  0  0  0  0
   10.0730  -13.4840    3.3650 C   0  0  0  0  0
   11.8330  -11.6950    7.1870 Cl  0  0  0  0  0
    9.2160  -12.9580    4.2830 C   0  0  0  0  0
    9.6980  -12.3980    5.4180 C   0  0  0  0  0
    7.9540  -13.0920    3.8180 C   0  0  0  0  0
    8.0450  -13.6990    2.5690 C   0  0  0  0  0
   11.0860  -12.4180    5.6910 C   0  0  0  0  0
    5.4040  -13.0460    3.5050 C   0  0  0  0  0
    6.8870  -13.9510    1.7020 C   0  0  0  0  0
    5.7450  -12.8840    2.0340 C   0  0  0  0  0
    5.0223  -16.5790    0.8516 H   0  0  0  0  0
    4.9161  -14.8785    0.3843 H   0  0  0  0  0
    6.7111  -11.5009    4.4323 H   0  0  0  0  0
    6.5646  -13.0060    5.4042 H   0  0  0  0  0
   12.0383  -14.0984    2.9185 H   0  0  0  0  0
   13.0131  -13.0249    4.9091 H   0  0  0  0  0
    9.0131  -11.9295    6.1247 H   0  0  0  0  0
    4.5425  -12.4251    3.7508 H   0  0  0  0  0
    5.1660  -14.0893    3.7120 H   0  0  0  0  0
    7.2068  -13.8060    0.6701 H   0  0  0  0  0
    6.0900  -11.8711    1.8263 H   0  0  0  0  0
    4.8657  -13.0527    1.4124 H   0  0  0  0  0
  3  1  1  0  0  0
  3  2  2  0  0  0
 16  3  1  0  0  0
  4  8  4  0  0  0
 13  4  4  0  0  0
 12  5  1  0  0  0
  5 15  1  0  0  0
  6  7  4  0  0  0
  8  6  4  0  0  0
 14  7  4  0  0  0
 10  8  4  0  0  0
 14  9  1  0  0  0
 10 11  4  0  0  0
 12 10  4  0  0  0
 11 14  4  0  0  0
 13 12  4  0  0  0
 13 16  1  0  0  0
 15 17  1  0  0  0
 16 17  1  0  0  0
  1 18  1  0  0  0
  1 19  1  0  0  0
  5 20  1  0  0  0
  5 21  1  0  0  0
  6 22  1  0  0  0
  7 23  1  0  0  0
 11 24  1  0  0  0
 15 25  1  0  0  0
 15 26  1  0  0  0
 16 27  1  0  0  0
 17 28  1  0  0  0
 17 29  1  0  0  0
M  END
$$$$
