6q6y_ligand
  -I-interpret- 

 36 38  0  0  0  0  0  0  0  0999 V2000
  -10.3720  -30.9090   21.3860 N   0  0  0  0  0
  -10.2440  -30.3610   22.6910 C   0  0  0  0  0
   -9.0730  -33.2800   21.7920 C   0  0  0  0  0
  -10.1400  -34.0660   22.2110 C   0  0  0  0  0
   -9.8900  -35.1690   23.0150 C   0  0  0  0  0
   -8.5980  -35.4690   23.4160 C   0  0  0  0  0
   -7.7740  -33.5640   22.2000 C   0  0  0  0  0
   -5.3970  -30.5360   25.7730 C   0  0  0  0  0
   -6.0300  -28.4630   26.7700 C   0  0  0  0  0
   -8.1210  -31.2820   20.4300 O   0  0  0  0  0
   -9.3630  -31.9620   20.6540 S   0  0  0  0  0
  -10.0890  -32.4910   19.5420 O   0  0  0  0  0
   -7.5470  -34.6620   23.0170 C   0  0  0  0  0
  -11.3370  -29.8820   23.4230 C   0  0  0  0  0
  -12.9340  -30.0990   22.7850 Cl  0  0  0  0  0
   -8.9950  -30.2310   23.2990 C   0  0  0  0  0
   -8.8740  -29.6370   24.5570 C   0  0  0  0  0
  -10.0460  -29.1690   25.1480 C   0  0  0  0  0
  -11.2590  -29.2970   24.6020 N   0  0  0  0  0
   -7.5550  -29.5700   25.2550 C   0  0  0  0  0
   -7.2380  -28.5000   26.0950 C   0  0  0  0  0
   -5.1090  -29.4760   26.6080 C   0  0  0  0  0
   -6.6120  -30.5900   25.1050 C   0  0  0  0  0
  -11.1850  -30.6109   20.8470 H   0  0  0  0  0
  -11.1588  -33.8194   21.9122 H   0  0  0  0  0
  -10.7164  -35.8044   23.3336 H   0  0  0  0  0
   -8.4098  -36.3393   24.0447 H   0  0  0  0  0
   -6.9449  -32.9319   21.8819 H   0  0  0  0  0
   -4.6672  -31.3342   25.6376 H   0  0  0  0  0
   -5.8056  -27.6279   27.4336 H   0  0  0  0  0
   -6.5336  -34.8907   23.3470 H   0  0  0  0  0
   -8.1049  -30.5967   22.7870 H   0  0  0  0  0
   -9.9687  -28.6686   26.1133 H   0  0  0  0  0
   -7.9502  -27.6845   26.2205 H   0  0  0  0  0
   -4.1570  -29.4397   27.1375 H   0  0  0  0  0
   -6.8332  -31.4374   24.4561 H   0  0  0  0  0
  2  1  1  0  0  0
  1 11  1  0  0  0
  2 14  4  0  0  0
 16  2  4  0  0  0
  3  4  4  0  0  0
  3  7  4  0  0  0
 11  3  1  0  0  0
  4  5  4  0  0  0
  5  6  4  0  0  0
 13  6  4  0  0  0
  7 13  4  0  0  0
 22  8  4  0  0  0
  8 23  4  0  0  0
 21  9  4  0  0  0
  9 22  4  0  0  0
 11 10  2  0  0  0
 11 12  2  0  0  0
 14 15  1  0  0  0
 19 14  4  0  0  0
 17 16  4  0  0  0
 17 18  4  0  0  0
 20 17  1  0  0  0
 18 19  4  0  0  0
 20 21  4  0  0  0
 20 23  4  0  0  0
  1 24  1  0  0  0
  4 25  1  0  0  0
  5 26  1  0  0  0
  6 27  1  0  0  0
  7 28  1  0  0  0
  8 29  1  0  0  0
  9 30  1  0  0  0
 13 31  1  0  0  0
 16 32  1  0  0  0
 18 33  1  0  0  0
 21 34  1  0  0  0
 22 35  1  0  0  0
 23 36  1  0  0  0
M  END
$$$$
