1k9q_ligand
  -I-interpret- 

 99102  0  0  0  0  0  0  0  0999 V2000
    6.1050    9.1340    7.4560 N   0  3  0  0  0
    5.2020   10.1580    6.8600 C   0  0  0  0  0
    4.2400    9.4820    5.8750 C   0  0  0  0  0
    4.6070    9.1990    4.7520 O   0  0  0  0  0
    3.0300    9.2420    6.3240 N   0  0  0  0  0
    2.0180    8.5900    5.4570 C   0  0  0  0  0
    1.5140    9.5760    4.3920 C   0  0  0  0  0
    1.3360   10.7440    4.6720 O   0  0  0  0  0
    0.9000    8.2180    6.4250 C   0  0  0  0  0
    1.0380    9.1760    7.5670 C   0  0  0  0  0
    2.4960    9.5470    7.6600 C   0  0  0  0  0
    1.2970    9.0730    3.1990 N   0  0  0  0  0
    0.8080    9.9360    2.0960 C   0  0  0  0  0
   -0.6720   10.2860    2.3060 C   0  0  0  0  0
   -1.3500    9.6480    3.0850 O   0  0  0  0  0
    0.9890    9.0700    0.8530 C   0  0  0  0  0
    0.9590    7.6610    1.3540 C   0  0  0  0  0
    1.4830    7.6790    2.7670 C   0  0  0  0  0
   -1.1280   11.2940    1.6010 N   0  0  0  0  0
   -2.5450   11.7220    1.7220 C   0  0  0  0  0
   -3.4700   10.7110    1.0370 C   0  0  0  0  0
   -3.0490    9.6440    0.6350 O   0  0  0  0  0
   -2.5790   13.0640    0.9980 C   0  0  0  0  0
   -1.4370   13.0140    0.0330 C   0  0  0  0  0
   -0.3840   12.1220    0.6380 C   0  0  0  0  0
   -4.7260   11.0380    0.9010 N   0  0  0  0  0
   -5.6750   10.0960    0.2400 C   0  0  0  0  0
   -6.2540   10.7310   -1.0280 C   0  0  0  0  0
   -6.0980   10.2010   -2.1110 O   0  0  0  0  0
   -6.7800    9.8560    1.2710 C   0  0  0  0  0
   -7.3920    8.4930    1.0480 C   0  0  0  0  0
   -7.8540    8.1310   -0.2240 C   0  0  0  0  0
   -7.4990    7.5910    2.1130 C   0  0  0  0  0
   -8.4220    6.8690   -0.4290 C   0  0  0  0  0
   -8.0660    6.3290    1.9070 C   0  0  0  0  0
   -8.5280    5.9680    0.6360 C   0  0  0  0  0
   -9.0880    4.7230    0.4340 O   0  0  0  0  0
   -6.9190   11.8490   -0.9380 N   0  0  0  0  0
    7.0720    9.7210    8.4260 C   0  0  0  0  0
    8.3520    8.9010    8.2490 C   0  0  0  0  0
    9.5660    9.7680    8.5890 C   0  0  0  0  0
   10.8440    8.9450    8.4220 C   0  0  0  0  0
   11.7190    9.5750    7.3370 C   0  0  0  0  0
   12.6950   10.5650    7.9780 C   0  0  0  0  0
   14.1230   10.2270    7.5430 C   0  0  0  0  0
   14.2830   10.5110    6.0480 C   0  0  0  0  0
    6.6388    8.7064    6.6992 H   0  0  0  0  0
    5.5276    8.4586    7.9569 H   0  0  0  0  0
    5.7970   10.9035    6.3324 H   0  0  0  0  0
    4.6300   10.6422    7.6515 H   0  0  0  0  0
    2.4082    7.7282    4.9156 H   0  0  0  0  0
    0.9811    7.1825    6.7556 H   0  0  0  0  0
   -0.0807    8.2900    5.9548 H   0  0  0  0  0
    0.4251   10.0622    7.4022 H   0  0  0  0  0
    0.6971    8.7191    8.4960 H   0  0  0  0  0
    2.6384   10.5930    7.9316 H   0  0  0  0  0
    3.0121    8.9954    8.4457 H   0  0  0  0  0
    1.3394   10.8853    2.0284 H   0  0  0  0  0
    1.9222    9.2950    0.3367 H   0  0  0  0  0
    0.2069    9.2531    0.1161 H   0  0  0  0  0
   -0.0563    7.2653    1.3262 H   0  0  0  0  0
    1.5734    7.0169    0.7250 H   0  0  0  0  0
    0.9577    6.9737    3.4110 H   0  0  0  0  0
    2.5250    7.3645    2.8248 H   0  0  0  0  0
   -2.8830   11.7923    2.7559 H   0  0  0  0  0
   -2.4845   13.8993    1.6919 H   0  0  0  0  0
   -3.5299   13.2242    0.4898 H   0  0  0  0  0
   -1.7645   12.6236   -0.9306 H   0  0  0  0  0
   -1.0391   14.0132   -0.1442 H   0  0  0  0  0
    0.1294   11.5214   -0.1128 H   0  0  0  0  0
    0.4153   12.6906    1.1134 H   0  0  0  0  0
   -5.0589   11.9380    1.2468 H   0  0  0  0  0
   -5.1906    9.1674   -0.0619 H   0  0  0  0  0
   -7.5490   10.6209    1.1631 H   0  0  0  0  0
   -6.3565    9.9036    2.2742 H   0  0  0  0  0
   -7.7709    8.8326   -1.0540 H   0  0  0  0  0
   -7.1404    7.8721    3.1032 H   0  0  0  0  0
   -8.7820    6.5877   -1.4186 H   0  0  0  0  0
   -8.1481    5.6266    2.7364 H   0  0  0  0  0
   -9.3505    4.6368   -0.4854 H   0  0  0  0  0
   -7.3087   12.2795   -1.7766 H   0  0  0  0  0
   -7.0495   12.2930   -0.0290 H   0  0  0  0  0
    6.6988    9.6740    9.4490 H   0  0  0  0  0
    7.2409   10.7814    8.2385 H   0  0  0  0  0
    8.4260    8.5624    7.2156 H   0  0  0  0  0
    8.3248    8.0379    8.9142 H   0  0  0  0  0
    9.4885   10.1129    9.6201 H   0  0  0  0  0
    9.5975   10.6273    7.9192 H   0  0  0  0  0
   10.5847    7.9264    8.1333 H   0  0  0  0  0
   11.3907    8.9280    9.3648 H   0  0  0  0  0
   11.0872   10.1004    6.6208 H   0  0  0  0  0
   12.2794    8.7937    6.8236 H   0  0  0  0  0
   12.6202   10.4981    9.0634 H   0  0  0  0  0
   12.4478   11.5775    7.6588 H   0  0  0  0  0
   14.3208    9.1725    7.7352 H   0  0  0  0  0
   14.8281   10.8385    8.1060 H   0  0  0  0  0
   13.5774    9.8994    5.4857 H   0  0  0  0  0
   14.0847   11.5656    5.8566 H   0  0  0  0  0
   15.3005   10.2696    5.7405 H   0  0  0  0  0
 28 38  1  0  0  0
  2  1  1  0  0  0
  3  2  1  0  0  0
  3  4  2  0  0  0
  7  6  1  0  0  0
  6  9  1  0  0  0
  6  5  1  0  0  0
  5 11  1  0  0  0
 11 10  1  0  0  0
  9 10  1  0  0  0
  7  8  2  0  0  0
  5  3  1  0  0  0
 14 13  1  0  0  0
 13 16  1  0  0  0
 13 12  1  0  0  0
 12 18  1  0  0  0
 18 17  1  0  0  0
 16 17  1  0  0  0
 14 15  2  0  0  0
 12  7  1  0  0  0
 21 20  1  0  0  0
 20 23  1  0  0  0
 20 19  1  0  0  0
 19 25  1  0  0  0
 25 24  1  0  0  0
 23 24  1  0  0  0
 21 22  2  0  0  0
 19 14  1  0  0  0
 26 27  1  0  0  0
 27 30  1  0  0  0
 27 28  1  0  0  0
 28 29  2  0  0  0
 30 31  1  0  0  0
 31 32  4  0  0  0
 31 33  4  0  0  0
 33 35  4  0  0  0
 35 36  4  0  0  0
 36 37  1  0  0  0
 34 36  4  0  0  0
 32 34  4  0  0  0
 21 26  1  0  0  0
  1 39  1  0  0  0
 39 40  1  0  0  0
 40 41  1  0  0  0
 41 42  1  0  0  0
 42 43  1  0  0  0
 43 44  1  0  0  0
 44 45  1  0  0  0
 45 46  1  0  0  0
  1 47  1  0  0  0
  1 48  1  0  0  0
  2 49  1  0  0  0
  2 50  1  0  0  0
  6 51  1  0  0  0
  9 52  1  0  0  0
  9 53  1  0  0  0
 10 54  1  0  0  0
 10 55  1  0  0  0
 11 56  1  0  0  0
 11 57  1  0  0  0
 13 58  1  0  0  0
 16 59  1  0  0  0
 16 60  1  0  0  0
 17 61  1  0  0  0
 17 62  1  0  0  0
 18 63  1  0  0  0
 18 64  1  0  0  0
 20 65  1  0  0  0
 23 66  1  0  0  0
 23 67  1  0  0  0
 24 68  1  0  0  0
 24 69  1  0  0  0
 25 70  1  0  0  0
 25 71  1  0  0  0
 26 72  1  0  0  0
 27 73  1  0  0  0
 30 74  1  0  0  0
 30 75  1  0  0  0
 32 76  1  0  0  0
 33 77  1  0  0  0
 34 78  1  0  0  0
 35 79  1  0  0  0
 37 80  1  0  0  0
 38 81  1  0  0  0
 38 82  1  0  0  0
 39 83  1  0  0  0
 39 84  1  0  0  0
 40 85  1  0  0  0
 40 86  1  0  0  0
 41 87  1  0  0  0
 41 88  1  0  0  0
 42 89  1  0  0  0
 42 90  1  0  0  0
 43 91  1  0  0  0
 43 92  1  0  0  0
 44 93  1  0  0  0
 44 94  1  0  0  0
 45 95  1  0  0  0
 45 96  1  0  0  0
 46 97  1  0  0  0
 46 98  1  0  0  0
 46 99  1  0  0  0
M  END
$$$$
