4fc0_ligand
  -I-interpret- 

 64 68  0  0  0  0  0  0  0  0999 V2000
   45.6050  -37.9940    9.5760 C   0  0  0  0  0
   44.9200  -36.7000    9.6130 N   0  0  0  0  0
   45.7550  -35.5860    9.5570 C   0  0  0  0  0
   45.8910  -34.7970   10.6880 C   0  0  0  0  0
   46.7310  -33.7040   10.6740 C   0  0  0  0  0
   47.4480  -33.4110    9.5300 C   0  0  0  0  0
   48.2670  -32.3430    9.5290 F   0  0  0  0  0
   47.3300  -34.1950    8.3810 C   0  0  0  0  0
   48.1150  -33.8550    7.2630 N   0  0  0  0  0
   47.8800  -34.1490    5.9670 C   0  0  0  0  0
   46.8880  -34.7520    5.6190 O   0  0  0  0  0
   48.8760  -33.7110    4.9620 C   0  0  0  0  0
   50.2070  -34.1130    5.1080 C   0  0  0  0  0
   51.1610  -33.7240    4.1890 C   0  0  0  0  0
   50.8040  -32.9260    3.1130 C   0  0  0  0  0
   49.4810  -32.5240    2.9390 C   0  0  0  0  0
   49.1300  -31.7280    1.8800 O   0  0  0  0  0
   48.7670  -32.2290    0.5750 C   0  0  0  0  0
   49.6580  -33.3710    0.0640 C   0  0  0  0  0
   48.8920  -31.0830   -0.4260 C   0  0  0  0  0
   47.3520  -32.6380    0.5800 C   0  0  0  0  0
   46.2530  -32.9320    0.5620 N   0  0  0  0  0
   48.5240  -32.9100    3.8700 C   0  0  0  0  0
   46.8840  -32.4100    3.6550 Cl  0  0  0  0  0
   46.4900  -35.3050    8.4090 C   0  0  0  0  0
   43.5270  -36.6840    9.7620 C   0  0  0  0  0
   42.7070  -35.5660    9.5720 C   0  0  0  0  0
   41.3490  -35.6720    9.7440 C   0  0  0  0  0
   40.7920  -36.9170   10.1350 C   0  0  0  0  0
   39.5080  -37.2900   10.3840 N   0  0  0  0  0
   39.2680  -38.5260   10.7160 C   0  0  0  0  0
   38.0450  -39.1070   11.0830 N   0  0  0  0  0
   37.9420  -40.4280   11.3840 C   0  0  0  0  0
   38.9080  -41.1430   11.2820 O   0  0  0  0  0
   36.6830  -41.1020   11.8810 C   0  0  0  0  0
   35.2970  -40.7690   11.3430 C   0  0  0  0  0
   35.9800  -42.0890   10.9610 C   0  0  0  0  0
   40.7930  -39.3830   10.7870 S   0  0  0  0  0
   41.6870  -37.9670   10.3070 C   0  0  0  0  0
   42.9820  -37.8240   10.1170 N   0  0  0  0  0
   45.4182  -38.5293   10.5070 H   0  0  0  0  0
   45.2283  -38.5792    8.7371 H   0  0  0  0  0
   46.6764  -37.8332    9.4565 H   0  0  0  0  0
   45.3322  -35.0413   11.5914 H   0  0  0  0  0
   46.8288  -33.0755   11.5592 H   0  0  0  0  0
   48.9633  -33.3224    7.4556 H   0  0  0  0  0
   50.4936  -34.7382    5.9536 H   0  0  0  0  0
   52.1958  -34.0446    4.3095 H   0  0  0  0  0
   51.5637  -32.6107    2.3978 H   0  0  0  0  0
   50.6889  -33.0235   -0.0034 H   0  0  0  0  0
   49.6011  -34.2117    0.7554 H   0  0  0  0  0
   49.3141  -33.6854   -0.9214 H   0  0  0  0  0
   48.2228  -30.2734   -0.1349 H   0  0  0  0  0
   49.9200  -30.7208   -0.4352 H   0  0  0  0  0
   48.6221  -31.4395   -1.4201 H   0  0  0  0  0
   46.4083  -35.9515    7.5352 H   0  0  0  0  0
   43.1468  -34.6102    9.2872 H   0  0  0  0  0
   40.7048  -34.8078    9.5817 H   0  0  0  0  0
   37.2105  -38.5220   11.1250 H   0  0  0  0  0
   37.1043  -41.1142   12.8862 H   0  0  0  0  0
   34.7837  -39.9401   10.8557 H   0  0  0  0  0
   34.3336  -40.4221   11.7167 H   0  0  0  0  0
   35.7453  -43.1529   10.9272 H   0  0  0  0  0
   36.1962  -42.6698   10.0644 H   0  0  0  0  0
  1  2  1  0  0  0
  2  3  1  0  0  0
  2 26  1  0  0  0
  3  4  4  0  0  0
  3 25  4  0  0  0
  4  5  4  0  0  0
  5  6  4  0  0  0
  6  7  1  0  0  0
  6  8  4  0  0  0
  8  9  1  0  0  0
  8 25  4  0  0  0
  9 10  1  0  0  0
 10 11  2  0  0  0
 10 12  1  0  0  0
 12 13  4  0  0  0
 12 23  4  0  0  0
 13 14  4  0  0  0
 14 15  4  0  0  0
 15 16  4  0  0  0
 16 17  1  0  0  0
 16 23  4  0  0  0
 17 18  1  0  0  0
 18 19  1  0  0  0
 18 20  1  0  0  0
 18 21  1  0  0  0
 21 22  3  0  0  0
 23 24  1  0  0  0
 26 27  4  0  0  0
 26 40  4  0  0  0
 27 28  4  0  0  0
 28 29  4  0  0  0
 29 30  4  0  0  0
 29 39  4  0  0  0
 30 31  4  0  0  0
 31 32  1  0  0  0
 31 38  4  0  0  0
 32 33  1  0  0  0
 33 34  2  0  0  0
 33 35  1  0  0  0
 35 36  1  0  0  0
 35 37  1  0  0  0
 36 37  1  0  0  0
 38 39  4  0  0  0
 39 40  4  0  0  0
  1 41  1  0  0  0
  1 42  1  0  0  0
  1 43  1  0  0  0
  4 44  1  0  0  0
  5 45  1  0  0  0
  9 46  1  0  0  0
 13 47  1  0  0  0
 14 48  1  0  0  0
 15 49  1  0  0  0
 19 50  1  0  0  0
 19 51  1  0  0  0
 19 52  1  0  0  0
 20 53  1  0  0  0
 20 54  1  0  0  0
 20 55  1  0  0  0
 25 56  1  0  0  0
 27 57  1  0  0  0
 28 58  1  0  0  0
 32 59  1  0  0  0
 35 60  1  0  0  0
 36 61  1  0  0  0
 36 62  1  0  0  0
 37 63  1  0  0  0
 37 64  1  0  0  0
M  END
$$$$
