2rc9_ligand
  -I-interpret- 

 15 15  0  0  0  0  0  0  0  0999 V2000
   13.2580    2.0980    6.6300 C   0  0  0  0  0
   14.0680    1.8950    7.9250 C   0  0  0  0  0
   13.0070    0.8750    7.5030 C   0  0  0  0  0
   11.7680    0.8770    8.3610 C   0  0  0  0  0
   11.4420    1.9370    8.9310 O   0  0  0  0  0
   11.1150   -0.1990    8.4780 O   0  0  0  0  0
   13.5270   -0.3910    6.9960 N   0  3  0  0  0
   13.4383    2.3307    5.5805 H   0  0  0  0  0
   12.6843    2.8840    6.1388 H   0  0  0  0  0
   14.3580    2.4609    8.8103 H   0  0  0  0  0
   15.1063    1.9117    8.2562 H   0  0  0  0  0
   11.5380   -0.8868    7.9587 H   0  0  0  0  0
   14.3625   -0.2150    6.4380 H   0  0  0  0  0
   13.7624   -0.9990    7.7804 H   0  0  0  0  0
   12.8182   -0.8407    6.4165 H   0  0  0  0  0
  1  2  1  0  0  0
  1  3  1  0  0  0
  2  3  1  0  0  0
  3  4  1  0  0  0
  3  7  1  0  0  0
  4  5  2  0  0  0
  4  6  1  0  0  0
  1  8  1  0  0  0
  1  9  1  0  0  0
  2 10  1  0  0  0
  2 11  1  0  0  0
  6 12  1  0  0  0
  7 13  1  0  0  0
  7 14  1  0  0  0
  7 15  1  0  0  0
M  END
$$$$
