6bl1_ligand
  -I-interpret- 

 55 59  0  0  0  0  0  0  0  0999 V2000
    0.8000  222.3590   70.1410 C   0  0  0  0  0
    1.8660  221.6860   70.9600 C   0  0  0  0  0
    1.4880  221.4970   72.3610 C   0  0  0  0  0
    3.2450  222.3340   70.8830 C   0  0  0  0  0
    4.0960  222.0910   68.5950 C   0  0  0  0  0
    4.8930  220.1670   66.7180 C   0  0  0  0  0
    4.7060  222.4590   67.4070 C   0  0  0  0  0
    4.9470  225.3250   69.4710 C   0  0  0  0  0
    4.8610  224.0210   69.9410 C   0  0  0  0  0
    9.4900  223.9220   73.4750 C   0  0  0  0  0
   11.4820  225.2330   73.2850 C   0  0  0  0  0
    4.3130  219.7690   67.9010 C   0  0  0  0  0
    5.0940  221.5130   66.4810 C   0  0  0  0  0
   10.6410  224.4400   74.0390 C   0  0  0  0  0
   11.1660  225.5070   71.9680 C   0  0  0  0  0
    3.9340  220.7280   68.8160 C   0  0  0  0  0
   10.0130  224.9830   71.4120 C   0  0  0  0  0
    6.0960  226.0240   69.7670 C   0  0  0  0  0
    9.1570  224.1910   72.1610 C   0  0  0  0  0
    6.9750  224.2450   70.8770 C   0  0  0  0  0
    3.8860  226.0090   68.6800 C   0  0  0  0  0
    2.8340  225.0390   68.2020 C   0  0  0  0  0
    1.1700  223.3100   69.0190 C   0  0  0  0  0
    2.4710  224.0530   69.2990 C   0  0  0  0  0
    3.6600  223.1220   69.6370 C   0  0  0  0  0
    0.0180  224.2800   68.7970 C   0  0  0  0  0
    1.1960  221.3150   73.4690 N   0  0  0  0  0
    7.1230  225.5090   70.4490 N   0  0  0  0  0
    5.8850  223.4970   70.6400 N   0  0  0  0  0
    7.9880  223.6140   71.6240 N   0  0  0  0  0
   -0.3680  222.0500   70.3570 O   0  0  0  0  0
    1.9495  220.7090   70.4840 H   0  0  0  0  0
    3.9399  221.4949   70.9157 H   0  0  0  0  0
    3.2400  223.0753   71.6821 H   0  0  0  0  0
    5.1909  219.4271   65.9751 H   0  0  0  0  0
    4.8825  223.5146   67.2003 H   0  0  0  0  0
    8.8349  223.2915   74.0761 H   0  0  0  0  0
   12.3912  225.6413   73.7263 H   0  0  0  0  0
    4.1556  218.7111   68.1113 H   0  0  0  0  0
    5.5649  221.8314   65.5510 H   0  0  0  0  0
   10.8842  224.2222   75.0789 H   0  0  0  0  0
   11.8245  226.1352   71.3681 H   0  0  0  0  0
    3.4870  220.4028   69.7554 H   0  0  0  0  0
    9.7742  225.1959   70.3700 H   0  0  0  0  0
    6.1719  227.0563   69.4254 H   0  0  0  0  0
    4.3505  226.4693   67.8079 H   0  0  0  0  0
    3.4052  226.7500   69.3186 H   0  0  0  0  0
    3.2273  224.4863   67.3488 H   0  0  0  0  0
    1.9411  225.5984   67.9227 H   0  0  0  0  0
    1.3415  222.7298   68.1123 H   0  0  0  0  0
    2.2693  224.6304   70.2012 H   0  0  0  0  0
   -0.1161  224.8929   69.6883 H   0  0  0  0  0
    0.2433  224.9207   67.9445 H   0  0  0  0  0
   -0.8952  223.7185   68.5998 H   0  0  0  0  0
    7.8605  222.6171   71.7980 H   0  0  0  0  0
  2  1  1  0  0  0
  1 23  1  0  0  0
  1 31  2  0  0  0
  2  3  1  0  0  0
  4  2  1  0  0  0
  3 27  3  0  0  0
 25  4  1  0  0  0
  5  7  4  0  0  0
  5 16  4  0  0  0
 25  5  1  0  0  0
 12  6  4  0  0  0
 13  6  4  0  0  0
  7 13  4  0  0  0
  9  8  4  0  0  0
 18  8  4  0  0  0
  8 21  1  0  0  0
  9 25  1  0  0  0
 29  9  4  0  0  0
 10 14  4  0  0  0
 19 10  4  0  0  0
 14 11  4  0  0  0
 15 11  4  0  0  0
 16 12  4  0  0  0
 17 15  4  0  0  0
 19 17  4  0  0  0
 28 18  4  0  0  0
 30 19  1  0  0  0
 20 28  4  0  0  0
 20 29  4  0  0  0
 20 30  1  0  0  0
 21 22  1  0  0  0
 22 24  1  0  0  0
 23 24  1  0  0  0
 23 26  1  0  0  0
 24 25  1  0  0  0
  2 32  1  0  0  0
  4 33  1  0  0  0
  4 34  1  0  0  0
  6 35  1  0  0  0
  7 36  1  0  0  0
 10 37  1  0  0  0
 11 38  1  0  0  0
 12 39  1  0  0  0
 13 40  1  0  0  0
 14 41  1  0  0  0
 15 42  1  0  0  0
 16 43  1  0  0  0
 17 44  1  0  0  0
 18 45  1  0  0  0
 21 46  1  0  0  0
 21 47  1  0  0  0
 22 48  1  0  0  0
 22 49  1  0  0  0
 23 50  1  0  0  0
 24 51  1  0  0  0
 26 52  1  0  0  0
 26 53  1  0  0  0
 26 54  1  0  0  0
 30 55  1  0  0  0
M  END
$$$$
