5mzg_ligand
  -I-interpret- 

 31 33  0  0  0  0  0  0  0  0999 V2000
  -19.7660   -6.1120  -22.1950 C   0  0  0  0  0
  -21.7860   -9.5900  -21.2300 C   0  0  0  0  0
  -21.5860   -3.3240  -24.5430 N   0  0  0  0  0
  -20.9910   -4.2960  -23.7290 C   0  0  0  0  0
  -19.6940   -4.1710  -23.5390 N   0  0  0  0  0
  -19.0440   -5.0610  -22.8020 C   0  0  0  0  0
  -17.5730   -4.8460  -22.5200 C   0  0  0  0  0
  -17.1890   -3.5800  -22.0640 C   0  0  0  0  0
  -15.8420   -3.3110  -21.7850 C   0  0  0  0  0
  -14.8940   -4.3000  -21.9590 C   0  0  0  0  0
  -15.2900   -5.5630  -22.3900 C   0  0  0  0  0
  -14.1180   -6.8520  -22.6000 Cl  0  0  0  0  0
  -16.6170   -5.8130  -22.6720 C   0  0  0  0  0
  -17.0980   -7.3590  -23.2490 Cl  0  0  0  0  0
  -21.1430   -6.1990  -22.4830 C   0  0  0  0  0
  -21.9060   -7.2320  -21.9570 N   0  0  0  0  0
  -21.3080   -8.1800  -21.0640 C   0  0  0  0  0
  -20.3700   -9.2190  -21.6530 C   0  0  0  0  0
  -21.7650   -5.2480  -23.2100 N   0  0  0  0  0
  -19.2786   -6.8262  -21.5313 H   0  0  0  0  0
  -22.6481  -10.1149  -21.6415 H   0  0  0  0  0
  -22.2847  -10.3564  -20.6367 H   0  0  0  0  0
  -21.0177   -2.5795  -24.9468 H   0  0  0  0  0
  -22.5877   -3.3606  -24.7320 H   0  0  0  0  0
  -17.9391   -2.8013  -21.9255 H   0  0  0  0  0
  -15.5436   -2.3240  -21.4317 H   0  0  0  0  0
  -13.8425   -4.0930  -21.7601 H   0  0  0  0  0
  -22.8916   -7.3164  -22.2058 H   0  0  0  0  0
  -21.2208   -7.4719  -20.2399 H   0  0  0  0  0
  -19.7050   -9.3408  -22.5080 H   0  0  0  0  0
  -19.3488   -9.5775  -21.5234 H   0  0  0  0  0
  1  6  4  0  0  0
 15  1  4  0  0  0
 17  2  1  0  0  0
  2 18  1  0  0  0
  4  3  1  0  0  0
  4  5  4  0  0  0
 19  4  4  0  0  0
  6  5  4  0  0  0
  6  7  1  0  0  0
  7  8  4  0  0  0
  7 13  4  0  0  0
  8  9  4  0  0  0
  9 10  4  0  0  0
 11 10  4  0  0  0
 11 12  1  0  0  0
 13 11  4  0  0  0
 13 14  1  0  0  0
 16 15  1  0  0  0
 15 19  4  0  0  0
 16 17  1  0  0  0
 17 18  1  0  0  0
  1 20  1  0  0  0
  2 21  1  0  0  0
  2 22  1  0  0  0
  3 23  1  0  0  0
  3 24  1  0  0  0
  8 25  1  0  0  0
  9 26  1  0  0  0
 10 27  1  0  0  0
 16 28  1  0  0  0
 17 29  1  0  0  0
 18 30  1  0  0  0
 18 31  1  0  0  0
M  END
$$$$
