3mof_ligand
  -I-interpret- 

  8  7  0  0  0  0  0  0  0  0999 V2000
   10.3750    2.8750   46.4510 C   0  0  0  0  0
    9.5370    1.9960   45.6140 C   0  0  0  0  0
   10.6530    4.0480   46.0740 O   0  0  0  0  0
    9.3900    0.7770   45.9560 O   0  0  0  0  0
   10.7860    2.3980   47.5410 O   0  0  0  0  0
    8.9910    2.4980   44.5930 O   0  0  0  0  0
   10.2449    4.2139   45.2210 H   0  0  0  0  0
    9.8898    0.6084   46.7581 H   0  0  0  0  0
  1  2  1  0  0  0
  1  3  1  0  0  0
  1  5  2  0  0  0
  2  4  1  0  0  0
  2  6  2  0  0  0
  3  7  1  0  0  0
  4  8  1  0  0  0
M  END
$$$$
