2igy_ligand
  -I-interpret- 

 89 92  0  0  0  0  0  0  0  0999 V2000
   44.9170    0.3540  -13.7810 O   0  0  0  0  0
   43.8650   -0.1590  -13.4680 C   0  0  0  0  0
   42.6070    0.3990  -14.0770 C   0  0  0  0  0
   42.0040    1.5120  -13.4870 C   0  0  0  0  0
   40.8260    2.0310  -14.0310 C   0  0  0  0  0
   40.2560    1.4490  -15.1690 C   0  0  0  0  0
   38.9960    2.0340  -15.7600 C   0  0  0  0  0
   37.7670    1.4710  -15.0560 C   0  0  0  0  0
   36.5750    2.2980  -15.5030 C   0  0  0  0  0
   35.3970    1.4150  -15.8580 C   0  0  0  0  0
   34.1080    2.0610  -15.3990 C   0  0  0  0  0
   40.8610    0.3460  -15.7680 C   0  0  0  0  0
   42.0440   -0.1720  -15.2230 C   0  0  0  0  0
   43.8560   -1.1640  -12.5770 N   0  0  0  0  0
   45.1790   -1.6730  -12.1730 C   0  0  0  0  0
   45.3060   -3.1720  -12.4490 C   0  0  0  0  0
   46.7500   -3.5370  -12.1680 C   0  0  0  0  0
   46.9840   -3.2640  -10.7530 N   0  3  0  0  0
   48.2910   -3.8430  -10.4850 C   0  0  0  0  0
   48.7720   -3.3500   -9.1310 C   0  0  0  0  0
   49.9660   -4.1780   -8.6890 C   0  0  0  0  0
   49.8940   -4.4460   -7.1850 C   0  0  0  0  0
   51.2680   -3.4950   -9.1090 C   0  0  0  0  0
   46.9180   -1.8250  -10.4340 C   0  0  0  0  0
   45.4750   -1.3890  -10.6900 C   0  0  0  0  0
   42.6950   -1.7780  -11.9320 C   0  0  0  0  0
   42.2120   -3.0410  -12.6180 C   0  0  0  0  0
   41.5790   -4.0350  -11.8590 C   0  0  0  0  0
   41.1270   -5.2050  -12.4780 C   0  0  0  0  0
   42.3930   -3.2380  -13.9900 C   0  0  0  0  0
   41.9470   -4.4000  -14.6040 C   0  0  0  0  0
   41.3090   -5.3850  -13.8560 C   0  0  0  0  0
   40.8620   -6.5580  -14.4950 N   0  0  0  0  0
   39.5130   -6.3590  -15.0160 C   0  0  0  0  0
   41.2790   -7.9000  -14.4240 C   0  0  0  0  0
   40.8910   -8.8270  -15.4020 C   0  0  0  0  0
   42.0950   -8.3280  -13.3680 C   0  0  0  0  0
   42.5050   -9.6630  -13.2980 C   0  0  0  0  0
   42.1090  -10.5350  -14.2490 N   0  0  0  0  0
   41.3230  -10.1510  -15.2840 C   0  0  0  0  0
   42.4502    1.9738  -12.6062 H   0  0  0  0  0
   40.3485    2.8938  -13.5665 H   0  0  0  0  0
   38.9478    1.7767  -16.8181 H   0  0  0  0  0
   39.0134    3.1163  -15.6321 H   0  0  0  0  0
   37.8867    1.5240  -13.9739 H   0  0  0  0  0
   37.6242    0.4216  -15.3137 H   0  0  0  0  0
   36.8599    2.8693  -16.3865 H   0  0  0  0  0
   36.2821    2.9561  -14.6849 H   0  0  0  0  0
   35.5103    0.4504  -15.3632 H   0  0  0  0  0
   35.3643    1.2787  -16.9389 H   0  0  0  0  0
   34.1383    2.2018  -14.3186 H   0  0  0  0  0
   33.9927    3.0275  -15.8895 H   0  0  0  0  0
   33.2677    1.4174  -15.6594 H   0  0  0  0  0
   40.4180   -0.1103  -16.6532 H   0  0  0  0  0
   42.5288   -1.0261  -15.6958 H   0  0  0  0  0
   45.9150   -1.1405  -12.7754 H   0  0  0  0  0
   45.0368   -3.4046  -13.4793 H   0  0  0  0  0
   44.6273   -3.7452  -11.8175 H   0  0  0  0  0
   47.4266   -2.9543  -12.7931 H   0  0  0  0  0
   46.9371   -4.5861  -12.3973 H   0  0  0  0  0
   46.2607   -3.6709  -10.1600 H   0  0  0  0  0
   48.9956   -3.5429  -11.2606 H   0  0  0  0  0
   48.2208   -4.9307  -10.4801 H   0  0  0  0  0
   47.9690   -3.4496   -8.4006 H   0  0  0  0  0
   49.0632   -2.3024   -9.2071 H   0  0  0  0  0
   49.9443   -5.1482   -9.1853 H   0  0  0  0  0
   49.8977   -3.4977   -6.6477 H   0  0  0  0  0
   48.9774   -4.9903   -6.9577 H   0  0  0  0  0
   50.7558   -5.0404   -6.8815 H   0  0  0  0  0
   51.2882   -3.3900  -10.1937 H   0  0  0  0  0
   51.3257   -2.5098   -8.6462 H   0  0  0  0  0
   52.1150   -4.1000   -8.7854 H   0  0  0  0  0
   47.6129   -1.2562  -11.0518 H   0  0  0  0  0
   47.2030   -1.6416   -9.3980 H   0  0  0  0  0
   44.7858   -1.9357  -10.0464 H   0  0  0  0  0
   45.3452   -0.3303  -10.4655 H   0  0  0  0  0
   41.8806   -1.0546  -11.9711 H   0  0  0  0  0
   42.9918   -2.0508  -10.9193 H   0  0  0  0  0
   41.4391   -3.8963  -10.7870 H   0  0  0  0  0
   40.6329   -5.9772  -11.8884 H   0  0  0  0  0
   42.8897   -2.4708  -14.5840 H   0  0  0  0  0
   42.0967   -4.5414  -15.6744 H   0  0  0  0  0
   38.8391   -6.1185  -14.1937 H   0  0  0  0  0
   39.5195   -5.5388  -15.7339 H   0  0  0  0  0
   39.1767   -7.2716  -15.5081 H   0  0  0  0  0
   40.2638   -8.5206  -16.2391 H   0  0  0  0  0
   42.4100   -7.6202  -12.6013 H   0  0  0  0  0
   43.1416   -9.9979  -12.4790 H   0  0  0  0  0
   41.0240  -10.8836  -16.0336 H   0  0  0  0  0
  1  2  2  0  0  0
  2  3  1  0  0  0
  2 14  1  0  0  0
  3  4  4  0  0  0
  3 13  4  0  0  0
  4  5  4  0  0  0
  5  6  4  0  0  0
  6  7  1  0  0  0
  6 12  4  0  0  0
  7  8  1  0  0  0
  8  9  1  0  0  0
  9 10  1  0  0  0
 10 11  1  0  0  0
 12 13  4  0  0  0
 14 15  1  0  0  0
 14 26  1  0  0  0
 15 16  1  0  0  0
 15 25  1  0  0  0
 16 17  1  0  0  0
 17 18  1  0  0  0
 18 19  1  0  0  0
 18 24  1  0  0  0
 19 20  1  0  0  0
 20 21  1  0  0  0
 21 22  1  0  0  0
 21 23  1  0  0  0
 24 25  1  0  0  0
 26 27  1  0  0  0
 27 28  4  0  0  0
 27 30  4  0  0  0
 28 29  4  0  0  0
 29 32  4  0  0  0
 30 31  4  0  0  0
 31 32  4  0  0  0
 32 33  1  0  0  0
 33 34  1  0  0  0
 33 35  1  0  0  0
 35 36  4  0  0  0
 35 37  4  0  0  0
 36 40  4  0  0  0
 37 38  4  0  0  0
 38 39  4  0  0  0
 39 40  4  0  0  0
  4 41  1  0  0  0
  5 42  1  0  0  0
  7 43  1  0  0  0
  7 44  1  0  0  0
  8 45  1  0  0  0
  8 46  1  0  0  0
  9 47  1  0  0  0
  9 48  1  0  0  0
 10 49  1  0  0  0
 10 50  1  0  0  0
 11 51  1  0  0  0
 11 52  1  0  0  0
 11 53  1  0  0  0
 12 54  1  0  0  0
 13 55  1  0  0  0
 15 56  1  0  0  0
 16 57  1  0  0  0
 16 58  1  0  0  0
 17 59  1  0  0  0
 17 60  1  0  0  0
 18 61  1  0  0  0
 19 62  1  0  0  0
 19 63  1  0  0  0
 20 64  1  0  0  0
 20 65  1  0  0  0
 21 66  1  0  0  0
 22 67  1  0  0  0
 22 68  1  0  0  0
 22 69  1  0  0  0
 23 70  1  0  0  0
 23 71  1  0  0  0
 23 72  1  0  0  0
 24 73  1  0  0  0
 24 74  1  0  0  0
 25 75  1  0  0  0
 25 76  1  0  0  0
 26 77  1  0  0  0
 26 78  1  0  0  0
 28 79  1  0  0  0
 29 80  1  0  0  0
 30 81  1  0  0  0
 31 82  1  0  0  0
 34 83  1  0  0  0
 34 84  1  0  0  0
 34 85  1  0  0  0
 36 86  1  0  0  0
 37 87  1  0  0  0
 38 88  1  0  0  0
 40 89  1  0  0  0
M  END
$$$$
