1t37_ligand
  -I-interpret- 

 85 85  0  0  0  0  0  0  0  0999 V2000
   29.0140   27.5360  -10.3920 N   0  3  0  0  0
   29.5320   28.6850  -11.1740 C   0  0  0  0  0
   30.1780   29.7670  -10.3280 C   0  0  0  0  0
   30.8620   30.6180  -10.8660 O   0  0  0  0  0
   28.4140   29.3200  -12.0390 C   0  0  0  0  0
   27.0930   29.7320  -11.3800 C   0  0  0  0  0
   26.9870   31.2490  -11.2440 C   0  0  0  0  0
   25.9470   29.2180  -12.2490 C   0  0  0  0  0
   30.0410   29.7390   -9.0080 N   0  0  0  0  0
   30.6220   30.8610   -8.2750 C   0  0  0  0  0
   31.4450   30.6620   -6.9880 C   0  0  0  0  0
   31.2900   29.7120   -6.2260 O   0  0  0  0  0
   29.5560   31.8990   -8.0480 C   0  0  0  0  0
   32.3310   31.6440   -6.8420 N   0  0  0  0  0
   33.3670   31.9200   -5.8390 C   0  0  0  0  0
   33.3460   31.6480   -4.3210 C   0  0  0  0  0
   32.3190   31.5110   -3.6690 O   0  0  0  0  0
   33.7720   33.4100   -5.9810 C   0  0  0  0  0
   33.9450   33.7660   -7.4560 C   0  0  0  0  0
   35.0430   33.6730   -5.2640 C   0  0  0  0  0
   32.7050   34.4270   -8.0740 C   0  0  0  0  0
   34.5700   31.5980   -3.8050 N   0  0  0  0  0
   34.9500   31.4390   -2.4040 C   0  0  0  0  0
   35.7120   32.7580   -2.3320 C   0  0  0  0  0
   35.1180   33.8150   -2.3110 O   0  0  0  0  0
   35.9550   30.2820   -2.2160 C   0  0  0  0  0
   35.7090   29.0890   -3.1180 C   0  0  0  0  0
   35.3400   29.2870   -4.4440 C   0  0  0  0  0
   35.8400   27.7730   -2.6650 C   0  0  0  0  0
   35.0990   28.2500   -5.3070 C   0  0  0  0  0
   35.5990   26.6960   -3.5470 C   0  0  0  0  0
   35.2250   26.9600   -4.8760 C   0  0  0  0  0
   34.9890   25.9640   -5.7960 O   0  0  0  0  0
   37.0360   32.7090   -2.3660 N   0  0  0  0  0
   37.8000   33.9560   -2.3610 C   0  0  0  0  0
   39.1790   33.8700   -3.0350 C   0  0  0  0  0
   39.2800   34.4980   -4.1140 O   0  0  0  0  0
   37.9370   34.5130   -0.9270 C   0  0  0  0  0
   38.3490   33.5250    0.0040 O   0  0  0  0  0
   29.7691   27.1384   -9.8334 H   0  0  0  0  0
   28.2657   27.8549   -9.7765 H   0  0  0  0  0
   28.6522   26.8274  -11.0302 H   0  0  0  0  0
   30.3112   28.2647  -11.8098 H   0  0  0  0  0
   28.1378   28.5411  -12.7497 H   0  0  0  0  0
   28.8433   30.2525  -12.4054 H   0  0  0  0  0
   27.0466   29.3046  -10.3784 H   0  0  0  0  0
   27.0457   31.7060  -12.2318 H   0  0  0  0  0
   26.0347   31.5052  -10.7797 H   0  0  0  0  0
   27.8052   31.6149  -10.6237 H   0  0  0  0  0
   24.9958   29.4763  -11.7837 H   0  0  0  0  0
   26.0068   29.6772  -13.2358 H   0  0  0  0  0
   26.0234   28.1350  -12.3456 H   0  0  0  0  0
   29.5574   28.9772   -8.5324 H   0  0  0  0  0
   31.4235   31.1520   -8.9540 H   0  0  0  0  0
   29.1756   32.2436   -9.0096 H   0  0  0  0  0
   28.7423   31.4618   -7.4694 H   0  0  0  0  0
   29.9809   32.7408   -7.5012 H   0  0  0  0  0
   32.2800   32.3492   -7.5772 H   0  0  0  0  0
   34.0065   31.0871   -6.1314 H   0  0  0  0  0
   32.9824   34.0228   -5.5461 H   0  0  0  0  0
   34.1272   32.8383   -7.9984 H   0  0  0  0  0
   34.7668   34.4785   -7.5275 H   0  0  0  0  0
   34.9176   33.4386   -4.2069 H   0  0  0  0  0
   35.8318   33.0493   -5.6847 H   0  0  0  0  0
   35.3107   34.7237   -5.3752 H   0  0  0  0  0
   31.8566   33.7469   -7.9984 H   0  0  0  0  0
   32.4816   35.3496   -7.5383 H   0  0  0  0  0
   32.8995   34.6522   -9.1226 H   0  0  0  0  0
   35.3390   31.6810   -4.4699 H   0  0  0  0  0
   34.1490   31.2371   -1.6929 H   0  0  0  0  0
   35.8538   29.9332   -1.1883 H   0  0  0  0  0
   36.9426   30.6720   -2.4623 H   0  0  0  0  0
   35.2383   30.3080   -4.8118 H   0  0  0  0  0
   36.1279   27.5780   -1.6320 H   0  0  0  0  0
   34.8069   28.4546   -6.3370 H   0  0  0  0  0
   35.7023   25.6680   -3.1995 H   0  0  0  0  0
   35.1079   25.1084   -5.3772 H   0  0  0  0  0
   37.5174   31.8103   -2.3954 H   0  0  0  0  0
   37.2175   34.6449   -2.9728 H   0  0  0  0  0
   39.3522   32.8187   -3.2650 H   0  0  0  0  0
   39.8956   34.3138   -2.3439 H   0  0  0  0  0
   40.1676   34.3907   -4.4635 H   0  0  0  0  0
   36.9597   34.8815   -0.6151 H   0  0  0  0  0
   38.6944   35.2967   -0.9421 H   0  0  0  0  0
   38.4193   33.9188    0.8767 H   0  0  0  0  0
  1  2  1  0  0  0
  2  3  1  0  0  0
  2  5  1  0  0  0
  3  4  2  0  0  0
  3  9  1  0  0  0
  5  6  1  0  0  0
  6  7  1  0  0  0
  6  8  1  0  0  0
  9 10  1  0  0  0
 10 11  1  0  0  0
 10 13  1  0  0  0
 11 12  2  0  0  0
 11 14  1  0  0  0
 14 15  1  0  0  0
 15 16  1  0  0  0
 15 18  1  0  0  0
 16 17  2  0  0  0
 16 22  1  0  0  0
 18 19  1  0  0  0
 18 20  1  0  0  0
 19 21  1  0  0  0
 22 23  1  0  0  0
 23 24  1  0  0  0
 23 26  1  0  0  0
 24 25  2  0  0  0
 24 34  1  0  0  0
 26 27  1  0  0  0
 27 28  4  0  0  0
 27 29  4  0  0  0
 28 30  4  0  0  0
 29 31  4  0  0  0
 30 32  4  0  0  0
 31 32  4  0  0  0
 32 33  1  0  0  0
 34 35  1  0  0  0
 35 36  1  0  0  0
 35 38  1  0  0  0
 36 37  1  0  0  0
 38 39  1  0  0  0
  1 40  1  0  0  0
  1 41  1  0  0  0
  1 42  1  0  0  0
  2 43  1  0  0  0
  5 44  1  0  0  0
  5 45  1  0  0  0
  6 46  1  0  0  0
  7 47  1  0  0  0
  7 48  1  0  0  0
  7 49  1  0  0  0
  8 50  1  0  0  0
  8 51  1  0  0  0
  8 52  1  0  0  0
  9 53  1  0  0  0
 10 54  1  0  0  0
 13 55  1  0  0  0
 13 56  1  0  0  0
 13 57  1  0  0  0
 14 58  1  0  0  0
 15 59  1  0  0  0
 18 60  1  0  0  0
 19 61  1  0  0  0
 19 62  1  0  0  0
 20 63  1  0  0  0
 20 64  1  0  0  0
 20 65  1  0  0  0
 21 66  1  0  0  0
 21 67  1  0  0  0
 21 68  1  0  0  0
 22 69  1  0  0  0
 23 70  1  0  0  0
 26 71  1  0  0  0
 26 72  1  0  0  0
 28 73  1  0  0  0
 29 74  1  0  0  0
 30 75  1  0  0  0
 31 76  1  0  0  0
 33 77  1  0  0  0
 34 78  1  0  0  0
 35 79  1  0  0  0
 36 80  1  0  0  0
 36 81  1  0  0  0
 37 82  1  0  0  0
 38 83  1  0  0  0
 38 84  1  0  0  0
 39 85  1  0  0  0
M  END
$$$$
