3m94_ligand
  -I-interpret- 

 53 55  0  0  0  0  0  0  0  0999 V2000
    7.8120   12.1920    3.4680 O   0  0  0  0  0
    6.7100   11.6030    5.5970 O   0  0  0  0  0
    6.4400   12.2750    4.2970 P   0  0  0  0  0
    5.3300   11.7750    3.4370 O   0  0  0  0  0
    1.9920   21.5080    0.0090 O   0  0  0  0  0
    2.4060   19.7330    2.0700 C   0  0  0  0  0
    6.1800   13.8340    4.5650 O   0  0  0  0  0
    2.1200   20.7570   -2.0930 N   0  0  0  0  0
    2.1780   20.5710   -0.7800 C   0  0  0  0  0
    2.4670   19.3060   -0.3600 C   0  0  0  0  0
    2.5800   18.8990    0.8740 N   0  3  0  0  0
    2.8650   17.6100    0.8220 C   0  0  0  0  0
    3.7110   13.8640    4.9230 O   0  0  0  0  0
    4.7980   14.5880    4.2600 P   0  0  0  0  0
    5.0210   16.0380    4.4770 O   0  0  0  0  0
    2.3320   19.7370   -2.9210 C   0  0  0  0  0
    2.6140   18.4980   -2.5130 N   0  0  0  0  0
    2.6830   18.2730   -1.2060 C   0  0  0  0  0
    2.9190   17.2320   -0.4460 N   0  0  0  0  0
    3.2110   15.8800   -0.9170 C   0  0  0  0  0
    3.4030   14.9900    0.1660 O   0  0  0  0  0
    4.7730   14.7000    0.3820 C   0  0  0  0  0
    5.1740   15.1580    1.7660 C   0  0  0  0  0
    4.6320   14.2770    2.7170 O   0  0  0  0  0
    2.2560   20.0130   -4.2110 N   0  0  0  0  0
    2.4700   18.9710   -5.1780 C   0  0  0  0  0
    4.5170   15.9590   -1.6440 C   0  0  0  0  0
    5.5140   15.5770   -0.5850 C   0  0  0  0  0
    1.9590   21.3650   -4.6170 C   0  0  0  0  0
    4.4550   14.9930   -2.6770 O   0  0  0  0  0
    6.6240   14.8720   -1.1140 O   0  0  0  0  0
    7.6944   12.6138    2.6137 H   0  0  0  0  0
    5.2810   12.3061    2.6388 H   0  0  0  0  0
    3.1320   20.5458    2.0533 H   0  0  0  0  0
    1.3971   20.1454    2.0801 H   0  0  0  0  0
    2.5602   19.1246    2.9612 H   0  0  0  0  0
    3.0291   16.9625    1.6833 H   0  0  0  0  0
    5.7758   16.3257    3.9583 H   0  0  0  0  0
    2.7717   17.7467   -3.1846 H   0  0  0  0  0
    2.3849   15.5233   -1.5322 H   0  0  0  0  0
    4.9759   13.6353    0.2662 H   0  0  0  0  0
    4.7968   16.1653    1.9425 H   0  0  0  0  0
    6.2608   15.1643    1.8495 H   0  0  0  0  0
    3.4718   18.5604   -5.0521 H   0  0  0  0  0
    1.7317   18.1828   -5.0303 H   0  0  0  0  0
    2.3682   19.3825   -6.1822 H   0  0  0  0  0
    4.7635   16.9217   -2.0919 H   0  0  0  0  0
    5.9187   16.4737   -0.1156 H   0  0  0  0  0
    0.9897   21.6592   -4.2146 H   0  0  0  0  0
    2.7302   22.0349   -4.2367 H   0  0  0  0  0
    1.9335   21.4189   -5.7054 H   0  0  0  0  0
    5.2756   15.0055   -3.1750 H   0  0  0  0  0
    7.0950   15.4361   -1.7317 H   0  0  0  0  0
  3  1  1  0  0  0
  3  2  2  0  0  0
  3  4  1  0  0  0
  7  3  1  0  0  0
  9  5  2  0  0  0
 11  6  1  0  0  0
 14  7  1  0  0  0
  9  8  1  0  0  0
 16  8  4  0  0  0
 10  9  1  0  0  0
 10 11  4  0  0  0
 18 10  4  0  0  0
 12 11  4  0  0  0
 19 12  4  0  0  0
 14 13  2  0  0  0
 14 15  1  0  0  0
 24 14  1  0  0  0
 17 16  1  0  0  0
 16 25  1  0  0  0
 18 17  1  0  0  0
 19 18  4  0  0  0
 20 19  1  0  0  0
 21 20  1  0  0  0
 20 27  1  0  0  0
 22 21  1  0  0  0
 23 22  1  0  0  0
 22 28  1  0  0  0
 23 24  1  0  0  0
 25 26  1  0  0  0
 25 29  1  0  0  0
 27 28  1  0  0  0
 27 30  1  0  0  0
 28 31  1  0  0  0
  1 32  1  0  0  0
  4 33  1  0  0  0
  6 34  1  0  0  0
  6 35  1  0  0  0
  6 36  1  0  0  0
 12 37  1  0  0  0
 15 38  1  0  0  0
 17 39  1  0  0  0
 20 40  1  0  0  0
 22 41  1  0  0  0
 23 42  1  0  0  0
 23 43  1  0  0  0
 26 44  1  0  0  0
 26 45  1  0  0  0
 26 46  1  0  0  0
 27 47  1  0  0  0
 28 48  1  0  0  0
 29 49  1  0  0  0
 29 50  1  0  0  0
 29 51  1  0  0  0
 30 52  1  0  0  0
 31 53  1  0  0  0
M  END
$$$$
