### 
### Created by X-TOOL on Mon Sep 10 21:13:07 2018
### 

@<TRIPOS>MOLECULE
3m94_ligand
   51    53     1     0     0
SMALL
GAST_HUCK


@<TRIPOS>ATOM
      1 OAX         7.8120   12.1920    3.4680 O.co2     1 M7M        -0.5891
      2 OAY         6.7100   11.6030    5.5970 O.co2     1 M7M        -0.5891
      3 PAZ         6.4400   12.2750    4.2970 P.3       1 M7M         0.2069
      4 OBA         5.3300   11.7750    3.4370 O.co2     1 M7M        -0.5891
      5 OBB         1.9920   21.5080    0.0090 O.2       1 M7M        -0.3083
      6 CBC         2.4060   19.7330    2.0700 C.3       1 M7M         0.0325
      7 OBD         6.1800   13.8340    4.5650 O.3       1 M7M        -0.1548
      8 NBE         2.1200   20.7570   -2.0930 N.am      1 M7M        -0.2248
      9 CBF         2.1780   20.5710   -0.7800 C.2       1 M7M         0.3491
     10 CBG         2.4670   19.3060   -0.3600 C.2       1 M7M         0.3797
     11 NBH         2.5800   18.8990    0.8740 N.2       1 M7M        -0.1824
     12 CBI         2.8650   17.6100    0.8220 C.2       1 M7M         0.2543
     13 OBJ         3.7110   13.8640    4.9230 O.co2     1 M7M        -0.5556
     14 PBK         4.7980   14.5880    4.2600 P.3       1 M7M         0.3276
     15 OBL         5.0210   16.0380    4.4770 O.co2     1 M7M        -0.5556
     16 CBM         2.3320   19.7370   -2.9210 C.cat     1 M7M         0.2431
     17 NBN         2.6140   18.4980   -2.5130 N.pl3     1 M7M        -0.1223
     18 CBO         2.6830   18.2730   -1.2060 C.2       1 M7M         0.4548
     19 NBP         2.9190   17.2320   -0.4460 N.pl3     1 M7M        -0.0054
     20 CBQ         3.2110   15.8800   -0.9170 C.3       1 M7M         0.2440
     21 OBR         3.4030   14.9900    0.1660 O.3       1 M7M        -0.3332
     22 CBS         4.7730   14.7000    0.3820 C.3       1 M7M         0.1191
     23 CBT         5.1740   15.1580    1.7660 C.3       1 M7M         0.1132
     24 OBU         4.6320   14.2770    2.7170 O.3       1 M7M        -0.2436
     25 NBV         2.2560   20.0130   -4.2110 N.pl3     1 M7M        -0.3033
     26 CBW         2.4700   18.9710   -5.1780 C.3       1 M7M         0.0175
     27 CBX         4.5170   15.9590   -1.6440 C.3       1 M7M         0.1428
     28 CBY         5.5140   15.5770   -0.5850 C.3       1 M7M         0.1151
     29 CBZ         1.9590   21.3650   -4.6170 C.3       1 M7M         0.0175
     30 OCA         4.4550   14.9930   -2.6770 O.3       1 M7M        -0.3834
     31 OCB         6.6240   14.8720   -1.1140 O.3       1 M7M        -0.3864
     32 H           3.1320   20.5458    2.0533 H         1 M7M         0.0418
     33 H           1.3971   20.1454    2.0801 H         1 M7M         0.0418
     34 H           2.5602   19.1246    2.9612 H         1 M7M         0.0418
     35 H           1.9127   21.6828   -2.4677 H         1 M7M         0.1849
     36 H           3.0291   16.9625    1.6833 H         1 M7M         0.2503
     37 H           2.7717   17.7467   -3.1846 H         1 M7M         0.2948
     38 H           2.3849   15.5233   -1.5322 H         1 M7M         0.1043
     39 H           4.9759   13.6353    0.2662 H         1 M7M         0.0651
     40 H           4.7968   16.1653    1.9425 H         1 M7M         0.0648
     41 H           6.2608   15.1643    1.8495 H         1 M7M         0.0648
     42 H           3.4718   18.5604   -5.0521 H         1 M7M         0.0504
     43 H           1.7317   18.1828   -5.0303 H         1 M7M         0.0504
     44 H           2.3682   19.3825   -6.1822 H         1 M7M         0.0504
     45 H           4.7635   16.9217   -2.0919 H         1 M7M         0.0678
     46 H           5.9187   16.4737   -0.1156 H         1 M7M         0.0648
     47 H           0.9897   21.6592   -4.2146 H         1 M7M         0.0504
     48 H           2.7302   22.0349   -4.2367 H         1 M7M         0.0504
     49 H           1.9335   21.4189   -5.7054 H         1 M7M         0.0504
     50 H           5.3181   14.9110   -3.0891 H         1 M7M         0.2101
     51 H           6.3179   14.0664   -1.5371 H         1 M7M         0.2100
@<TRIPOS>BOND
     1    3    1 ar 
     2    3    2 ar 
     3    3    4 ar 
     4    7    3 1  
     5    9    5 2  
     6   11    6 1  
     7   14    7 1  
     8    9    8 am 
     9   16    8 ar 
    10   10    9 1  
    11   10   11 1  
    12   18   10 2  
    13   12   11 2  
    14   19   12 1  
    15   14   13 ar 
    16   14   15 ar 
    17   24   14 1  
    18   17   16 ar 
    19   16   25 ar 
    20   18   17 1  
    21   19   18 1  
    22   20   19 1  
    23   21   20 1  
    24   20   27 1  
    25   22   21 1  
    26   23   22 1  
    27   22   28 1  
    28   23   24 1  
    29   25   26 1  
    30   25   29 1  
    31   27   28 1  
    32   27   30 1  
    33   28   31 1  
    34    6   32 1  
    35    6   33 1  
    36    6   34 1  
    37    8   35 1  
    38   12   36 1  
    39   17   37 1  
    40   20   38 1  
    41   22   39 1  
    42   23   40 1  
    43   23   41 1  
    44   26   42 1  
    45   26   43 1  
    46   26   44 1  
    47   27   45 1  
    48   28   46 1  
    49   29   47 1  
    50   29   48 1  
    51   29   49 1  
    52   30   50 1  
    53   31   51 1  
@<TRIPOS>SUBSTRUCTURE
     1 M7M         1

