1fd7_ligand
  -I-interpret- 

 51 53  0  0  0  0  0  0  0  0999 V2000
  -12.9710    9.7470    4.2680 C   0  0  0  0  0
  -14.1080    8.8690    4.4820 O   0  0  0  0  0
  -12.0860    9.5260    3.0070 C   0  0  0  0  0
  -12.8610    9.3430    1.8140 O   0  0  0  0  0
  -11.4180    8.1240    3.1480 C   0  0  0  0  0
  -10.4600    8.1150    2.0930 O   0  0  0  0  0
  -10.5950    8.1520    4.4700 C   0  0  0  0  0
   -9.4480    8.9710    4.3330 O   0  0  0  0  0
  -11.4830    8.4770    5.6770 C   0  0  0  0  0
  -12.1790    9.7350    5.4680 O   0  0  0  0  0
  -10.6190    8.6010    6.9700 C   0  0  0  0  0
  -11.4150    8.6940    8.1190 O   0  0  0  0  0
  -15.0200    9.1870    5.5610 C   0  0  0  0  0
  -14.8370   10.2530    6.4510 C   0  0  0  0  0
  -15.8140   10.4480    7.4500 C   0  0  0  0  0
  -16.9280    9.5440    7.4990 C   0  0  0  0  0
  -17.1210    8.4620    6.5990 C   0  0  0  0  0
  -16.1040    8.3160    5.6230 C   0  0  0  0  0
  -18.2020    7.5270    6.5850 C   0  0  0  0  0
  -18.5250    6.9610    5.4550 O   0  0  0  0  0
  -18.8720    7.2320    7.6080 N   0  0  0  0  0
  -20.0120    6.3050    7.7700 C   0  0  0  0  0
  -20.2700    6.0290    9.2390 C   0  0  0  0  0
  -20.1420    4.7790    9.8080 C   0  0  0  0  0
  -20.3590    4.5470   11.1680 C   0  0  0  0  0
  -20.7340    5.6240   11.9500 C   0  0  0  0  0
  -20.8890    6.9010   11.3940 C   0  0  0  0  0
  -20.6460    7.0860   10.0540 C   0  0  0  0  0
  -13.4057   10.7217    4.0463 H   0  0  0  0  0
  -11.4226   10.3883    2.9398 H   0  0  0  0  0
  -13.3328   10.1544    1.6127 H   0  0  0  0  0
  -12.1229    7.2928    3.1315 H   0  0  0  0  0
  -10.9160    8.0977    1.2484 H   0  0  0  0  0
  -10.2101    7.1530    4.6748 H   0  0  0  0  0
   -8.9531    8.6994    3.5565 H   0  0  0  0  0
  -12.2045    7.6678    5.7898 H   0  0  0  0  0
  -10.0174    9.5068    6.8951 H   0  0  0  0  0
   -9.9976    7.7094    7.0543 H   0  0  0  0  0
  -10.8511    8.7687    8.8924 H   0  0  0  0  0
  -13.9699   10.9091    6.3744 H   0  0  0  0  0
  -15.7251   11.2645    8.1666 H   0  0  0  0  0
  -17.6748    9.6979    8.2779 H   0  0  0  0  0
  -16.1723    7.5009    4.9025 H   0  0  0  0  0
  -18.5824    7.7085    8.4621 H   0  0  0  0  0
  -19.7774    5.3654    7.2697 H   0  0  0  0  0
  -20.9018    6.7594    7.3341 H   0  0  0  0  0
  -19.8606    3.9399    9.1717 H   0  0  0  0  0
  -20.2371    3.5527   11.5976 H   0  0  0  0  0
  -20.9118    5.4774   13.0154 H   0  0  0  0  0
  -21.1992    7.7391   12.0180 H   0  0  0  0  0
  -20.7508    8.0821    9.6239 H   0  0  0  0  0
  1 10  1  0  0  0
  1  3  1  0  0  0
  1  2  1  0  0  0
  2 13  1  0  0  0
 13 18  4  0  0  0
 13 14  4  0  0  0
 14 15  4  0  0  0
 15 16  4  0  0  0
 16 17  4  0  0  0
 17 19  1  0  0  0
 17 18  4  0  0  0
 19 21  1  0  0  0
 19 20  2  0  0  0
 21 22  1  0  0  0
 22 23  1  0  0  0
 23 28  4  0  0  0
 23 24  4  0  0  0
 24 25  4  0  0  0
 25 26  4  0  0  0
 26 27  4  0  0  0
 27 28  4  0  0  0
  3  5  1  0  0  0
  3  4  1  0  0  0
  5  7  1  0  0  0
  5  6  1  0  0  0
  7  9  1  0  0  0
  7  8  1  0  0  0
  9 11  1  0  0  0
  9 10  1  0  0  0
 11 12  1  0  0  0
  1 29  1  0  0  0
  3 30  1  0  0  0
  4 31  1  0  0  0
  5 32  1  0  0  0
  6 33  1  0  0  0
  7 34  1  0  0  0
  8 35  1  0  0  0
  9 36  1  0  0  0
 11 37  1  0  0  0
 11 38  1  0  0  0
 12 39  1  0  0  0
 14 40  1  0  0  0
 15 41  1  0  0  0
 16 42  1  0  0  0
 18 43  1  0  0  0
 21 44  1  0  0  0
 22 45  1  0  0  0
 22 46  1  0  0  0
 24 47  1  0  0  0
 25 48  1  0  0  0
 26 49  1  0  0  0
 27 50  1  0  0  0
 28 51  1  0  0  0
M  END
$$$$
