### 
### Created by X-TOOL on Mon Sep 10 21:13:09 2018
### 

@<TRIPOS>MOLECULE
3tvl_ligand
   13    12     1     0     0
SMALL
GAST_HUCK


@<TRIPOS>ATOM
      1 PG         16.5160    4.1180   19.6050 P.3       1 3PO         0.2231
      2 O1G        15.5300    5.2310   19.3400 O.co2     1 3PO        -0.5731
      3 O2G        17.0850    4.1150   21.0070 O.co2     1 3PO        -0.5731
      4 O3G        17.5160    3.9730   18.4940 O.co2     1 3PO        -0.5731
      5 PB         16.0490    1.2920   20.1200 P.3       1 3PO         0.3646
      6 O1B        16.3640    1.4390   21.6090 O.co2     1 3PO        -0.5400
      7 O2B        17.0440    0.6040   19.2050 O.co2     1 3PO        -0.5400
      8 O3B        15.6430    2.7530   19.5060 O.3       1 3PO        -0.1463
      9 PA         14.4850   -0.9910   20.6590 P.3       1 3PO         0.2231
     10 O1A        14.6660   -0.6710   22.1330 O.co2     1 3PO        -0.5731
     11 O2A        15.5410   -1.8940   20.0670 O.co2     1 3PO        -0.5731
     12 O3A        14.6880    0.4370   19.9410 O.3       1 3PO        -0.1463
     13 O5'        13.0840   -1.4050   20.2660 O.co2     1 3PO        -0.5731
@<TRIPOS>BOND
     1    1    2 ar 
     2    1    3 ar 
     3    1    4 ar 
     4    8    1 1  
     5    5    6 ar 
     6    5    7 ar 
     7    5    8 1  
     8   12    5 1  
     9    9   10 ar 
    10    9   11 ar 
    11    9   12 1  
    12    9   13 ar 
@<TRIPOS>SUBSTRUCTURE
     1 3PO         1

