3tvl_ligand
  -I-interpret- 

 18 17  0  0  0  0  0  0  0  0999 V2000
   16.5160    4.1180   19.6050 P   0  0  0  0  0
   15.5300    5.2310   19.3400 O   0  0  0  0  0
   17.0850    4.1150   21.0070 O   0  0  0  0  0
   17.5160    3.9730   18.4940 O   0  0  0  0  0
   16.0490    1.2920   20.1200 P   0  0  0  0  0
   16.3640    1.4390   21.6090 O   0  0  0  0  0
   17.0440    0.6040   19.2050 O   0  0  0  0  0
   15.6430    2.7530   19.5060 O   0  0  0  0  0
   14.4850   -0.9910   20.6590 P   0  0  0  0  0
   14.6660   -0.6710   22.1330 O   0  0  0  0  0
   15.5410   -1.8940   20.0670 O   0  0  0  0  0
   14.6880    0.4370   19.9410 O   0  0  0  0  0
   13.0840   -1.4050   20.2660 O   0  0  0  0  0
   14.9110    5.2895   20.0715 H   0  0  0  0  0
   16.3709    4.2123   21.6412 H   0  0  0  0  0
   15.6391    1.8929   22.0450 H   0  0  0  0  0
   13.9549   -0.0954   22.4240 H   0  0  0  0  0
   12.4503   -0.8040   20.6645 H   0  0  0  0  0
  1  2  1  0  0  0
  1  3  1  0  0  0
  1  4  2  0  0  0
  8  1  1  0  0  0
  5  6  1  0  0  0
  5  7  2  0  0  0
  5  8  1  0  0  0
 12  5  1  0  0  0
  9 10  1  0  0  0
  9 11  2  0  0  0
  9 12  1  0  0  0
  9 13  1  0  0  0
  2 14  1  0  0  0
  3 15  1  0  0  0
  6 16  1  0  0  0
 10 17  1  0  0  0
 13 18  1  0  0  0
M  END
$$$$
