2qi6_ligand
  -I-interpret- 

 69 72  0  0  0  0  0  0  0  0999 V2000
   18.7210   33.4810   13.7780 O   0  0  0  0  0
   18.2190   32.6640   14.8350 S   0  0  0  0  0
   17.4440   31.5890   14.2840 O   0  0  0  0  0
   17.3360   33.5400   15.8980 C   0  0  0  0  0
   17.4880   34.9220   16.1480 C   0  0  0  0  0
   16.7060   35.6050   17.1110 C   0  0  0  0  0
   16.8070   37.2670   17.4970 S   0  0  0  0  0
   15.5420   36.9760   18.6520 C   0  0  0  0  0
   15.1120   35.6960   18.7270 N   0  0  0  0  0
   15.7570   34.8860   17.8460 C   0  0  0  0  0
   15.5950   33.5260   17.6090 C   0  0  0  0  0
   16.3590   32.8690   16.6450 C   0  0  0  0  0
   19.5460   32.0280   15.5330 N   0  0  0  0  0
   20.3050   33.0090   16.3460 C   0  0  0  0  0
   21.8000   32.6630   16.3620 C   0  0  0  0  0
   22.4140   32.6170   14.9630 C   0  0  0  0  0
   22.5300   33.6430   17.2740 C   0  0  0  0  0
   19.2780   30.7630   16.2530 C   0  0  0  0  0
   20.0940   29.6050   15.6720 C   0  0  0  0  0
   20.0180   28.4520   16.5290 O   0  0  0  0  0
   19.6190   29.2710   14.2680 C   0  0  0  0  0
   18.3030   28.4780   14.2000 C   0  0  0  0  0
   17.9430   28.1560   12.7560 C   0  0  0  0  0
   17.9810   26.8290   12.3090 C   0  0  0  0  0
   17.6780   26.5180   10.9930 C   0  0  0  0  0
   17.3230   27.5230   10.1020 C   0  0  0  0  0
   17.2850   28.8450   10.5340 C   0  0  0  0  0
   17.5920   29.1580   11.8600 C   0  0  0  0  0
   20.5600   28.4090   13.5660 N   0  0  0  0  0
   21.4160   28.8060   12.6320 C   0  0  0  0  0
   21.5770   29.9590   12.2540 O   0  0  0  0  0
   22.1820   27.7330   11.9320 C   0  0  0  0  0
   21.4700   26.6080   11.5000 C   0  0  0  0  0
   22.1020   25.5750   10.8090 C   0  0  0  0  0
   23.4540   25.6830   10.5210 C   0  0  0  0  0
   24.1510   26.8190   10.9330 C   0  0  0  0  0
   25.4730   26.9220   10.6600 O   0  0  0  0  0
   23.5260   27.8440   11.6340 C   0  0  0  0  0
   18.2320   35.4813   15.5808 H   0  0  0  0  0
   15.1245   37.7691   19.2723 H   0  0  0  0  0
   14.8597   32.9646   18.1854 H   0  0  0  0  0
   16.1918   31.8065   16.4682 H   0  0  0  0  0
   19.9277   32.9849   17.3683 H   0  0  0  0  0
   20.1782   33.9998   15.9098 H   0  0  0  0  0
   21.9129   31.6533   16.7567 H   0  0  0  0  0
   21.9033   31.8597   14.3682 H   0  0  0  0  0
   22.3027   33.5910   14.4866 H   0  0  0  0  0
   23.4723   32.3676   15.0401 H   0  0  0  0  0
   22.3920   34.6574   16.8997 H   0  0  0  0  0
   22.1252   33.5686   18.2833 H   0  0  0  0  0
   23.5927   33.4011   17.2886 H   0  0  0  0  0
   18.2191   30.5250   16.1517 H   0  0  0  0  0
   19.5586   30.8937   17.2981 H   0  0  0  0  0
   21.1379   29.9129   15.6126 H   0  0  0  0  0
   20.5347   27.7377   16.1491 H   0  0  0  0  0
   19.5042   30.2601   13.8246 H   0  0  0  0  0
   17.5058   29.0800   14.6362 H   0  0  0  0  0
   18.4252   27.5445   14.7493 H   0  0  0  0  0
   18.2515   26.0333   13.0031 H   0  0  0  0  0
   17.7183   25.4822   10.6561 H   0  0  0  0  0
   17.0754   27.2770    9.0694 H   0  0  0  0  0
   17.0152   29.6378    9.8363 H   0  0  0  0  0
   17.5560   30.1949   12.1940 H   0  0  0  0  0
   20.5615   27.4191   13.8121 H   0  0  0  0  0
   20.4022   26.5382   11.7075 H   0  0  0  0  0
   21.5404   24.6937   10.4991 H   0  0  0  0  0
   23.9668   24.8888    9.9785 H   0  0  0  0  0
   25.8061   27.7535   11.0053 H   0  0  0  0  0
   24.0894   28.7239   11.9444 H   0  0  0  0  0
  1  2  2  0  0  0
  2  3  2  0  0  0
  2  4  1  0  0  0
  2 13  1  0  0  0
  4  5  4  0  0  0
  4 12  4  0  0  0
  5  6  4  0  0  0
  6  7  4  0  0  0
  6 10  4  0  0  0
  7  8  4  0  0  0
  8  9  4  0  0  0
  9 10  4  0  0  0
 10 11  4  0  0  0
 11 12  4  0  0  0
 13 14  1  0  0  0
 13 18  1  0  0  0
 14 15  1  0  0  0
 15 16  1  0  0  0
 15 17  1  0  0  0
 18 19  1  0  0  0
 19 20  1  0  0  0
 19 21  1  0  0  0
 21 22  1  0  0  0
 21 29  1  0  0  0
 22 23  1  0  0  0
 23 24  4  0  0  0
 23 28  4  0  0  0
 24 25  4  0  0  0
 25 26  4  0  0  0
 26 27  4  0  0  0
 27 28  4  0  0  0
 29 30  1  0  0  0
 30 31  2  0  0  0
 30 32  1  0  0  0
 32 33  4  0  0  0
 32 38  4  0  0  0
 33 34  4  0  0  0
 34 35  4  0  0  0
 35 36  4  0  0  0
 36 37  1  0  0  0
 36 38  4  0  0  0
  5 39  1  0  0  0
  8 40  1  0  0  0
 11 41  1  0  0  0
 12 42  1  0  0  0
 14 43  1  0  0  0
 14 44  1  0  0  0
 15 45  1  0  0  0
 16 46  1  0  0  0
 16 47  1  0  0  0
 16 48  1  0  0  0
 17 49  1  0  0  0
 17 50  1  0  0  0
 17 51  1  0  0  0
 18 52  1  0  0  0
 18 53  1  0  0  0
 19 54  1  0  0  0
 20 55  1  0  0  0
 21 56  1  0  0  0
 22 57  1  0  0  0
 22 58  1  0  0  0
 24 59  1  0  0  0
 25 60  1  0  0  0
 26 61  1  0  0  0
 27 62  1  0  0  0
 28 63  1  0  0  0
 29 64  1  0  0  0
 33 65  1  0  0  0
 34 66  1  0  0  0
 35 67  1  0  0  0
 37 68  1  0  0  0
 38 69  1  0  0  0
M  END
$$$$
