1lnm_ligand
  -I-interpret- 

 61 65  0  0  0  0  0  0  0  0999 V2000
   14.7810  -21.2920   37.1060 O   0  0  0  0  0
   14.0400  -22.2080   37.0350 C   0  0  0  0  0
   12.9040  -22.5250   36.1640 C   0  0  0  0  0
   14.2300  -23.2610   37.9230 O   0  0  0  0  0
   13.2240  -24.2650   37.6620 C   0  0  0  0  0
   12.4200  -23.7400   36.5320 C   0  0  0  0  0
   11.2030  -24.5070   36.1160 C   0  0  0  0  0
   11.5560  -26.0430   36.1120 C   0  0  0  0  0
    9.9670  -24.3170   36.9940 C   0  0  0  0  0
    8.7370  -24.1550   36.0510 C   0  0  0  0  0
    7.3760  -24.3510   36.7060 C   0  0  0  0  0
   10.0700  -23.1180   37.9310 C   0  0  0  0  0
    9.7900  -25.7260   37.6820 C   0  0  0  0  0
   10.2620  -26.6830   36.6120 C   0  0  0  0  0
   10.8260  -25.8640   38.7020 O   0  0  0  0  0
    8.4190  -25.9590   38.3610 C   0  0  0  0  0
    8.3930  -27.3110   39.0790 C   0  0  0  0  0
    7.2220  -25.7460   37.3730 C   0  0  0  0  0
    5.8660  -25.9760   38.1060 C   0  0  0  0  0
    4.7060  -25.8560   37.0780 C   0  0  0  0  0
    5.5120  -24.8810   39.1660 C   0  0  0  0  0
    5.8640  -27.3860   38.6570 C   0  0  0  0  0
    7.0040  -27.6710   39.6460 C   0  0  0  0  0
    5.9350  -28.4260   37.5280 C   0  0  0  0  0
    4.8350  -28.2580   36.4950 C   0  0  0  0  0
    4.8600  -26.8500   35.9340 C   0  0  0  0  0
    3.5550  -28.4830   37.1580 O   0  0  0  0  0
   12.5160  -21.8965   35.3624 H   0  0  0  0  0
   12.6051  -24.4466   38.5407 H   0  0  0  0  0
   13.6750  -25.2266   37.4171 H   0  0  0  0  0
   10.9396  -24.1161   35.1332 H   0  0  0  0  0
   12.4186  -26.2838   36.7334 H   0  0  0  0  0
   11.8608  -26.4078   35.1311 H   0  0  0  0  0
    8.8277  -24.9281   35.2880 H   0  0  0  0  0
    8.7599  -23.1283   35.6856 H   0  0  0  0  0
    6.6169  -24.2680   35.9282 H   0  0  0  0  0
    7.2691  -23.5958   37.4847 H   0  0  0  0  0
   10.9263  -23.2482   38.5928 H   0  0  0  0  0
   10.1983  -22.2091   37.3432 H   0  0  0  0  0
    9.1587  -23.0428   38.5243 H   0  0  0  0  0
   10.4135  -27.6937   36.9909 H   0  0  0  0  0
    9.5277  -26.8192   35.8180 H   0  0  0  0  0
   10.7365  -26.7165   39.1342 H   0  0  0  0  0
    8.2850  -25.1966   39.1284 H   0  0  0  0  0
    9.0873  -27.2534   39.9173 H   0  0  0  0  0
    8.6615  -28.0768   38.3513 H   0  0  0  0  0
    7.2303  -26.4815   36.5686 H   0  0  0  0  0
    4.7198  -24.8489   36.6614 H   0  0  0  0  0
    3.7686  -26.0678   37.5924 H   0  0  0  0  0
    6.2878  -24.8536   39.9312 H   0  0  0  0  0
    5.4490  -23.9095   38.6758 H   0  0  0  0  0
    4.5535  -25.1197   39.6269 H   0  0  0  0  0
    4.9221  -27.4683   39.1994 H   0  0  0  0  0
    6.8370  -27.0592   40.5325 H   0  0  0  0  0
    6.9987  -28.7394   39.8619 H   0  0  0  0  0
    5.8197  -29.4122   37.9778 H   0  0  0  0  0
    6.8903  -28.2982   37.0189 H   0  0  0  0  0
    4.9804  -28.9662   35.6793 H   0  0  0  0  0
    5.8060  -26.6759   35.4213 H   0  0  0  0  0
    4.0422  -26.7229   35.2247 H   0  0  0  0  0
    2.8438  -28.3814   36.5212 H   0  0  0  0  0
  1  2  2  0  0  0
  2  3  1  0  0  0
  2  4  1  0  0  0
  3  6  2  0  0  0
  4  5  1  0  0  0
  5  6  1  0  0  0
  6  7  1  0  0  0
  7  8  1  0  0  0
  7  9  1  0  0  0
  8 14  1  0  0  0
  9 10  1  0  0  0
  9 12  1  0  0  0
  9 13  1  0  0  0
 10 11  1  0  0  0
 11 18  1  0  0  0
 13 14  1  0  0  0
 13 15  1  0  0  0
 13 16  1  0  0  0
 16 17  1  0  0  0
 16 18  1  0  0  0
 17 23  1  0  0  0
 18 19  1  0  0  0
 19 20  1  0  0  0
 19 21  1  0  0  0
 19 22  1  0  0  0
 20 26  1  0  0  0
 22 23  1  0  0  0
 22 24  1  0  0  0
 24 25  1  0  0  0
 25 26  1  0  0  0
 25 27  1  0  0  0
  3 28  1  0  0  0
  5 29  1  0  0  0
  5 30  1  0  0  0
  7 31  1  0  0  0
  8 32  1  0  0  0
  8 33  1  0  0  0
 10 34  1  0  0  0
 10 35  1  0  0  0
 11 36  1  0  0  0
 11 37  1  0  0  0
 12 38  1  0  0  0
 12 39  1  0  0  0
 12 40  1  0  0  0
 14 41  1  0  0  0
 14 42  1  0  0  0
 15 43  1  0  0  0
 16 44  1  0  0  0
 17 45  1  0  0  0
 17 46  1  0  0  0
 18 47  1  0  0  0
 20 48  1  0  0  0
 20 49  1  0  0  0
 21 50  1  0  0  0
 21 51  1  0  0  0
 21 52  1  0  0  0
 22 53  1  0  0  0
 23 54  1  0  0  0
 23 55  1  0  0  0
 24 56  1  0  0  0
 24 57  1  0  0  0
 25 58  1  0  0  0
 26 59  1  0  0  0
 26 60  1  0  0  0
 27 61  1  0  0  0
M  END
$$$$
