5n99_ligand
  -I-interpret- 

 84 88  0  0  0  0  0  0  0  0999 V2000
   72.0670   49.5660   32.7000 N   0  0  0  0  0
   71.1500   50.3880   31.8930 C   0  0  0  0  0
   69.8380   50.6440   32.6500 C   0  0  0  0  0
   69.2910   51.7470   32.5960 O   0  0  0  0  0
   70.8390   49.6570   30.5990 C   0  0  0  0  0
   72.0170   49.3740   29.7160 C   0  0  0  0  0
   73.1440   49.1740   30.1800 O   0  0  0  0  0
   71.7740   49.2820   28.4020 N   0  0  0  0  0
   69.3520   49.6070   33.3170 N   0  0  0  0  0
   68.3020   49.6780   34.3180 C   0  0  0  0  0
   68.9300   49.2180   35.6280 C   0  0  0  0  0
   69.8210   48.3390   35.6380 O   0  0  0  0  0
   67.1350   48.7320   33.9630 C   0  0  0  0  0
   66.3760   49.2720   32.7580 C   0  0  0  0  0
   64.9950   48.7190   32.5910 C   0  0  0  0  0
   64.1970   48.6290   33.5400 O   0  0  0  0  0
   64.6600   48.4490   31.3400 N   0  0  0  0  0
   68.4460   49.7100   36.7770 N   0  0  0  0  0
   69.0120   49.2150   38.0390 C   0  0  0  0  0
   68.1290   49.8380   39.1290 C   0  0  0  0  0
   67.4370   50.9980   38.4660 C   0  0  0  0  0
   67.3750   50.7170   36.9840 C   0  0  0  0  0
   70.4590   49.6680   38.1820 C   0  0  0  0  0
   70.7630   50.8490   38.0020 O   0  0  0  0  0
   71.3600   48.7020   38.4690 N   0  0  0  0  0
   72.7690   49.0390   38.6250 C   0  0  0  0  0
   73.4800   49.1100   37.2530 C   0  0  0  0  0
   74.6930   49.3780   37.2060 O   0  0  0  0  0
   73.4580   47.9990   39.5030 C   0  0  0  0  0
   73.1090   48.0710   40.9660 C   0  0  0  0  0
   71.8860   48.3150   41.5280 C   0  0  0  0  0
   74.0080   47.8150   42.0530 C   0  0  0  0  0
   71.9720   48.2050   42.9080 N   0  0  0  0  0
   73.2690   47.9420   43.2530 C   0  0  0  0  0
   75.3770   47.5230   42.1270 C   0  0  0  0  0
   73.8480   47.7440   44.5200 C   0  0  0  0  0
   75.9560   47.3200   43.3770 C   0  0  0  0  0
   75.2000   47.4480   44.5600 C   0  0  0  0  0
   72.7490   48.8690   36.1590 N   0  0  0  0  0
   73.2860   48.9840   34.8060 C   0  0  0  0  0
   72.3070   49.8560   33.9970 C   0  0  0  0  0
   71.7830   50.8140   34.5530 O   0  0  0  0  0
   73.5110   47.5880   34.1970 C   0  0  0  0  0
   74.5260   46.7650   35.0370 C   0  0  0  0  0
   74.7340   45.3770   34.5100 C   0  0  0  0  0
   75.8750   44.9200   34.3400 O   0  0  0  0  0
   73.6540   44.7020   34.2790 N   0  0  0  0  0
   72.0900   49.5580   32.8280 O   0  0  0  0  0
   70.1737   50.3056   30.0292 H   0  0  0  0  0
   70.4246   48.6894   30.8819 H   0  0  0  0  0
   72.5288   49.0419   27.7593 H   0  0  0  0  0
   70.8341   49.4520   28.0440 H   0  0  0  0  0
   69.7455   48.6886   33.1116 H   0  0  0  0  0
   67.9037   50.6907   34.3805 H   0  0  0  0  0
   66.4566   48.6640   34.8135 H   0  0  0  0  0
   67.5325   47.7456   33.7242 H   0  0  0  0  0
   66.9422   48.9859   31.8716 H   0  0  0  0  0
   66.2722   50.3472   32.9036 H   0  0  0  0  0
   63.7096   48.1516   31.1194 H   0  0  0  0  0
   65.3521   48.5382   30.5961 H   0  0  0  0  0
   69.0229   48.1266   38.0966 H   0  0  0  0  0
   68.7189   50.1604   39.9870 H   0  0  0  0  0
   67.4133   49.1177   39.5253 H   0  0  0  0  0
   67.9859   51.9211   38.6522 H   0  0  0  0  0
   66.4316   51.1181   38.8695 H   0  0  0  0  0
   66.3961   50.3567   36.6677 H   0  0  0  0  0
   67.5228   51.6137   36.3822 H   0  0  0  0  0
   71.0529   47.7353   38.5766 H   0  0  0  0  0
   72.8320   50.0190   39.0979 H   0  0  0  0  0
   74.5298   48.1815   39.4254 H   0  0  0  0  0
   73.1311   47.0213   39.1489 H   0  0  0  0  0
   70.9795   48.5593   40.9742 H   0  0  0  0  0
   75.9787   47.4559   41.2206 H   0  0  0  0  0
   73.2566   47.8205   45.4324 H   0  0  0  0  0
   77.0120   47.0576   43.4419 H   0  0  0  0  0
   75.6891   47.3114   45.5245 H   0  0  0  0  0
   71.7740   48.5929   36.2750 H   0  0  0  0  0
   74.2650   49.4631   34.7993 H   0  0  0  0  0
   73.9099   47.7082   33.1898 H   0  0  0  0  0
   72.5592   47.0569   34.1837 H   0  0  0  0  0
   74.1281   46.6799   36.0482 H   0  0  0  0  0
   75.4849   47.2818   34.9984 H   0  0  0  0  0
   73.7153   43.7423   33.9390 H   0  0  0  0  0
   72.7416   45.1298   34.4370 H   0  0  0  0  0
  1  2  1  0  0  0
  1 41  1  0  0  0
  1 48  1  0  0  0
  2  3  1  0  0  0
  2  5  1  0  0  0
  2 48  1  0  0  0
  3  4  2  0  0  0
  3  9  1  0  0  0
  5  6  1  0  0  0
  6  7  2  0  0  0
  6  8  1  0  0  0
  9 10  1  0  0  0
 10 11  1  0  0  0
 10 13  1  0  0  0
 11 12  2  0  0  0
 11 18  1  0  0  0
 13 14  1  0  0  0
 14 15  1  0  0  0
 15 16  2  0  0  0
 15 17  1  0  0  0
 18 19  1  0  0  0
 18 22  1  0  0  0
 19 20  1  0  0  0
 19 23  1  0  0  0
 20 21  1  0  0  0
 21 22  1  0  0  0
 23 24  2  0  0  0
 23 25  1  0  0  0
 25 26  1  0  0  0
 26 27  1  0  0  0
 26 29  1  0  0  0
 27 28  2  0  0  0
 27 39  1  0  0  0
 29 30  1  0  0  0
 30 31  4  0  0  0
 30 32  4  0  0  0
 31 33  4  0  0  0
 32 34  4  0  0  0
 32 35  4  0  0  0
 33 34  4  0  0  0
 34 36  4  0  0  0
 35 37  4  0  0  0
 36 38  4  0  0  0
 37 38  4  0  0  0
 39 40  1  0  0  0
 40 41  1  0  0  0
 40 43  1  0  0  0
 41 42  2  0  0  0
 43 44  1  0  0  0
 44 45  1  0  0  0
 45 46  2  0  0  0
 45 47  1  0  0  0
  5 49  1  0  0  0
  5 50  1  0  0  0
  8 51  1  0  0  0
  8 52  1  0  0  0
  9 53  1  0  0  0
 10 54  1  0  0  0
 13 55  1  0  0  0
 13 56  1  0  0  0
 14 57  1  0  0  0
 14 58  1  0  0  0
 17 59  1  0  0  0
 17 60  1  0  0  0
 19 61  1  0  0  0
 20 62  1  0  0  0
 20 63  1  0  0  0
 21 64  1  0  0  0
 21 65  1  0  0  0
 22 66  1  0  0  0
 22 67  1  0  0  0
 25 68  1  0  0  0
 26 69  1  0  0  0
 29 70  1  0  0  0
 29 71  1  0  0  0
 31 72  1  0  0  0
 35 73  1  0  0  0
 36 74  1  0  0  0
 37 75  1  0  0  0
 38 76  1  0  0  0
 39 77  1  0  0  0
 40 78  1  0  0  0
 43 79  1  0  0  0
 43 80  1  0  0  0
 44 81  1  0  0  0
 44 82  1  0  0  0
 47 83  1  0  0  0
 47 84  1  0  0  0
M  END
$$$$
