### 
### Created by X-TOOL on Mon Sep 10 21:13:02 2018
### 

@<TRIPOS>MOLECULE
2wyn_ligand
   53    55     1     0     0
SMALL
GAST_HUCK


@<TRIPOS>ATOM
      1 O4          6.0360  -37.9360   82.5400 O.3       1 LG9        -0.3947
      2 C9          4.9020  -37.6930   83.3590 C.3       1 LG9         0.0478
      3 C1          4.8510  -38.5700   84.6160 C.3       1 LG9        -0.0067
      4 C5          6.0610  -38.3740   85.5300 C.3       1 LG9        -0.0633
      5 C4          6.4610  -39.6280   86.3390 C.3       1 LG9         0.0643
      6 O1          7.6530  -40.2830   85.8870 O.3       1 LG9        -0.3911
      7 C6          6.6840  -39.1160   87.7680 C.3       1 LG9         0.0659
      8 O2          6.6390  -40.1960   88.6970 O.3       1 LG9        -0.3910
      9 C7          5.5130  -38.1360   87.9910 C.3       1 LG9        -0.0469
     10 C8          5.5970  -37.0330   89.0530 C.3       1 LG9         0.0309
     11 O3          6.8230  -36.3220   88.9920 O.3       1 LG9        -0.3967
     12 N4          5.3440  -37.6890   86.6120 N.4       1 LG9         0.4143
     13 C3          4.2240  -36.8710   86.2270 C.3       1 LG9        -0.0845
     14 C2          3.6330  -37.9950   85.3520 C.3       1 LG9         0.0468
     15 C1          2.0630  -38.9960   86.9810 C.3       1 GLC         0.1881
     16 C2          1.6280  -40.3470   87.5330 C.3       1 GLC         0.1341
     17 C3          0.8680  -41.0970   86.4650 C.3       1 GLC         0.1141
     18 C4         -0.3510  -40.2550   86.0450 C.3       1 GLC         0.1119
     19 C5          0.1960  -38.9490   85.4480 C.3       1 GLC         0.1130
     20 C6         -0.9340  -38.0740   84.9180 C.3       1 GLC         0.0730
     21 O1          3.1380  -39.1710   86.0470 O.3       1 GLC        -0.3472
     22 O2          2.7510  -41.1250   87.9010 O.3       1 GLC        -0.3841
     23 O3          0.4440  -42.3180   86.9930 O.3       1 GLC        -0.3864
     24 O4         -1.1130  -41.0020   85.0990 O.3       1 GLC        -0.3865
     25 O5          0.9590  -38.2680   86.4340 O.3       1 GLC        -0.3405
     26 O6         -0.4310  -36.8370   84.4540 O.3       1 GLC        -0.3924
     27 H           6.0302  -38.8514   82.2508 H         1 LG9         0.2094
     28 H           4.0164  -37.9212   82.7659 H         1 LG9         0.0560
     29 H           4.9533  -36.6549   83.6874 H         1 LG9         0.0560
     30 H           4.8204  -39.6296   84.3620 H         1 LG9         0.0331
     31 H           6.9131  -37.9792   84.9766 H         1 LG9         0.0083
     32 H           5.6775  -40.3790   86.2382 H         1 LG9         0.0600
     33 H           7.5356  -40.5668   84.9774 H         1 LG9         0.2098
     34 H           7.6555  -38.6421   87.9083 H         1 LG9         0.0601
     35 H           6.7801  -39.8590   89.5848 H         1 LG9         0.2098
     36 H           4.6610  -38.6128   88.4755 H         1 LG9         0.0101
     37 H           5.5253  -37.5014   90.0346 H         1 LG9         0.0540
     38 H           4.7864  -36.3269   88.8732 H         1 LG9         0.0540
     39 H           6.9114  -35.9123   88.1283 H         1 LG9         0.2093
     40 H           4.4149  -35.8980   85.7744 H         1 LG9         0.0043
     41 H           3.6027  -36.4301   87.0065 H         1 LG9         0.0043
     42 H           2.8102  -37.5471   84.7948 H         1 LG9         0.0579
     43 H           2.4393  -38.3843   87.8009 H         1 LG9         0.0937
     44 H           1.0040  -40.1744   88.4099 H         1 LG9         0.0671
     45 H           1.5010  -41.2776   85.5962 H         1 LG9         0.0648
     46 H          -1.0090  -40.0182   86.8811 H         1 LG9         0.0647
     47 H           0.8414  -39.1834   84.6014 H         1 LG9         0.0647
     48 H          -1.6429  -37.8864   85.7245 H         1 LG9         0.0584
     49 H          -1.4210  -38.5896   84.0903 H         1 LG9         0.0584
     50 H           3.3090  -41.2631   87.1322 H         1 LG9         0.2101
     51 H           1.2094  -42.8364   87.2521 H         1 LG9         0.2100
     52 H          -1.4341  -41.8067   85.5124 H         1 LG9         0.2100
     53 H           0.0048  -36.3788   85.1763 H         1 LG9         0.2095
@<TRIPOS>BOND
     1    2    1 1  
     2    3    2 1  
     3    3    4 1  
     4   14    3 1  
     5    4    5 1  
     6   12    4 1  
     7    5    6 1  
     8    5    7 1  
     9    7    8 1  
    10    9    7 1  
    11    9   10 1  
    12   12    9 1  
    13   10   11 1  
    14   13   12 1  
    15   14   13 1  
    16   21   14 1  
    17   15   16 1  
    18   15   21 1  
    19   15   25 1  
    20   16   17 1  
    21   16   22 1  
    22   17   18 1  
    23   17   23 1  
    24   18   19 1  
    25   18   24 1  
    26   19   20 1  
    27   19   25 1  
    28   20   26 1  
    29    1   27 1  
    30    2   28 1  
    31    2   29 1  
    32    3   30 1  
    33    4   31 1  
    34    5   32 1  
    35    6   33 1  
    36    7   34 1  
    37    8   35 1  
    38    9   36 1  
    39   10   37 1  
    40   10   38 1  
    41   11   39 1  
    42   13   40 1  
    43   13   41 1  
    44   14   42 1  
    45   15   43 1  
    46   16   44 1  
    47   17   45 1  
    48   18   46 1  
    49   19   47 1  
    50   20   48 1  
    51   20   49 1  
    52   22   50 1  
    53   23   51 1  
    54   24   52 1  
    55   26   53 1  
@<TRIPOS>SUBSTRUCTURE
     1 LG9         1

