2wyn_ligand
  -I-interpret- 

 54 56  0  0  0  0  0  0  0  0999 V2000
    6.0360  -37.9360   82.5400 O   0  0  0  0  0
    4.9020  -37.6930   83.3590 C   0  0  0  0  0
    4.8510  -38.5700   84.6160 C   0  0  0  0  0
    6.0610  -38.3740   85.5300 C   0  0  0  0  0
    6.4610  -39.6280   86.3390 C   0  0  0  0  0
    7.6530  -40.2830   85.8870 O   0  0  0  0  0
    6.6840  -39.1160   87.7680 C   0  0  0  0  0
    6.6390  -40.1960   88.6970 O   0  0  0  0  0
    5.5130  -38.1360   87.9910 C   0  0  0  0  0
    5.5970  -37.0330   89.0530 C   0  0  0  0  0
    6.8230  -36.3220   88.9920 O   0  0  0  0  0
    5.3440  -37.6890   86.6120 N   0  3  0  0  0
    4.2240  -36.8710   86.2270 C   0  0  0  0  0
    3.6330  -37.9950   85.3520 C   0  0  0  0  0
    2.0630  -38.9960   86.9810 C   0  0  0  0  0
    1.6280  -40.3470   87.5330 C   0  0  0  0  0
    0.8680  -41.0970   86.4650 C   0  0  0  0  0
   -0.3510  -40.2550   86.0450 C   0  0  0  0  0
    0.1960  -38.9490   85.4480 C   0  0  0  0  0
   -0.9340  -38.0740   84.9180 C   0  0  0  0  0
    3.1380  -39.1710   86.0470 O   0  0  0  0  0
    2.7510  -41.1250   87.9010 O   0  0  0  0  0
    0.4440  -42.3180   86.9930 O   0  0  0  0  0
   -1.1130  -41.0020   85.0990 O   0  0  0  0  0
    0.9590  -38.2680   86.4340 O   0  0  0  0  0
   -0.4310  -36.8370   84.4540 O   0  0  0  0  0
    6.0065  -37.3572   81.7747 H   0  0  0  0  0
    4.0164  -37.9212   82.7659 H   0  0  0  0  0
    4.9533  -36.6549   83.6874 H   0  0  0  0  0
    4.8204  -39.6296   84.3620 H   0  0  0  0  0
    6.9131  -37.9792   84.9766 H   0  0  0  0  0
    5.6775  -40.3790   86.2382 H   0  0  0  0  0
    7.5199  -40.6059   84.9928 H   0  0  0  0  0
    7.6555  -38.6421   87.9083 H   0  0  0  0  0
    7.3775  -40.7874   88.5344 H   0  0  0  0  0
    4.6610  -38.6128   88.4755 H   0  0  0  0  0
    5.5253  -37.5014   90.0346 H   0  0  0  0  0
    4.7864  -36.3269   88.8732 H   0  0  0  0  0
    6.8326  -35.6440   89.6716 H   0  0  0  0  0
    5.9884  -36.9301   86.8338 H   0  0  0  0  0
    4.4149  -35.8980   85.7744 H   0  0  0  0  0
    3.6027  -36.4301   87.0065 H   0  0  0  0  0
    2.8102  -37.5471   84.7948 H   0  0  0  0  0
    2.4393  -38.3843   87.8009 H   0  0  0  0  0
    1.0040  -40.1744   88.4099 H   0  0  0  0  0
    1.5010  -41.2776   85.5962 H   0  0  0  0  0
   -1.0090  -40.0182   86.8811 H   0  0  0  0  0
    0.8414  -39.1834   84.6014 H   0  0  0  0  0
   -1.6429  -37.8864   85.7245 H   0  0  0  0  0
   -1.4210  -38.5896   84.0903 H   0  0  0  0  0
    2.4541  -41.9704   88.2455 H   0  0  0  0  0
   -0.0410  -42.8043   86.3222 H   0  0  0  0  0
   -1.8773  -40.4881   84.8281 H   0  0  0  0  0
   -1.1563  -36.3011   84.1249 H   0  0  0  0  0
  2  1  1  0  0  0
  3  2  1  0  0  0
  3  4  1  0  0  0
 14  3  1  0  0  0
  4  5  1  0  0  0
 12  4  1  0  0  0
  5  6  1  0  0  0
  5  7  1  0  0  0
  7  8  1  0  0  0
  9  7  1  0  0  0
  9 10  1  0  0  0
 12  9  1  0  0  0
 10 11  1  0  0  0
 13 12  1  0  0  0
 14 13  1  0  0  0
 21 14  1  0  0  0
 15 16  1  0  0  0
 15 21  1  0  0  0
 15 25  1  0  0  0
 16 17  1  0  0  0
 16 22  1  0  0  0
 17 18  1  0  0  0
 17 23  1  0  0  0
 18 19  1  0  0  0
 18 24  1  0  0  0
 19 20  1  0  0  0
 19 25  1  0  0  0
 20 26  1  0  0  0
  1 27  1  0  0  0
  2 28  1  0  0  0
  2 29  1  0  0  0
  3 30  1  0  0  0
  4 31  1  0  0  0
  5 32  1  0  0  0
  6 33  1  0  0  0
  7 34  1  0  0  0
  8 35  1  0  0  0
  9 36  1  0  0  0
 10 37  1  0  0  0
 10 38  1  0  0  0
 11 39  1  0  0  0
 12 40  1  0  0  0
 13 41  1  0  0  0
 13 42  1  0  0  0
 14 43  1  0  0  0
 15 44  1  0  0  0
 16 45  1  0  0  0
 17 46  1  0  0  0
 18 47  1  0  0  0
 19 48  1  0  0  0
 20 49  1  0  0  0
 20 50  1  0  0  0
 22 51  1  0  0  0
 23 52  1  0  0  0
 24 53  1  0  0  0
 26 54  1  0  0  0
M  END
$$$$
