2nw4_ligand
  -I-interpret- 

 33 35  0  0  0  0  0  0  0  0999 V2000
   23.5170    5.2630    4.3990 Cl  0  0  0  0  0
   25.2700    4.7920    4.3180 C   0  0  0  0  0
   25.6300    3.4270    4.4080 C   0  0  0  0  0
   26.9740    3.0660    4.2280 C   0  0  0  0  0
   27.9910    4.0090    4.0300 C   0  0  0  0  0
   27.6510    5.3530    4.0520 C   0  0  0  0  0
   26.3010    5.7540    4.1350 C   0  0  0  0  0
   26.0640    7.1350    3.8860 C   0  0  0  0  0
   25.8750    8.2290    3.5750 N   0  0  0  0  0
   27.3620    1.7870    4.2660 N   0  0  0  0  0
   27.1360    0.8600    3.3060 C   0  0  0  0  0
   27.5890   -0.3110    3.7430 N   0  0  0  0  0
   28.3210   -0.1870    4.9710 C   0  0  0  0  0
   29.7020   -0.4300    4.4160 C   0  0  0  0  0
   29.5120   -1.5100    3.3320 C   0  0  0  0  0
   28.0410   -1.3920    2.9240 C   0  0  0  0  0
   30.0600    0.8200    3.8300 O   0  0  0  0  0
   28.2090    1.3320    5.1920 C   0  0  0  0  0
   28.8140    1.9890    6.0400 O   0  0  0  0  0
   26.6280    1.0840    2.2060 O   0  0  0  0  0
   24.6180    2.3820    4.7120 C   0  0  0  0  0
   29.0213    3.6947    3.8632 H   0  0  0  0  0
   28.4356    6.1082    4.0046 H   0  0  0  0  0
   28.0524   -0.7837    5.8427 H   0  0  0  0  0
   30.4579   -0.7535    5.1316 H   0  0  0  0  0
   29.7539   -2.5063    3.7021 H   0  0  0  0  0
   30.1830   -1.3612    2.4860 H   0  0  0  0  0
   27.9026   -1.2120    1.8579 H   0  0  0  0  0
   27.4768   -2.3123    3.0752 H   0  0  0  0  0
   30.9380    0.7531    3.4476 H   0  0  0  0  0
   24.1653    2.5877    5.6820 H   0  0  0  0  0
   23.8474    2.3891    3.9411 H   0  0  0  0  0
   25.1017    1.4055    4.7351 H   0  0  0  0  0
  1  2  1  0  0  0
  2  3  4  0  0  0
  2  7  4  0  0  0
  3  4  4  0  0  0
  3 21  1  0  0  0
  4  5  4  0  0  0
  4 10  1  0  0  0
  5  6  4  0  0  0
  6  7  4  0  0  0
  7  8  1  0  0  0
  8  9  3  0  0  0
 10 11  1  0  0  0
 10 18  1  0  0  0
 11 12  1  0  0  0
 11 20  2  0  0  0
 12 13  1  0  0  0
 12 16  1  0  0  0
 13 14  1  0  0  0
 13 18  1  0  0  0
 14 15  1  0  0  0
 14 17  1  0  0  0
 15 16  1  0  0  0
 18 19  2  0  0  0
  5 22  1  0  0  0
  6 23  1  0  0  0
 13 24  1  0  0  0
 14 25  1  0  0  0
 15 26  1  0  0  0
 15 27  1  0  0  0
 16 28  1  0  0  0
 16 29  1  0  0  0
 17 30  1  0  0  0
 21 31  1  0  0  0
 21 32  1  0  0  0
 21 33  1  0  0  0
M  END
$$$$
