1ocq_ligand
  -I-interpret- 

 45 46  0  0  0  0  0  0  0  0999 V2000
   61.9270   45.6490   35.7660 O   0  0  0  0  0
   61.8470   44.2540   35.9900 C   0  0  0  0  0
   61.2830   43.6180   34.7100 C   0  0  0  0  0
   59.9770   44.0350   34.4270 O   0  0  0  0  0
   61.2400   42.1160   34.8740 C   0  0  0  0  0
   62.5770   41.5650   35.2360 N   0  3  0  0  0
   63.1310   42.1720   36.4590 C   0  0  0  0  0
   63.2090   43.6850   36.2980 C   0  0  0  0  0
   63.9000   44.3040   37.5100 C   0  0  0  0  0
   63.1220   44.0620   38.6930 O   0  0  0  0  0
   61.8730   47.8910   36.4770 C   0  0  0  0  0
   61.2330   48.8380   37.5040 C   0  0  0  0  0
   59.7600   48.5880   37.6170 C   0  0  0  0  0
   59.4940   47.1080   37.9400 C   0  0  0  0  0
   58.0500   46.7240   38.0380 C   0  0  0  0  0
   61.4380   46.4560   36.8300 C   0  0  0  0  0
   63.2630   48.0150   36.4470 O   0  0  0  0  0
   61.4440   50.2040   37.0870 O   0  0  0  0  0
   59.1810   49.3900   38.6550 O   0  0  0  0  0
   60.0490   46.3250   36.8800 O   0  0  0  0  0
   57.4030   46.9390   36.7690 O   0  0  0  0  0
   61.2037   44.0429   36.8442 H   0  0  0  0  0
   61.9376   43.9285   33.8956 H   0  0  0  0  0
   59.9638   44.9884   34.3156 H   0  0  0  0  0
   60.9308   41.6748   33.9264 H   0  0  0  0  0
   60.5406   41.8769   35.6751 H   0  0  0  0  0
   63.2173   41.7678   34.4683 H   0  0  0  0  0
   62.4680   40.5650   35.4047 H   0  0  0  0  0
   64.1317   41.7772   36.6346 H   0  0  0  0  0
   62.4843   41.9333   37.3033 H   0  0  0  0  0
   63.8284   43.9445   35.4394 H   0  0  0  0  0
   63.9980   45.3789   37.3578 H   0  0  0  0  0
   64.8859   43.8548   37.6300 H   0  0  0  0  0
   63.5629   44.4541   39.4503 H   0  0  0  0  0
   61.5331   48.1501   35.4743 H   0  0  0  0  0
   61.6957   48.6586   38.4745 H   0  0  0  0  0
   59.3075   48.8509   36.6609 H   0  0  0  0  0
   59.9397   46.9331   38.9192 H   0  0  0  0  0
   57.5646   47.3350   38.7991 H   0  0  0  0  0
   57.9738   45.6708   38.3085 H   0  0  0  0  0
   61.8220   46.1746   37.8105 H   0  0  0  0  0
   63.4978   48.9189   36.2246 H   0  0  0  0  0
   61.0451   50.7980   37.7270 H   0  0  0  0  0
   58.2391   49.2122   38.7075 H   0  0  0  0  0
   56.4779   46.6915   36.8367 H   0  0  0  0  0
  1  2  1  0  0  0
  2  3  1  0  0  0
  2  8  1  0  0  0
  3  4  1  0  0  0
  3  5  1  0  0  0
  5  6  1  0  0  0
  7  6  1  0  0  0
  8  7  1  0  0  0
  8  9  1  0  0  0
  9 10  1  0  0  0
 16 11  1  0  0  0
 11 12  1  0  0  0
 11 17  1  0  0  0
 12 13  1  0  0  0
 12 18  1  0  0  0
 14 13  1  0  0  0
 13 19  1  0  0  0
 14 15  1  0  0  0
 20 14  1  0  0  0
 15 21  1  0  0  0
 16 20  1  0  0  0
 16  1  1  0  0  0
  2 22  1  0  0  0
  3 23  1  0  0  0
  4 24  1  0  0  0
  5 25  1  0  0  0
  5 26  1  0  0  0
  6 27  1  0  0  0
  6 28  1  0  0  0
  7 29  1  0  0  0
  7 30  1  0  0  0
  8 31  1  0  0  0
  9 32  1  0  0  0
  9 33  1  0  0  0
 10 34  1  0  0  0
 11 35  1  0  0  0
 12 36  1  0  0  0
 13 37  1  0  0  0
 14 38  1  0  0  0
 15 39  1  0  0  0
 15 40  1  0  0  0
 16 41  1  0  0  0
 17 42  1  0  0  0
 18 43  1  0  0  0
 19 44  1  0  0  0
 21 45  1  0  0  0
M  END
$$$$
