1gcz_ligand
  -I-interpret- 

 27 28  0  0  0  0  0  0  0  0999 V2000
   64.4220   22.9560   19.2130 C   0  0  0  0  0
   63.3860   23.3810   18.2120 C   0  0  0  0  0
   61.3510   24.5010   20.7240 O   0  0  0  0  0
   62.0570   23.4360   18.8690 O   0  0  0  0  0
   61.0580   29.4880   19.1140 C   0  0  0  0  0
   61.1960   26.9880   19.4160 C   0  0  0  0  0
   60.1960   29.0700   16.3370 C   0  0  0  0  0
   60.3600   26.7030   16.7360 O   0  0  0  0  0
   60.9070   28.1890   18.5730 C   0  0  0  0  0
   60.4860   28.0060   17.2200 C   0  0  0  0  0
   60.6760   25.6360   17.4340 C   0  0  0  0  0
   61.5290   24.5010   19.5440 C   0  0  0  0  0
   60.1240   31.4520   16.1840 O   0  0  0  0  0
   60.5840   24.5910   16.9260 O   0  0  0  0  0
   60.7800   30.5970   18.2630 C   0  0  0  0  0
   61.1380   25.7560   18.8230 C   0  0  0  0  0
   60.3670   30.3620   16.9320 C   0  0  0  0  0
   64.4503   23.6746   20.0321 H   0  0  0  0  0
   64.1670   21.9701   19.6016 H   0  0  0  0  0
   65.3979   22.9160   18.7292 H   0  0  0  0  0
   63.3567   22.6631   17.3923 H   0  0  0  0  0
   63.6399   24.3669   17.8226 H   0  0  0  0  0
   61.3760   29.6353   20.1461 H   0  0  0  0  0
   61.4456   27.0909   20.4720 H   0  0  0  0  0
   59.8743   28.9227   15.3060 H   0  0  0  0  0
   59.8520   31.1808   15.3042 H   0  0  0  0  0
   60.8849   31.6162   18.6350 H   0  0  0  0  0
  2  1  1  0  0  0
  2  4  1  0  0  0
  4 12  1  0  0  0
 12  3  2  0  0  0
 12 16  1  0  0  0
 16  6  2  0  0  0
 16 11  1  0  0  0
 11  8  1  0  0  0
 11 14  2  0  0  0
  8 10  1  0  0  0
 10  7  4  0  0  0
 10  9  4  0  0  0
  9  6  1  0  0  0
  9  5  4  0  0  0
  5 15  4  0  0  0
 15 17  4  0  0  0
 17  7  4  0  0  0
 17 13  1  0  0  0
  1 18  1  0  0  0
  1 19  1  0  0  0
  1 20  1  0  0  0
  2 21  1  0  0  0
  2 22  1  0  0  0
  5 23  1  0  0  0
  6 24  1  0  0  0
  7 25  1  0  0  0
 13 26  1  0  0  0
 15 27  1  0  0  0
M  END
$$$$
