6exj_ligand
  -I-interpret- 

101100  0  0  0  0  0  0  0  0999 V2000
   19.8390   87.9010   10.5890 C   0  0  0  0  0
   20.1040   88.5140   11.6540 O   0  0  0  0  0
   20.7220   86.8650    9.9350 C   0  0  0  0  0
   18.7340   88.0510    9.9100 N   0  0  0  0  0
   17.7130   89.0020   10.2220 C   0  0  0  0  0
   16.3390   88.3570   10.3750 C   0  0  0  0  0
   16.0160   87.4730    9.6310 O   0  0  0  0  0
   17.7380   90.0100    9.0930 C   0  0  0  0  0
   17.1140   91.2980    9.4730 C   0  0  0  0  0
   17.5030   91.8070   10.5660 O   0  0  0  0  0
   16.2670   91.7890    8.6830 O   0  0  0  0  0
   15.5270   88.7470   11.3500 N   0  0  0  0  0
   14.2040   88.1510   11.4810 C   0  0  0  0  0
   13.1640   89.2460   11.6750 C   0  0  0  0  0
   13.4490   90.3120   12.2580 O   0  0  0  0  0
   14.0920   87.1460   12.6630 C   0  0  0  0  0
   14.7150   85.7650   12.4950 C   0  0  0  0  0
   14.5800   84.9490   13.7550 C   0  0  0  0  0
   14.0900   85.0290   11.2710 C   0  0  0  0  0
   11.9390   88.9450   11.2310 N   0  0  0  0  0
   10.8130   89.8440   11.4180 C   0  0  0  0  0
    9.6960   89.1350   12.1420 C   0  0  0  0  0
    9.3840   87.9810   11.8210 O   0  0  0  0  0
   10.2340   90.3340   10.0800 C   0  0  0  0  0
   11.2140   91.1420    9.3290 C   0  0  0  0  0
   10.6550   91.7400    8.0570 C   0  0  0  0  0
    9.5430   92.2890    8.0450 O   0  0  0  0  0
   11.4640   91.6750    6.9840 N   0  0  0  0  0
    9.0160   89.8670   13.0270 N   0  0  0  0  0
    7.9160   89.2730   13.7500 C   0  0  0  0  0
    6.8220   90.3000   13.8650 C   0  0  0  0  0
    7.0450   91.3840   14.4240 O   0  0  0  0  0
    8.3540   88.8190   15.1470 C   0  0  0  0  0
    9.4420   87.9050   15.0100 O   0  0  0  0  0
    7.1790   88.1920   15.8440 C   0  0  0  0  0
    5.6450   89.8900   13.4670 N   0  0  0  0  0
    4.4660   90.7020   13.6150 C   0  0  0  0  0
    3.9420   90.5500   15.0280 C   0  0  0  0  0
    3.7050   89.4350   15.4670 O   0  0  0  0  0
    3.4080   90.2600   12.6120 C   0  0  0  0  0
    2.1960   90.9510   12.8030 O   0  0  0  0  0
    3.7030   91.6640   15.6770 N   0  0  0  0  0
    3.3530   91.6780   17.1090 C   0  0  0  0  0
    2.1750   92.5880   17.3890 C   0  0  0  0  0
    1.3630   92.4050   18.3120 O   0  0  0  0  0
    4.5360   92.1420   17.9090 C   0  0  0  0  0
    5.6960   91.1860   17.7840 C   0  0  0  0  0
    4.1940   92.3560   19.4410 C   0  0  0  0  0
    6.8750   91.9010   18.1000 C   0  0  0  0  0
    2.0000   93.5570   16.6740 O   0  0  0  0  0
   21.6833   87.3142    9.6853 H   0  0  0  0  0
   20.8757   86.0338   10.6232 H   0  0  0  0  0
   20.2421   86.5019    9.0262 H   0  0  0  0  0
   18.5890   87.4476    9.1005 H   0  0  0  0  0
   17.9028   89.4732   11.1864 H   0  0  0  0  0
   17.1738   89.5952    8.2577 H   0  0  0  0  0
   18.7795   90.2026    8.8356 H   0  0  0  0  0
   18.1531   91.2297   10.9731 H   0  0  0  0  0
   15.8297   89.4649   12.0084 H   0  0  0  0  0
   14.0274   87.5944   10.5606 H   0  0  0  0  0
   13.0241   86.9666   12.7879 H   0  0  0  0  0
   14.6359   87.6087   13.4865 H   0  0  0  0  0
   15.7806   85.8924   12.3041 H   0  0  0  0  0
   15.0847   85.4614   14.5740 H   0  0  0  0  0
   13.5240   84.8277   13.9964 H   0  0  0  0  0
   15.0340   83.9698   13.6026 H   0  0  0  0  0
   13.0167   84.9175   11.4250 H   0  0  0  0  0
   14.2702   85.6116   10.3675 H   0  0  0  0  0
   14.5477   84.0452   11.1677 H   0  0  0  0  0
   11.7909   88.0592   10.7474 H   0  0  0  0  0
   11.1898   90.6924   11.9892 H   0  0  0  0  0
    9.3624   90.9546   10.2880 H   0  0  0  0  0
    9.9713   89.4638    9.4785 H   0  0  0  0  0
   12.0351   90.4827    9.0477 H   0  0  0  0  0
   11.5196   91.9673    9.9722 H   0  0  0  0  0
   11.1726   92.0913    6.0996 H   0  0  0  0  0
   12.3688   91.2094    7.0549 H   0  0  0  0  0
    9.2718   90.8405   13.1918 H   0  0  0  0  0
    7.5624   88.3931   13.2125 H   0  0  0  0  0
    8.6922   89.6622   15.7493 H   0  0  0  0  0
    9.7251   87.6135   15.8798 H   0  0  0  0  0
    6.3753   88.9235   15.9281 H   0  0  0  0  0
    6.8322   87.3339   15.2682 H   0  0  0  0  0
    7.4805   87.8655   16.8393 H   0  0  0  0  0
    5.5605   88.9679   13.0393 H   0  0  0  0  0
    4.7084   91.7479   13.4270 H   0  0  0  0  0
    3.2239   89.1947   12.7509 H   0  0  0  0  0
    3.7732   90.4742   11.6076 H   0  0  0  0  0
    1.5524   90.6504   12.1573 H   0  0  0  0  0
    3.7611   92.5498   15.1747 H   0  0  0  0  0
    3.0742   90.6638   17.3948 H   0  0  0  0  0
    1.6075   91.6152   18.7999 H   0  0  0  0  0
    4.8166   93.1078   17.4888 H   0  0  0  0  0
    5.7529   90.7873   16.7711 H   0  0  0  0  0
    5.5689   90.3429   18.4631 H   0  0  0  0  0
    3.4111   93.1084   19.5355 H   0  0  0  0  0
    3.8491   91.4151   19.8698 H   0  0  0  0  0
    5.0873   92.6912   19.9680 H   0  0  0  0  0
    6.9909   92.7331   17.4055 H   0  0  0  0  0
    6.8047   92.2831   19.1184 H   0  0  0  0  0
    7.7346   91.2358   18.0187 H   0  0  0  0  0
  1  2  2  0  0  0
  1  3  1  0  0  0
  1  4  1  0  0  0
  4  5  1  0  0  0
  5  6  1  0  0  0
  5  8  1  0  0  0
  6  7  2  0  0  0
  6 12  1  0  0  0
  8  9  1  0  0  0
  9 10  1  0  0  0
  9 11  2  0  0  0
 12 13  1  0  0  0
 13 14  1  0  0  0
 13 16  1  0  0  0
 14 15  2  0  0  0
 14 20  1  0  0  0
 16 17  1  0  0  0
 17 18  1  0  0  0
 17 19  1  0  0  0
 20 21  1  0  0  0
 21 22  1  0  0  0
 21 24  1  0  0  0
 22 23  2  0  0  0
 22 29  1  0  0  0
 24 25  1  0  0  0
 25 26  1  0  0  0
 26 27  2  0  0  0
 26 28  1  0  0  0
 29 30  1  0  0  0
 30 31  1  0  0  0
 30 33  1  0  0  0
 31 32  2  0  0  0
 31 36  1  0  0  0
 33 34  1  0  0  0
 33 35  1  0  0  0
 36 37  1  0  0  0
 37 38  1  0  0  0
 37 40  1  0  0  0
 38 39  2  0  0  0
 38 42  1  0  0  0
 40 41  1  0  0  0
 42 43  1  0  0  0
 43 44  1  0  0  0
 43 46  1  0  0  0
 44 45  1  0  0  0
 44 50  2  0  0  0
 46 47  1  0  0  0
 46 48  1  0  0  0
 47 49  1  0  0  0
  3 51  1  0  0  0
  3 52  1  0  0  0
  3 53  1  0  0  0
  4 54  1  0  0  0
  5 55  1  0  0  0
  8 56  1  0  0  0
  8 57  1  0  0  0
 10 58  1  0  0  0
 12 59  1  0  0  0
 13 60  1  0  0  0
 16 61  1  0  0  0
 16 62  1  0  0  0
 17 63  1  0  0  0
 18 64  1  0  0  0
 18 65  1  0  0  0
 18 66  1  0  0  0
 19 67  1  0  0  0
 19 68  1  0  0  0
 19 69  1  0  0  0
 20 70  1  0  0  0
 21 71  1  0  0  0
 24 72  1  0  0  0
 24 73  1  0  0  0
 25 74  1  0  0  0
 25 75  1  0  0  0
 28 76  1  0  0  0
 28 77  1  0  0  0
 29 78  1  0  0  0
 30 79  1  0  0  0
 33 80  1  0  0  0
 34 81  1  0  0  0
 35 82  1  0  0  0
 35 83  1  0  0  0
 35 84  1  0  0  0
 36 85  1  0  0  0
 37 86  1  0  0  0
 40 87  1  0  0  0
 40 88  1  0  0  0
 41 89  1  0  0  0
 42 90  1  0  0  0
 43 91  1  0  0  0
 45 92  1  0  0  0
 46 93  1  0  0  0
 47 94  1  0  0  0
 47 95  1  0  0  0
 48 96  1  0  0  0
 48 97  1  0  0  0
 48 98  1  0  0  0
 49 99  1  0  0  0
 49100  1  0  0  0
 49101  1  0  0  0
M  END
$$$$
