3aas_ligand
  -I-interpret- 

 32 32  0  0  0  0  0  0  0  0999 V2000
   -0.5740   18.8000   21.2800 C   0  0  0  0  0
   -1.1730   16.8280   19.9230 N   0  0  0  0  0
   -0.8440   19.9350   21.7300 O   0  0  0  0  0
   -1.5760   18.1920   20.2970 C   0  0  0  0  0
   -2.9600   18.1480   20.9460 C   0  0  0  0  0
   -2.5540   14.2610   14.1580 N   0  0  0  0  0
   -2.5980   13.0080   14.5990 C   0  0  0  0  0
   -2.4520   12.6960   15.8630 N   0  0  0  0  0
   -1.8830   13.1190   16.9890 C   0  0  0  0  0
   -0.9960   12.3240   17.7080 C   0  0  0  0  0
   -0.3940   12.8190   18.8590 C   0  0  0  0  0
   -2.8080   12.0190   13.7330 N   0  0  0  0  0
   -2.1650   14.4030   17.4370 C   0  0  0  0  0
   -1.5660   14.9020   18.5850 C   0  0  0  0  0
   -0.6740   14.1070   19.2990 C   0  0  0  0  0
   -0.0680   14.5850   20.4190 O   0  0  0  0  0
   -1.8480   16.2090   18.9750 C   0  0  0  0  0
    0.4390   18.1220   21.5590 O   0  0  0  0  0
   -1.6026   18.8094   19.3991 H   0  0  0  0  0
   -3.6788   17.7349   20.2383 H   0  0  0  0  0
   -2.9226   17.5201   21.8362 H   0  0  0  0  0
   -3.2616   19.1578   21.2244 H   0  0  0  0  0
   -2.4013   15.0273   14.8136 H   0  0  0  0  0
   -2.9477   11.8242   16.0489 H   0  0  0  0  0
   -0.7730   11.3125   17.3686 H   0  0  0  0  0
    0.3012   12.1937   19.4192 H   0  0  0  0  0
   -2.9332   12.2266   12.7422 H   0  0  0  0  0
   -2.8437   11.0536   14.0602 H   0  0  0  0  0
   -2.8650   15.0261   16.8804 H   0  0  0  0  0
   -0.3670   15.4820   20.5852 H   0  0  0  0  0
   -2.6586   16.7408   18.4768 H   0  0  0  0  0
    0.4072   17.2899   21.0813 H   0  0  0  0  0
  1  3  2  0  0  0
  4  1  1  0  0  0
  1 18  1  0  0  0
  2  4  1  0  0  0
 17  2  2  0  0  0
  4  5  1  0  0  0
  7  6  2  0  0  0
  8  7  1  0  0  0
  7 12  1  0  0  0
  9  8  1  0  0  0
  9 10  4  0  0  0
 13  9  4  0  0  0
 11 10  4  0  0  0
 15 11  4  0  0  0
 14 13  4  0  0  0
 14 15  4  0  0  0
 14 17  1  0  0  0
 15 16  1  0  0  0
  4 19  1  0  0  0
  5 20  1  0  0  0
  5 21  1  0  0  0
  5 22  1  0  0  0
  6 23  1  0  0  0
  8 24  1  0  0  0
 10 25  1  0  0  0
 11 26  1  0  0  0
 12 27  1  0  0  0
 12 28  1  0  0  0
 13 29  1  0  0  0
 16 30  1  0  0  0
 17 31  1  0  0  0
 18 32  1  0  0  0
M  END
$$$$
