3cz1_ligand
  -I-interpret- 

 29 29  0  0  0  0  0  0  0  0999 V2000
   22.6970   -2.9920   -4.4790 O   0  0  0  0  0
   21.3030   -2.8040   -4.7850 S   0  0  0  0  0
   21.0150   -1.4600   -5.2100 O   0  0  0  0  0
   20.4060   -3.1110   -3.4980 N   0  0  0  0  0
   19.1040   -2.5030   -3.3470 C   0  0  0  0  0
   17.9900   -3.5280   -3.4060 C   0  0  0  0  0
   16.6740   -2.9210   -2.9340 C   0  0  0  0  0
   16.1860   -3.6210   -1.6840 C   0  0  0  0  0
   20.9720   -3.8590   -5.9380 C   0  0  0  0  0
   20.9860   -3.4720   -7.2800 C   0  0  0  0  0
   20.7210   -4.3870   -8.2950 C   0  0  0  0  0
   20.4380   -5.7090   -7.9650 C   0  0  0  0  0
   20.4340   -6.0990   -6.6300 C   0  0  0  0  0
   20.7060   -5.1830   -5.6180 C   0  0  0  0  0
   20.7559   -3.7418   -2.7769 H   0  0  0  0  0
   18.9607   -1.7959   -4.1641 H   0  0  0  0  0
   19.0666   -2.0140   -2.3736 H   0  0  0  0  0
   18.2458   -4.3643   -2.7554 H   0  0  0  0  0
   17.8738   -3.8633   -4.4366 H   0  0  0  0  0
   15.9278   -3.0381   -3.7199 H   0  0  0  0  0
   16.8305   -1.8656   -2.7108 H   0  0  0  0  0
   16.0324   -4.6787   -1.8979 H   0  0  0  0  0
   16.9299   -3.5129   -0.8947 H   0  0  0  0  0
   15.2455   -3.1737   -1.3623 H   0  0  0  0  0
   21.2081   -2.4362   -7.5368 H   0  0  0  0  0
   20.7350   -4.0711   -9.3381 H   0  0  0  0  0
   20.2207   -6.4349   -8.7486 H   0  0  0  0  0
   20.2150   -7.1354   -6.3730 H   0  0  0  0  0
   20.7101   -5.5047   -4.5766 H   0  0  0  0  0
  1  2  2  0  0  0
  2  3  2  0  0  0
  2  4  1  0  0  0
  2  9  1  0  0  0
  4  5  1  0  0  0
  5  6  1  0  0  0
  6  7  1  0  0  0
  7  8  1  0  0  0
  9 10  4  0  0  0
  9 14  4  0  0  0
 10 11  4  0  0  0
 11 12  4  0  0  0
 12 13  4  0  0  0
 13 14  4  0  0  0
  4 15  1  0  0  0
  5 16  1  0  0  0
  5 17  1  0  0  0
  6 18  1  0  0  0
  6 19  1  0  0  0
  7 20  1  0  0  0
  7 21  1  0  0  0
  8 22  1  0  0  0
  8 23  1  0  0  0
  8 24  1  0  0  0
 10 25  1  0  0  0
 11 26  1  0  0  0
 12 27  1  0  0  0
 13 28  1  0  0  0
 14 29  1  0  0  0
M  END
$$$$
