### 
### Created by X-TOOL on Mon Sep 10 21:13:25 2018
### 

@<TRIPOS>MOLECULE
4x1n_ligand
  141   144     1     0     0
SMALL
GAST_HUCK


@<TRIPOS>ATOM
      1 N          18.0770   19.3120  -15.3220 N.4       1 CYS         0.2385
      2 CA         19.5300   19.0690  -15.0690 C.3       1 CYS         0.0751
      3 C          20.3870   20.1390  -15.7420 C.2       1 CYS         0.2300
      4 O          20.3330   20.2890  -16.9670 O.2       1 CYS        -0.3905
      5 CB         19.9490   17.6870  -15.5810 C.3       1 CYS         0.0643
      6 SG         19.2680   16.3020  -14.6390 S.3       1 CYS        -0.0848
      7 N          21.1620   20.9020  -14.9470 N.am      1 PRO        -0.2471
      8 CA         22.1530   21.8070  -15.5250 C.3       1 PRO         0.1339
      9 C          23.2800   21.0360  -16.1970 C.2       1 PRO         0.2041
     10 O          23.6550   19.9640  -15.7220 O.2       1 PRO        -0.3944
     11 CB         22.6820   22.5790  -14.3120 C.3       1 PRO        -0.0104
     12 CG         21.6110   22.4680  -13.2970 C.3       1 PRO        -0.0281
     13 CD         21.0260   21.1070  -13.4960 C.3       1 PRO         0.0371
     14 N          23.8110   21.5940  -17.2830 N.am      1 ALA        -0.2640
     15 CA         24.7930   20.9160  -18.1320 C.3       1 ALA         0.1282
     16 C          25.9940   20.3840  -17.3600 C.2       1 ALA         0.2037
     17 O          26.5610   19.3530  -17.7240 O.2       1 ALA        -0.3944
     18 CB         25.2650   21.8530  -19.2330 C.3       1 ALA        -0.0244
     19 N          26.3880   21.0910  -16.3030 N.am      1 TYR        -0.2621
     20 CA         27.5410   20.6860  -15.5120 C.3       1 TYR         0.1390
     21 C          27.1350   19.9660  -14.2310 C.2       1 TYR         0.2058
     22 O          27.8840   19.9690  -13.2470 O.2       1 TYR        -0.3942
     23 CB         28.4200   21.8960  -15.1890 C.3       1 TYR         0.0163
     24 CG         28.8380   22.7200  -16.3900 C.ar      1 TYR        -0.0493
     25 CD1        28.8970   22.1660  -17.6710 C.ar      1 TYR        -0.0685
     26 CD2        29.2140   24.0480  -16.2350 C.ar      1 TYR        -0.0685
     27 CE1        29.2870   22.9280  -18.7590 C.ar      1 TYR        -0.0398
     28 CE2        29.6180   24.8110  -17.3160 C.ar      1 TYR        -0.0398
     29 CZ         29.6500   24.2490  -18.5750 C.ar      1 TYR         0.0805
     30 OH         30.0480   25.0190  -19.6440 O.3       1 TYR        -0.3376
     31 N          25.9890   19.3090  -14.2250 N.am      1 SER        -0.2614
     32 CA         25.6250   18.5630  -13.0430 C.3       1 SER         0.1539
     33 C          26.5250   17.3800  -12.8500 C.2       1 SER         0.2062
     34 O          26.9220   16.7860  -13.8070 O.2       1 SER        -0.3943
     35 CB         24.2130   18.0940  -13.1000 C.3       1 SER         0.0843
     36 OG         23.9220   17.4140  -11.9190 O.3       1 SER        -0.3903
     37 N          26.8310   17.2710  -11.5650 N.am      1 ALA        -0.2639
     38 CA         27.4040   15.9310  -11.4070 C.3       1 ALA         0.1282
     39 C          26.3490   14.9970  -10.8820 C.2       1 ALA         0.2037
     40 O          26.5950   14.1910  -10.0280 O.2       1 ALA        -0.3944
     41 CB         28.5710   15.9810  -10.4540 C.3       1 ALA        -0.0244
     42 N          25.0710   14.9530  -10.4980 N.am      1 TYR        -0.2621
     43 CA         24.0110   14.2040   -9.8630 C.3       1 TYR         0.1390
     44 C          23.8490   12.9100  -10.5800 C.2       1 TYR         0.2057
     45 O          23.7760   12.8760  -11.7820 O.2       1 TYR        -0.3942
     46 CB         22.7200   14.9470   -9.9470 C.3       1 TYR         0.0163
     47 CG         21.5790   14.3180   -9.2210 C.ar      1 TYR        -0.0493
     48 CD1        21.7640   13.6620   -8.0350 C.ar      1 TYR        -0.0685
     49 CD2        20.3020   14.4190   -9.7120 C.ar      1 TYR        -0.0685
     50 CE1        20.6990   13.1100   -7.3750 C.ar      1 TYR        -0.0398
     51 CE2        19.2360   13.8660   -9.0590 C.ar      1 TYR        -0.0398
     52 CZ         19.4380   13.2220   -7.8840 C.ar      1 TYR         0.0805
     53 OH         18.3670   12.6910   -7.2480 O.3       1 TYR        -0.3376
     54 N          23.7930   11.8300   -9.8270 N.am      1 LEU        -0.2636
     55 CA         23.8420   10.5060  -10.4630 C.3       1 LEU         0.1312
     56 C          22.6370   10.2180  -11.3830 C.2       1 LEU         0.2040
     57 O          22.6770    9.2770  -12.1770 O.2       1 LEU        -0.3944
     58 CB         24.0340    9.3940   -9.4110 C.3       1 LEU        -0.0101
     59 CG         22.8840    8.8090   -8.5750 C.3       1 LEU        -0.0425
     60 CD1        21.8420    9.8540   -8.1970 C.3       1 LEU        -0.0625
     61 CD2        22.2160    7.6320   -9.2790 C.3       1 LEU        -0.0625
     62 N          21.5830   11.0300  -11.2830 N.am      1 ASP        -0.2622
     63 CA         20.3850   10.8760  -12.1160 C.3       1 ASP         0.1423
     64 C          20.2750   11.9030  -13.2550 C.2       1 ASP         0.2051
     65 O          19.1880   12.1050  -13.7970 O.2       1 ASP        -0.3943
     66 CB         19.1330   10.9330  -11.2290 C.3       1 ASP         0.0406
     67 CG         18.9670    9.6890  -10.3780 C.2       1 ASP         0.0393
     68 OD1        18.9670    8.5780  -10.9530 O.co2     1 ASP        -0.5688
     69 OD2        18.8360    9.8180   -9.1390 O.co2     1 ASP        -0.5688
     70 N          21.3890   12.5340  -13.6290 N.am      1 CYS        -0.2686
     71 CA         21.4090   13.4790  -14.7570 C.3       1 CYS         0.1041
     72 C          22.2680   12.9520  -15.9070 C.2       1 CYS         0.0609
     73 O          22.9820   11.9580  -15.7650 O.co2     1 CYS        -0.5666
     74 CB         21.9240   14.8520  -14.3110 C.3       1 CYS         0.0388
     75 SG         20.7510   15.8190  -13.3270 S.3       1 CYS        -0.0887
     76 OXT        22.2700   13.5070  -17.0070 O.co2     1 CYS        -0.5666
     77 H1         17.5326   18.5947  -14.8690 H         1 CYS         0.2015
     78 H2         17.9006   19.2914  -16.3142 H         1 CYS         0.2015
     79 H3         17.8179   20.2136  -14.9533 H         1 CYS         0.2015
     80 H4         19.7042   19.1100  -13.9837 H         1 CYS         0.1107
     81 H5         21.0464   17.6236  -15.5407 H         1 CYS         0.0466
     82 H6         19.6142   17.5908  -16.6244 H         1 CYS         0.0466
     83 H7         21.6865   22.4863  -16.2537 H         1 PRO         0.0802
     84 H8         22.8621   23.6326  -14.5716 H         1 PRO         0.0313
     85 H9         23.6146   22.1279  -13.9422 H         1 PRO         0.0313
     86 H10        20.8471   23.2436  -13.4551 H         1 PRO         0.0287
     87 H11        22.0277   22.5648  -12.2836 H         1 PRO         0.0287
     88 H12        21.5896   20.3476  -12.9341 H         1 PRO         0.0524
     89 H13        19.9699   21.0812  -13.1895 H         1 PRO         0.0524
     90 H14        23.5258   22.5199  -17.5307 H         1 ALA         0.1883
     91 H15        24.2906   20.0571  -18.6008 H         1 ALA         0.0797
     92 H16        26.0016   21.3349  -19.8646 H         1 ALA         0.0277
     93 H17        25.7293   22.7430  -18.7831 H         1 ALA         0.0277
     94 H18        24.4056   22.1588  -19.8477 H         1 ALA         0.0277
     95 H19        25.8827   21.9153  -16.0477 H         1 TYR         0.1885
     96 H20        28.1339   19.9849  -16.1177 H         1 TYR         0.0821
     97 H21        29.3307   21.5333  -14.6899 H         1 TYR         0.0453
     98 H22        27.8619   22.5504  -14.5033 H         1 TYR         0.0453
     99 H23        28.6336   21.1244  -17.8152 H         1 TYR         0.0530
    100 H24        29.1905   24.4953  -15.2479 H         1 TYR         0.0530
    101 H25        29.3076   22.4907  -19.7507 H         1 TYR         0.0525
    102 H26        29.9081   25.8458  -17.1741 H         1 TYR         0.0525
    103 H27        30.0183   24.4971  -20.4373 H         1 TYR         0.2458
    104 H28        25.3859   19.3278  -15.0224 H         1 SER         0.1884
    105 H29        25.7341   19.2294  -12.1747 H         1 SER         0.0823
    106 H30        24.0812   17.4188  -13.9583 H         1 SER         0.0606
    107 H31        23.5398   18.9574  -13.2058 H         1 SER         0.0606
    108 H32        24.0390   18.0000  -11.1804 H         1 SER         0.2097
    109 H33        26.6986   17.9594  -10.8519 H         1 ALA         0.1883
    110 H34        27.7536   15.5688  -12.3850 H         1 ALA         0.0797
    111 H35        28.9953   14.9725  -10.3407 H         1 ALA         0.0277
    112 H36        28.2292   16.3471   -9.4746 H         1 ALA         0.0277
    113 H37        29.3400   16.6598  -10.8513 H         1 ALA         0.0277
    114 H38        24.6686   15.8267  -10.7713 H         1 TYR         0.1885
    115 H39        24.2669   14.0229   -8.8086 H         1 TYR         0.0821
    116 H40        22.4436   15.0309  -11.0084 H         1 TYR         0.0453
    117 H41        22.8775   15.9520   -9.5285 H         1 TYR         0.0453
    118 H42        22.7599   13.5787   -7.6151 H         1 TYR         0.0530
    119 H43        20.1340   14.9509  -10.6415 H         1 TYR         0.0530
    120 H44        20.8586   12.5808   -6.4425 H         1 TYR         0.0525
    121 H45        18.2387   13.9419   -9.4771 H         1 TYR         0.0525
    122 H46        18.6526   12.2732   -6.4441 H         1 TYR         0.2458
    123 H47        23.7179   11.9105   -8.8331 H         1 LEU         0.1883
    124 H48        24.7346   10.4984  -11.1057 H         1 LEU         0.0800
    125 H49        24.7620    9.7880   -8.6866 H         1 LEU         0.0315
    126 H50        24.4766    8.5434   -9.9500 H         1 LEU         0.0315
    127 H51        23.3240    8.4307   -7.6405 H         1 LEU         0.0298
    128 H52        21.0469    9.3805   -7.6024 H         1 LEU         0.0232
    129 H53        21.4083   10.2866   -9.1106 H         1 LEU         0.0232
    130 H54        22.3183   10.6494   -7.6050 H         1 LEU         0.0232
    131 H55        22.9775    6.8848   -9.5468 H         1 LEU         0.0232
    132 H56        21.7141    7.9871  -10.1911 H         1 LEU         0.0232
    133 H57        21.4747    7.1753   -8.6067 H         1 LEU         0.0232
    134 H58        21.6106   11.7728  -10.6140 H         1 ASP         0.1884
    135 H59        20.4324    9.8793  -12.5788 H         1 ASP         0.0819
    136 H60        18.2483   11.0398  -11.8739 H         1 ASP         0.0478
    137 H61        19.2105   11.8067  -10.5652 H         1 ASP         0.0478
    138 H62        22.2365   12.3596  -13.1276 H         1 CYS         0.1876
    139 H63        20.3780   13.5972  -15.1219 H         1 CYS         0.0734
    140 H64        22.1757   15.4322  -15.2110 H         1 CYS         0.0425
    141 H65        22.8312   14.6981  -13.7083 H         1 CYS         0.0425
@<TRIPOS>BOND
     1    1    2 1  
     2    2    3 1  
     3    2    5 1  
     4    3    4 2  
     5    3    7 am 
     6    5    6 1  
     7    6   75 1  
     8    7    8 1  
     9    7   13 1  
    10    8    9 1  
    11    8   11 1  
    12    9   10 2  
    13    9   14 am 
    14   11   12 1  
    15   12   13 1  
    16   14   15 1  
    17   15   16 1  
    18   15   18 1  
    19   16   17 2  
    20   16   19 am 
    21   19   20 1  
    22   20   21 1  
    23   20   23 1  
    24   21   22 2  
    25   21   31 am 
    26   23   24 1  
    27   24   25 ar 
    28   24   26 ar 
    29   25   27 ar 
    30   26   28 ar 
    31   27   29 ar 
    32   28   29 ar 
    33   29   30 1  
    34   31   32 1  
    35   32   33 1  
    36   32   35 1  
    37   33   34 2  
    38   33   37 am 
    39   35   36 1  
    40   37   38 1  
    41   38   39 1  
    42   38   41 1  
    43   39   40 2  
    44   39   42 am 
    45   42   43 1  
    46   43   44 1  
    47   43   46 1  
    48   44   45 2  
    49   44   54 am 
    50   46   47 1  
    51   47   48 ar 
    52   47   49 ar 
    53   48   50 ar 
    54   49   51 ar 
    55   50   52 ar 
    56   51   52 ar 
    57   52   53 1  
    58   54   55 1  
    59   55   56 1  
    60   55   58 1  
    61   56   57 2  
    62   56   62 am 
    63   58   59 1  
    64   59   60 1  
    65   59   61 1  
    66   62   63 1  
    67   63   64 1  
    68   63   66 1  
    69   64   65 2  
    70   64   70 am 
    71   66   67 1  
    72   67   68 ar 
    73   67   69 ar 
    74   70   71 1  
    75   71   72 1  
    76   71   74 1  
    77   72   73 ar 
    78   72   76 ar 
    79   74   75 1  
    80    1   77 1  
    81    1   78 1  
    82    1   79 1  
    83    2   80 1  
    84    5   81 1  
    85    5   82 1  
    86    8   83 1  
    87   11   84 1  
    88   11   85 1  
    89   12   86 1  
    90   12   87 1  
    91   13   88 1  
    92   13   89 1  
    93   14   90 1  
    94   15   91 1  
    95   18   92 1  
    96   18   93 1  
    97   18   94 1  
    98   19   95 1  
    99   20   96 1  
   100   23   97 1  
   101   23   98 1  
   102   25   99 1  
   103   26  100 1  
   104   27  101 1  
   105   28  102 1  
   106   30  103 1  
   107   31  104 1  
   108   32  105 1  
   109   35  106 1  
   110   35  107 1  
   111   36  108 1  
   112   37  109 1  
   113   38  110 1  
   114   41  111 1  
   115   41  112 1  
   116   41  113 1  
   117   42  114 1  
   118   43  115 1  
   119   46  116 1  
   120   46  117 1  
   121   48  118 1  
   122   49  119 1  
   123   50  120 1  
   124   51  121 1  
   125   53  122 1  
   126   54  123 1  
   127   55  124 1  
   128   58  125 1  
   129   58  126 1  
   130   59  127 1  
   131   60  128 1  
   132   60  129 1  
   133   60  130 1  
   134   61  131 1  
   135   61  132 1  
   136   61  133 1  
   137   62  134 1  
   138   63  135 1  
   139   66  136 1  
   140   66  137 1  
   141   70  138 1  
   142   71  139 1  
   143   74  140 1  
   144   74  141 1  
@<TRIPOS>SUBSTRUCTURE
     1 CYS         1

