4x1n_ligand
  -I-interpret- 

143146  0  0  0  0  0  0  0  0999 V2000
   18.0770   19.3120  -15.3220 N   0  3  0  0  0
   19.5300   19.0690  -15.0690 C   0  0  0  0  0
   20.3870   20.1390  -15.7420 C   0  0  0  0  0
   20.3330   20.2890  -16.9670 O   0  0  0  0  0
   19.9490   17.6870  -15.5810 C   0  0  0  0  0
   19.2680   16.3020  -14.6390 S   0  0  0  0  0
   21.1620   20.9020  -14.9470 N   0  0  0  0  0
   22.1530   21.8070  -15.5250 C   0  0  0  0  0
   23.2800   21.0360  -16.1970 C   0  0  0  0  0
   23.6550   19.9640  -15.7220 O   0  0  0  0  0
   22.6820   22.5790  -14.3120 C   0  0  0  0  0
   21.6110   22.4680  -13.2970 C   0  0  0  0  0
   21.0260   21.1070  -13.4960 C   0  0  0  0  0
   23.8110   21.5940  -17.2830 N   0  0  0  0  0
   24.7930   20.9160  -18.1320 C   0  0  0  0  0
   25.9940   20.3840  -17.3600 C   0  0  0  0  0
   26.5610   19.3530  -17.7240 O   0  0  0  0  0
   25.2650   21.8530  -19.2330 C   0  0  0  0  0
   26.3880   21.0910  -16.3030 N   0  0  0  0  0
   27.5410   20.6860  -15.5120 C   0  0  0  0  0
   27.1350   19.9660  -14.2310 C   0  0  0  0  0
   27.8840   19.9690  -13.2470 O   0  0  0  0  0
   28.4200   21.8960  -15.1890 C   0  0  0  0  0
   28.8380   22.7200  -16.3900 C   0  0  0  0  0
   28.8970   22.1660  -17.6710 C   0  0  0  0  0
   29.2140   24.0480  -16.2350 C   0  0  0  0  0
   29.2870   22.9280  -18.7590 C   0  0  0  0  0
   29.6180   24.8110  -17.3160 C   0  0  0  0  0
   29.6500   24.2490  -18.5750 C   0  0  0  0  0
   30.0480   25.0190  -19.6440 O   0  0  0  0  0
   25.9890   19.3090  -14.2250 N   0  0  0  0  0
   25.6250   18.5630  -13.0430 C   0  0  0  0  0
   26.5250   17.3800  -12.8500 C   0  0  0  0  0
   26.9220   16.7860  -13.8070 O   0  0  0  0  0
   24.2130   18.0940  -13.1000 C   0  0  0  0  0
   23.9220   17.4140  -11.9190 O   0  0  0  0  0
   26.8310   17.2710  -11.5650 N   0  0  0  0  0
   27.4040   15.9310  -11.4070 C   0  0  0  0  0
   26.3490   14.9970  -10.8820 C   0  0  0  0  0
   26.5950   14.1910  -10.0280 O   0  0  0  0  0
   28.5710   15.9810  -10.4540 C   0  0  0  0  0
   25.0710   14.9530  -10.4980 N   0  0  0  0  0
   24.0110   14.2040   -9.8630 C   0  0  0  0  0
   23.8490   12.9100  -10.5800 C   0  0  0  0  0
   23.7760   12.8760  -11.7820 O   0  0  0  0  0
   22.7200   14.9470   -9.9470 C   0  0  0  0  0
   21.5790   14.3180   -9.2210 C   0  0  0  0  0
   21.7640   13.6620   -8.0350 C   0  0  0  0  0
   20.3020   14.4190   -9.7120 C   0  0  0  0  0
   20.6990   13.1100   -7.3750 C   0  0  0  0  0
   19.2360   13.8660   -9.0590 C   0  0  0  0  0
   19.4380   13.2220   -7.8840 C   0  0  0  0  0
   18.3670   12.6910   -7.2480 O   0  0  0  0  0
   23.7930   11.8300   -9.8270 N   0  0  0  0  0
   23.8420   10.5060  -10.4630 C   0  0  0  0  0
   22.6370   10.2180  -11.3830 C   0  0  0  0  0
   22.6770    9.2770  -12.1770 O   0  0  0  0  0
   24.0340    9.3940   -9.4110 C   0  0  0  0  0
   22.8840    8.8090   -8.5750 C   0  0  0  0  0
   21.8420    9.8540   -8.1970 C   0  0  0  0  0
   22.2160    7.6320   -9.2790 C   0  0  0  0  0
   21.5830   11.0300  -11.2830 N   0  0  0  0  0
   20.3850   10.8760  -12.1160 C   0  0  0  0  0
   20.2750   11.9030  -13.2550 C   0  0  0  0  0
   19.1880   12.1050  -13.7970 O   0  0  0  0  0
   19.1330   10.9330  -11.2290 C   0  0  0  0  0
   18.9670    9.6890  -10.3780 C   0  0  0  0  0
   18.9670    8.5780  -10.9530 O   0  0  0  0  0
   18.8360    9.8180   -9.1390 O   0  0  0  0  0
   21.3890   12.5340  -13.6290 N   0  0  0  0  0
   21.4090   13.4790  -14.7570 C   0  0  0  0  0
   22.2680   12.9520  -15.9070 C   0  0  0  0  0
   22.9820   11.9580  -15.7650 O   0  0  0  0  0
   21.9240   14.8520  -14.3110 C   0  0  0  0  0
   20.7510   15.8190  -13.3270 S   0  0  0  0  0
   22.2700   13.5070  -17.0070 O   0  0  0  0  0
   17.8223   20.2361  -14.9733 H   0  0  0  0  0
   17.8949   19.2634  -16.3244 H   0  0  0  0  0
   17.5258   18.6017  -14.8403 H   0  0  0  0  0
   19.6869   19.1133  -13.9913 H   0  0  0  0  0
   21.0340   17.6296  -15.4942 H   0  0  0  0  0
   19.5726   17.5962  -16.5999 H   0  0  0  0  0
   21.7311   22.4508  -16.2968 H   0  0  0  0  0
   22.9029   23.6179  -14.5570 H   0  0  0  0  0
   23.6264   22.1711  -13.9517 H   0  0  0  0  0
   20.8612   23.2503  -13.4149 H   0  0  0  0  0
   21.9985   22.5964  -12.2863 H   0  0  0  0  0
   21.5306   20.3387  -12.9101 H   0  0  0  0  0
   19.9941   21.0346  -13.1524 H   0  0  0  0  0
   23.5201   22.5384  -17.5356 H   0  0  0  0  0
   24.2861   20.0517  -18.5612 H   0  0  0  0  0
   24.4125   22.1553  -19.8413 H   0  0  0  0  0
   25.7248   22.7344  -18.7859 H   0  0  0  0  0
   25.9948   21.3385  -19.8581 H   0  0  0  0  0
   25.8726   21.9318  -16.0426 H   0  0  0  0  0
   28.1136   19.9798  -16.1132 H   0  0  0  0  0
   29.3341   21.5103  -14.7375 H   0  0  0  0  0
   27.8315   22.5509  -14.5465 H   0  0  0  0  0
   28.6322   21.1187  -17.8160 H   0  0  0  0  0
   29.1903   24.4978  -15.2424 H   0  0  0  0  0
   29.3077   22.4883  -19.7562 H   0  0  0  0  0
   29.9097   25.8515  -17.1733 H   0  0  0  0  0
   30.2620   25.9033  -19.3379 H   0  0  0  0  0
   25.3738   19.3281  -15.0384 H   0  0  0  0  0
   25.7361   19.2442  -12.1994 H   0  0  0  0  0
   24.0768   17.4300  -13.9536 H   0  0  0  0  0
   23.5431   18.9466  -13.2119 H   0  0  0  0  0
   23.0130   17.1063  -11.9439 H   0  0  0  0  0
   26.6959   17.9732  -10.8376 H   0  0  0  0  0
   27.7562   15.5702  -12.3734 H   0  0  0  0  0
   29.3322   16.6539  -10.8487 H   0  0  0  0  0
   28.2311   16.3440   -9.4840 H   0  0  0  0  0
   28.9905   14.9812  -10.3426 H   0  0  0  0  0
   24.6605   15.8442  -10.7768 H   0  0  0  0  0
   24.2688   14.0466   -8.8157 H   0  0  0  0  0
   22.4431   14.9765  -11.0008 H   0  0  0  0  0
   22.8875   15.9200   -9.4851 H   0  0  0  0  0
   22.7654   13.5782   -7.6128 H   0  0  0  0  0
   20.1331   14.9538  -10.6466 H   0  0  0  0  0
   20.8594   12.5779   -6.4373 H   0  0  0  0  0
   18.2332   13.9423   -9.4794 H   0  0  0  0  0
   17.5727   12.8714   -7.7561 H   0  0  0  0  0
   23.7164   11.9121   -8.8132 H   0  0  0  0  0
   24.7133   10.5142  -11.1179 H   0  0  0  0  0
   24.6620    9.8738   -8.6604 H   0  0  0  0  0
   24.3569    8.5433  -10.0111 H   0  0  0  0  0
   23.3396    8.4496   -7.6523 H   0  0  0  0  0
   22.3152   10.6415   -7.6105 H   0  0  0  0  0
   21.4131   10.2819   -9.1031 H   0  0  0  0  0
   21.0547    9.3837   -7.6079 H   0  0  0  0  0
   21.8113    7.9642  -10.2350 H   0  0  0  0  0
   22.9521    6.8461   -9.4481 H   0  0  0  0  0
   21.4090    7.2476   -8.6552 H   0  0  0  0  0
   21.6112   11.7876  -10.6006 H   0  0  0  0  0
   20.4696    9.9038  -12.6016 H   0  0  0  0  0
   18.2628   11.0134  -11.8804 H   0  0  0  0  0
   19.2338   11.7873  -10.5596 H   0  0  0  0  0
   18.8644   10.7500   -8.9107 H   0  0  0  0  0
   22.2534   12.3561  -13.1176 H   0  0  0  0  0
   20.3836   13.5845  -15.1112 H   0  0  0  0  0
   22.1251   15.4243  -15.2166 H   0  0  0  0  0
   22.7952   14.6740  -13.6805 H   0  0  0  0  0
   21.6769   14.2615  -16.9845 H   0  0  0  0  0
  1  2  1  0  0  0
  2  3  1  0  0  0
  2  5  1  0  0  0
  3  4  2  0  0  0
  3  7  1  0  0  0
  5  6  1  0  0  0
  6 75  1  0  0  0
  7  8  1  0  0  0
  7 13  1  0  0  0
  8  9  1  0  0  0
  8 11  1  0  0  0
  9 10  2  0  0  0
  9 14  1  0  0  0
 11 12  1  0  0  0
 12 13  1  0  0  0
 14 15  1  0  0  0
 15 16  1  0  0  0
 15 18  1  0  0  0
 16 17  2  0  0  0
 16 19  1  0  0  0
 19 20  1  0  0  0
 20 21  1  0  0  0
 20 23  1  0  0  0
 21 22  2  0  0  0
 21 31  1  0  0  0
 23 24  1  0  0  0
 24 25  4  0  0  0
 24 26  4  0  0  0
 25 27  4  0  0  0
 26 28  4  0  0  0
 27 29  4  0  0  0
 28 29  4  0  0  0
 29 30  1  0  0  0
 31 32  1  0  0  0
 32 33  1  0  0  0
 32 35  1  0  0  0
 33 34  2  0  0  0
 33 37  1  0  0  0
 35 36  1  0  0  0
 37 38  1  0  0  0
 38 39  1  0  0  0
 38 41  1  0  0  0
 39 40  2  0  0  0
 39 42  1  0  0  0
 42 43  1  0  0  0
 43 44  1  0  0  0
 43 46  1  0  0  0
 44 45  2  0  0  0
 44 54  1  0  0  0
 46 47  1  0  0  0
 47 48  4  0  0  0
 47 49  4  0  0  0
 48 50  4  0  0  0
 49 51  4  0  0  0
 50 52  4  0  0  0
 51 52  4  0  0  0
 52 53  1  0  0  0
 54 55  1  0  0  0
 55 56  1  0  0  0
 55 58  1  0  0  0
 56 57  2  0  0  0
 56 62  1  0  0  0
 58 59  1  0  0  0
 59 60  1  0  0  0
 59 61  1  0  0  0
 62 63  1  0  0  0
 63 64  1  0  0  0
 63 66  1  0  0  0
 64 65  2  0  0  0
 64 70  1  0  0  0
 66 67  1  0  0  0
 67 68  2  0  0  0
 67 69  1  0  0  0
 70 71  1  0  0  0
 71 72  1  0  0  0
 71 74  1  0  0  0
 72 73  2  0  0  0
 72 76  1  0  0  0
 74 75  1  0  0  0
  1 77  1  0  0  0
  1 78  1  0  0  0
  1 79  1  0  0  0
  2 80  1  0  0  0
  5 81  1  0  0  0
  5 82  1  0  0  0
  8 83  1  0  0  0
 11 84  1  0  0  0
 11 85  1  0  0  0
 12 86  1  0  0  0
 12 87  1  0  0  0
 13 88  1  0  0  0
 13 89  1  0  0  0
 14 90  1  0  0  0
 15 91  1  0  0  0
 18 92  1  0  0  0
 18 93  1  0  0  0
 18 94  1  0  0  0
 19 95  1  0  0  0
 20 96  1  0  0  0
 23 97  1  0  0  0
 23 98  1  0  0  0
 25 99  1  0  0  0
 26100  1  0  0  0
 27101  1  0  0  0
 28102  1  0  0  0
 30103  1  0  0  0
 31104  1  0  0  0
 32105  1  0  0  0
 35106  1  0  0  0
 35107  1  0  0  0
 36108  1  0  0  0
 37109  1  0  0  0
 38110  1  0  0  0
 41111  1  0  0  0
 41112  1  0  0  0
 41113  1  0  0  0
 42114  1  0  0  0
 43115  1  0  0  0
 46116  1  0  0  0
 46117  1  0  0  0
 48118  1  0  0  0
 49119  1  0  0  0
 50120  1  0  0  0
 51121  1  0  0  0
 53122  1  0  0  0
 54123  1  0  0  0
 55124  1  0  0  0
 58125  1  0  0  0
 58126  1  0  0  0
 59127  1  0  0  0
 60128  1  0  0  0
 60129  1  0  0  0
 60130  1  0  0  0
 61131  1  0  0  0
 61132  1  0  0  0
 61133  1  0  0  0
 62134  1  0  0  0
 63135  1  0  0  0
 66136  1  0  0  0
 66137  1  0  0  0
 69138  1  0  0  0
 70139  1  0  0  0
 71140  1  0  0  0
 74141  1  0  0  0
 74142  1  0  0  0
 76143  1  0  0  0
M  END
$$$$
