3l8x_ligand
  -I-interpret- 

 45 48  0  0  0  0  0  0  0  0999 V2000
   -5.2150   -3.0400  -22.0500 C   0  0  0  0  0
   -2.1980   -1.2630  -24.5530 C   0  0  0  0  0
   -3.0880   -4.3910  -19.7370 C   0  0  0  0  0
   -2.4540   -5.4030  -17.6440 C   0  0  0  0  0
   -3.8690   -3.4770  -21.9610 C   0  0  0  0  0
   -6.2990   -3.6360  -21.1910 C   0  0  0  0  0
   -1.5870    0.5520  -26.0480 C   0  0  0  0  0
   -2.8940   -5.5480  -18.9540 C   0  0  0  0  0
   -3.2490   -1.8770  -23.6990 C   0  0  0  0  0
   -1.2680   -7.9590  -13.1920 C   0  0  0  0  0
   -0.8310   -6.7290  -13.6690 C   0  0  0  0  0
   -2.0510   -8.7560  -14.0170 C   0  0  0  0  0
   -4.5790   -1.4530  -23.7790 C   0  0  0  0  0
   -5.5520   -2.0290  -22.9600 C   0  0  0  0  0
   -1.1730   -6.2930  -14.9610 C   0  0  0  0  0
   -2.3960   -8.3290  -15.3060 C   0  0  0  0  0
   -2.8910   -2.8890  -22.7860 C   0  0  0  0  0
   -3.0170   -6.9370  -19.1270 C   0  0  0  0  0
   -2.4100   -3.1870  -17.8710 C   0  0  0  0  0
   -1.9560   -7.0910  -15.7960 C   0  0  0  0  0
   -2.6970   -7.6210  -18.0320 N   0  0  0  0  0
   -2.2020   -4.2220  -17.0400 N   0  0  0  0  0
   -2.8220   -3.1990  -19.1580 N   0  0  0  0  0
   -2.3390   -6.6840  -17.1120 N   0  0  0  0  0
   -3.5200   -4.4930  -21.0590 N   0  0  0  0  0
   -2.5870   -0.3070  -25.4620 N   0  0  0  0  0
   -1.0380   -1.6150  -24.4150 O   0  0  0  0  0
   -6.3725   -4.7050  -21.3907 H   0  0  0  0  0
   -6.0566   -3.4773  -20.1402 H   0  0  0  0  0
   -7.2496   -3.1556  -21.4225 H   0  0  0  0  0
   -1.0846    1.1129  -25.2599 H   0  0  0  0  0
   -0.8580   -0.0549  -26.5850 H   0  0  0  0  0
   -2.0654    1.2448  -26.7403 H   0  0  0  0  0
   -1.0012   -8.2920  -12.1890 H   0  0  0  0  0
   -0.2148   -6.0938  -13.0328 H   0  0  0  0  0
   -2.4008   -9.7239  -13.6579 H   0  0  0  0  0
   -4.8574   -0.6695  -24.4838 H   0  0  0  0  0
   -6.5852   -1.6886  -23.0292 H   0  0  0  0  0
   -0.8233   -5.3227  -15.3137 H   0  0  0  0  0
   -3.0147   -8.9677  -15.9364 H   0  0  0  0  0
   -1.8539   -3.2176  -22.7182 H   0  0  0  0  0
   -3.3397   -7.4035  -20.0578 H   0  0  0  0  0
   -2.2200   -2.2004  -17.4483 H   0  0  0  0  0
   -3.5927   -5.4433  -21.4224 H   0  0  0  0  0
   -3.5692   -0.2067  -25.7183 H   0  0  0  0  0
  5  1  4  0  0  0
  1  6  1  0  0  0
  1 14  4  0  0  0
  9  2  1  0  0  0
  2 26  1  0  0  0
  2 27  2  0  0  0
  8  3  4  0  0  0
  3 23  4  0  0  0
  3 25  1  0  0  0
  4  8  4  0  0  0
  4 22  4  0  0  0
 24  4  4  0  0  0
  5 17  4  0  0  0
 25  5  1  0  0  0
 26  7  1  0  0  0
  8 18  4  0  0  0
  9 13  4  0  0  0
 17  9  4  0  0  0
 11 10  4  0  0  0
 12 10  4  0  0  0
 15 11  4  0  0  0
 16 12  4  0  0  0
 14 13  4  0  0  0
 20 15  4  0  0  0
 20 16  4  0  0  0
 18 21  4  0  0  0
 22 19  4  0  0  0
 19 23  4  0  0  0
 20 24  1  0  0  0
 21 24  4  0  0  0
  6 28  1  0  0  0
  6 29  1  0  0  0
  6 30  1  0  0  0
  7 31  1  0  0  0
  7 32  1  0  0  0
  7 33  1  0  0  0
 10 34  1  0  0  0
 11 35  1  0  0  0
 12 36  1  0  0  0
 13 37  1  0  0  0
 14 38  1  0  0  0
 15 39  1  0  0  0
 16 40  1  0  0  0
 17 41  1  0  0  0
 18 42  1  0  0  0
 19 43  1  0  0  0
 25 44  1  0  0  0
 26 45  1  0  0  0
M  END
$$$$
