2d2v_ligand
  -I-interpret- 

 45 46  0  0  0  0  0  0  0  0999 V2000
   45.9320    2.5020   95.2100 C   0  0  0  0  0
   45.0380    2.4090   93.9550 C   0  0  0  0  0
   45.3490    1.1020   93.1930 C   0  0  0  0  0
   46.8600    1.2160   92.7690 C   0  0  0  0  0
   47.7290    1.2620   94.0570 C   0  0  0  0  0
   49.2470    1.3870   93.8740 C   0  0  0  0  0
   45.5980    1.4210   96.1210 O   0  0  0  0  0
   43.7100    2.5120   94.4390 O   0  0  0  0  0
   44.5130    1.0640   92.0670 O   0  0  0  0  0
   47.2660    0.1150   92.0650 O   0  0  0  0  0
   47.3370    2.3910   94.8880 O   0  0  0  0  0
   49.5320    2.5250   93.0890 O   0  0  0  0  0
   45.0120    0.3800  100.2370 C   0  0  0  0  0
   43.9090    1.0620   99.3900 C   0  0  0  0  0
   43.9660    0.8820   97.8480 C   0  0  0  0  0
   45.3760    1.4970   97.5170 C   0  0  0  0  0
   46.5170    0.7270   98.3390 C   0  0  0  0  0
   48.0530    1.1800   98.2100 C   0  0  0  0  0
   44.8620   -0.6940  100.1970 O   0  0  0  0  0
   42.6560    0.5980   99.7870 O   0  0  0  0  0
   42.8530    1.5740   97.1560 O   0  0  0  0  0
   46.3350    0.7830   99.8120 O   0  0  0  0  0
   47.9370    2.6700   98.3760 O   0  0  0  0  0
   45.7518    3.4773   95.6622 H   0  0  0  0  0
   45.2112    3.1982   93.2234 H   0  0  0  0  0
   45.1837    0.1983   93.7796 H   0  0  0  0  0
   46.9702    2.1091   92.1539 H   0  0  0  0  0
   47.5388    0.2853   94.5020 H   0  0  0  0  0
   49.6283    0.4959   93.3754 H   0  0  0  0  0
   49.7242    1.4882   94.8488 H   0  0  0  0  0
   43.6016    3.3486   94.8972 H   0  0  0  0  0
   43.5986    0.9945   92.3509 H   0  0  0  0  0
   46.7530    0.0465   91.2565 H   0  0  0  0  0
   50.4819    2.6035   92.9743 H   0  0  0  0  0
   44.9361    0.7007  101.2760 H   0  0  0  0  0
   44.0877    2.1201   99.5815 H   0  0  0  0  0
   43.8512   -0.1492   97.5140 H   0  0  0  0  0
   45.4073    2.5450   97.8151 H   0  0  0  0  0
   46.3698   -0.2396   97.8572 H   0  0  0  0  0
   48.5209    0.8791   97.2727 H   0  0  0  0  0
   48.7113    0.7082   98.9395 H   0  0  0  0  0
   45.5397   -1.1303  100.7185 H   0  0  0  0  0
   41.9764    1.0236   99.2592 H   0  0  0  0  0
   42.9304    1.4347   96.2093 H   0  0  0  0  0
   48.8094    3.0663   98.3170 H   0  0  0  0  0
  1  2  1  0  0  0
  7  1  1  0  0  0
  1 11  1  0  0  0
  2  3  1  0  0  0
  2  8  1  0  0  0
  3  4  1  0  0  0
  3  9  1  0  0  0
  5  4  1  0  0  0
  4 10  1  0  0  0
  5  6  1  0  0  0
 11  5  1  0  0  0
  6 12  1  0  0  0
 16  7  1  0  0  0
 14 13  1  0  0  0
 13 19  1  0  0  0
 13 22  1  0  0  0
 15 14  1  0  0  0
 14 20  1  0  0  0
 15 16  1  0  0  0
 15 21  1  0  0  0
 16 17  1  0  0  0
 17 18  1  0  0  0
 17 22  1  0  0  0
 18 23  1  0  0  0
  1 24  1  0  0  0
  2 25  1  0  0  0
  3 26  1  0  0  0
  4 27  1  0  0  0
  5 28  1  0  0  0
  6 29  1  0  0  0
  6 30  1  0  0  0
  8 31  1  0  0  0
  9 32  1  0  0  0
 10 33  1  0  0  0
 12 34  1  0  0  0
 13 35  1  0  0  0
 14 36  1  0  0  0
 15 37  1  0  0  0
 16 38  1  0  0  0
 17 39  1  0  0  0
 18 40  1  0  0  0
 18 41  1  0  0  0
 19 42  1  0  0  0
 20 43  1  0  0  0
 21 44  1  0  0  0
 23 45  1  0  0  0
M  END
$$$$
