2y6d_ligand
  -I-interpret- 

 56 58  0  0  0  0  0  0  0  0999 V2000
  -16.3490   11.4020    3.3780 N   0  0  0  0  0
  -15.1580   10.2200    3.0470 S   0  0  0  0  0
  -16.0830   12.6650    2.6540 C   0  0  0  0  0
  -16.5510   11.5680    4.8350 C   0  0  0  0  0
  -15.8270    9.4470    1.5950 C   0  0  0  0  0
  -13.9400   10.9070    2.6590 O   0  0  0  0  0
  -15.1610    9.2450    4.1210 O   0  0  0  0  0
  -17.0530   13.7470    3.0530 C   0  0  0  0  0
  -17.4870   12.7060    5.1480 C   0  0  0  0  0
  -16.8490    8.3960    1.9620 C   0  0  0  0  0
  -16.9440   13.8580    4.4820 N   0  0  0  0  0
  -17.1520    7.5540    0.7420 C   0  0  0  0  0
  -18.0380    9.0550    2.4290 N   0  0  0  0  0
  -17.5560   15.0270    4.9380 C   0  0  0  0  0
  -17.7280    6.2100    1.1270 C   0  0  0  0  0
  -18.7830    8.5270    3.4470 C   0  0  0  0  0
  -18.8670    9.3900    1.3410 O   0  0  0  0  0
  -18.1100   15.8730    4.0040 C   0  0  0  0  0
  -17.5690   15.2750    6.2500 N   0  0  0  0  0
  -18.3340    5.5570   -0.0930 C   0  0  0  0  0
  -19.7410    9.0540    3.9920 O   0  0  0  0  0
  -18.7160   17.0370    4.4130 C   0  0  0  0  0
  -18.1600   16.4090    6.6260 C   0  0  0  0  0
  -18.8260    4.1890    0.2350 C   0  0  0  0  0
  -18.7360   17.3030    5.7590 C   0  0  0  0  0
  -20.1350    4.0690    0.4750 N   0  0  0  0  0
  -17.9120    3.2150    0.2540 N   0  0  0  0  0
  -19.5440   18.8790    6.4210 Br  0  0  0  0  0
  -20.5470    2.8330    0.7640 C   0  0  0  0  0
  -18.3850    2.0030    0.5470 C   0  0  0  0  0
  -19.7070    1.7500    0.8150 C   0  0  0  0  0
  -16.1937   12.4797    1.5856 H   0  0  0  0  0
  -15.0748   12.9979    2.9006 H   0  0  0  0  0
  -15.5850   11.7856    5.2907 H   0  0  0  0  0
  -16.9884   10.6492    5.2256 H   0  0  0  0  0
  -15.0146    8.9684    1.0482 H   0  0  0  0  0
  -16.3129   10.2092    0.9858 H   0  0  0  0  0
  -18.0705   13.5009    2.7495 H   0  0  0  0  0
  -16.8197   14.6915    2.5616 H   0  0  0  0  0
  -17.5641   12.8704    6.2228 H   0  0  0  0  0
  -18.4991   12.4914    4.8048 H   0  0  0  0  0
  -16.4671    7.7464    2.7496 H   0  0  0  0  0
  -16.2228    7.3885    0.1967 H   0  0  0  0  0
  -17.8842    8.0817    0.1309 H   0  0  0  0  0
  -18.4974    6.3474    1.8868 H   0  0  0  0  0
  -16.9366    5.5749    1.5250 H   0  0  0  0  0
  -18.4939    7.5397    3.8073 H   0  0  0  0  0
  -19.6568    9.8290    1.6652 H   0  0  0  0  0
  -18.0683   15.6209    2.9444 H   0  0  0  0  0
  -17.5722    5.4820   -0.8689 H   0  0  0  0  0
  -19.1733    6.1614   -0.4372 H   0  0  0  0  0
  -19.1641   17.7234    3.6946 H   0  0  0  0  0
  -18.1875   16.6411    7.6907 H   0  0  0  0  0
  -21.6058    2.6761    0.9702 H   0  0  0  0  0
  -17.6841    1.1687    0.5751 H   0  0  0  0  0
  -20.0674    0.7494    1.0538 H   0  0  0  0  0
  1  2  1  0  0  0
  1  3  1  0  0  0
  1  4  1  0  0  0
  2  5  1  0  0  0
  2  6  2  0  0  0
  2  7  2  0  0  0
  3  8  1  0  0  0
  4  9  1  0  0  0
  5 10  1  0  0  0
  8 11  1  0  0  0
  9 11  1  0  0  0
 10 12  1  0  0  0
 10 13  1  0  0  0
 11 14  1  0  0  0
 12 15  1  0  0  0
 13 16  1  0  0  0
 13 17  1  0  0  0
 14 18  4  0  0  0
 14 19  4  0  0  0
 15 20  1  0  0  0
 16 21  2  0  0  0
 18 22  4  0  0  0
 19 23  4  0  0  0
 20 24  1  0  0  0
 22 25  4  0  0  0
 23 25  4  0  0  0
 24 26  4  0  0  0
 24 27  4  0  0  0
 25 28  1  0  0  0
 26 29  4  0  0  0
 27 30  4  0  0  0
 29 31  4  0  0  0
 30 31  4  0  0  0
  3 32  1  0  0  0
  3 33  1  0  0  0
  4 34  1  0  0  0
  4 35  1  0  0  0
  5 36  1  0  0  0
  5 37  1  0  0  0
  8 38  1  0  0  0
  8 39  1  0  0  0
  9 40  1  0  0  0
  9 41  1  0  0  0
 10 42  1  0  0  0
 12 43  1  0  0  0
 12 44  1  0  0  0
 15 45  1  0  0  0
 15 46  1  0  0  0
 16 47  1  0  0  0
 17 48  1  0  0  0
 18 49  1  0  0  0
 20 50  1  0  0  0
 20 51  1  0  0  0
 22 52  1  0  0  0
 23 53  1  0  0  0
 29 54  1  0  0  0
 30 55  1  0  0  0
 31 56  1  0  0  0
M  END
$$$$
