4m8h_ligand
  -I-interpret- 

 47 48  0  0  0  0  0  0  0  0999 V2000
   63.5870   48.4850   31.4060 C   0  0  0  0  0
   63.4680   48.2890   32.9220 C   0  0  0  0  0
   64.8330   48.1800   33.6030 C   0  0  0  0  0
   64.6770   47.8940   35.0960 C   0  0  0  0  0
   65.7070   47.1240   32.9380 C   0  0  0  0  0
   66.7430   46.5420   33.6640 C   0  0  0  0  0
   67.5710   45.5920   33.0910 C   0  0  0  0  0
   67.3780   45.2070   31.7680 C   0  0  0  0  0
   66.3580   45.7900   31.0290 C   0  0  0  0  0
   65.5410   46.7410   31.6240 C   0  0  0  0  0
   64.5960   47.5080   30.8040 C   0  0  0  0  0
   64.6710   47.2950   29.4330 C   0  0  0  0  0
   63.8400   47.9750   28.4200 C   0  0  0  0  0
   64.5500   48.9130   27.4340 C   0  0  0  0  0
   62.4630   47.8470   28.3090 C   0  0  0  0  0
   61.5720   47.0270   29.1410 C   0  0  0  0  0
   60.2240   47.1750   28.8130 C   0  0  0  0  0
   59.1110   46.5020   29.4810 C   0  0  0  0  0
   59.3660   45.3650   30.4840 C   0  0  0  0  0
   57.8310   46.9460   29.1540 C   0  0  0  0  0
   56.6310   46.3560   29.7640 C   0  0  0  0  0
   55.6140   47.0750   29.8070 O   0  0  0  0  0
   56.6890   45.1890   30.2220 O   0  0  0  0  0
   63.9265   49.5022   31.2109 H   0  0  0  0  0
   62.6123   48.3040   30.9528 H   0  0  0  0  0
   62.9260   47.3604   33.1011 H   0  0  0  0  0
   62.9525   49.1559   33.3353 H   0  0  0  0  0
   65.3334   49.1417   33.4898 H   0  0  0  0  0
   64.2127   46.9171   35.2309 H   0  0  0  0  0
   65.6584   47.8999   35.5703 H   0  0  0  0  0
   64.0490   48.6617   35.5480 H   0  0  0  0  0
   66.9046   46.8392   34.7002 H   0  0  0  0  0
   68.3746   45.1454   33.6766 H   0  0  0  0  0
   68.0227   44.4535   31.3155 H   0  0  0  0  0
   66.1999   45.5031   29.9894 H   0  0  0  0  0
   65.4013   46.5682   29.0773 H   0  0  0  0  0
   64.3748   48.5672   26.4153 H   0  0  0  0  0
   64.1573   49.9233   27.5488 H   0  0  0  0  0
   65.6203   48.9122   27.6403 H   0  0  0  0  0
   61.9877   48.4206   27.5133 H   0  0  0  0  0
   61.9280   46.3696   29.9342 H   0  0  0  0  0
   59.9805   47.8479   27.9908 H   0  0  0  0  0
   58.9559   45.6405   31.4556 H   0  0  0  0  0
   58.8832   44.4543   30.1294 H   0  0  0  0  0
   60.4391   45.1969   30.5756 H   0  0  0  0  0
   57.7170   47.7508   28.4278 H   0  0  0  0  0
   57.5684   44.8326   30.0763 H   0  0  0  0  0
  1  2  1  0  0  0
  1 11  1  0  0  0
  2  3  1  0  0  0
  3  4  1  0  0  0
  3  5  1  0  0  0
  5  6  4  0  0  0
  5 10  4  0  0  0
  6  7  4  0  0  0
  7  8  4  0  0  0
  8  9  4  0  0  0
  9 10  4  0  0  0
 10 11  1  0  0  0
 11 12  2  0  0  0
 12 13  1  0  0  0
 13 14  1  0  0  0
 13 15  2  0  0  0
 15 16  1  0  0  0
 16 17  2  0  0  0
 17 18  1  0  0  0
 18 19  1  0  0  0
 18 20  2  0  0  0
 20 21  1  0  0  0
 21 22  2  0  0  0
 21 23  1  0  0  0
  1 24  1  0  0  0
  1 25  1  0  0  0
  2 26  1  0  0  0
  2 27  1  0  0  0
  3 28  1  0  0  0
  4 29  1  0  0  0
  4 30  1  0  0  0
  4 31  1  0  0  0
  6 32  1  0  0  0
  7 33  1  0  0  0
  8 34  1  0  0  0
  9 35  1  0  0  0
 12 36  1  0  0  0
 14 37  1  0  0  0
 14 38  1  0  0  0
 14 39  1  0  0  0
 15 40  1  0  0  0
 16 41  1  0  0  0
 17 42  1  0  0  0
 19 43  1  0  0  0
 19 44  1  0  0  0
 19 45  1  0  0  0
 20 46  1  0  0  0
 23 47  1  0  0  0
M  END
$$$$
