1dbb_ligand
  -I-interpret- 

 53 56  0  0  0  0  0  0  0  0999 V2000
  -19.9120   42.8500  -15.1180 C   0  0  0  0  0
  -18.7140   42.2110  -15.7850 C   0  0  0  0  0
  -17.5580   43.1900  -15.5720 C   0  0  0  0  0
  -16.8370   43.6090  -16.5000 O   0  0  0  0  0
  -17.3070   43.5630  -14.2920 C   0  0  0  0  0
  -18.3340   43.5260  -13.3280 C   0  0  0  0  0
  -18.1250   43.8940  -11.8890 C   0  0  0  0  0
  -19.1200   44.8880  -11.5040 C   0  0  0  0  0
  -20.5190   44.4360  -11.7200 C   0  0  0  0  0
  -20.7390   44.1110  -13.1940 C   0  0  0  0  0
  -19.7460   43.0470  -13.6120 C   0  0  0  0  0
  -22.1270   43.6600  -13.4710 C   0  0  0  0  0
  -23.0710   44.6670  -12.9620 C   0  0  0  0  0
  -22.8880   45.1430  -11.4600 C   0  0  0  0  0
  -21.4660   45.5780  -11.3090 C   0  0  0  0  0
  -21.5600   46.3950  -10.0120 C   0  0  0  0  0
  -22.9710   46.9580   -9.9290 C   0  0  0  0  0
  -23.7580   46.3120  -11.0520 C   0  0  0  0  0
  -23.1280   44.0010  -10.4700 C   0  0  0  0  0
  -19.9500   41.6840  -12.9700 C   0  0  0  0  0
  -25.1940   46.1310  -10.7280 C   0  0  0  0  0
  -25.5790   46.0380   -9.5860 O   0  0  0  0  0
  -26.2210   46.1930  -11.7970 C   0  0  0  0  0
  -20.7614   42.1835  -15.2673 H   0  0  0  0  0
  -20.0442   43.8364  -15.5625 H   0  0  0  0  0
  -18.8953   42.0311  -16.8447 H   0  0  0  0  0
  -18.4932   41.2329  -15.3577 H   0  0  0  0  0
  -16.3074   43.8924  -14.0083 H   0  0  0  0  0
  -17.1242   44.3051  -11.7563 H   0  0  0  0  0
  -18.2301   43.0073  -11.2638 H   0  0  0  0  0
  -18.9602   45.7704  -12.1237 H   0  0  0  0  0
  -18.9974   45.0802  -10.4381 H   0  0  0  0  0
  -20.7142   43.5431  -11.1261 H   0  0  0  0  0
  -20.5847   45.0218  -13.7725 H   0  0  0  0  0
  -22.3078   42.7053  -12.9771 H   0  0  0  0  0
  -22.2653   43.5377  -14.5453 H   0  0  0  0  0
  -24.0540   44.1980  -13.0050 H   0  0  0  0  0
  -22.9132   45.5550  -13.5740 H   0  0  0  0  0
  -20.9228   46.2626  -11.9604 H   0  0  0  0  0
  -20.8268   47.2016  -10.0150 H   0  0  0  0  0
  -21.3490   45.7650   -9.1479 H   0  0  0  0  0
  -22.9651   48.0433  -10.0303 H   0  0  0  0  0
  -23.4219   46.7406   -8.9607 H   0  0  0  0  0
  -23.9208   46.9175  -11.9436 H   0  0  0  0  0
  -24.1443   43.6256  -10.5898 H   0  0  0  0  0
  -22.4173   43.1978  -10.6646 H   0  0  0  0  0
  -22.9928   44.3691   -9.4530 H   0  0  0  0  0
  -19.8681   41.7779  -11.8871 H   0  0  0  0  0
  -20.9389   41.3059  -13.2294 H   0  0  0  0  0
  -19.1888   40.9944  -13.3348 H   0  0  0  0  0
  -26.8265   45.2870  -11.7704 H   0  0  0  0  0
  -26.8585   47.0624  -11.6366 H   0  0  0  0  0
  -25.7298   46.2749  -12.7666 H   0  0  0  0  0
  1  2  1  0  0  0
  1 11  1  0  0  0
  2  3  1  0  0  0
  3  4  2  0  0  0
  3  5  1  0  0  0
  5  6  2  0  0  0
  6  7  1  0  0  0
  6 11  1  0  0  0
  7  8  1  0  0  0
  8  9  1  0  0  0
  9 10  1  0  0  0
  9 15  1  0  0  0
 10 11  1  0  0  0
 10 12  1  0  0  0
 11 20  1  0  0  0
 12 13  1  0  0  0
 13 14  1  0  0  0
 14 15  1  0  0  0
 14 18  1  0  0  0
 14 19  1  0  0  0
 15 16  1  0  0  0
 16 17  1  0  0  0
 17 18  1  0  0  0
 18 21  1  0  0  0
 21 22  2  0  0  0
 21 23  1  0  0  0
  1 24  1  0  0  0
  1 25  1  0  0  0
  2 26  1  0  0  0
  2 27  1  0  0  0
  5 28  1  0  0  0
  7 29  1  0  0  0
  7 30  1  0  0  0
  8 31  1  0  0  0
  8 32  1  0  0  0
  9 33  1  0  0  0
 10 34  1  0  0  0
 12 35  1  0  0  0
 12 36  1  0  0  0
 13 37  1  0  0  0
 13 38  1  0  0  0
 15 39  1  0  0  0
 16 40  1  0  0  0
 16 41  1  0  0  0
 17 42  1  0  0  0
 17 43  1  0  0  0
 18 44  1  0  0  0
 19 45  1  0  0  0
 19 46  1  0  0  0
 19 47  1  0  0  0
 20 48  1  0  0  0
 20 49  1  0  0  0
 20 50  1  0  0  0
 23 51  1  0  0  0
 23 52  1  0  0  0
 23 53  1  0  0  0
M  END
$$$$
