3thb_ligand
  -I-interpret- 

 57 60  0  0  0  0  0  0  0  0999 V2000
  -43.7040   14.5920   10.1920 C   0  0  0  0  0
  -43.3870    9.2340   14.5070 Cl  0  0  0  0  0
  -43.9720   15.2870    9.0200 C   0  0  0  0  0
  -44.4590   14.6390    7.9710 N   0  0  0  0  0
  -44.6950   13.3240    8.0240 C   0  0  0  0  0
  -44.4510   12.6260    9.1430 N   0  0  0  0  0
  -43.9730   13.2390   10.2340 C   0  0  0  0  0
  -42.7710   12.5350   12.2780 C   0  0  0  0  0
  -43.7490   12.3770   11.2960 C   0  0  0  0  0
  -41.8720   13.5280   12.3680 N   0  0  0  0  0
  -41.9350   14.7990   11.9400 C   0  0  0  0  0
  -43.1510   15.4650   11.3120 C   0  0  0  0  0
  -44.4760   10.3170   12.3000 C   0  0  0  0  0
  -43.5000   10.4580   13.2840 C   0  0  0  0  0
  -42.6390   11.5640   13.2740 C   0  0  0  0  0
  -44.6030   11.2770   11.3010 C   0  0  0  0  0
  -40.5110   15.8090   12.1380 S   0  0  0  0  0
  -45.1690   12.7210    6.9510 N   0  0  0  0  0
  -45.6610   11.4780    6.9640 C   0  0  0  0  0
  -44.8990   10.3990    7.4070 C   0  0  0  0  0
  -45.4740    9.1310    7.3870 C   0  0  0  0  0
  -46.7750    8.9770    6.9180 C   0  0  0  0  0
  -47.4790   10.0100    6.5040 N   0  0  0  0  0
  -46.9620   11.2440    6.5070 C   0  0  0  0  0
  -44.7020    7.8800    7.8550 C   0  0  0  0  0
  -44.6830    7.6950    9.3730 C   0  0  0  0  0
  -43.9520    6.4090    9.7920 C   0  0  0  0  0
  -42.5830    6.2500    9.2250 N   0  3  0  0  0
  -41.6290    7.3510    9.5130 C   0  0  0  0  0
  -42.0310    4.9810    9.7500 C   0  0  0  0  0
  -47.8360   12.3900    6.0060 C   0  0  0  0  0
  -43.7831   16.3590    8.9629 H   0  0  0  0  0
  -43.9190   15.5999   12.0736 H   0  0  0  0  0
  -42.8583   16.4315   10.9017 H   0  0  0  0  0
  -45.1410    9.4535   12.3128 H   0  0  0  0  0
  -41.8700   11.6661   14.0397 H   0  0  0  0  0
  -45.3646   11.1690   10.5287 H   0  0  0  0  0
  -40.7614   17.0244   11.6593 H   0  0  0  0  0
  -45.1597   13.2288    6.0664 H   0  0  0  0  0
  -43.8781   10.5438    7.7604 H   0  0  0  0  0
  -47.2199    7.9823    6.8928 H   0  0  0  0  0
  -43.6682    7.9967    7.5298 H   0  0  0  0  0
  -45.2039    7.0113    7.4289 H   0  0  0  0  0
  -45.7143    7.6272    9.7194 H   0  0  0  0  0
  -44.1564    8.5427    9.8115 H   0  0  0  0  0
  -44.5457    5.5740    9.4201 H   0  0  0  0  0
  -43.8413    6.4486   10.8756 H   0  0  0  0  0
  -42.6886    6.2601    8.2105 H   0  0  0  0  0
  -42.0197    8.2841    9.1070 H   0  0  0  0  0
  -41.5021    7.4474   10.5913 H   0  0  0  0  0
  -40.6674    7.1269    9.0513 H   0  0  0  0  0
  -41.9911    5.0263   10.8383 H   0  0  0  0  0
  -42.6704    4.1535    9.4428 H   0  0  0  0  0
  -41.0264    4.8319    9.3542 H   0  0  0  0  0
  -47.9743   13.1166    6.8066 H   0  0  0  0  0
  -47.3506   12.8710    5.1568 H   0  0  0  0  0
  -48.8053   11.9981    5.6979 H   0  0  0  0  0
  1  3  4  0  0  0
  7  1  4  0  0  0
  1 12  1  0  0  0
 14  2  1  0  0  0
  3  4  4  0  0  0
  5  4  4  0  0  0
  6  5  4  0  0  0
  5 18  1  0  0  0
  7  6  4  0  0  0
  9  7  1  0  0  0
  9  8  4  0  0  0
  8 10  1  0  0  0
  8 15  4  0  0  0
 16  9  4  0  0  0
 10 11  2  0  0  0
 11 12  1  0  0  0
 11 17  1  0  0  0
 13 14  4  0  0  0
 13 16  4  0  0  0
 14 15  4  0  0  0
 18 19  1  0  0  0
 19 20  4  0  0  0
 19 24  4  0  0  0
 20 21  4  0  0  0
 21 22  4  0  0  0
 21 25  1  0  0  0
 22 23  4  0  0  0
 23 24  4  0  0  0
 24 31  1  0  0  0
 25 26  1  0  0  0
 26 27  1  0  0  0
 27 28  1  0  0  0
 28 29  1  0  0  0
 28 30  1  0  0  0
  3 32  1  0  0  0
 12 33  1  0  0  0
 12 34  1  0  0  0
 13 35  1  0  0  0
 15 36  1  0  0  0
 16 37  1  0  0  0
 17 38  1  0  0  0
 18 39  1  0  0  0
 20 40  1  0  0  0
 22 41  1  0  0  0
 25 42  1  0  0  0
 25 43  1  0  0  0
 26 44  1  0  0  0
 26 45  1  0  0  0
 27 46  1  0  0  0
 27 47  1  0  0  0
 28 48  1  0  0  0
 29 49  1  0  0  0
 29 50  1  0  0  0
 29 51  1  0  0  0
 30 52  1  0  0  0
 30 53  1  0  0  0
 30 54  1  0  0  0
 31 55  1  0  0  0
 31 56  1  0  0  0
 31 57  1  0  0  0
M  END
$$$$
