### 
### Created by X-TOOL on Mon Sep 10 21:13:08 2018
### 

@<TRIPOS>MOLECULE
3thb_ligand
   56    59     1     0     0
SMALL
GAST_HUCK


@<TRIPOS>ATOM
      1 C1        -43.7040   14.5920   10.1920 C.ar      1 3TA         0.0231
      2 CL1       -43.3870    9.2340   14.5070 Cl        1 3TA        -0.0695
      3 C2        -43.9720   15.2870    9.0200 C.ar      1 3TA         0.0166
      4 N3        -44.4590   14.6390    7.9710 N.ar      1 3TA        -0.2620
      5 C4        -44.6950   13.3240    8.0240 C.ar      1 3TA         0.2019
      6 N5        -44.4510   12.6260    9.1430 N.ar      1 3TA        -0.2546
      7 C6        -43.9730   13.2390   10.2340 C.ar      1 3TA         0.0590
      8 C7        -42.7710   12.5350   12.2780 C.ar      1 3TA         0.0194
      9 C8        -43.7490   12.3770   11.2960 C.ar      1 3TA         0.0103
     10 N9        -41.8720   13.5280   12.3680 N.2       1 3TA        -0.2993
     11 C10       -41.9350   14.7990   11.9400 C.2       1 3TA         0.0980
     12 C11       -43.1510   15.4650   11.3120 C.3       1 3TA         0.0633
     13 C12       -44.4760   10.3170   12.3000 C.ar      1 3TA        -0.0507
     14 C13       -43.5000   10.4580   13.2840 C.ar      1 3TA         0.0376
     15 C14       -42.6390   11.5640   13.2740 C.ar      1 3TA        -0.0368
     16 C15       -44.6030   11.2770   11.3010 C.ar      1 3TA        -0.0544
     17 S16       -40.5110   15.8090   12.1380 S.3       1 3TA        -0.0606
     18 N18       -45.1690   12.7210    6.9510 N.pl3     1 3TA        -0.2429
     19 C19       -45.6610   11.4780    6.9640 C.ar      1 3TA         0.0876
     20 C20       -44.8990   10.3990    7.4070 C.ar      1 3TA        -0.0243
     21 C21       -45.4740    9.1310    7.3870 C.ar      1 3TA        -0.0332
     22 C22       -46.7750    8.9770    6.9180 C.ar      1 3TA        -0.0089
     23 N23       -47.4790   10.0100    6.5040 N.ar      1 3TA        -0.3170
     24 C24       -46.9620   11.2440    6.5070 C.ar      1 3TA         0.0422
     25 C25       -44.7020    7.8800    7.8550 C.3       1 3TA        -0.0209
     26 C26       -44.6830    7.6950    9.3730 C.3       1 3TA        -0.0620
     27 C27       -43.9520    6.4090    9.7920 C.3       1 3TA        -0.1120
     28 N28       -42.5830    6.2500    9.2250 N.4       1 3TA         0.3987
     29 C29       -41.6290    7.3510    9.5130 C.3       1 3TA        -0.1260
     30 C30       -42.0310    4.9810    9.7500 C.3       1 3TA        -0.1260
     31 C31       -47.8360   12.3900    6.0060 C.3       1 3TA        -0.0207
     32 H         -43.7831   16.3590    8.9629 H         1 3TA         0.0817
     33 H         -43.9190   15.5999   12.0736 H         1 3TA         0.0712
     34 H         -42.8583   16.4315   10.9017 H         1 3TA         0.0712
     35 H         -45.1410    9.4535   12.3128 H         1 3TA         0.0576
     36 H         -41.8700   11.6661   14.0397 H         1 3TA         0.0577
     37 H         -45.3646   11.1690   10.5287 H         1 3TA         0.0630
     38 H         -40.7614   17.0244   11.6593 H         1 3TA         0.1390
     39 H         -45.1597   13.2288    6.0664 H         1 3TA         0.2163
     40 H         -43.8781   10.5438    7.7604 H         1 3TA         0.0566
     41 H         -47.2199    7.9823    6.8928 H         1 3TA         0.0635
     42 H         -43.6682    7.9967    7.5298 H         1 3TA         0.0425
     43 H         -45.2039    7.0113    7.4289 H         1 3TA         0.0425
     44 H         -45.7143    7.6272    9.7194 H         1 3TA         0.0268
     45 H         -44.1564    8.5427    9.8115 H         1 3TA         0.0268
     46 H         -44.5457    5.5740    9.4201 H         1 3TA         0.0018
     47 H         -43.8413    6.4486   10.8756 H         1 3TA         0.0018
     48 H         -42.0197    8.2841    9.1070 H         1 3TA        -0.0019
     49 H         -41.5021    7.4474   10.5913 H         1 3TA        -0.0019
     50 H         -40.6674    7.1269    9.0513 H         1 3TA        -0.0019
     51 H         -41.9911    5.0263   10.8383 H         1 3TA        -0.0019
     52 H         -42.6704    4.1535    9.4428 H         1 3TA        -0.0019
     53 H         -41.0264    4.8319    9.3542 H         1 3TA        -0.0019
     54 H         -48.1183   12.2038    4.9698 H         1 3TA         0.0386
     55 H         -48.7329   12.4572    6.6218 H         1 3TA         0.0386
     56 H         -47.2790   13.3248    6.0698 H         1 3TA         0.0386
@<TRIPOS>BOND
     1    1    3 ar 
     2    7    1 ar 
     3    1   12 1  
     4   14    2 1  
     5    3    4 ar 
     6    5    4 ar 
     7    6    5 ar 
     8    5   18 1  
     9    7    6 ar 
    10    9    7 1  
    11    9    8 ar 
    12    8   10 1  
    13    8   15 ar 
    14   16    9 ar 
    15   10   11 2  
    16   11   12 1  
    17   11   17 1  
    18   13   14 ar 
    19   13   16 ar 
    20   14   15 ar 
    21   18   19 1  
    22   19   20 ar 
    23   19   24 ar 
    24   20   21 ar 
    25   21   22 ar 
    26   21   25 1  
    27   22   23 ar 
    28   23   24 ar 
    29   24   31 1  
    30   25   26 1  
    31   26   27 1  
    32   27   28 1  
    33   28   29 1  
    34   28   30 1  
    35    3   32 1  
    36   12   33 1  
    37   12   34 1  
    38   13   35 1  
    39   15   36 1  
    40   16   37 1  
    41   17   38 1  
    42   18   39 1  
    43   20   40 1  
    44   22   41 1  
    45   25   42 1  
    46   25   43 1  
    47   26   44 1  
    48   26   45 1  
    49   27   46 1  
    50   27   47 1  
    51   29   48 1  
    52   29   49 1  
    53   29   50 1  
    54   30   51 1  
    55   30   52 1  
    56   30   53 1  
    57   31   54 1  
    58   31   55 1  
    59   31   56 1  
@<TRIPOS>SUBSTRUCTURE
     1 3TA         1

