5hh4_ligand
  -I-interpret- 

 22 22  0  0  0  0  0  0  0  0999 V2000
    2.6160   -6.7300  -42.0270 C   0  0  0  0  0
    2.7460   -5.4160  -41.4920 C   0  0  0  0  0
    4.6070   -3.7140  -38.8050 O   0  0  0  0  0
    3.6840   -3.8950  -39.6880 C   0  0  0  0  0
    2.9160   -2.9180  -39.9910 O   0  0  0  0  0
    3.5190   -5.2770  -40.3160 C   0  0  0  0  0
    4.1150   -6.2910  -39.6970 N   0  0  0  0  0
    4.0240   -7.5660  -40.1690 C   0  0  0  0  0
    4.7010   -8.6860  -39.4390 C   0  0  0  0  0
    3.5640   -9.5210  -38.0750 P   0  0  0  0  0
    2.9930   -8.3010  -37.3620 O   0  0  0  0  0
    4.4580  -10.3930  -37.1900 O   0  0  0  0  0
    2.5530  -10.3440  -38.8670 O   0  0  0  0  0
    3.2640   -7.8120  -41.3480 C   0  0  0  0  0
    2.0364   -6.9080  -42.9328 H   0  0  0  0  0
    2.2715   -4.5574  -41.9672 H   0  0  0  0  0
    5.0978   -4.5303  -38.6848 H   0  0  0  0  0
    5.5724   -8.2706  -38.9328 H   0  0  0  0  0
    4.9536   -9.4522  -40.1719 H   0  0  0  0  0
    4.7813  -11.1391  -37.7003 H   0  0  0  0  0
    2.9997  -11.0871  -39.2792 H   0  0  0  0  0
    3.1751   -8.8271  -41.7350 H   0  0  0  0  0
  2  1  4  0  0  0
  1 14  4  0  0  0
  6  2  4  0  0  0
  4  3  1  0  0  0
  4  5  2  0  0  0
  4  6  1  0  0  0
  6  7  4  0  0  0
  7  8  4  0  0  0
  8  9  1  0  0  0
  8 14  4  0  0  0
  9 10  1  0  0  0
 10 11  2  0  0  0
 10 12  1  0  0  0
 10 13  1  0  0  0
  1 15  1  0  0  0
  2 16  1  0  0  0
  3 17  1  0  0  0
  9 18  1  0  0  0
  9 19  1  0  0  0
 12 20  1  0  0  0
 13 21  1  0  0  0
 14 22  1  0  0  0
M  END
$$$$
