### 
### Created by X-TOOL on Fri Nov  2 10:51:02 2018
### 

@<TRIPOS>MOLECULE
5hh4_ligand
   19    19     1     0     0
SMALL
GAST_HUCK


@<TRIPOS>ATOM
      1 C13         2.6160   -6.7300  -42.0270 C.ar      1 MOL        -0.0453
      2 C14         2.7460   -5.4160  -41.4920 C.ar      1 MOL        -0.0268
      3 O01         4.6070   -3.7140  -38.8050 O.co2     1 MOL        -0.5572
      4 C02         3.6840   -3.8950  -39.6880 C.2       1 MOL         0.0788
      5 O03         2.9160   -2.9180  -39.9910 O.co2     1 MOL        -0.5572
      6 C04         3.5190   -5.2770  -40.3160 C.ar      1 MOL         0.0741
      7 N05         4.1150   -6.2910  -39.6970 N.ar      1 MOL        -0.2823
      8 C06         4.0240   -7.5660  -40.1690 C.ar      1 MOL         0.0477
      9 C07         4.7010   -8.6860  -39.4390 C.3       1 MOL         0.0689
     10 P08         3.5640   -9.5210  -38.0750 P.3       1 MOL         0.0725
     11 O09         2.9930   -8.3010  -37.3620 O.co2     1 MOL        -0.5605
     12 O10         4.4580  -10.3930  -37.1900 O.co2     1 MOL        -0.5605
     13 O11         2.5530  -10.3440  -38.8670 O.co2     1 MOL        -0.5605
     14 C12         3.2640   -7.8120  -41.3480 C.ar      1 MOL        -0.0286
     15 H1          2.0396   -6.9070  -42.9278 H         1 MOL         0.0725
     16 H2          2.2741   -4.5621  -41.9646 H         1 MOL         0.0687
     17 H3          5.6015   -8.2889  -38.9477 H         1 MOL         0.0644
     18 H4          4.9910   -9.4548  -40.1703 H         1 MOL         0.0644
     19 H5          3.1756   -8.8215  -41.7329 H         1 MOL         0.0671
@<TRIPOS>BOND
     1    2    1 ar 
     2    1   14 ar 
     3    6    2 ar 
     4    4    3 ar 
     5    4    5 ar 
     6    4    6 1  
     7    6    7 ar 
     8    7    8 ar 
     9    8    9 1  
    10    8   14 ar 
    11    9   10 1  
    12   10   11 ar 
    13   10   12 ar 
    14   10   13 ar 
    15    1   15 1  
    16    2   16 1  
    17    9   17 1  
    18    9   18 1  
    19   14   19 1  
@<TRIPOS>SUBSTRUCTURE
     1 MOL         1

