1kdw_ligand
  -I-interpret- 

 19 19  0  0  0  0  0  0  0  0999 V2000
   26.8510    5.1730   16.5180 B   0  0  0  0  0
   25.9270    4.0310   16.7630 O   0  0  0  0  0
   26.8840    6.0520   17.7150 O   0  0  0  0  0
   26.3490    5.9660   15.2700 C   0  0  0  0  0
   25.9760    5.2620   14.1300 C   0  0  0  0  0
   25.4330    5.9070   13.0250 C   0  0  0  0  0
   25.2570    7.3210   13.0760 C   0  0  0  0  0
   24.5450    8.0490   11.9530 C   0  0  0  0  0
   24.1170    9.3100   12.1510 O   0  0  0  0  0
   24.3310    7.4840   10.8710 O   0  0  0  0  0
   25.6650    8.0250   14.2480 C   0  0  0  0  0
   26.1960    7.3470   15.3120 C   0  0  0  0  0
   25.9075    3.4647   15.9881 H   0  0  0  0  0
   27.4802    6.7871   17.5545 H   0  0  0  0  0
   26.1125    4.1809   14.1025 H   0  0  0  0  0
   25.1474    5.3430   12.1370 H   0  0  0  0  0
   24.3627    9.5952   13.0341 H   0  0  0  0  0
   25.5533    9.1082   14.2964 H   0  0  0  0  0
   26.5023    7.8962   16.2023 H   0  0  0  0  0
  4 12  4  0  0  0
 12 11  4  0  0  0
 11  7  4  0  0  0
  7  6  4  0  0  0
  6  5  4  0  0  0
  5  4  4  0  0  0
  7  8  1  0  0  0
  8  9  1  0  0  0
  8 10  2  0  0  0
  4  1  1  0  0  0
  1  3  1  0  0  0
  1  2  1  0  0  0
  2 13  1  0  0  0
  3 14  1  0  0  0
  5 15  1  0  0  0
  6 16  1  0  0  0
  9 17  1  0  0  0
 11 18  1  0  0  0
 12 19  1  0  0  0
M  END
$$$$
