### 
### Created by X-TOOL on Mon Sep 10 21:12:49 2018
### 

@<TRIPOS>MOLECULE
1kdw_ligand
   18    18     1     0     0
SMALL
GAST_HUCK


@<TRIPOS>ATOM
      1 B          26.8510    5.1730   16.5180 B         1 4CB         0.7332
      2 OB1        25.9270    4.0310   16.7630 O.3       1 4CB        -0.4937
      3 OB2        26.8840    6.0520   17.7150 O.3       1 4CB        -0.4937
      4 CP1        26.3490    5.9660   15.2700 C.ar      1 4CB        -0.0509
      5 CP2        25.9760    5.2620   14.1300 C.ar      1 4CB        -0.0679
      6 CP3        25.4330    5.9070   13.0250 C.ar      1 4CB        -0.0487
      7 CP4        25.2570    7.3210   13.0760 C.ar      1 4CB         0.0101
      8 CX         24.5450    8.0490   11.9530 C.2       1 4CB         0.0629
      9 OX1        24.1170    9.3100   12.1510 O.co2     1 4CB        -0.5606
     10 OX2        24.3310    7.4840   10.8710 O.co2     1 4CB        -0.5606
     11 CP5        25.6650    8.0250   14.2480 C.ar      1 4CB        -0.0487
     12 CP6        26.1960    7.3470   15.3120 C.ar      1 4CB        -0.0679
     13 H1         25.0539    4.3630   16.9359 H         1 4CB         0.1669
     14 H2         27.1886    5.5536   18.4642 H         1 4CB         0.1669
     15 H3         26.1117    4.1869   14.1027 H         1 4CB         0.0613
     16 H4         25.1489    5.3461   12.1419 H         1 4CB         0.0651
     17 H5         25.5539    9.1022   14.2961 H         1 4CB         0.0651
     18 H6         26.5007    7.8932   16.1974 H         1 4CB         0.0613
@<TRIPOS>BOND
     1    4   12 ar 
     2   12   11 ar 
     3   11    7 ar 
     4    7    6 ar 
     5    6    5 ar 
     6    5    4 ar 
     7    7    8 1  
     8    8    9 ar 
     9    8   10 ar 
    10    4    1 1  
    11    1    3 1  
    12    1    2 1  
    13    2   13 1  
    14    3   14 1  
    15    5   15 1  
    16    6   16 1  
    17   11   17 1  
    18   12   18 1  
@<TRIPOS>SUBSTRUCTURE
     1 4CB         1

