6bg3_ligand
  -I-interpret- 

 58 60  0  0  0  0  0  0  0  0999 V2000
   14.8260  -13.4610   -2.6990 F   0  0  0  0  0
   14.6940  -12.1440   -2.4900 C   0  0  0  0  0
   14.7110  -11.9560   -1.1500 F   0  0  0  0  0
   13.4650  -11.8010   -2.8970 F   0  0  0  0  0
   15.7780  -11.3810   -3.1950 C   0  0  0  0  0
   15.7580  -11.3070   -4.5940 C   0  0  0  0  0
   16.7720  -10.7850   -2.4600 C   0  0  0  0  0
   17.7720  -10.0840   -3.1460 C   0  0  0  0  0
   17.7570   -9.9920   -4.5430 C   0  0  0  0  0
   16.7490  -10.5960   -5.2430 C   0  0  0  0  0
   16.7980  -10.4820   -6.6580 N   0  0  0  0  0
   15.6830  -10.7260   -7.4940 C   0  0  0  0  0
   14.5940  -11.0040   -7.1140 O   0  0  0  0  0
   16.0440  -10.6280   -8.8480 N   0  0  0  0  0
   14.9130  -10.6620   -9.8170 C   0  0  0  0  0
   15.1350  -11.3300  -11.0220 C   0  0  0  0  0
   14.4470  -10.9780  -12.3180 C   0  0  0  0  0
   15.5270  -12.7090  -10.8590 O   0  0  0  0  0
   16.7420  -13.3060  -11.2360 C   0  0  0  0  0
   16.6940  -14.6670  -10.9720 O   0  0  0  0  0
   17.8590  -12.6120  -10.4480 C   0  0  0  0  0
   14.5160   -9.2600  -10.0380 C   0  0  0  0  0
   13.3460   -9.2020  -11.0340 C   0  0  0  0  0
   13.7580   -9.6830  -12.3210 N   0  3  0  0  0
   12.8400   -9.5890  -13.2180 C   0  0  0  0  0
   12.1780   -8.2060  -13.3370 C   0  0  0  0  0
   10.8810   -7.9530  -12.8000 C   0  0  0  0  0
   10.3120   -6.6770  -12.9030 C   0  0  0  0  0
   11.0070   -5.6610  -13.5030 C   0  0  0  0  0
   12.3090   -5.9040  -14.0420 C   0  0  0  0  0
   12.8580   -7.1560  -13.9510 C   0  0  0  0  0
   14.9715  -11.8035   -5.1624 H   0  0  0  0  0
   16.7830  -10.8552   -1.3723 H   0  0  0  0  0
   18.5731   -9.6034   -2.5844 H   0  0  0  0  0
   18.5404   -9.4448   -5.0673 H   0  0  0  0  0
   17.6801  -10.2110   -7.0926 H   0  0  0  0  0
   17.0150  -10.5395   -9.1475 H   0  0  0  0  0
   14.1214  -11.2664   -9.3742 H   0  0  0  0  0
   15.9910  -10.7222  -11.3151 H   0  0  0  0  0
   13.6864  -11.7400  -12.4880 H   0  0  0  0  0
   15.2226  -10.9240  -13.0819 H   0  0  0  0  0
   16.9293  -13.1923  -12.3037 H   0  0  0  0  0
   17.5253  -15.0715  -11.2307 H   0  0  0  0  0
   17.8651  -11.5489  -10.6885 H   0  0  0  0  0
   17.6841  -12.7433   -9.3802 H   0  0  0  0  0
   18.8192  -13.0522  -10.7171 H   0  0  0  0  0
   15.3622   -8.7049  -10.4428 H   0  0  0  0  0
   14.2055   -8.8193   -9.0906 H   0  0  0  0  0
   13.0148   -8.1681  -11.1316 H   0  0  0  0  0
   12.5348   -9.8292  -10.6645 H   0  0  0  0  0
   14.4896   -9.0292  -12.5998 H   0  0  0  0  0
   12.0535  -10.2885  -12.9347 H   0  0  0  0  0
   13.3181   -9.7901  -14.1767 H   0  0  0  0  0
   10.3308   -8.7550  -12.3079 H   0  0  0  0  0
    9.3142   -6.4925  -12.5048 H   0  0  0  0  0
   10.5672   -4.6659  -13.5698 H   0  0  0  0  0
   12.8620   -5.0971  -14.5229 H   0  0  0  0  0
   13.8490   -7.3348  -14.3683 H   0  0  0  0  0
  1  2  1  0  0  0
  2  3  1  0  0  0
  2  4  1  0  0  0
  2  5  1  0  0  0
  5  6  4  0  0  0
  5  7  4  0  0  0
  6 10  4  0  0  0
  7  8  4  0  0  0
  8  9  4  0  0  0
  9 10  4  0  0  0
 10 11  1  0  0  0
 11 12  1  0  0  0
 12 13  2  0  0  0
 12 14  1  0  0  0
 14 15  1  0  0  0
 15 16  1  0  0  0
 15 22  1  0  0  0
 16 17  1  0  0  0
 16 18  1  0  0  0
 17 24  1  0  0  0
 18 19  1  0  0  0
 19 20  1  0  0  0
 19 21  1  0  0  0
 22 23  1  0  0  0
 23 24  1  0  0  0
 24 25  1  0  0  0
 25 26  1  0  0  0
 26 27  4  0  0  0
 26 31  4  0  0  0
 27 28  4  0  0  0
 28 29  4  0  0  0
 29 30  4  0  0  0
 30 31  4  0  0  0
  6 32  1  0  0  0
  7 33  1  0  0  0
  8 34  1  0  0  0
  9 35  1  0  0  0
 11 36  1  0  0  0
 14 37  1  0  0  0
 15 38  1  0  0  0
 16 39  1  0  0  0
 17 40  1  0  0  0
 17 41  1  0  0  0
 19 42  1  0  0  0
 20 43  1  0  0  0
 21 44  1  0  0  0
 21 45  1  0  0  0
 21 46  1  0  0  0
 22 47  1  0  0  0
 22 48  1  0  0  0
 23 49  1  0  0  0
 23 50  1  0  0  0
 24 51  1  0  0  0
 25 52  1  0  0  0
 25 53  1  0  0  0
 27 54  1  0  0  0
 28 55  1  0  0  0
 29 56  1  0  0  0
 30 57  1  0  0  0
 31 58  1  0  0  0
M  END
$$$$
