4y2b_ligand
  -I-interpret- 

 44 46  0  0  0  0  0  0  0  0999 V2000
  -45.6810   25.0970   -0.6960 C   0  0  0  0  0
  -46.0270   26.2260   -1.3900 C   0  0  0  0  0
  -43.6650   26.8250   -1.4480 C   0  0  0  0  0
  -43.3200   25.6250   -0.7300 N   0  0  0  0  0
  -45.0390   27.1110   -1.7960 N   0  0  0  0  0
  -44.3350   24.7630   -0.3840 C   0  0  0  0  0
  -47.4490   26.3640   -1.6310 C   0  0  0  0  0
  -47.1480   24.2310   -0.3050 S   0  0  0  0  0
  -48.2050   25.3340   -1.1010 C   0  0  0  0  0
  -42.6890   27.7630   -1.8830 N   0  0  0  0  0
  -43.9990   23.6280    0.3080 O   0  0  0  0  0
  -48.0410   27.4590   -2.4100 C   0  0  0  0  0
  -48.2760   29.6560   -3.3950 N   0  0  0  0  0
  -41.9370   25.2830   -0.3840 C   0  0  0  0  0
  -47.5160   28.7450   -2.5170 C   0  0  0  0  0
  -43.1930   28.9960   -2.4960 C   0  0  0  0  0
  -49.3460   29.2270   -4.0410 C   0  0  0  0  0
  -49.2200   26.9790   -3.1260 C   0  0  0  0  0
  -41.3210   24.5580   -1.5650 C   0  0  0  0  0
  -43.4670   29.9290   -1.3470 C   0  0  0  0  0
  -42.0800   29.5570   -3.3330 C   0  0  0  0  0
  -49.8800   27.8440   -3.8800 C   0  0  0  0  0
  -43.2175   26.3761   -0.5612 H   0  0  0  0  0
  -45.2771   27.9471   -2.3295 H   0  0  0  0  0
  -44.9904   24.1474   -1.0001 H   0  0  0  0  0
  -49.2881   25.2366   -1.1747 H   0  0  0  0  0
  -42.1457   27.2904   -2.6054 H   0  0  0  0  0
  -44.7918   23.1168    0.4862 H   0  0  0  0  0
  -41.9177   24.6453    0.4998 H   0  0  0  0  0
  -41.3708   26.1875   -0.1617 H   0  0  0  0  0
  -46.6124   29.0549   -1.9921 H   0  0  0  0  0
  -44.0812   28.8459   -3.1097 H   0  0  0  0  0
  -49.8582   29.9107   -4.7179 H   0  0  0  0  0
  -49.5459   25.9422   -3.0422 H   0  0  0  0  0
  -41.8917   23.6527   -1.7718 H   0  0  0  0  0
  -41.3400   25.2087   -2.4393 H   0  0  0  0  0
  -40.2901   24.2934   -1.3298 H   0  0  0  0  0
  -44.2072   29.4801   -0.6847 H   0  0  0  0  0
  -42.5435   30.1051   -0.7955 H   0  0  0  0  0
  -43.8480   30.8750   -1.7317 H   0  0  0  0  0
  -41.2192   29.7660   -2.6978 H   0  0  0  0  0
  -41.8013   28.8320   -4.0978 H   0  0  0  0  0
  -42.4142   30.4788   -3.8090 H   0  0  0  0  0
  -50.8036   27.5486   -4.3777 H   0  0  0  0  0
  2  1  4  0  0  0
  1  6  1  0  0  0
  1  8  4  0  0  0
  5  2  1  0  0  0
  2  7  4  0  0  0
  3  4  1  0  0  0
  3  5  1  0  0  0
  3 10  1  0  0  0
  4  6  1  0  0  0
  4 14  1  0  0  0
  6 11  1  0  0  0
  7  9  4  0  0  0
  7 12  1  0  0  0
  8  9  4  0  0  0
 10 16  1  0  0  0
 12 15  4  0  0  0
 12 18  4  0  0  0
 15 13  4  0  0  0
 13 17  4  0  0  0
 14 19  1  0  0  0
 16 20  1  0  0  0
 16 21  1  0  0  0
 17 22  4  0  0  0
 18 22  4  0  0  0
  3 23  1  0  0  0
  5 24  1  0  0  0
  6 25  1  0  0  0
  9 26  1  0  0  0
 10 27  1  0  0  0
 11 28  1  0  0  0
 14 29  1  0  0  0
 14 30  1  0  0  0
 15 31  1  0  0  0
 16 32  1  0  0  0
 17 33  1  0  0  0
 18 34  1  0  0  0
 19 35  1  0  0  0
 19 36  1  0  0  0
 19 37  1  0  0  0
 20 38  1  0  0  0
 20 39  1  0  0  0
 20 40  1  0  0  0
 21 41  1  0  0  0
 21 42  1  0  0  0
 21 43  1  0  0  0
 22 44  1  0  0  0
M  END
$$$$
