3bm6_ligand
  -I-interpret- 

 44 46  0  0  0  0  0  0  0  0999 V2000
   71.5070    6.0210   28.7170 C   0  0  0  0  0
   72.7500    5.5840   32.3770 N   0  0  0  0  0
   75.1540    8.1210   26.9730 C   0  0  0  0  0
   74.2120    9.1680   26.5730 C   0  0  0  0  0
   74.2010   10.4560   27.2790 C   0  0  0  0  0
   75.1220   10.7060   28.3780 C   0  0  0  0  0
   76.0700    9.6680   28.7870 C   0  0  0  0  0
   76.8370    6.6020   30.1970 C   0  0  0  0  0
   75.6430    5.8430   30.4870 C   0  0  0  0  0
   72.0320    4.1360   27.1770 O   0  0  0  0  0
   71.8550    5.4130   29.9850 C   0  0  0  0  0
   72.3830    6.2330   31.0760 C   0  0  0  0  0
   72.5640    7.6840   30.8560 C   0  0  0  0  0
   74.4930    4.6490   33.9880 O   0  0  0  0  0
   75.5250    5.5890   31.8080 C   0  0  0  0  0
   72.2030    8.2580   29.6020 C   0  0  0  0  0
   76.9940    5.9460   27.6920 O   0  0  0  0  0
   71.6800    7.4450   28.5420 C   0  0  0  0  0
   77.5650    6.8860   31.2900 C   0  0  0  0  0
   74.0440    3.4240   31.8950 O   0  0  0  0  0
   73.1390    8.5260   31.9720 C   0  0  0  0  0
   73.4990    8.1070   33.1370 O   0  0  0  0  0
   74.2020    4.6940   32.5780 S   0  0  0  0  0
   73.2930    9.7720   31.7290 O   0  0  0  0  0
   70.6700    5.9540   26.3240 O   0  0  0  0  0
   77.2610    7.0850   28.5860 S   0  0  0  0  0
   76.8440    6.2470   32.7790 S   0  0  0  0  0
   78.4720    7.8000   28.6040 O   0  0  0  0  0
   76.0990    8.3500   28.0850 C   0  0  0  0  0
   70.9690    5.1450   27.5240 B   0  0  0  0  0
   72.1143    5.6750   33.1695 H   0  0  0  0  0
   75.1580    7.1664   26.4469 H   0  0  0  0  0
   73.5185    8.9916   25.7508 H   0  0  0  0  0
   73.4969   11.2314   26.9772 H   0  0  0  0  0
   75.1059   11.6650   28.8959 H   0  0  0  0  0
   76.7594    9.8584   29.6095 H   0  0  0  0  0
   74.9265    5.5160   29.7335 H   0  0  0  0  0
   72.2329    3.6054   27.9514 H   0  0  0  0  0
   71.7230    4.3404   30.1270 H   0  0  0  0  0
   72.3261    9.3298   29.4464 H   0  0  0  0  0
   71.4097    7.9072   27.5926 H   0  0  0  0  0
   78.4983    7.4486   31.2643 H   0  0  0  0  0
   73.3365    7.1630   33.2006 H   0  0  0  0  0
   69.9928    6.6005   26.5359 H   0  0  0  0  0
 11  1  4  0  0  0
  1 18  4  0  0  0
  1 30  1  0  0  0
  2 12  1  0  0  0
 23  2  1  0  0  0
  3  4  4  0  0  0
 29  3  4  0  0  0
  4  5  4  0  0  0
  6  5  4  0  0  0
  7  6  4  0  0  0
 29  7  4  0  0  0
  8  9  4  0  0  0
  8 19  4  0  0  0
 26  8  1  0  0  0
  9 15  4  0  0  0
 30 10  1  0  0  0
 12 11  4  0  0  0
 12 13  4  0  0  0
 13 16  4  0  0  0
 13 21  1  0  0  0
 23 14  2  0  0  0
 15 23  1  0  0  0
 27 15  4  0  0  0
 16 18  4  0  0  0
 26 17  2  0  0  0
 19 27  4  0  0  0
 23 20  2  0  0  0
 21 22  1  0  0  0
 21 24  2  0  0  0
 30 25  1  0  0  0
 26 28  2  0  0  0
 26 29  1  0  0  0
  2 31  1  0  0  0
  3 32  1  0  0  0
  4 33  1  0  0  0
  5 34  1  0  0  0
  6 35  1  0  0  0
  7 36  1  0  0  0
  9 37  1  0  0  0
 10 38  1  0  0  0
 11 39  1  0  0  0
 16 40  1  0  0  0
 18 41  1  0  0  0
 19 42  1  0  0  0
 22 43  1  0  0  0
 25 44  1  0  0  0
M  END
$$$$
