### 
### Created by X-TOOL on Mon Sep 10 21:13:01 2018
### 

@<TRIPOS>MOLECULE
3bm6_ligand
   43    45     1     0     0
SMALL
GAST_HUCK


@<TRIPOS>ATOM
      1 C1         71.5070    6.0210   28.7170 C.ar      1 C9P        -0.1954
      2 N1         72.7500    5.5840   32.3770 N.am      1 C9P        -0.2028
      3 C16        75.1540    8.1210   26.9730 C.ar      1 C9P        -0.0367
      4 C15        74.2120    9.1680   26.5730 C.ar      1 C9P        -0.0600
      5 C14        74.2010   10.4560   27.2790 C.ar      1 C9P        -0.0616
      6 C13        75.1220   10.7060   28.3780 C.ar      1 C9P        -0.0600
      7 C12        76.0700    9.6680   28.7870 C.ar      1 C9P        -0.0367
      8 C8         76.8370    6.6020   30.1970 C.2       1 C9P         0.0780
      9 C9         75.6430    5.8430   30.4870 C.2       1 C9P        -0.0267
     10 O1         72.0320    4.1360   27.1770 O.3       1 C9P        -0.8710
     11 C2         71.8550    5.4130   29.9850 C.ar      1 C9P        -0.1482
     12 C3         72.3830    6.2330   31.0760 C.ar      1 C9P        -0.0130
     13 C4         72.5640    7.6840   30.8560 C.ar      1 C9P        -0.0888
     14 O4         74.4930    4.6490   33.9880 O.2       1 C9P        -0.1441
     15 C10        75.5250    5.5890   31.8080 C.2       1 C9P         0.1680
     16 C5         72.2030    8.2580   29.6020 C.ar      1 C9P        -0.1711
     17 O5         76.9940    5.9460   27.6920 O.2       1 C9P        -0.1673
     18 C6         71.6800    7.4450   28.5420 C.ar      1 C9P        -0.1744
     19 C7         77.5650    6.8860   31.2900 C.2       1 C9P         0.0183
     20 O3         74.0440    3.4240   31.8950 O.2       1 C9P        -0.1441
     21 C01        73.1390    8.5260   31.9720 C.2       1 C9P        -0.0145
     22 O01        73.4990    8.1070   33.1370 O.co2     1 C9P        -0.5953
     23 S1         74.2020    4.6940   32.5780 S.o2      1 C9P         0.0971
     24 O02        73.2930    9.7720   31.7290 O.co2     1 C9P        -0.5953
     25 O2         70.6700    5.9540   26.3240 O.3       1 C9P        -0.8710
     26 S2         77.2610    7.0850   28.5860 S.o2      1 C9P         0.0139
     27 S3         76.8440    6.2470   32.7790 S.3       1 C9P        -0.0154
     28 O6         78.4720    7.8000   28.6040 O.2       1 C9P        -0.1673
     29 C11        76.0990    8.3500   28.0850 C.ar      1 C9P         0.0904
     30 B          70.9690    5.1450   27.5240 B         1 C9P         3.0000
     31 H          72.1143    5.6750   33.1695 H         1 C9P         0.2153
     32 H          75.1580    7.1664   26.4469 H         1 C9P         0.0637
     33 H          73.5185    8.9916   25.7508 H         1 C9P         0.0618
     34 H          73.4969   11.2314   26.9772 H         1 C9P         0.0618
     35 H          75.1059   11.6650   28.8959 H         1 C9P         0.0618
     36 H          76.7594    9.8584   29.6095 H         1 C9P         0.0637
     37 H          74.9265    5.5160   29.7335 H         1 C9P         0.0442
     38 H          72.2329    3.6054   27.9514 H         1 C9P        -0.1290
     39 H          71.7230    4.3404   30.1270 H         1 C9P        -0.0109
     40 H          72.3261    9.3298   29.4464 H         1 C9P        -0.0061
     41 H          71.4097    7.9072   27.5926 H         1 C9P         0.0250
     42 H          78.4983    7.4486   31.2643 H         1 C9P         0.0730
     43 H          69.9928    6.6005   26.5359 H         1 C9P        -0.1290
@<TRIPOS>BOND
     1   11    1 ar 
     2    1   18 ar 
     3    1   30 1  
     4    2   12 1  
     5   23    2 am 
     6    3    4 ar 
     7   29    3 ar 
     8    4    5 ar 
     9    6    5 ar 
    10    7    6 ar 
    11   29    7 ar 
    12    8    9 1  
    13    8   19 2  
    14   26    8 1  
    15    9   15 2  
    16   30   10 1  
    17   12   11 ar 
    18   12   13 ar 
    19   13   16 ar 
    20   13   21 1  
    21   23   14 2  
    22   15   23 1  
    23   27   15 1  
    24   16   18 ar 
    25   26   17 2  
    26   19   27 1  
    27   23   20 2  
    28   21   22 ar 
    29   21   24 ar 
    30   30   25 1  
    31   26   28 2  
    32   26   29 1  
    33    2   31 1  
    34    3   32 1  
    35    4   33 1  
    36    5   34 1  
    37    6   35 1  
    38    7   36 1  
    39    9   37 1  
    40   10   38 1  
    41   11   39 1  
    42   16   40 1  
    43   18   41 1  
    44   19   42 1  
    45   25   43 1  
@<TRIPOS>SUBSTRUCTURE
     1 C9P         1

