4x5y_ligand
  -I-interpret- 

 67 72  0  0  0  0  0  0  0  0999 V2000
   13.2190    7.6460   12.4760 C   0  0  0  0  0
   13.4720    8.9790   12.3900 C   0  0  0  0  0
   12.4540    9.8010   12.0100 C   0  0  0  0  0
   11.2420    9.3100   11.7230 N   0  0  0  0  0
   12.0340    7.1030   12.1770 N   0  0  0  0  0
   17.5890    8.5180   11.1750 F   0  0  0  0  0
   17.8130    7.6790   12.1810 C   0  0  0  0  0
   19.0970    7.7260   12.5190 F   0  0  0  0  0
   17.4990    6.4430   11.8050 F   0  0  0  0  0
   16.9210    8.0960   13.4280 C   0  0  0  0  0
   15.4590    8.1370   13.0410 C   0  0  0  0  0
   14.5400    6.8880   12.9860 S   0  0  0  0  0
   14.7740    9.2300   12.7230 C   0  0  0  0  0
   10.9850    7.9420   11.8160 C   0  0  0  0  0
   12.6560   11.1390   11.9230 N   0  0  0  0  0
   11.6210   12.1460   11.5470 C   0  0  0  0  0
   11.6900   13.3280   12.5000 C   0  0  0  0  0
   10.7090   14.4040   12.1390 C   0  0  0  0  0
   11.8540   12.7020   10.1390 C   0  0  0  0  0
   10.9590   13.9440    9.8710 C   0  0  0  0  0
   11.1160   15.0030   10.8720 N   0  3  0  0  0
   10.1480   16.0890   10.5420 C   0  0  0  0  0
   10.1930   17.2910   11.3010 C   0  0  0  0  0
    9.0460   17.7770   11.9370 C   0  0  0  0  0
    7.8640   17.0530   11.8410 C   0  0  0  0  0
   11.3470   18.0550   11.4110 C   0  0  0  0  0
   11.2980   19.2330   12.1590 C   0  0  0  0  0
   10.1750   19.6460   12.7550 C   0  0  0  0  0
    9.0540   18.9260   12.6460 C   0  0  0  0  0
    8.0990   19.5780   13.3400 C   0  0  0  0  0
    8.6400   20.6890   13.8580 C   0  0  0  0  0
    8.0330   21.6320   14.6380 C   0  0  0  0  0
    7.6000   22.3580   15.2280 N   0  0  0  0  0
    9.9010   20.7310   13.4940 N   0  0  0  0  0
   10.7870   21.7980   13.9170 C   0  0  0  0  0
   10.8980   22.9770   12.9640 C   0  0  0  0  0
    9.9660   23.8200   12.5960 C   0  0  0  0  0
   10.6140   24.6300   11.7650 N   0  0  0  0  0
   11.7590   24.3490   11.6290 N   0  0  0  0  0
   12.0360   23.2880   12.3700 C   0  0  0  0  0
   17.2261    9.0858   13.7674 H   0  0  0  0  0
   17.0573    7.3627   14.2229 H   0  0  0  0  0
   15.2080   10.2299   12.7272 H   0  0  0  0  0
    9.9916    7.5425   11.6118 H   0  0  0  0  0
   13.5923   11.4856   12.1317 H   0  0  0  0  0
   10.6558   11.6414   11.5906 H   0  0  0  0  0
   12.6932   13.7507   12.4444 H   0  0  0  0  0
   11.4491   12.9711   13.5014 H   0  0  0  0  0
   10.6907   15.1650   12.9192 H   0  0  0  0  0
    9.7106   13.9774   12.0429 H   0  0  0  0  0
   11.6028   11.9286    9.4132 H   0  0  0  0  0
   12.8987   13.0000   10.0508 H   0  0  0  0  0
    9.9208   13.6134    9.9032 H   0  0  0  0  0
   11.2527   14.3581    8.9064 H   0  0  0  0  0
   12.0654   15.3745   10.9050 H   0  0  0  0  0
    9.1640   15.6637   10.7394 H   0  0  0  0  0
   10.3902   16.3867    9.5218 H   0  0  0  0  0
    7.5786   16.9630   10.7929 H   0  0  0  0  0
    8.0123   16.0599   12.2651 H   0  0  0  0  0
    7.0771   17.5701   12.3900 H   0  0  0  0  0
   12.2707   17.7422   10.9242 H   0  0  0  0  0
   12.2021   19.8335   12.2599 H   0  0  0  0  0
    7.0644   19.2563   13.4591 H   0  0  0  0  0
   11.7837   21.3626   13.9878 H   0  0  0  0  0
   10.3767   22.1901   14.8476 H   0  0  0  0  0
    8.9187   23.8500   12.8966 H   0  0  0  0  0
   12.9956   22.7806   12.4687 H   0  0  0  0  0
  1  2  4  0  0  0
  1  5  4  0  0  0
 12  1  4  0  0  0
  2  3  4  0  0  0
  2 13  4  0  0  0
  3  4  4  0  0  0
  3 15  1  0  0  0
 14  4  4  0  0  0
  5 14  4  0  0  0
  7  6  1  0  0  0
  7  8  1  0  0  0
  7  9  1  0  0  0
 10  7  1  0  0  0
 11 10  1  0  0  0
 11 12  4  0  0  0
 11 13  4  0  0  0
 15 16  1  0  0  0
 16 17  1  0  0  0
 16 19  1  0  0  0
 17 18  1  0  0  0
 18 21  1  0  0  0
 19 20  1  0  0  0
 20 21  1  0  0  0
 21 22  1  0  0  0
 22 23  1  0  0  0
 23 24  4  0  0  0
 23 26  4  0  0  0
 24 25  1  0  0  0
 24 29  4  0  0  0
 26 27  4  0  0  0
 27 28  4  0  0  0
 28 29  4  0  0  0
 28 34  4  0  0  0
 29 30  4  0  0  0
 30 31  4  0  0  0
 31 32  1  0  0  0
 31 34  4  0  0  0
 32 33  3  0  0  0
 34 35  1  0  0  0
 35 36  1  0  0  0
 36 37  4  0  0  0
 36 40  4  0  0  0
 37 38  4  0  0  0
 38 39  4  0  0  0
 39 40  4  0  0  0
 10 41  1  0  0  0
 10 42  1  0  0  0
 13 43  1  0  0  0
 14 44  1  0  0  0
 15 45  1  0  0  0
 16 46  1  0  0  0
 17 47  1  0  0  0
 17 48  1  0  0  0
 18 49  1  0  0  0
 18 50  1  0  0  0
 19 51  1  0  0  0
 19 52  1  0  0  0
 20 53  1  0  0  0
 20 54  1  0  0  0
 21 55  1  0  0  0
 22 56  1  0  0  0
 22 57  1  0  0  0
 25 58  1  0  0  0
 25 59  1  0  0  0
 25 60  1  0  0  0
 26 61  1  0  0  0
 27 62  1  0  0  0
 30 63  1  0  0  0
 35 64  1  0  0  0
 35 65  1  0  0  0
 37 66  1  0  0  0
 40 67  1  0  0  0
M  END
$$$$
