### 
### Created by X-TOOL on Mon Sep 10 21:13:16 2018
### 

@<TRIPOS>MOLECULE
2m0v_ligand
   89    88     1     0     0
SMALL
GAST_HUCK


@<TRIPOS>ATOM
      1 N           5.2720   30.6500    9.8220 N.4       1 GLN         0.2380
      2 CA          5.9900   30.5590    8.5290 C.3       1 GLN         0.0671
      3 C           5.2860   29.5540    7.6230 C.2       1 GLN         0.2269
      4 O           4.4290   29.9330    6.8180 O.2       1 GLN        -0.3907
      5 CB          7.4490   30.1500    8.7670 C.3       1 GLN         0.0247
      6 CG          8.3220   30.2300    7.5250 C.3       1 GLN         0.0443
      7 CD          9.7700   29.8700    7.8060 C.2       1 GLN         0.1738
      8 OE1        10.0680   29.0660    8.6930 O.2       1 GLN        -0.3973
      9 NE2        10.6810   30.4720    7.0580 N.am      1 GLN        -0.3009
     10 N           5.6390   28.2760    7.7760 N.am      1 ASP        -0.2595
     11 CA          4.9300   27.1770    7.1130 C.3       1 ASP         0.1424
     12 C           4.9960   27.2690    5.5930 C.2       1 ASP         0.2057
     13 O           5.7040   28.1010    5.0240 O.2       1 ASP        -0.3943
     14 CB          3.4520   27.1550    7.5270 C.3       1 ASP         0.0406
     15 CG          3.2280   26.8650    8.9930 C.2       1 ASP         0.0393
     16 OD1         3.8970   27.4820    9.8460 O.co2     1 ASP        -0.5688
     17 OD2         2.3550   26.0260    9.2990 O.co2     1 ASP        -0.5688
     18 N           4.2600   26.3710    4.9570 N.am      1 THR        -0.2612
     19 CA          4.0370   26.3900    3.5230 C.3       1 THR         0.1565
     20 C           2.6280   25.8860    3.2450 C.2       1 THR         0.2065
     21 O           2.2930   24.7550    3.5900 O.2       1 THR        -0.3943
     22 CB          5.0500   25.4910    2.7860 C.3       1 THR         0.0924
     23 OG1         6.3850   25.9360    3.0540 O.3       1 THR        -0.3874
     24 CG2         4.8070   25.5000    1.2820 C.3       1 THR        -0.0346
     25 N           1.7960   26.7150    2.6500 N.am      1 ARG        -0.2637
     26 CA          0.4310   26.3110    2.3710 C.3       1 ARG         0.1310
     27 C           0.2400   26.0000    0.8990 C.2       1 ARG         0.2033
     28 O           0.7510   26.7060    0.0280 O.2       1 ARG        -0.3944
     29 CB         -0.5720   27.3740    2.8190 C.3       1 ARG        -0.0092
     30 CG         -1.0790   27.1720    4.2340 C.3       1 ARG        -0.0156
     31 CD         -2.3650   27.9450    4.4810 C.3       1 ARG         0.0627
     32 NE         -3.4110   27.5740    3.5270 N.pl3     1 ARG        -0.2723
     33 CZ         -4.6980   27.4120    3.8380 C.cat     1 ARG         0.2882
     34 NH1        -5.1150   27.5680    5.0910 N.pl3     1 ARG        -0.2849
     35 NH2        -5.5650   27.0760    2.8910 N.pl3     1 ARG        -0.2849
     36 N          -0.4900   24.9310    0.6400 N.am      1 LEU        -0.2695
     37 CA         -0.8160   24.5150   -0.7090 C.3       1 LEU         0.0946
     38 C          -2.2620   24.0500   -0.7460 C.2       1 LEU         0.0601
     39 O          -3.1630   24.9090   -0.7990 O.co2     1 LEU        -0.5666
     40 CB          0.1150   23.3850   -1.1670 C.3       1 LEU        -0.0156
     41 CG          1.5500   23.8040   -1.5080 C.3       1 LEU        -0.0431
     42 CD1         2.4730   22.5980   -1.5160 C.3       1 LEU        -0.0625
     43 CD2         1.5930   24.5000   -2.8620 C.3       1 LEU        -0.0625
     44 OXT        -2.4980   22.8310   -0.7090 O.co2     1 LEU        -0.5666
     45 H1          5.7386   31.3145   10.4193 H         1 GLN         0.2015
     46 H2          5.2649   29.7455   10.2668 H         1 GLN         0.2015
     47 H3          4.3241   30.9520    9.6595 H         1 GLN         0.2015
     48 H4          5.9754   31.5453    8.0423 H         1 GLN         0.1100
     49 H5          7.4626   29.1130    9.1335 H         1 GLN         0.0370
     50 H6          7.8746   30.8152    9.5328 H         1 GLN         0.0370
     51 H7          8.2839   31.2570    7.1329 H         1 GLN         0.0506
     52 H8          7.9260   29.5345    6.7704 H         1 GLN         0.0506
     53 H9         11.6515   30.2751    7.1968 H         1 GLN         0.1814
     54 H10        10.3987   31.1238    6.3540 H         1 GLN         0.1814
     55 H11         6.4171   28.0596    8.3656 H         1 ASP         0.1886
     56 H12         5.4003   26.2330    7.4254 H         1 ASP         0.0819
     57 H13         2.9397   26.3793    6.9389 H         1 ASP         0.0478
     58 H14         3.0141   28.1378    7.2981 H         1 ASP         0.0478
     59 H15         3.8354   25.6412    5.4928 H         1 THR         0.1884
     60 H16         4.1390   27.4217    3.1555 H         1 THR         0.0826
     61 H17         4.9364   24.4609    3.1547 H         1 THR         0.0639
     62 H18         7.0018   25.3769    2.5964 H         1 THR         0.2101
     63 H19         5.5445   24.8507    0.7876 H         1 THR         0.0257
     64 H20         4.9082   26.5267    0.9003 H         1 THR         0.0257
     65 H21         3.7929   25.1291    1.0722 H         1 THR         0.0257
     66 H22         2.1070   27.6288    2.3888 H         1 ARG         0.1883
     67 H23         0.2297   25.3926    2.9419 H         1 ARG         0.0800
     68 H24        -1.4328   27.3505    2.1345 H         1 ARG         0.0313
     69 H25        -0.0845   28.3584    2.7615 H         1 ARG         0.0313
     70 H26        -0.3118   27.5193    4.9416 H         1 ARG         0.0301
     71 H27        -1.2692   26.1008    4.3960 H         1 ARG         0.0301
     72 H28        -2.1586   29.0210    4.3831 H         1 ARG         0.0689
     73 H29        -2.7196   27.7308    5.5000 H         1 ARG         0.0689
     74 H30        -3.1337   27.4276    2.5459 H         1 ARG         0.2642
     75 H31        -6.1107   27.4409    5.3220 H         1 ARG         0.2615
     76 H32        -4.4423   27.8159    5.8306 H         1 ARG         0.2615
     77 H33        -5.2451   26.9544    1.9195 H         1 ARG         0.2615
     78 H34        -6.5578   26.9368    3.1275 H         1 ARG         0.2615
     79 H35        -0.8318   24.3863    1.4059 H         1 LEU         0.1875
     80 H36        -0.6948   25.3717   -1.3883 H         1 LEU         0.0726
     81 H37        -0.3257   22.9266   -2.0646 H         1 LEU         0.0308
     82 H38         0.1633   22.6388   -0.3603 H         1 LEU         0.0308
     83 H39         1.9000   24.5086   -0.7392 H         1 LEU         0.0297
     84 H40         3.4954   22.9204   -1.7624 H         1 LEU         0.0232
     85 H41         2.1252   21.8750   -2.2686 H         1 LEU         0.0232
     86 H42         2.4670   22.1251   -0.5229 H         1 LEU         0.0232
     87 H43         0.9222   25.3717   -2.8476 H         1 LEU         0.0232
     88 H44         1.2671   23.7995   -3.6449 H         1 LEU         0.0232
     89 H45         2.6207   24.8316   -3.0714 H         1 LEU         0.0232
@<TRIPOS>BOND
     1    1    2 1  
     2    2    3 1  
     3    2    5 1  
     4    3    4 2  
     5    3   10 am 
     6    5    6 1  
     7    6    7 1  
     8    7    8 2  
     9    7    9 am 
    10   10   11 1  
    11   11   12 1  
    12   11   14 1  
    13   12   13 2  
    14   12   18 am 
    15   14   15 1  
    16   15   16 ar 
    17   15   17 ar 
    18   18   19 1  
    19   19   20 1  
    20   19   22 1  
    21   20   21 2  
    22   20   25 am 
    23   22   23 1  
    24   22   24 1  
    25   25   26 1  
    26   26   27 1  
    27   26   29 1  
    28   27   28 2  
    29   27   36 am 
    30   29   30 1  
    31   30   31 1  
    32   31   32 1  
    33   32   33 ar 
    34   33   34 ar 
    35   33   35 ar 
    36   36   37 1  
    37   37   38 1  
    38   37   40 1  
    39   38   39 ar 
    40   38   44 ar 
    41   40   41 1  
    42   41   42 1  
    43   41   43 1  
    44    1   45 1  
    45    1   46 1  
    46    1   47 1  
    47    2   48 1  
    48    5   49 1  
    49    5   50 1  
    50    6   51 1  
    51    6   52 1  
    52    9   53 1  
    53    9   54 1  
    54   10   55 1  
    55   11   56 1  
    56   14   57 1  
    57   14   58 1  
    58   18   59 1  
    59   19   60 1  
    60   22   61 1  
    61   23   62 1  
    62   24   63 1  
    63   24   64 1  
    64   24   65 1  
    65   25   66 1  
    66   26   67 1  
    67   29   68 1  
    68   29   69 1  
    69   30   70 1  
    70   30   71 1  
    71   31   72 1  
    72   31   73 1  
    73   32   74 1  
    74   34   75 1  
    75   34   76 1  
    76   35   77 1  
    77   35   78 1  
    78   36   79 1  
    79   37   80 1  
    80   40   81 1  
    81   40   82 1  
    82   41   83 1  
    83   42   84 1  
    84   42   85 1  
    85   42   86 1  
    86   43   87 1  
    87   43   88 1  
    88   43   89 1  
@<TRIPOS>SUBSTRUCTURE
     1 GLN         1

