2m0v_ligand
  -I-interpret- 

 90 89  0  0  0  0  0  0  0  0999 V2000
    5.2720   30.6500    9.8220 N   0  3  0  0  0
    5.9900   30.5590    8.5290 C   0  0  0  0  0
    5.2860   29.5540    7.6230 C   0  0  0  0  0
    4.4290   29.9330    6.8180 O   0  0  0  0  0
    7.4490   30.1500    8.7670 C   0  0  0  0  0
    8.3220   30.2300    7.5250 C   0  0  0  0  0
    9.7700   29.8700    7.8060 C   0  0  0  0  0
   10.0680   29.0660    8.6930 O   0  0  0  0  0
   10.6810   30.4720    7.0580 N   0  0  0  0  0
    5.6390   28.2760    7.7760 N   0  0  0  0  0
    4.9300   27.1770    7.1130 C   0  0  0  0  0
    4.9960   27.2690    5.5930 C   0  0  0  0  0
    5.7040   28.1010    5.0240 O   0  0  0  0  0
    3.4520   27.1550    7.5270 C   0  0  0  0  0
    3.2280   26.8650    8.9930 C   0  0  0  0  0
    3.8970   27.4820    9.8460 O   0  0  0  0  0
    2.3550   26.0260    9.2990 O   0  0  0  0  0
    4.2600   26.3710    4.9570 N   0  0  0  0  0
    4.0370   26.3900    3.5230 C   0  0  0  0  0
    2.6280   25.8860    3.2450 C   0  0  0  0  0
    2.2930   24.7550    3.5900 O   0  0  0  0  0
    5.0500   25.4910    2.7860 C   0  0  0  0  0
    6.3850   25.9360    3.0540 O   0  0  0  0  0
    4.8070   25.5000    1.2820 C   0  0  0  0  0
    1.7960   26.7150    2.6500 N   0  0  0  0  0
    0.4310   26.3110    2.3710 C   0  0  0  0  0
    0.2400   26.0000    0.8990 C   0  0  0  0  0
    0.7510   26.7060    0.0280 O   0  0  0  0  0
   -0.5720   27.3740    2.8190 C   0  0  0  0  0
   -1.0790   27.1720    4.2340 C   0  0  0  0  0
   -2.3650   27.9450    4.4810 C   0  0  0  0  0
   -3.4110   27.5740    3.5270 N   0  0  0  0  0
   -4.6980   27.4120    3.8380 C   0  0  0  0  0
   -5.1150   27.5680    5.0910 N   0  0  0  0  0
   -5.5650   27.0760    2.8910 N   0  0  0  0  0
   -0.4900   24.9310    0.6400 N   0  0  0  0  0
   -0.8160   24.5150   -0.7090 C   0  0  0  0  0
   -2.2620   24.0500   -0.7460 C   0  0  0  0  0
   -3.1630   24.9090   -0.7990 O   0  0  0  0  0
    0.1150   23.3850   -1.1670 C   0  0  0  0  0
    1.5500   23.8040   -1.5080 C   0  0  0  0  0
    2.4730   22.5980   -1.5160 C   0  0  0  0  0
    1.5930   24.5000   -2.8620 C   0  0  0  0  0
   -2.4980   22.8310   -0.7090 O   0  0  0  0  0
    4.3036   30.9223    9.6534 H   0  0  0  0  0
    5.2952   29.7425   10.2870 H   0  0  0  0  0
    5.7247   31.3476   10.4126 H   0  0  0  0  0
    5.9842   31.5331    8.0400 H   0  0  0  0  0
    7.4448   29.1101    9.0937 H   0  0  0  0  0
    7.8640   30.8419    9.4999 H   0  0  0  0  0
    8.2959   31.2574    7.1619 H   0  0  0  0  0
    7.9345   29.5184    6.7959 H   0  0  0  0  0
   11.6714   30.2772    7.2050 H   0  0  0  0  0
   10.3927   31.1307    6.3346 H   0  0  0  0  0
    6.4327   28.0552    8.3774 H   0  0  0  0  0
    5.4313   26.2624    7.4296 H   0  0  0  0  0
    2.9701   26.3568    6.9624 H   0  0  0  0  0
    3.0459   28.1468    7.3281 H   0  0  0  0  0
    1.9610   25.6697    8.4994 H   0  0  0  0  0
    3.8269   25.6266    5.5035 H   0  0  0  0  0
    4.1637   27.4108    3.1625 H   0  0  0  0  0
    4.9192   24.4722    3.1508 H   0  0  0  0  0
    7.0083   25.3710    2.5915 H   0  0  0  0  0
    3.8019   25.1323    1.0754 H   0  0  0  0  0
    4.9075   26.5178    0.9051 H   0  0  0  0  0
    5.5383   24.8563    0.7932 H   0  0  0  0  0
    2.1132   27.6471    2.3836 H   0  0  0  0  0
    0.2433   25.4030    2.9440 H   0  0  0  0  0
   -1.4319   27.3139    2.1519 H   0  0  0  0  0
   -0.0629   28.3373    2.7886 H   0  0  0  0  0
   -0.3200   27.5339    4.9276 H   0  0  0  0  0
   -1.2805   26.1108    4.3803 H   0  0  0  0  0
   -2.1547   29.0081    4.3639 H   0  0  0  0  0
   -2.7181   27.7123    5.4856 H   0  0  0  0  0
   -3.1364   27.4290    2.5554 H   0  0  0  0  0
   -6.0988   27.4295    5.3221 H   0  0  0  0  0
   -4.4511   27.8262    5.8210 H   0  0  0  0  0
   -5.2460   26.9430    1.9313 H   0  0  0  0  0
   -0.8386   24.3754    1.4212 H   0  0  0  0  0
   -0.6824   25.3577   -1.3873 H   0  0  0  0  0
   -2.7686   25.7840   -0.8199 H   0  0  0  0  0
   -0.3155   22.9825   -2.0839 H   0  0  0  0  0
    0.1869   22.6868   -0.3331 H   0  0  0  0  0
    1.8919   24.4999   -0.7419 H   0  0  0  0  0
    2.4661   22.1303   -0.5315 H   0  0  0  0  0
    2.1273   21.8824   -2.2620 H   0  0  0  0  0
    3.4857   22.9188   -1.7602 H   0  0  0  0  0
    1.2295   23.8185   -3.6311 H   0  0  0  0  0
    0.9610   25.3876   -2.8331 H   0  0  0  0  0
    2.6192   24.7903   -3.0875 H   0  0  0  0  0
  1  2  1  0  0  0
  2  3  1  0  0  0
  2  5  1  0  0  0
  3  4  2  0  0  0
  3 10  1  0  0  0
  5  6  1  0  0  0
  6  7  1  0  0  0
  7  8  2  0  0  0
  7  9  1  0  0  0
 10 11  1  0  0  0
 11 12  1  0  0  0
 11 14  1  0  0  0
 12 13  2  0  0  0
 12 18  1  0  0  0
 14 15  1  0  0  0
 15 16  2  0  0  0
 15 17  1  0  0  0
 18 19  1  0  0  0
 19 20  1  0  0  0
 19 22  1  0  0  0
 20 21  2  0  0  0
 20 25  1  0  0  0
 22 23  1  0  0  0
 22 24  1  0  0  0
 25 26  1  0  0  0
 26 27  1  0  0  0
 26 29  1  0  0  0
 27 28  2  0  0  0
 27 36  1  0  0  0
 29 30  1  0  0  0
 30 31  1  0  0  0
 31 32  1  0  0  0
 32 33  1  0  0  0
 33 34  1  0  0  0
 33 35  2  0  0  0
 36 37  1  0  0  0
 37 38  1  0  0  0
 37 40  1  0  0  0
 38 39  1  0  0  0
 38 44  2  0  0  0
 40 41  1  0  0  0
 41 42  1  0  0  0
 41 43  1  0  0  0
  1 45  1  0  0  0
  1 46  1  0  0  0
  1 47  1  0  0  0
  2 48  1  0  0  0
  5 49  1  0  0  0
  5 50  1  0  0  0
  6 51  1  0  0  0
  6 52  1  0  0  0
  9 53  1  0  0  0
  9 54  1  0  0  0
 10 55  1  0  0  0
 11 56  1  0  0  0
 14 57  1  0  0  0
 14 58  1  0  0  0
 17 59  1  0  0  0
 18 60  1  0  0  0
 19 61  1  0  0  0
 22 62  1  0  0  0
 23 63  1  0  0  0
 24 64  1  0  0  0
 24 65  1  0  0  0
 24 66  1  0  0  0
 25 67  1  0  0  0
 26 68  1  0  0  0
 29 69  1  0  0  0
 29 70  1  0  0  0
 30 71  1  0  0  0
 30 72  1  0  0  0
 31 73  1  0  0  0
 31 74  1  0  0  0
 32 75  1  0  0  0
 34 76  1  0  0  0
 34 77  1  0  0  0
 35 78  1  0  0  0
 36 79  1  0  0  0
 37 80  1  0  0  0
 39 81  1  0  0  0
 40 82  1  0  0  0
 40 83  1  0  0  0
 41 84  1  0  0  0
 42 85  1  0  0  0
 42 86  1  0  0  0
 42 87  1  0  0  0
 43 88  1  0  0  0
 43 89  1  0  0  0
 43 90  1  0  0  0
M  END
$$$$
