2of2_ligand
  -I-interpret- 

 58 62  0  0  0  0  0  0  0  0999 V2000
   23.3130   35.2040   82.6920 C   0  0  0  0  0
   24.6110   34.9970   82.3530 N   0  0  0  0  0
   25.6330   35.8390   82.7690 C   0  0  0  0  0
   25.3670   36.9590   83.5920 C   0  0  0  0  0
   23.9760   37.2040   83.9840 C   0  0  0  0  0
   22.9540   36.2980   83.5210 C   0  0  0  0  0
   26.9560   35.7210   82.4870 O   0  0  0  0  0
   27.5720   36.7840   83.1180 C   0  0  0  0  0
   26.5570   37.6280   83.8630 C   0  0  0  0  0
   26.7120   38.8560   84.6820 C   0  0  0  0  0
   27.0220   40.1120   84.0560 C   0  0  0  0  0
   27.1840   41.2830   84.8650 C   0  0  0  0  0
   27.0370   41.1890   86.2990 C   0  0  0  0  0
   26.7220   39.9280   86.9320 C   0  0  0  0  0
   26.5620   38.7590   86.1200 C   0  0  0  0  0
   29.0530   36.9920   83.0270 C   0  0  0  0  0
   29.7860   36.2420   82.0450 C   0  0  0  0  0
   31.2050   36.4270   81.9230 C   0  0  0  0  0
   31.8890   37.3710   82.7800 C   0  0  0  0  0
   31.1680   38.1210   83.7630 C   0  0  0  0  0
   29.7640   37.9300   83.8800 C   0  0  0  0  0
   23.6700   38.2800   84.7910 N   0  0  0  0  0
   22.3130   38.5930   85.2200 C   0  0  0  0  0
   22.2460   39.8340   86.1150 C   0  0  0  0  0
   23.0260   41.0020   85.6340 N   0  3  0  0  0
   23.2340   41.8710   86.8240 C   0  0  0  0  0
   24.0340   43.1270   86.4310 C   0  0  0  0  0
   23.3110   43.8450   85.3400 N   0  3  0  0  0
   23.0980   42.9700   84.1440 C   0  0  0  0  0
   22.2740   41.7390   84.5800 C   0  0  0  0  0
   22.5423   34.5260   82.3253 H   0  0  0  0  0
   21.9133   36.4526   83.8059 H   0  0  0  0  0
   27.1330   40.1731   82.9734 H   0  0  0  0  0
   27.4172   42.2411   84.4005 H   0  0  0  0  0
   27.1653   42.0810   86.9121 H   0  0  0  0  0
   26.6076   39.8676   88.0143 H   0  0  0  0  0
   26.3282   37.7999   86.5821 H   0  0  0  0  0
   29.2678   35.5362   81.3959 H   0  0  0  0  0
   31.7671   35.8558   81.1842 H   0  0  0  0  0
   32.9648   37.5125   82.6759 H   0  0  0  0  0
   31.6869   38.8271   84.4113 H   0  0  0  0  0
   29.2087   38.4993   84.6255 H   0  0  0  0  0
   24.4297   38.8853   85.1023 H   0  0  0  0  0
   21.9406   37.7455   85.7954 H   0  0  0  0  0
   21.7181   38.7914   84.3285 H   0  0  0  0  0
   22.6701   39.5491   87.0779 H   0  0  0  0  0
   21.2015   40.1446   86.1423 H   0  0  0  0  0
   23.9118   40.7116   85.2199 H   0  0  0  0  0
   23.7899   41.3153   87.5792 H   0  0  0  0  0
   22.2642   42.1743   87.2186 H   0  0  0  0  0
   25.0257   42.8365   86.0844 H   0  0  0  0  0
   24.1363   43.7822   87.2961 H   0  0  0  0  0
   23.8748   44.6458   85.0549 H   0  0  0  0  0
   22.3983   44.1309   85.6945 H   0  0  0  0  0
   24.0587   42.6511   83.7397 H   0  0  0  0  0
   22.5638   43.5207   83.3698 H   0  0  0  0  0
   21.3101   42.0619   84.9733 H   0  0  0  0  0
   22.1061   41.0864   83.7233 H   0  0  0  0  0
  1  2  4  0  0  0
  1  6  4  0  0  0
  2  3  4  0  0  0
  3  4  4  0  0  0
  3  7  4  0  0  0
  4  5  4  0  0  0
  4  9  4  0  0  0
  5  6  4  0  0  0
  5 22  1  0  0  0
  7  8  4  0  0  0
  8  9  4  0  0  0
  8 16  1  0  0  0
  9 10  1  0  0  0
 10 11  4  0  0  0
 10 15  4  0  0  0
 11 12  4  0  0  0
 12 13  4  0  0  0
 13 14  4  0  0  0
 14 15  4  0  0  0
 16 17  4  0  0  0
 16 21  4  0  0  0
 17 18  4  0  0  0
 18 19  4  0  0  0
 19 20  4  0  0  0
 20 21  4  0  0  0
 22 23  1  0  0  0
 23 24  1  0  0  0
 24 25  1  0  0  0
 25 26  1  0  0  0
 25 30  1  0  0  0
 26 27  1  0  0  0
 27 28  1  0  0  0
 28 29  1  0  0  0
 29 30  1  0  0  0
  1 31  1  0  0  0
  6 32  1  0  0  0
 11 33  1  0  0  0
 12 34  1  0  0  0
 13 35  1  0  0  0
 14 36  1  0  0  0
 15 37  1  0  0  0
 17 38  1  0  0  0
 18 39  1  0  0  0
 19 40  1  0  0  0
 20 41  1  0  0  0
 21 42  1  0  0  0
 22 43  1  0  0  0
 23 44  1  0  0  0
 23 45  1  0  0  0
 24 46  1  0  0  0
 24 47  1  0  0  0
 25 48  1  0  0  0
 26 49  1  0  0  0
 26 50  1  0  0  0
 27 51  1  0  0  0
 27 52  1  0  0  0
 28 53  1  0  0  0
 28 54  1  0  0  0
 29 55  1  0  0  0
 29 56  1  0  0  0
 30 57  1  0  0  0
 30 58  1  0  0  0
M  END
$$$$
