### 
### Created by X-TOOL on Mon Sep 10 21:12:56 2018
### 

@<TRIPOS>MOLECULE
2r05_ligand
  187   188     1     0     0
SMALL
GAST_HUCK


@<TRIPOS>ATOM
      1 N         -65.7590  -41.3860  -61.9880 N.4       1 GLU         0.2380
      2 CA        -66.2480  -40.2650  -61.1360 C.3       1 GLU         0.0665
      3 C         -67.1220  -39.2680  -61.9110 C.2       1 GLU         0.2268
      4 O         -66.7770  -38.8460  -63.0300 O.2       1 GLU        -0.3907
      5 CB        -65.0710  -39.5360  -60.4610 C.3       1 GLU         0.0194
      6 CG        -64.2830  -38.5680  -61.3560 C.3       1 GLU         0.0075
      7 CD        -63.3840  -37.6230  -60.5650 C.2       1 GLU         0.0351
      8 OE1       -63.3120  -37.7690  -59.3210 O.co2     1 GLU        -0.5690
      9 OE2       -62.7540  -36.7310  -61.1850 O.co2     1 GLU        -0.5690
     10 N         -68.2420  -38.8870  -61.2990 N.am      1 LEU        -0.2610
     11 CA        -69.1220  -37.8700  -61.8650 C.3       1 LEU         0.1313
     12 C         -68.5390  -36.4690  -61.6650 C.2       1 LEU         0.2040
     13 O         -67.9170  -35.9190  -62.5770 O.2       1 LEU        -0.3944
     14 CB        -70.5290  -37.9840  -61.2740 C.3       1 LEU        -0.0101
     15 CG        -71.6470  -37.1830  -61.9450 C.3       1 LEU        -0.0425
     16 CD1       -71.7270  -37.4640  -63.4360 C.3       1 LEU        -0.0625
     17 CD2       -72.9600  -37.4900  -61.2760 C.3       1 LEU        -0.0625
     18 N         -68.7320  -35.9050  -60.4740 N.am      1 TYR        -0.2621
     19 CA        -68.1550  -34.6080  -60.1270 C.3       1 TYR         0.1392
     20 C         -66.7270  -34.7670  -59.6130 C.2       1 TYR         0.2082
     21 O         -66.4300  -35.7550  -58.9440 O.2       1 TYR        -0.3940
     22 CB        -69.0380  -33.8910  -59.1080 C.3       1 TYR         0.0164
     23 CG        -70.2920  -33.3380  -59.7390 C.ar      1 TYR        -0.0493
     24 CD1       -71.4200  -34.1410  -59.9160 C.ar      1 TYR        -0.0685
     25 CD2       -70.3460  -32.0180  -60.1850 C.ar      1 TYR        -0.0685
     26 CE1       -72.5650  -33.6440  -60.5130 C.ar      1 TYR        -0.0398
     27 CE2       -71.4950  -31.5060  -60.7780 C.ar      1 TYR        -0.0398
     28 CZ        -72.5960  -32.3280  -60.9430 C.ar      1 TYR         0.0805
     29 OH        -73.7330  -31.8310  -61.5330 O.3       1 TYR        -0.3376
     30 N         -65.8370  -33.7930  -59.9150 N.am      1 PRO        -0.2497
     31 CA        -64.4390  -33.9420  -59.5380 C.3       1 PRO         0.1338
     32 C         -64.2460  -33.6710  -58.0540 C.2       1 PRO         0.2041
     33 O         -63.6790  -32.6460  -57.6760 O.2       1 PRO        -0.3944
     34 CB        -63.7350  -32.8740  -60.3810 C.3       1 PRO        -0.0104
     35 CG        -64.7460  -31.8140  -60.5560 C.3       1 PRO        -0.0281
     36 CD        -66.0860  -32.4980  -60.5820 C.3       1 PRO         0.0369
     37 N         -64.7400  -34.5900  -57.2290 N.am      1 LEU        -0.2637
     38 CA        -64.5490  -34.5470  -55.7830 C.3       1 LEU         0.1312
     39 C         -63.0840  -34.8140  -55.4120 C.2       1 LEU         0.2039
     40 O         -62.6680  -34.5490  -54.2830 O.2       1 LEU        -0.3944
     41 CB        -65.4740  -35.5540  -55.0840 C.3       1 LEU        -0.0101
     42 CG        -66.9970  -35.3340  -55.0410 C.3       1 LEU        -0.0425
     43 CD1       -67.7270  -36.5950  -54.5650 C.3       1 LEU        -0.0625
     44 CD2       -67.3820  -34.1440  -54.1620 C.3       1 LEU        -0.0625
     45 N         -62.3140  -35.3330  -56.3720 N.am      1 ALA        -0.2640
     46 CA        -60.8870  -35.5990  -56.1940 C.3       1 ALA         0.1282
     47 C         -60.0810  -34.3000  -56.2610 C.2       1 ALA         0.2037
     48 O         -59.2600  -34.0180  -55.3790 O.2       1 ALA        -0.3944
     49 CB        -60.3950  -36.5990  -57.2370 C.3       1 ALA        -0.0244
     50 N         -60.3300  -33.5180  -57.3100 N.am      1 SER        -0.2616
     51 CA        -59.7470  -32.1870  -57.4640 C.3       1 SER         0.1539
     52 C         -60.1390  -31.2390  -56.3350 C.2       1 SER         0.2062
     53 O         -59.3130  -30.4570  -55.8720 O.2       1 SER        -0.3943
     54 CB        -60.1590  -31.5740  -58.8010 C.3       1 SER         0.0843
     55 OG        -59.5770  -32.2740  -59.8820 O.3       1 SER        -0.3903
     56 N         -61.3960  -31.3120  -55.9020 N.am      1 LEU        -0.2636
     57 CA        -61.9080  -30.4180  -54.8680 C.3       1 LEU         0.1312
     58 C         -61.2780  -30.6680  -53.4910 C.2       1 LEU         0.2039
     59 O         -60.8880  -29.7180  -52.8050 O.2       1 LEU        -0.3944
     60 CB        -63.4390  -30.4960  -54.7880 C.3       1 LEU        -0.0101
     61 CG        -64.1130  -29.7070  -53.6590 C.3       1 LEU        -0.0425
     62 CD1       -64.1300  -28.2210  -53.9740 C.3       1 LEU        -0.0625
     63 CD2       -65.5180  -30.2190  -53.4100 C.3       1 LEU        -0.0625
     64 N         -61.1750  -31.9390  -53.1050 N.am      1 ARG        -0.2637
     65 CA        -60.6560  -32.3280  -51.7850 C.3       1 ARG         0.1311
     66 C         -59.1860  -31.9680  -51.5380 C.2       1 ARG         0.2040
     67 O         -58.8170  -31.5890  -50.4200 O.2       1 ARG        -0.3944
     68 CB        -60.8770  -33.8200  -51.5320 C.3       1 ARG        -0.0092
     69 CG        -62.2520  -34.1650  -50.9940 C.3       1 ARG        -0.0156
     70 CD        -62.2830  -35.6040  -50.5140 C.3       1 ARG         0.0627
     71 NE        -63.5290  -35.9260  -49.8180 N.pl3     1 ARG        -0.2723
     72 CZ        -63.7120  -37.0070  -49.0640 C.cat     1 ARG         0.2882
     73 NH1       -62.7280  -37.8870  -48.8920 N.pl3     1 ARG        -0.2849
     74 NH2       -64.8830  -37.2080  -48.4740 N.pl3     1 ARG        -0.2849
     75 N         -58.3530  -32.0930  -52.5710 N.am      1 SER        -0.2616
     76 CA        -56.9430  -31.6960  -52.4810 C.3       1 SER         0.1538
     77 C         -56.7890  -30.2120  -52.8320 C.2       1 SER         0.2043
     78 O         -56.1140  -29.8540  -53.8130 O.2       1 SER        -0.3944
     79 CB        -56.0730  -32.5700  -53.3940 C.3       1 SER         0.0843
     80 OG        -56.5170  -32.5030  -54.7420 O.3       1 SER        -0.3903
     81 N         -57.4290  -29.3590  -52.0180 N.am      1 LEU        -0.2797
     82 CA        -57.5140  -27.9230  -52.2690 C.3       1 LEU         0.0653
     83 C         -58.2800  -27.2300  -51.1270 C.3       1 LEU         0.0671
     84 O         -57.7190  -27.5980  -49.6260 O.3       1 LEU        -0.3927
     85 CB        -58.2190  -27.6780  -53.6110 C.3       1 LEU        -0.0254
     86 CG        -57.5930  -26.7240  -54.6370 C.3       1 LEU        -0.0446
     87 CD1       -56.0450  -26.7990  -54.6580 C.3       1 LEU        -0.0626
     88 CD2       -58.1940  -27.0260  -56.0250 C.3       1 LEU        -0.0626
     89 H1        -65.1930  -42.0081  -61.4324 H         1 GLU         0.2015
     90 H2        -65.2068  -41.0160  -62.7458 H         1 GLU         0.2015
     91 H3        -66.5465  -41.8921  -62.3620 H         1 GLU         0.2015
     92 H4        -66.8717  -40.7033  -60.3430 H         1 GLU         0.1099
     93 H5        -64.3704  -40.2982  -60.0893 H         1 GLU         0.0363
     94 H6        -65.4716  -38.9613  -59.6129 H         1 GLU         0.0363
     95 H7        -64.9979  -37.9671  -61.9372 H         1 GLU         0.0434
     96 H8        -63.6558  -39.1564  -62.0418 H         1 GLU         0.0434
     97 H9        -68.4868  -39.3101  -60.4266 H         1 LEU         0.1884
     98 H10       -69.1963  -38.0508  -62.9475 H         1 LEU         0.0800
     99 H11       -70.4730  -37.6560  -60.2256 H         1 LEU         0.0315
    100 H12       -70.8166  -39.0451  -61.3114 H         1 LEU         0.0315
    101 H13       -71.4305  -36.1128  -61.8119 H         1 LEU         0.0298
    102 H14       -72.5407  -36.8701  -63.8779 H         1 LEU         0.0232
    103 H15       -71.9246  -38.5340  -63.5974 H         1 LEU         0.0232
    104 H16       -70.7737  -37.1913  -63.9122 H         1 LEU         0.0232
    105 H17       -72.8807  -37.2801  -60.1991 H         1 LEU         0.0232
    106 H18       -73.2084  -38.5511  -61.4254 H         1 LEU         0.0232
    107 H19       -73.7504  -36.8631  -61.7145 H         1 LEU         0.0232
    108 H20       -69.2893  -36.3841  -59.7959 H         1 TYR         0.1885
    109 H21       -68.1199  -33.9939  -61.0389 H         1 TYR         0.0821
    110 H22       -68.4676  -33.0614  -58.6648 H         1 TYR         0.0453
    111 H23       -69.3215  -34.6037  -58.3195 H         1 TYR         0.0453
    112 H24       -71.3986  -35.1714  -59.5800 H         1 TYR         0.0530
    113 H25       -69.4775  -31.3800  -60.0675 H         1 TYR         0.0530
    114 H26       -73.4325  -34.2809  -60.6433 H         1 TYR         0.0525
    115 H27       -71.5279  -30.4738  -61.1075 H         1 TYR         0.0525
    116 H28       -73.5287  -31.5353  -62.4125 H         1 TYR         0.2458
    117 H29       -64.0676  -34.9484  -59.7813 H         1 PRO         0.0802
    118 H30       -63.4310  -33.2856  -61.3547 H         1 PRO         0.0313
    119 H31       -62.8507  -32.4845  -59.8553 H         1 PRO         0.0313
    120 H32       -64.5748  -31.2786  -61.5015 H         1 PRO         0.0287
    121 H33       -64.6992  -31.1028  -59.7182 H         1 PRO         0.0287
    122 H34       -66.8355  -31.9114  -60.0305 H         1 PRO         0.0524
    123 H35       -66.4278  -32.6499  -61.6164 H         1 PRO         0.0524
    124 H36       -65.2669  -35.3457  -57.6179 H         1 LEU         0.1883
    125 H37       -64.8124  -33.5379  -55.4331 H         1 LEU         0.0800
    126 H38       -65.1372  -35.6148  -54.0386 H         1 LEU         0.0315
    127 H39       -65.3119  -36.5231  -55.5784 H         1 LEU         0.0315
    128 H40       -67.3298  -35.1159  -56.0665 H         1 LEU         0.0298
    129 H41       -68.8105  -36.4060  -54.5452 H         1 LEU         0.0232
    130 H42       -67.3824  -36.8587  -53.5542 H         1 LEU         0.0232
    131 H43       -67.5122  -37.4252  -55.2539 H         1 LEU         0.0232
    132 H44       -66.8537  -33.2444  -54.5108 H         1 LEU         0.0232
    133 H45       -67.1015  -34.3526  -53.1190 H         1 LEU         0.0232
    134 H46       -68.4677  -33.9786  -54.2237 H         1 LEU         0.0232
    135 H47       -62.7329  -35.5499  -57.2538 H         1 ALA         0.1883
    136 H48       -60.7411  -36.0419  -55.1977 H         1 ALA         0.0797
    137 H49       -59.3214  -36.7863  -57.0875 H         1 ALA         0.0277
    138 H50       -60.5588  -36.1886  -58.2444 H         1 ALA         0.0277
    139 H51       -60.9501  -37.5427  -57.1307 H         1 ALA         0.0277
    140 H52       -60.9430  -33.8567  -58.0238 H         1 SER         0.1884
    141 H53       -58.6525  -32.2960  -57.4529 H         1 SER         0.0823
    142 H54       -59.8287  -30.5253  -58.8325 H         1 SER         0.0606
    143 H55       -61.2543  -31.6164  -58.8935 H         1 SER         0.0606
    144 H56       -59.8483  -31.8738  -60.6997 H         1 SER         0.2097
    145 H57       -62.0066  -31.9988  -56.2964 H         1 LEU         0.1883
    146 H58       -61.6423  -29.3928  -55.1651 H         1 LEU         0.0800
    147 H59       -63.7124  -31.5542  -54.6637 H         1 LEU         0.0315
    148 H60       -63.8416  -30.1228  -55.7412 H         1 LEU         0.0315
    149 H61       -63.5266  -29.8555  -52.7403 H         1 LEU         0.0298
    150 H62       -64.6174  -27.6774  -53.1513 H         1 LEU         0.0232
    151 H63       -64.6871  -28.0503  -54.9070 H         1 LEU         0.0232
    152 H64       -63.0979  -27.8593  -54.0917 H         1 LEU         0.0232
    153 H65       -65.4815  -31.2950  -53.1843 H         1 LEU         0.0232
    154 H66       -66.1330  -30.0531  -54.3068 H         1 LEU         0.0232
    155 H67       -65.9589  -29.6805  -52.5582 H         1 LEU         0.0232
    156 H68       -61.4622  -32.6576  -53.7384 H         1 ARG         0.1883
    157 H69       -61.2469  -31.7746  -51.0403 H         1 ARG         0.0800
    158 H70       -60.1267  -34.1607  -50.8034 H         1 ARG         0.0313
    159 H71       -60.7348  -34.3553  -52.4824 H         1 ARG         0.0313
    160 H72       -62.9977  -34.0323  -51.7917 H         1 ARG         0.0301
    161 H73       -62.4911  -33.4968  -50.1536 H         1 ARG         0.0301
    162 H74       -61.4404  -35.7665  -49.8259 H         1 ARG         0.0689
    163 H75       -62.1802  -36.2701  -51.3833 H         1 ARG         0.0689
    164 H76       -64.3180  -35.2716  -49.9185 H         1 ARG         0.2642
    165 H77       -62.8793  -38.7208  -48.3065 H         1 ARG         0.2615
    166 H78       -61.8154  -37.7341  -49.3444 H         1 ARG         0.2615
    167 H79       -65.6479  -36.5305  -48.6035 H         1 ARG         0.2615
    168 H80       -65.0273  -38.0416  -47.8864 H         1 ARG         0.2615
    169 H81       -58.6985  -32.4678  -53.4314 H         1 SER         0.1884
    170 H82       -56.6073  -31.8425  -51.4438 H         1 SER         0.0823
    171 H83       -56.1265  -33.6134  -53.0498 H         1 SER         0.0606
    172 H84       -55.0318  -32.2193  -53.3411 H         1 SER         0.0606
    173 H85       -56.4691  -31.6041  -55.0457 H         1 SER         0.2097
    174 H86       -57.8699  -29.7249  -51.1984 H         1 LEU         0.1855
    175 H87       -56.4969  -27.5070  -52.3183 H         1 LEU         0.0579
    176 H88       -59.3360  -27.5324  -51.1853 H         1 LEU         0.0580
    177 H89       -58.2018  -26.1419  -51.2683 H         1 LEU         0.0580
    178 H90       -58.2353  -27.1380  -48.9746 H         1 LEU         0.2095
    179 H91       -59.2193  -27.2840  -53.3783 H         1 LEU         0.0291
    180 H92       -58.3159  -28.6568  -54.1036 H         1 LEU         0.0291
    181 H93       -57.8695  -25.6964  -54.3585 H         1 LEU         0.0296
    182 H94       -55.6541  -26.0966  -55.4089 H         1 LEU         0.0232
    183 H95       -55.7309  -27.8216  -54.9139 H         1 LEU         0.0232
    184 H96       -55.6514  -26.5319  -53.6662 H         1 LEU         0.0232
    185 H97       -59.2909  -26.9636  -55.9710 H         1 LEU         0.0232
    186 H98       -57.8994  -28.0380  -56.3399 H         1 LEU         0.0232
    187 H99       -57.8204  -26.2918  -56.7540 H         1 LEU         0.0232
@<TRIPOS>BOND
     1    1    2 1  
     2    2    3 1  
     3    2    5 1  
     4    3    4 2  
     5    3   10 am 
     6    5    6 1  
     7    6    7 1  
     8    7    8 ar 
     9    7    9 ar 
    10   10   11 1  
    11   11   12 1  
    12   11   14 1  
    13   12   13 2  
    14   12   18 am 
    15   14   15 1  
    16   15   16 1  
    17   15   17 1  
    18   18   19 1  
    19   19   20 1  
    20   19   22 1  
    21   20   21 2  
    22   20   30 am 
    23   22   23 1  
    24   23   24 ar 
    25   23   25 ar 
    26   24   26 ar 
    27   25   27 ar 
    28   26   28 ar 
    29   27   28 ar 
    30   28   29 1  
    31   30   31 1  
    32   30   36 1  
    33   31   32 1  
    34   31   34 1  
    35   32   33 2  
    36   32   37 am 
    37   34   35 1  
    38   35   36 1  
    39   37   38 1  
    40   38   39 1  
    41   38   41 1  
    42   39   40 2  
    43   39   45 am 
    44   41   42 1  
    45   42   43 1  
    46   42   44 1  
    47   45   46 1  
    48   46   47 1  
    49   46   49 1  
    50   47   48 2  
    51   47   50 am 
    52   50   51 1  
    53   51   52 1  
    54   51   54 1  
    55   52   53 2  
    56   52   56 am 
    57   54   55 1  
    58   56   57 1  
    59   57   58 1  
    60   57   60 1  
    61   58   59 2  
    62   58   64 am 
    63   60   61 1  
    64   61   62 1  
    65   61   63 1  
    66   64   65 1  
    67   65   66 1  
    68   65   68 1  
    69   66   67 2  
    70   66   75 am 
    71   68   69 1  
    72   69   70 1  
    73   70   71 1  
    74   71   72 ar 
    75   72   73 ar 
    76   72   74 ar 
    77   75   76 1  
    78   76   77 1  
    79   76   79 1  
    80   77   78 2  
    81   77   81 am 
    82   79   80 1  
    83   81   82 1  
    84   82   83 1  
    85   82   85 1  
    86   83   84 1  
    87   85   86 1  
    88   86   87 1  
    89   86   88 1  
    90    1   89 1  
    91    1   90 1  
    92    1   91 1  
    93    2   92 1  
    94    5   93 1  
    95    5   94 1  
    96    6   95 1  
    97    6   96 1  
    98   10   97 1  
    99   11   98 1  
   100   14   99 1  
   101   14  100 1  
   102   15  101 1  
   103   16  102 1  
   104   16  103 1  
   105   16  104 1  
   106   17  105 1  
   107   17  106 1  
   108   17  107 1  
   109   18  108 1  
   110   19  109 1  
   111   22  110 1  
   112   22  111 1  
   113   24  112 1  
   114   25  113 1  
   115   26  114 1  
   116   27  115 1  
   117   29  116 1  
   118   31  117 1  
   119   34  118 1  
   120   34  119 1  
   121   35  120 1  
   122   35  121 1  
   123   36  122 1  
   124   36  123 1  
   125   37  124 1  
   126   38  125 1  
   127   41  126 1  
   128   41  127 1  
   129   42  128 1  
   130   43  129 1  
   131   43  130 1  
   132   43  131 1  
   133   44  132 1  
   134   44  133 1  
   135   44  134 1  
   136   45  135 1  
   137   46  136 1  
   138   49  137 1  
   139   49  138 1  
   140   49  139 1  
   141   50  140 1  
   142   51  141 1  
   143   54  142 1  
   144   54  143 1  
   145   55  144 1  
   146   56  145 1  
   147   57  146 1  
   148   60  147 1  
   149   60  148 1  
   150   61  149 1  
   151   62  150 1  
   152   62  151 1  
   153   62  152 1  
   154   63  153 1  
   155   63  154 1  
   156   63  155 1  
   157   64  156 1  
   158   65  157 1  
   159   68  158 1  
   160   68  159 1  
   161   69  160 1  
   162   69  161 1  
   163   70  162 1  
   164   70  163 1  
   165   71  164 1  
   166   73  165 1  
   167   73  166 1  
   168   74  167 1  
   169   74  168 1  
   170   75  169 1  
   171   76  170 1  
   172   79  171 1  
   173   79  172 1  
   174   80  173 1  
   175   81  174 1  
   176   82  175 1  
   177   83  176 1  
   178   83  177 1  
   179   84  178 1  
   180   85  179 1  
   181   85  180 1  
   182   86  181 1  
   183   87  182 1  
   184   87  183 1  
   185   87  184 1  
   186   88  185 1  
   187   88  186 1  
   188   88  187 1  
@<TRIPOS>SUBSTRUCTURE
     1 GLU         1

