2r05_ligand
  -I-interpret- 

187188  0  0  0  0  0  0  0  0999 V2000
  -65.7590  -41.3860  -61.9880 N   0  3  0  0  0
  -66.2480  -40.2650  -61.1360 C   0  0  0  0  0
  -67.1220  -39.2680  -61.9110 C   0  0  0  0  0
  -66.7770  -38.8460  -63.0300 O   0  0  0  0  0
  -65.0710  -39.5360  -60.4610 C   0  0  0  0  0
  -64.2830  -38.5680  -61.3560 C   0  0  0  0  0
  -63.3840  -37.6230  -60.5650 C   0  0  0  0  0
  -63.3120  -37.7690  -59.3210 O   0  0  0  0  0
  -62.7540  -36.7310  -61.1850 O   0  0  0  0  0
  -68.2420  -38.8870  -61.2990 N   0  0  0  0  0
  -69.1220  -37.8700  -61.8650 C   0  0  0  0  0
  -68.5390  -36.4690  -61.6650 C   0  0  0  0  0
  -67.9170  -35.9190  -62.5770 O   0  0  0  0  0
  -70.5290  -37.9840  -61.2740 C   0  0  0  0  0
  -71.6470  -37.1830  -61.9450 C   0  0  0  0  0
  -71.7270  -37.4640  -63.4360 C   0  0  0  0  0
  -72.9600  -37.4900  -61.2760 C   0  0  0  0  0
  -68.7320  -35.9050  -60.4740 N   0  0  0  0  0
  -68.1550  -34.6080  -60.1270 C   0  0  0  0  0
  -66.7270  -34.7670  -59.6130 C   0  0  0  0  0
  -66.4300  -35.7550  -58.9440 O   0  0  0  0  0
  -69.0380  -33.8910  -59.1080 C   0  0  0  0  0
  -70.2920  -33.3380  -59.7390 C   0  0  0  0  0
  -71.4200  -34.1410  -59.9160 C   0  0  0  0  0
  -70.3460  -32.0180  -60.1850 C   0  0  0  0  0
  -72.5650  -33.6440  -60.5130 C   0  0  0  0  0
  -71.4950  -31.5060  -60.7780 C   0  0  0  0  0
  -72.5960  -32.3280  -60.9430 C   0  0  0  0  0
  -73.7330  -31.8310  -61.5330 O   0  0  0  0  0
  -65.8370  -33.7930  -59.9150 N   0  0  0  0  0
  -64.4390  -33.9420  -59.5380 C   0  0  0  0  0
  -64.2460  -33.6710  -58.0540 C   0  0  0  0  0
  -63.6790  -32.6460  -57.6760 O   0  0  0  0  0
  -63.7350  -32.8740  -60.3810 C   0  0  0  0  0
  -64.7460  -31.8140  -60.5560 C   0  0  0  0  0
  -66.0860  -32.4980  -60.5820 C   0  0  0  0  0
  -64.7400  -34.5900  -57.2290 N   0  0  0  0  0
  -64.5490  -34.5470  -55.7830 C   0  0  0  0  0
  -63.0840  -34.8140  -55.4120 C   0  0  0  0  0
  -62.6680  -34.5490  -54.2830 O   0  0  0  0  0
  -65.4740  -35.5540  -55.0840 C   0  0  0  0  0
  -66.9970  -35.3340  -55.0410 C   0  0  0  0  0
  -67.7270  -36.5950  -54.5650 C   0  0  0  0  0
  -67.3820  -34.1440  -54.1620 C   0  0  0  0  0
  -62.3140  -35.3330  -56.3720 N   0  0  0  0  0
  -60.8870  -35.5990  -56.1940 C   0  0  0  0  0
  -60.0810  -34.3000  -56.2610 C   0  0  0  0  0
  -59.2600  -34.0180  -55.3790 O   0  0  0  0  0
  -60.3950  -36.5990  -57.2370 C   0  0  0  0  0
  -60.3300  -33.5180  -57.3100 N   0  0  0  0  0
  -59.7470  -32.1870  -57.4640 C   0  0  0  0  0
  -60.1390  -31.2390  -56.3350 C   0  0  0  0  0
  -59.3130  -30.4570  -55.8720 O   0  0  0  0  0
  -60.1590  -31.5740  -58.8010 C   0  0  0  0  0
  -59.5770  -32.2740  -59.8820 O   0  0  0  0  0
  -61.3960  -31.3120  -55.9020 N   0  0  0  0  0
  -61.9080  -30.4180  -54.8680 C   0  0  0  0  0
  -61.2780  -30.6680  -53.4910 C   0  0  0  0  0
  -60.8880  -29.7180  -52.8050 O   0  0  0  0  0
  -63.4390  -30.4960  -54.7880 C   0  0  0  0  0
  -64.1130  -29.7070  -53.6590 C   0  0  0  0  0
  -64.1300  -28.2210  -53.9740 C   0  0  0  0  0
  -65.5180  -30.2190  -53.4100 C   0  0  0  0  0
  -61.1750  -31.9390  -53.1050 N   0  0  0  0  0
  -60.6560  -32.3280  -51.7850 C   0  0  0  0  0
  -59.1860  -31.9680  -51.5380 C   0  0  0  0  0
  -58.8170  -31.5890  -50.4200 O   0  0  0  0  0
  -60.8770  -33.8200  -51.5320 C   0  0  0  0  0
  -62.2520  -34.1650  -50.9940 C   0  0  0  0  0
  -62.2830  -35.6040  -50.5140 C   0  0  0  0  0
  -63.5290  -35.9260  -49.8180 N   0  0  0  0  0
  -63.7120  -37.0070  -49.0640 C   0  0  0  0  0
  -62.7280  -37.8870  -48.8920 N   0  0  0  0  0
  -64.8830  -37.2080  -48.4740 N   0  0  0  0  0
  -58.3530  -32.0930  -52.5710 N   0  0  0  0  0
  -56.9430  -31.6960  -52.4810 C   0  0  0  0  0
  -56.7890  -30.2120  -52.8320 C   0  0  0  0  0
  -56.1140  -29.8540  -53.8130 O   0  0  0  0  0
  -56.0730  -32.5700  -53.3940 C   0  0  0  0  0
  -56.5170  -32.5030  -54.7420 O   0  0  0  0  0
  -57.4290  -29.3590  -52.0180 N   0  0  0  0  0
  -57.5140  -27.9230  -52.2690 C   0  0  0  0  0
  -58.2800  -27.2300  -51.1270 C   0  0  0  0  0
  -57.7190  -27.5980  -49.6260 O   0  0  0  0  0
  -58.2190  -27.6780  -53.6110 C   0  0  0  0  0
  -57.5930  -26.7240  -54.6370 C   0  0  0  0  0
  -56.0450  -26.7990  -54.6580 C   0  0  0  0  0
  -58.1940  -27.0260  -56.0250 C   0  0  0  0  0
  -66.5547  -41.8526  -62.4235 H   0  0  0  0  0
  -65.1418  -41.0173  -62.7116 H   0  0  0  0  0
  -65.2471  -42.0525  -61.4100 H   0  0  0  0  0
  -66.8785  -40.7114  -60.3670 H   0  0  0  0  0
  -64.3681  -40.3087  -60.1494 H   0  0  0  0  0
  -65.5001  -38.9344  -59.6597 H   0  0  0  0  0
  -65.0037  -37.9604  -61.9033 H   0  0  0  0  0
  -63.6455  -39.1639  -62.0091 H   0  0  0  0  0
  -62.9500  -36.7953  -62.1226 H   0  0  0  0  0
  -68.4917  -39.3185  -60.4092 H   0  0  0  0  0
  -69.1987  -38.0407  -62.9388 H   0  0  0  0  0
  -70.4536  -37.5888  -60.2610 H   0  0  0  0  0
  -70.8102  -39.0309  -61.3882 H   0  0  0  0  0
  -71.4212  -36.1228  -61.8306 H   0  0  0  0  0
  -70.7818  -37.1934  -63.9067 H   0  0  0  0  0
  -71.9228  -38.5245  -63.5946 H   0  0  0  0  0
  -72.5336  -36.8750  -63.8727 H   0  0  0  0  0
  -73.1723  -38.5553  -61.3668 H   0  0  0  0  0
  -72.9015  -37.2184  -60.2220 H   0  0  0  0  0
  -73.7537  -36.9178  -61.7565 H   0  0  0  0  0
  -69.3004  -36.3937  -59.7823 H   0  0  0  0  0
  -68.1112  -33.9948  -61.0271 H   0  0  0  0  0
  -68.4708  -33.0593  -58.6900 H   0  0  0  0  0
  -69.3295  -34.6104  -58.3428 H   0  0  0  0  0
  -71.3984  -35.1771  -59.5782 H   0  0  0  0  0
  -69.4727  -31.3765  -60.0668 H   0  0  0  0  0
  -73.4373  -34.2844  -60.6440 H   0  0  0  0  0
  -71.5280  -30.4681  -61.1094 H   0  0  0  0  0
  -73.5927  -30.9118  -61.7718 H   0  0  0  0  0
  -64.0544  -34.9474  -59.7092 H   0  0  0  0  0
  -63.3896  -33.2701  -61.3359 H   0  0  0  0  0
  -62.8325  -32.5012  -59.8966 H   0  0  0  0  0
  -64.5737  -31.2602  -61.4789 H   0  0  0  0  0
  -64.6946  -31.0891  -59.7436 H   0  0  0  0  0
  -66.8580  -31.9153  -60.0795 H   0  0  0  0  0
  -66.4683  -32.6211  -61.5953 H   0  0  0  0  0
  -65.2775  -35.3608  -57.6257 H   0  0  0  0  0
  -64.8072  -33.5451  -55.4401 H   0  0  0  0  0
  -65.1708  -35.5095  -54.0380 H   0  0  0  0  0
  -65.3553  -36.4690  -55.6643 H   0  0  0  0  0
  -67.3079  -35.1113  -56.0617 H   0  0  0  0  0
  -67.5133  -37.4168  -55.2484 H   0  0  0  0  0
  -67.3846  -36.8553  -53.5634 H   0  0  0  0  0
  -68.8004  -36.4065  -54.5458 H   0  0  0  0  0
  -67.0349  -34.3188  -53.1436 H   0  0  0  0  0
  -66.9187  -33.2389  -54.5548 H   0  0  0  0  0
  -68.4659  -34.0288  -54.1630 H   0  0  0  0  0
  -62.7412  -35.5542  -57.2714 H   0  0  0  0  0
  -60.7396  -36.0361  -55.2064 H   0  0  0  0  0
  -60.9458  -37.5336  -57.1307 H   0  0  0  0  0
  -60.5579  -36.1912  -58.2346 H   0  0  0  0  0
  -59.3312  -36.7838  -57.0879 H   0  0  0  0  0
  -60.9553  -33.8635  -58.0380 H   0  0  0  0  0
  -58.6654  -32.3177  -57.4292 H   0  0  0  0  0
  -59.8172  -30.5394  -58.8307 H   0  0  0  0  0
  -61.2437  -31.6313  -58.8917 H   0  0  0  0  0
  -59.8512  -31.8696  -60.7084 H   0  0  0  0  0
  -62.0188  -32.0125  -56.3043 H   0  0  0  0  0
  -61.6196  -29.4089  -55.1623 H   0  0  0  0  0
  -63.6762  -31.5438  -54.6040 H   0  0  0  0  0
  -63.8098  -30.0644  -55.7177 H   0  0  0  0  0
  -63.5311  -29.8540  -52.7491 H   0  0  0  0  0
  -63.1068  -27.8639  -54.0905 H   0  0  0  0  0
  -64.6822  -28.0532  -54.8987 H   0  0  0  0  0
  -64.6132  -27.6834  -53.1581 H   0  0  0  0  0
  -66.1098  -30.1090  -54.3187 H   0  0  0  0  0
  -65.4753  -31.2710  -53.1279 H   0  0  0  0  0
  -65.9756  -29.6439  -52.6050 H   0  0  0  0  0
  -61.4679  -32.6719  -53.7511 H   0  0  0  0  0
  -61.2305  -31.7347  -51.0737 H   0  0  0  0  0
  -60.1515  -34.1285  -50.7793 H   0  0  0  0  0
  -60.7716  -34.3269  -52.4912 H   0  0  0  0  0
  -62.9873  -34.0387  -51.7887 H   0  0  0  0  0
  -62.4829  -33.5055  -50.1574 H   0  0  0  0  0
  -61.4575  -35.7474  -49.8168 H   0  0  0  0  0
  -62.2025  -36.2545  -51.3849 H   0  0  0  0  0
  -64.3103  -35.2779  -49.9175 H   0  0  0  0  0
  -62.8765  -38.7107  -48.3090 H   0  0  0  0  0
  -61.8255  -37.7376  -49.3432 H   0  0  0  0  0
  -65.6393  -36.5351  -48.5991 H   0  0  0  0  0
  -58.7054  -32.4753  -53.4486 H   0  0  0  0  0
  -56.6034  -31.8443  -51.4559 H   0  0  0  0  0
  -56.1416  -33.6038  -53.0554 H   0  0  0  0  0
  -55.0458  -32.2085  -53.3470 H   0  0  0  0  0
  -55.9569  -33.0574  -55.2902 H   0  0  0  0  0
  -57.8787  -29.7322  -51.1820 H   0  0  0  0  0
  -56.5085  -27.5046  -52.3133 H   0  0  0  0  0
  -59.3142  -27.5703  -51.1781 H   0  0  0  0  0
  -58.1599  -26.1552  -51.2626 H   0  0  0  0  0
  -58.2407  -27.1331  -48.9678 H   0  0  0  0  0
  -59.1657  -27.2094  -53.3423 H   0  0  0  0  0
  -58.2174  -28.6504  -54.1035 H   0  0  0  0  0
  -57.8308  -25.7004  -54.3476 H   0  0  0  0  0
  -55.6563  -26.5341  -53.6747 H   0  0  0  0  0
  -55.7350  -27.8128  -54.9116 H   0  0  0  0  0
  -55.6588  -26.1027  -55.4024 H   0  0  0  0  0
  -57.9753  -28.0585  -56.2973 H   0  0  0  0  0
  -59.2735  -26.8784  -55.9920 H   0  0  0  0  0
  -57.7564  -26.3538  -56.7631 H   0  0  0  0  0
  1  2  1  0  0  0
  2  3  1  0  0  0
  2  5  1  0  0  0
  3  4  2  0  0  0
  3 10  1  0  0  0
  5  6  1  0  0  0
  6  7  1  0  0  0
  7  8  2  0  0  0
  7  9  1  0  0  0
 10 11  1  0  0  0
 11 12  1  0  0  0
 11 14  1  0  0  0
 12 13  2  0  0  0
 12 18  1  0  0  0
 14 15  1  0  0  0
 15 16  1  0  0  0
 15 17  1  0  0  0
 18 19  1  0  0  0
 19 20  1  0  0  0
 19 22  1  0  0  0
 20 21  2  0  0  0
 20 30  1  0  0  0
 22 23  1  0  0  0
 23 24  4  0  0  0
 23 25  4  0  0  0
 24 26  4  0  0  0
 25 27  4  0  0  0
 26 28  4  0  0  0
 27 28  4  0  0  0
 28 29  1  0  0  0
 30 31  1  0  0  0
 30 36  1  0  0  0
 31 32  1  0  0  0
 31 34  1  0  0  0
 32 33  2  0  0  0
 32 37  1  0  0  0
 34 35  1  0  0  0
 35 36  1  0  0  0
 37 38  1  0  0  0
 38 39  1  0  0  0
 38 41  1  0  0  0
 39 40  2  0  0  0
 39 45  1  0  0  0
 41 42  1  0  0  0
 42 43  1  0  0  0
 42 44  1  0  0  0
 45 46  1  0  0  0
 46 47  1  0  0  0
 46 49  1  0  0  0
 47 48  2  0  0  0
 47 50  1  0  0  0
 50 51  1  0  0  0
 51 52  1  0  0  0
 51 54  1  0  0  0
 52 53  2  0  0  0
 52 56  1  0  0  0
 54 55  1  0  0  0
 56 57  1  0  0  0
 57 58  1  0  0  0
 57 60  1  0  0  0
 58 59  2  0  0  0
 58 64  1  0  0  0
 60 61  1  0  0  0
 61 62  1  0  0  0
 61 63  1  0  0  0
 64 65  1  0  0  0
 65 66  1  0  0  0
 65 68  1  0  0  0
 66 67  2  0  0  0
 66 75  1  0  0  0
 68 69  1  0  0  0
 69 70  1  0  0  0
 70 71  1  0  0  0
 71 72  1  0  0  0
 72 73  1  0  0  0
 72 74  2  0  0  0
 75 76  1  0  0  0
 76 77  1  0  0  0
 76 79  1  0  0  0
 77 78  2  0  0  0
 77 81  1  0  0  0
 79 80  1  0  0  0
 81 82  1  0  0  0
 82 83  1  0  0  0
 82 85  1  0  0  0
 83 84  1  0  0  0
 85 86  1  0  0  0
 86 87  1  0  0  0
 86 88  1  0  0  0
  1 89  1  0  0  0
  1 90  1  0  0  0
  1 91  1  0  0  0
  2 92  1  0  0  0
  5 93  1  0  0  0
  5 94  1  0  0  0
  6 95  1  0  0  0
  6 96  1  0  0  0
  9 97  1  0  0  0
 10 98  1  0  0  0
 11 99  1  0  0  0
 14100  1  0  0  0
 14101  1  0  0  0
 15102  1  0  0  0
 16103  1  0  0  0
 16104  1  0  0  0
 16105  1  0  0  0
 17106  1  0  0  0
 17107  1  0  0  0
 17108  1  0  0  0
 18109  1  0  0  0
 19110  1  0  0  0
 22111  1  0  0  0
 22112  1  0  0  0
 24113  1  0  0  0
 25114  1  0  0  0
 26115  1  0  0  0
 27116  1  0  0  0
 29117  1  0  0  0
 31118  1  0  0  0
 34119  1  0  0  0
 34120  1  0  0  0
 35121  1  0  0  0
 35122  1  0  0  0
 36123  1  0  0  0
 36124  1  0  0  0
 37125  1  0  0  0
 38126  1  0  0  0
 41127  1  0  0  0
 41128  1  0  0  0
 42129  1  0  0  0
 43130  1  0  0  0
 43131  1  0  0  0
 43132  1  0  0  0
 44133  1  0  0  0
 44134  1  0  0  0
 44135  1  0  0  0
 45136  1  0  0  0
 46137  1  0  0  0
 49138  1  0  0  0
 49139  1  0  0  0
 49140  1  0  0  0
 50141  1  0  0  0
 51142  1  0  0  0
 54143  1  0  0  0
 54144  1  0  0  0
 55145  1  0  0  0
 56146  1  0  0  0
 57147  1  0  0  0
 60148  1  0  0  0
 60149  1  0  0  0
 61150  1  0  0  0
 62151  1  0  0  0
 62152  1  0  0  0
 62153  1  0  0  0
 63154  1  0  0  0
 63155  1  0  0  0
 63156  1  0  0  0
 64157  1  0  0  0
 65158  1  0  0  0
 68159  1  0  0  0
 68160  1  0  0  0
 69161  1  0  0  0
 69162  1  0  0  0
 70163  1  0  0  0
 70164  1  0  0  0
 71165  1  0  0  0
 73166  1  0  0  0
 73167  1  0  0  0
 74168  1  0  0  0
 75169  1  0  0  0
 76170  1  0  0  0
 79171  1  0  0  0
 79172  1  0  0  0
 80173  1  0  0  0
 81174  1  0  0  0
 82175  1  0  0  0
 83176  1  0  0  0
 83177  1  0  0  0
 84178  1  0  0  0
 85179  1  0  0  0
 85180  1  0  0  0
 86181  1  0  0  0
 87182  1  0  0  0
 87183  1  0  0  0
 87184  1  0  0  0
 88185  1  0  0  0
 88186  1  0  0  0
 88187  1  0  0  0
M  END
$$$$
