4ydf_ligand
  -I-interpret- 

 75 79  0  0  0  0  0  0  0  0999 V2000
   59.3590   31.3390   25.2260 C   0  0  0  0  0
   57.8020   34.1830   25.1800 C   0  0  0  0  0
   58.0530   31.0170   25.4760 C   0  0  0  0  0
   59.2540   33.8920   24.9960 C   0  0  0  0  0
   58.1730   33.4280   23.0130 N   0  3  0  0  0
   57.1300   33.6860   23.9370 C   0  0  0  0  0
   59.3730   34.0190   23.5320 C   0  0  0  0  0
   57.4860   35.5630   25.6260 N   0  0  0  0  0
   59.7730   32.6640   25.6600 N   0  0  0  0  0
   60.7730   32.7070   26.6070 S   0  0  0  0  0
   57.5330   31.0540   26.7210 C   0  0  0  0  0
   57.2750   30.6250   24.4510 C   0  0  0  0  0
   56.2380   30.7050   26.9360 C   0  0  0  0  0
   55.9750   30.3050   24.6960 C   0  0  0  0  0
   55.4270   30.3320   25.9310 C   0  0  0  0  0
   62.0370   32.9520   25.9370 C   0  0  0  0  0
   62.5960   31.8840   25.3040 C   0  0  0  0  0
   62.6510   34.1740   25.9220 C   0  0  0  0  0
   63.7840   32.0750   24.6790 C   0  0  0  0  0
   63.8440   34.3270   25.2840 C   0  0  0  0  0
   64.4270   33.2760   24.6650 C   0  0  0  0  0
   65.5510   33.4040   24.0210 N   0  0  0  0  0
   66.0630   32.3310   23.2720 O   0  0  0  0  0
   66.2080   34.6220   24.0230 O   0  0  0  0  0
   57.9180   36.6840   24.8320 C   0  0  0  0  0
   56.7100   35.7090   26.6680 S   0  0  0  0  0
   59.2080   37.0470   24.9540 C   0  0  0  0  0
   59.8300   37.0230   26.1540 C   0  0  0  0  0
   59.8710   37.4950   23.8570 C   0  0  0  0  0
   61.1200   37.4340   26.3010 C   0  0  0  0  0
   61.1630   37.9070   23.9840 C   0  0  0  0  0
   61.7940   37.8770   25.2070 C   0  0  0  0  0
   55.2580   35.2290   26.3880 C   0  0  0  0  0
   54.8920   34.0000   26.8390 C   0  0  0  0  0
   54.3210   35.9880   25.7170 C   0  0  0  0  0
   53.6290   33.5440   26.6350 C   0  0  0  0  0
   53.0570   35.5130   25.4820 C   0  0  0  0  0
   52.7120   34.2740   25.9300 C   0  0  0  0  0
   57.2770   34.9020   27.7310 O   0  0  0  0  0
   56.6150   37.0900   27.1920 O   0  0  0  0  0
   60.5660   33.7550   27.5920 O   0  0  0  0  0
   60.9510   31.4720   27.4080 O   0  0  0  0  0
   51.5210   33.7720   25.7260 N   0  0  0  0  0
   50.6270   34.4580   24.9580 O   0  0  0  0  0
   51.1130   32.5970   26.3840 O   0  0  0  0  0
   59.4821   31.3151   24.1432 H   0  0  0  0  0
   59.9661   30.6264   25.7843 H   0  0  0  0  0
   57.3919   33.6525   26.0393 H   0  0  0  0  0
   59.9292   34.5666   25.5223 H   0  0  0  0  0
   57.9465   33.8271   22.1020 H   0  0  0  0  0
   58.2972   32.4231   22.8899 H   0  0  0  0  0
   56.4254   34.4200   23.5459 H   0  0  0  0  0
   56.5433   32.7888   24.1343 H   0  0  0  0  0
   60.2662   33.5221   23.1533 H   0  0  0  0  0
   59.4794   35.0587   23.2226 H   0  0  0  0  0
   58.1562   31.3659   27.5591 H   0  0  0  0  0
   57.6792   30.5646   23.4405 H   0  0  0  0  0
   55.8452   30.7281   27.9525 H   0  0  0  0  0
   55.3455   30.0128   23.8555 H   0  0  0  0  0
   54.3841   30.0658   26.1028 H   0  0  0  0  0
   62.1060   30.9103   25.2998 H   0  0  0  0  0
   62.1857   35.0245   26.4203 H   0  0  0  0  0
   64.2446   31.2310   24.1655 H   0  0  0  0  0
   64.3315   35.3018   25.2722 H   0  0  0  0  0
   57.3316   37.5376   25.1721 H   0  0  0  0  0
   57.7865   36.3849   23.7921 H   0  0  0  0  0
   59.2845   36.6652   27.0272 H   0  0  0  0  0
   59.3754   37.5246   22.8867 H   0  0  0  0  0
   61.6030   37.4082   27.2778 H   0  0  0  0  0
   61.7033   38.2645   23.1074 H   0  0  0  0  0
   62.8289   38.2068   25.2976 H   0  0  0  0  0
   55.6151   33.3779   27.3665 H   0  0  0  0  0
   54.5913   36.9843   25.3672 H   0  0  0  0  0
   53.3398   32.5751   27.0420 H   0  0  0  0  0
   52.3333   36.1223   24.9406 H   0  0  0  0  0
  1  3  1  0  0  0
  9  1  1  0  0  0
  4  2  1  0  0  0
  2  6  1  0  0  0
  2  8  1  0  0  0
  3 11  4  0  0  0
  3 12  4  0  0  0
  4  7  1  0  0  0
  4  9  1  0  0  0
  6  5  1  0  0  0
  5  7  1  0  0  0
  8 25  1  0  0  0
  8 26  1  0  0  0
  9 10  1  0  0  0
 10 16  1  0  0  0
 10 41  2  0  0  0
 10 42  2  0  0  0
 11 13  4  0  0  0
 12 14  4  0  0  0
 13 15  4  0  0  0
 14 15  4  0  0  0
 16 17  4  0  0  0
 16 18  4  0  0  0
 17 19  4  0  0  0
 18 20  4  0  0  0
 19 21  4  0  0  0
 20 21  4  0  0  0
 21 22  1  0  0  0
 22 23  2  0  0  0
 22 24  2  0  0  0
 25 27  1  0  0  0
 26 33  1  0  0  0
 26 39  2  0  0  0
 26 40  2  0  0  0
 27 28  4  0  0  0
 27 29  4  0  0  0
 28 30  4  0  0  0
 29 31  4  0  0  0
 30 32  4  0  0  0
 31 32  4  0  0  0
 33 34  4  0  0  0
 33 35  4  0  0  0
 34 36  4  0  0  0
 35 37  4  0  0  0
 36 38  4  0  0  0
 37 38  4  0  0  0
 38 43  1  0  0  0
 43 44  2  0  0  0
 43 45  2  0  0  0
  1 46  1  0  0  0
  1 47  1  0  0  0
  2 48  1  0  0  0
  4 49  1  0  0  0
  5 50  1  0  0  0
  5 51  1  0  0  0
  6 52  1  0  0  0
  6 53  1  0  0  0
  7 54  1  0  0  0
  7 55  1  0  0  0
 11 56  1  0  0  0
 12 57  1  0  0  0
 13 58  1  0  0  0
 14 59  1  0  0  0
 15 60  1  0  0  0
 17 61  1  0  0  0
 18 62  1  0  0  0
 19 63  1  0  0  0
 20 64  1  0  0  0
 25 65  1  0  0  0
 25 66  1  0  0  0
 28 67  1  0  0  0
 29 68  1  0  0  0
 30 69  1  0  0  0
 31 70  1  0  0  0
 32 71  1  0  0  0
 34 72  1  0  0  0
 35 73  1  0  0  0
 36 74  1  0  0  0
 37 75  1  0  0  0
M  END
$$$$
