3zs0_ligand
  -I-interpret- 

 27 29  0  0  0  0  0  0  0  0999 V2000
   -3.4910   19.6170   17.2480 C   0  0  0  0  0
   -2.6610   18.9450   16.3450 C   0  0  0  0  0
   -1.4050   19.4570   16.5500 N   0  0  0  0  0
   -1.4810   20.3960   17.5450 C   0  0  0  0  0
   -2.7160   20.4840   17.9540 N   0  0  0  0  0
   -5.3630   18.3540   16.3530 N   0  0  0  0  0
   -4.5330   17.7160   15.4870 C   0  0  0  0  0
   -3.1990   17.9990   15.4780 N   0  0  0  0  0
   -4.9230   19.2850   17.2470 C   0  0  0  0  0
   -5.6940   19.8520   18.0180 O   0  0  0  0  0
   -5.2150   16.5350   14.3980 S   0  0  0  0  0
   -2.2760   17.2900   14.5760 C   0  0  0  0  0
   -2.2400   17.8010   13.1600 C   0  0  0  0  0
   -2.0430   19.1580   12.9170 C   0  0  0  0  0
   -1.9990   19.6050   11.6070 C   0  0  0  0  0
   -2.1530   18.6910   10.5590 C   0  0  0  0  0
   -2.3490   17.3320   10.8020 C   0  0  0  0  0
   -2.3970   16.8880   12.1170 C   0  0  0  0  0
   -2.1010   19.1410    9.2930 F   0  0  0  0  0
   -0.6435   20.9762   17.9324 H   0  0  0  0  0
   -6.3572   18.1270   16.3336 H   0  0  0  0  0
   -2.6205   16.2571   14.5262 H   0  0  0  0  0
   -1.2744   17.4282   14.9831 H   0  0  0  0  0
   -1.9253   19.8573   13.7448 H   0  0  0  0  0
   -1.8453   20.6628   11.3936 H   0  0  0  0  0
   -2.4625   16.6310    9.9750 H   0  0  0  0  0
   -2.5565   15.8316   12.3330 H   0  0  0  0  0
  1  2  4  0  0  0
  1  5  4  0  0  0
  9  1  1  0  0  0
  2  3  4  0  0  0
  2  8  1  0  0  0
  4  3  4  0  0  0
  5  4  4  0  0  0
  6  7  1  0  0  0
  6  9  1  0  0  0
  7  8  1  0  0  0
  7 11  2  0  0  0
  8 12  1  0  0  0
  9 10  2  0  0  0
 12 13  1  0  0  0
 13 14  4  0  0  0
 13 18  4  0  0  0
 14 15  4  0  0  0
 15 16  4  0  0  0
 16 17  4  0  0  0
 16 19  1  0  0  0
 17 18  4  0  0  0
  4 20  1  0  0  0
  6 21  1  0  0  0
 12 22  1  0  0  0
 12 23  1  0  0  0
 14 24  1  0  0  0
 15 25  1  0  0  0
 17 26  1  0  0  0
 18 27  1  0  0  0
M  END
$$$$
