2o5d_ligand
  -I-interpret- 

 57 60  0  0  0  0  0  0  0  0999 V2000
   11.4860   30.7270   70.6960 C   0  0  0  0  0
   11.7110   31.9020   71.4350 C   0  0  0  0  0
   10.4910   32.4060   71.8220 C   0  0  0  0  0
    9.4990   31.5460   71.3360 C   0  0  0  0  0
   10.1160   30.5260   70.6480 O   0  0  0  0  0
   12.5010   29.8260   70.0390 C   0  0  0  0  0
   13.0200   30.4510   68.7270 C   0  0  0  0  0
    8.0050   31.6510   71.4580 C   0  0  0  0  0
    7.2250   32.6240   72.0530 C   0  0  0  0  0
    5.7450   32.6990   71.9690 C   0  0  0  0  0
    5.2790   33.7990   72.6650 N   0  0  0  0  0
    6.2760   34.4900   73.2180 C   0  0  0  0  0
    7.8790   33.9210   72.9870 S   0  0  0  0  0
    5.0420   31.8980   71.3660 O   0  0  0  0  0
    5.9690   35.6480   73.9530 N   0  0  0  0  0
    6.9150   36.5270   74.6700 C   0  0  0  0  0
    6.1520   37.5060   75.5460 C   0  0  0  0  0
    5.2780   38.2860   75.0920 O   0  0  0  0  0
    6.4540   37.5050   76.8230 N   0  0  0  0  0
    5.6810   38.5480   77.8920 S   0  0  0  0  0
    7.8580   37.3350   73.7180 C   0  0  0  0  0
    7.3590   38.3090   72.7200 C   0  0  0  0  0
    8.2810   39.0250   71.8870 C   0  0  0  0  0
    9.6980   38.7920   72.0250 C   0  0  0  0  0
   10.2010   37.8470   72.9870 C   0  0  0  0  0
    9.2850   37.1240   73.8290 C   0  0  0  0  0
   10.5710   39.4690   71.2450 F   0  0  0  0  0
    6.4920   38.5090   79.3000 O   0  0  0  0  0
    5.7010   40.0240   77.2150 O   0  0  0  0  0
    4.0220   37.9630   78.0420 C   0  0  0  0  0
    2.9530   38.8090   77.6680 C   0  0  0  0  0
    1.6210   38.3420   77.7940 C   0  0  0  0  0
    1.3400   37.0230   78.2940 C   0  0  0  0  0
    2.4530   36.1840   78.6630 C   0  0  0  0  0
    3.7910   36.6440   78.5410 C   0  0  0  0  0
   -0.0920   36.5300   78.4290 N   0  0  0  0  0
   -1.0440   37.2400   78.1180 O   0  0  0  0  0
   -0.3420   35.4040   78.8550 O   0  0  0  0  0
   12.6839   32.3380   71.6619 H   0  0  0  0  0
   10.3261   33.3131   72.4034 H   0  0  0  0  0
   12.0277   28.8711   69.8105 H   0  0  0  0  0
   13.3414   29.6882   70.7193 H   0  0  0  0  0
   12.1854   30.5997   68.0419 H   0  0  0  0  0
   13.4891   31.4107   68.9439 H   0  0  0  0  0
   13.7508   29.7825   68.2718 H   0  0  0  0  0
    7.4488   30.8299   71.0057 H   0  0  0  0  0
    4.9842   35.9103   73.9960 H   0  0  0  0  0
    7.5428   35.8694   75.2713 H   0  0  0  0  0
    7.1664   36.8637   77.1716 H   0  0  0  0  0
    6.2877   38.4821   72.6184 H   0  0  0  0  0
    7.9129   39.7419   71.1531 H   0  0  0  0  0
   11.2742   37.6792   73.0776 H   0  0  0  0  0
    9.6700   36.4104   74.5575 H   0  0  0  0  0
    3.1513   39.8106   77.2865 H   0  0  0  0  0
    0.7955   38.9934   77.5072 H   0  0  0  0  0
    2.2642   35.1796   79.0420 H   0  0  0  0  0
    4.6263   36.0029   78.8227 H   0  0  0  0  0
  1  2  4  0  0  0
  1  5  4  0  0  0
  1  6  1  0  0  0
  2  3  4  0  0  0
  3  4  4  0  0  0
  4  5  4  0  0  0
  4  8  1  0  0  0
  6  7  1  0  0  0
  8  9  2  0  0  0
  9 10  1  0  0  0
  9 13  1  0  0  0
 10 11  1  0  0  0
 10 14  2  0  0  0
 11 12  2  0  0  0
 12 13  1  0  0  0
 12 15  1  0  0  0
 15 16  1  0  0  0
 16 17  1  0  0  0
 16 21  1  0  0  0
 17 18  2  0  0  0
 17 19  1  0  0  0
 19 20  1  0  0  0
 20 28  2  0  0  0
 20 29  2  0  0  0
 20 30  1  0  0  0
 21 22  4  0  0  0
 21 26  4  0  0  0
 22 23  4  0  0  0
 23 24  4  0  0  0
 24 25  4  0  0  0
 24 27  1  0  0  0
 25 26  4  0  0  0
 30 31  4  0  0  0
 30 35  4  0  0  0
 31 32  4  0  0  0
 32 33  4  0  0  0
 33 34  4  0  0  0
 33 36  1  0  0  0
 34 35  4  0  0  0
 36 37  2  0  0  0
 36 38  2  0  0  0
  2 39  1  0  0  0
  3 40  1  0  0  0
  6 41  1  0  0  0
  6 42  1  0  0  0
  7 43  1  0  0  0
  7 44  1  0  0  0
  7 45  1  0  0  0
  8 46  1  0  0  0
 15 47  1  0  0  0
 16 48  1  0  0  0
 19 49  1  0  0  0
 22 50  1  0  0  0
 23 51  1  0  0  0
 25 52  1  0  0  0
 26 53  1  0  0  0
 31 54  1  0  0  0
 32 55  1  0  0  0
 34 56  1  0  0  0
 35 57  1  0  0  0
M  END
$$$$
