5ykp_ligand
  -I-interpret- 

 47 48  0  0  0  0  0  0  0  0999 V2000
   12.0730    1.9200   18.5550 C   0  0  0  0  0
   13.4890    2.4340   18.5420 C   0  0  0  0  0
   13.9340    3.0090   19.8680 C   0  0  0  0  0
   13.0070    4.1910   20.2110 C   0  0  0  0  0
   11.5280    3.6690   20.3460 C   0  0  0  0  0
   11.0780    2.9630   19.0560 C   0  0  0  0  0
   11.5240    2.7340   21.4330 O   0  0  0  0  0
   10.5210    4.7370   20.7630 C   0  0  0  0  0
   13.4750    4.9570   21.4430 C   0  0  0  0  0
   13.0770    6.3700   21.5620 C   0  0  0  0  0
   12.9020    7.0740   22.8850 C   0  0  0  0  0
   11.7570    6.5690   23.7030 C   0  0  0  0  0
   10.6050    7.1660   23.9870 C   0  0  0  0  0
   13.8850    4.1270   22.6370 C   0  0  0  0  0
   14.4280    6.0200   21.1620 O   0  0  0  0  0
    9.4980    6.4540   24.7120 C   0  0  0  0  0
   10.2670    8.5660   23.6240 C   0  0  0  0  0
   15.2740    3.4670   19.8470 O   0  0  0  0  0
   16.2230    2.3970   19.9180 C   0  0  0  0  0
   14.1680    2.4790   17.5300 O   0  0  0  0  0
   13.1010    5.0710   19.0660 O   0  0  0  0  0
   12.0317    1.0644   19.2291 H   0  0  0  0  0
   11.8004    1.6587   17.5325 H   0  0  0  0  0
   13.8779    2.2166   20.6144 H   0  0  0  0  0
   10.1433    2.4464   19.2739 H   0  0  0  0  0
   10.9831    3.7242   18.2816 H   0  0  0  0  0
   12.1405    2.0228   21.2441 H   0  0  0  0  0
    9.5426    4.2772   20.9028 H   0  0  0  0  0
   10.8453    5.1953   21.6973 H   0  0  0  0  0
   10.4583    5.4986   19.9858 H   0  0  0  0  0
   12.2380    6.9376   21.1594 H   0  0  0  0  0
   12.7024    8.1230   22.6665 H   0  0  0  0  0
   13.8100    6.9017   23.4629 H   0  0  0  0  0
   11.8855    5.5723   24.1250 H   0  0  0  0  0
   14.7541    4.5814   23.1126 H   0  0  0  0  0
   13.0605    4.0845   23.3487 H   0  0  0  0  0
   14.1351    3.1183   22.3081 H   0  0  0  0  0
    9.1867    5.5845   24.1331 H   0  0  0  0  0
    9.8544    6.1321   25.6905 H   0  0  0  0  0
    8.6527    7.1308   24.8364 H   0  0  0  0  0
   10.9829    9.2436   24.0893 H   0  0  0  0  0
   10.3087    8.6793   22.5407 H   0  0  0  0  0
    9.2622    8.7989   23.9766 H   0  0  0  0  0
   16.0732    1.8410   20.8435 H   0  0  0  0  0
   16.0828    1.7316   19.0662 H   0  0  0  0  0
   17.2328    2.8068   19.8982 H   0  0  0  0  0
   12.8095    4.6036   18.2798 H   0  0  0  0  0
  1  2  1  0  0  0
  1  6  1  0  0  0
  2  3  1  0  0  0
  2 20  2  0  0  0
  3  4  1  0  0  0
  3 18  1  0  0  0
  4  5  1  0  0  0
  4  9  1  0  0  0
  4 21  1  0  0  0
  5  6  1  0  0  0
  5  7  1  0  0  0
  5  8  1  0  0  0
  9 10  1  0  0  0
  9 14  1  0  0  0
  9 15  1  0  0  0
 10 11  1  0  0  0
 10 15  1  0  0  0
 11 12  1  0  0  0
 12 13  2  0  0  0
 13 16  1  0  0  0
 13 17  1  0  0  0
 18 19  1  0  0  0
  1 22  1  0  0  0
  1 23  1  0  0  0
  3 24  1  0  0  0
  6 25  1  0  0  0
  6 26  1  0  0  0
  7 27  1  0  0  0
  8 28  1  0  0  0
  8 29  1  0  0  0
  8 30  1  0  0  0
 10 31  1  0  0  0
 11 32  1  0  0  0
 11 33  1  0  0  0
 12 34  1  0  0  0
 14 35  1  0  0  0
 14 36  1  0  0  0
 14 37  1  0  0  0
 16 38  1  0  0  0
 16 39  1  0  0  0
 16 40  1  0  0  0
 17 41  1  0  0  0
 17 42  1  0  0  0
 17 43  1  0  0  0
 19 44  1  0  0  0
 19 45  1  0  0  0
 19 46  1  0  0  0
 21 47  1  0  0  0
M  END
$$$$
