3dy6_ligand
  -I-interpret- 

 51 54  0  0  0  0  0  0  0  0999 V2000
   33.1580    7.3050   61.1190 N   0  0  0  0  0
   32.6350    5.7080   61.4620 S   0  0  0  0  0
   34.4990    7.3470   60.4950 C   0  0  0  0  0
   32.8260    8.3220   62.1630 C   0  0  0  0  0
   31.4060    5.8060   60.1760 C   0  0  0  0  0
   31.9820    5.5900   62.7600 O   0  0  0  0  0
   33.6200    4.7390   61.0290 O   0  0  0  0  0
   35.0550    8.7150   60.3940 C   0  0  0  0  0
   33.9220    9.2930   62.5420 C   0  0  0  0  0
   31.7060    5.3660   58.9030 C   0  0  0  0  0
   30.1790    6.3550   60.4830 C   0  0  0  0  0
   34.7770    9.6430   61.3740 C   0  0  0  0  0
   35.8480    9.0440   59.3210 C   0  0  0  0  0
   30.7310    5.4710   57.9300 C   0  0  0  0  0
   29.2220    6.4560   59.4960 C   0  0  0  0  0
   35.3000   10.9120   61.2780 C   0  0  0  0  0
   36.3680   10.3140   59.2340 C   0  0  0  0  0
   30.9970    5.0030   56.5630 C   0  0  0  0  0
   29.4990    6.0090   58.2200 C   0  0  0  0  0
   36.0970   11.2480   60.2100 C   0  0  0  0  0
   30.5110    5.8340   55.5860 N   0  0  0  0  0
   31.5980    3.9530   56.3740 O   0  0  0  0  0
   30.6860    5.5720   54.2090 C   0  0  0  0  0
   30.0130    6.3410   53.2820 C   0  0  0  0  0
   31.5210    4.5620   53.7860 C   0  0  0  0  0
   30.1710    6.1050   51.9390 C   0  0  0  0  0
   29.1170    7.4220   53.7000 C   0  0  0  0  0
   31.6760    4.3240   52.4430 C   0  0  0  0  0
   31.0030    5.0940   51.5240 C   0  0  0  0  0
   28.6260    7.3480   54.8560 O   0  0  0  0  0
   28.9160    8.3300   52.8510 O   0  0  0  0  0
   34.4037    6.9545   59.4826 H   0  0  0  0  0
   35.1726    6.7630   61.1221 H   0  0  0  0  0
   32.5991    7.7587   63.0681 H   0  0  0  0  0
   32.0210    8.9272   61.7460 H   0  0  0  0  0
   34.5503    8.8230   63.2986 H   0  0  0  0  0
   33.4577   10.2066   62.9134 H   0  0  0  0  0
   32.6853    4.9471   58.6715 H   0  0  0  0  0
   29.9684    6.7048   61.4936 H   0  0  0  0  0
   36.0624    8.3065   58.5475 H   0  0  0  0  0
   28.2476    6.8884   59.7231 H   0  0  0  0  0
   35.0822   11.6509   62.0491 H   0  0  0  0  0
   36.9989   10.5837   58.3871 H   0  0  0  0  0
   28.7402    6.0825   57.4409 H   0  0  0  0  0
   36.5142   12.2522   60.1352 H   0  0  0  0  0
   30.0035    6.6738   55.8646 H   0  0  0  0  0
   32.0568    3.9538   54.5148 H   0  0  0  0  0
   29.6405    6.7150   51.2078 H   0  0  0  0  0
   32.3337    3.5233   52.1046 H   0  0  0  0  0
   31.1306    4.9008   50.4589 H   0  0  0  0  0
   29.4150    8.1373   52.0538 H   0  0  0  0  0
  1  2  1  0  0  0
  1  3  1  0  0  0
  1  4  1  0  0  0
  2  5  1  0  0  0
  2  6  2  0  0  0
  2  7  2  0  0  0
  3  8  1  0  0  0
  4  9  1  0  0  0
  5 10  4  0  0  0
  5 11  4  0  0  0
  8 12  4  0  0  0
  8 13  4  0  0  0
  9 12  1  0  0  0
 10 14  4  0  0  0
 11 15  4  0  0  0
 12 16  4  0  0  0
 13 17  4  0  0  0
 14 18  1  0  0  0
 14 19  4  0  0  0
 15 19  4  0  0  0
 16 20  4  0  0  0
 17 20  4  0  0  0
 18 21  1  0  0  0
 18 22  2  0  0  0
 21 23  1  0  0  0
 23 24  4  0  0  0
 23 25  4  0  0  0
 24 26  4  0  0  0
 24 27  1  0  0  0
 25 28  4  0  0  0
 26 29  4  0  0  0
 27 30  2  0  0  0
 27 31  1  0  0  0
 28 29  4  0  0  0
  3 32  1  0  0  0
  3 33  1  0  0  0
  4 34  1  0  0  0
  4 35  1  0  0  0
  9 36  1  0  0  0
  9 37  1  0  0  0
 10 38  1  0  0  0
 11 39  1  0  0  0
 13 40  1  0  0  0
 15 41  1  0  0  0
 16 42  1  0  0  0
 17 43  1  0  0  0
 19 44  1  0  0  0
 20 45  1  0  0  0
 21 46  1  0  0  0
 25 47  1  0  0  0
 26 48  1  0  0  0
 28 49  1  0  0  0
 29 50  1  0  0  0
 31 51  1  0  0  0
M  END
$$$$
