5gjg_ligand
  -I-interpret- 

 76 80  0  0  0  0  0  0  0  0999 V2000
  -17.8450  -48.0500  -18.7710 C   0  0  0  0  0
  -16.9300  -49.0920  -18.9850 C   0  0  0  0  0
  -15.7030  -49.0820  -18.3160 C   0  0  0  0  0
  -15.3720  -48.0060  -17.4170 C   0  0  0  0  0
  -16.2980  -46.9860  -17.2290 C   0  0  0  0  0
  -17.5130  -47.0050  -17.9000 C   0  0  0  0  0
  -19.1790  -48.0350  -19.4630 C   0  0  0  0  0
  -14.5780  -50.9620  -19.4950 C   0  0  0  0  0
  -13.5720  -51.9550  -19.0200 C   0  0  0  0  0
  -14.1270  -50.2850  -20.7510 C   0  0  0  0  0
  -21.4200  -48.6630  -18.8550 C   0  0  0  0  0
  -19.2100  -48.3800  -20.6220 O   0  0  0  0  0
  -20.3110  -47.6870  -18.7780 N   0  0  0  0  0
  -14.1130  -48.0550  -16.7530 N   0  0  0  0  0
  -14.6810  -50.0070  -18.3950 O   0  0  0  0  0
  -22.5760  -48.3080  -17.8840 C   0  0  0  0  0
  -23.0460  -46.9400  -18.1030 N   0  3  0  0  0
  -21.9330  -46.0150  -17.8960 C   0  0  0  0  0
  -20.7970  -46.2990  -18.8890 C   0  0  0  0  0
  -24.1960  -46.6120  -17.2000 C   0  0  0  0  0
  -13.4080  -47.1160  -16.0020 C   0  0  0  0  0
  -11.9900  -47.5090  -15.7610 C   0  0  0  0  0
  -13.8600  -46.0100  -15.6020 O   0  0  0  0  0
  -11.5100  -48.7440  -16.1900 N   0  0  0  0  0
  -10.2280  -48.8460  -15.9440 C   0  0  0  0  0
   -9.5340  -47.4700  -15.1640 S   0  0  0  0  0
  -11.0730  -46.6980  -15.1860 C   0  0  0  0  0
   -9.3860  -50.0030  -16.2610 C   0  0  0  0  0
   -9.8630  -50.9970  -17.1110 C   0  0  0  0  0
   -9.0730  -52.0920  -17.4250 C   0  0  0  0  0
   -7.8040  -52.2080  -16.8850 C   0  0  0  0  0
   -7.3000  -51.2130  -16.0480 C   0  0  0  0  0
   -8.0950  -50.1050  -15.7480 C   0  0  0  0  0
   -5.9110  -51.3780  -15.5010 C   0  0  0  0  0
   -5.1610  -50.2490  -15.4320 N   0  0  0  0  0
   -5.5000  -52.4820  -15.1440 O   0  0  0  0  0
   -3.8890  -50.0610  -14.8300 C   0  0  0  0  0
   -2.9670  -51.0930  -14.6340 C   0  0  0  0  0
   -1.7430  -50.8220  -14.0430 C   0  0  0  0  0
   -1.4210  -49.5290  -13.6580 C   0  0  0  0  0
   -2.3270  -48.5010  -13.8610 C   0  0  0  0  0
   -3.5570  -48.7590  -14.4480 C   0  0  0  0  0
  -17.1748  -49.9046  -19.6691 H   0  0  0  0  0
  -16.0681  -46.1652  -16.5496 H   0  0  0  0  0
  -18.2218  -46.1914  -17.7461 H   0  0  0  0  0
  -15.5331  -51.4266  -19.7402 H   0  0  0  0  0
  -13.4220  -52.7140  -19.7878 H   0  0  0  0  0
  -12.6285  -51.4472  -18.8200 H   0  0  0  0  0
  -13.9328  -52.4271  -18.1062 H   0  0  0  0  0
  -13.1878  -49.7643  -20.5644 H   0  0  0  0  0
  -13.9813  -51.0311  -21.5322 H   0  0  0  0  0
  -14.8846  -49.5683  -21.0681 H   0  0  0  0  0
  -21.0312  -49.6428  -18.5778 H   0  0  0  0  0
  -21.8135  -48.6518  -19.8714 H   0  0  0  0  0
  -13.6344  -48.9511  -16.8448 H   0  0  0  0  0
  -22.2102  -48.3916  -16.8606 H   0  0  0  0  0
  -23.4041  -48.9941  -18.0618 H   0  0  0  0  0
  -23.3838  -46.8505  -19.0613 H   0  0  0  0  0
  -21.5538  -46.1423  -16.8820 H   0  0  0  0  0
  -22.2888  -44.9964  -18.0506 H   0  0  0  0  0
  -21.1776  -46.1478  -19.8991 H   0  0  0  0  0
  -19.9691  -45.6260  -18.6659 H   0  0  0  0  0
  -25.0188  -47.2992  -17.3974 H   0  0  0  0  0
  -23.8802  -46.7101  -16.1614 H   0  0  0  0  0
  -24.5226  -45.5890  -17.3867 H   0  0  0  0  0
  -11.2781  -45.7018  -14.7940 H   0  0  0  0  0
  -10.8647  -50.9137  -17.5326 H   0  0  0  0  0
   -9.4514  -52.8619  -18.0974 H   0  0  0  0  0
   -7.1950  -53.0822  -17.1153 H   0  0  0  0  0
   -7.7027  -49.3146  -15.1081 H   0  0  0  0  0
   -5.5663  -49.4232  -15.8726 H   0  0  0  0  0
   -3.2101  -52.1089  -14.9453 H   0  0  0  0  0
   -1.0294  -51.6296  -13.8798 H   0  0  0  0  0
   -0.4557  -49.3219  -13.1960 H   0  0  0  0  0
   -2.0724  -47.4853  -13.5583 H   0  0  0  0  0
   -4.2644  -47.9459  -14.6112 H   0  0  0  0  0
  2  1  4  0  0  0
  1  6  4  0  0  0
  1  7  1  0  0  0
  3  2  4  0  0  0
  3  4  4  0  0  0
 15  3  1  0  0  0
  4  5  4  0  0  0
  4 14  1  0  0  0
  5  6  4  0  0  0
  7 12  2  0  0  0
  7 13  1  0  0  0
  8  9  1  0  0  0
  8 10  1  0  0  0
  8 15  1  0  0  0
 13 11  1  0  0  0
 11 16  1  0  0  0
 13 19  1  0  0  0
 14 21  1  0  0  0
 16 17  1  0  0  0
 17 18  1  0  0  0
 17 20  1  0  0  0
 18 19  1  0  0  0
 21 22  1  0  0  0
 21 23  2  0  0  0
 22 24  4  0  0  0
 22 27  4  0  0  0
 24 25  4  0  0  0
 25 26  4  0  0  0
 25 28  1  0  0  0
 26 27  4  0  0  0
 28 29  4  0  0  0
 28 33  4  0  0  0
 29 30  4  0  0  0
 30 31  4  0  0  0
 31 32  4  0  0  0
 32 33  4  0  0  0
 32 34  1  0  0  0
 34 35  1  0  0  0
 34 36  2  0  0  0
 35 37  1  0  0  0
 37 38  4  0  0  0
 37 42  4  0  0  0
 38 39  4  0  0  0
 39 40  4  0  0  0
 40 41  4  0  0  0
 41 42  4  0  0  0
  2 43  1  0  0  0
  5 44  1  0  0  0
  6 45  1  0  0  0
  8 46  1  0  0  0
  9 47  1  0  0  0
  9 48  1  0  0  0
  9 49  1  0  0  0
 10 50  1  0  0  0
 10 51  1  0  0  0
 10 52  1  0  0  0
 11 53  1  0  0  0
 11 54  1  0  0  0
 14 55  1  0  0  0
 16 56  1  0  0  0
 16 57  1  0  0  0
 17 58  1  0  0  0
 18 59  1  0  0  0
 18 60  1  0  0  0
 19 61  1  0  0  0
 19 62  1  0  0  0
 20 63  1  0  0  0
 20 64  1  0  0  0
 20 65  1  0  0  0
 27 66  1  0  0  0
 29 67  1  0  0  0
 30 68  1  0  0  0
 31 69  1  0  0  0
 33 70  1  0  0  0
 35 71  1  0  0  0
 38 72  1  0  0  0
 39 73  1  0  0  0
 40 74  1  0  0  0
 41 75  1  0  0  0
 42 76  1  0  0  0
M  END
$$$$
