5oxm_ligand
  -I-interpret- 

 33 32  0  0  0  0  0  0  0  0999 V2000
   20.3020   15.8200   -1.9040 N   0  3  0  0  0
   21.7570   15.7800   -1.8740 C   0  0  0  0  0
   22.3360   15.7830   -3.2780 C   0  0  0  0  0
   22.4470   14.7420   -3.9300 O   0  0  0  0  0
   22.2540   14.5580   -1.1000 C   0  0  0  0  0
   22.4200   14.8380    0.3820 C   0  0  0  0  0
   22.3080   16.0150    0.7830 O   0  0  0  0  0
   22.6740   13.8860    1.1480 O   0  0  0  0  0
   22.7010   16.9760   -3.7310 N   0  0  0  0  0
   23.3430   17.1550   -5.0200 C   0  0  0  0  0
   24.7110   16.4760   -5.0410 C   0  0  0  0  0
   25.3320   16.2630   -3.9990 O   0  0  0  0  0
   23.4750   18.6450   -5.3380 C   0  0  0  0  0
   23.9960   19.4810   -4.1820 C   0  0  0  0  0
   24.2370   20.9260   -4.5730 C   0  0  0  0  0
   24.4150   21.1930   -5.7800 O   0  0  0  0  0
   24.2460   21.7950   -3.6740 O   0  0  0  0  0
   25.2240   16.1140   -6.0980 O   0  0  0  0  0
   19.9963   16.6421   -2.4246 H   0  0  0  0  0
   19.9492   14.9777   -2.3584 H   0  0  0  0  0
   19.9446   15.8681   -0.9499 H   0  0  0  0  0
   22.0995   16.6788   -1.3612 H   0  0  0  0  0
   23.2284   14.2790   -1.5010 H   0  0  0  0  0
   21.5146   13.7650   -1.2120 H   0  0  0  0  0
   22.1125   16.5884    0.0383 H   0  0  0  0  0
   22.5238   17.7968   -3.1520 H   0  0  0  0  0
   22.7233   16.6882   -5.7856 H   0  0  0  0  0
   24.8252   16.5917   -3.2529 H   0  0  0  0  0
   22.4778   19.0132   -5.5790 H   0  0  0  0  0
   24.1924   18.7388   -6.1533 H   0  0  0  0  0
   24.9473   19.0561   -3.8615 H   0  0  0  0  0
   23.2454   19.4671   -3.3917 H   0  0  0  0  0
   24.0901   21.3764   -2.8243 H   0  0  0  0  0
  1  2  1  0  0  0
  2  3  1  0  0  0
  2  5  1  0  0  0
  3  4  2  0  0  0
  3  9  1  0  0  0
  5  6  1  0  0  0
  6  7  1  0  0  0
  6  8  2  0  0  0
  9 10  1  0  0  0
 10 11  1  0  0  0
 10 13  1  0  0  0
 11 12  1  0  0  0
 11 18  2  0  0  0
 13 14  1  0  0  0
 14 15  1  0  0  0
 15 16  2  0  0  0
 15 17  1  0  0  0
  1 19  1  0  0  0
  1 20  1  0  0  0
  1 21  1  0  0  0
  2 22  1  0  0  0
  5 23  1  0  0  0
  5 24  1  0  0  0
  7 25  1  0  0  0
  9 26  1  0  0  0
 10 27  1  0  0  0
 12 28  1  0  0  0
 13 29  1  0  0  0
 13 30  1  0  0  0
 14 31  1  0  0  0
 14 32  1  0  0  0
 17 33  1  0  0  0
M  END
$$$$
