6pyb_ligand
  -I-interpret- 

 49 51  0  0  0  0  0  0  0  0999 V2000
   14.7480   31.5410   -2.2550 C   0  0  0  0  0
   15.2560   30.4320   -2.9520 C   0  0  0  0  0
   14.6790   30.3210   -4.3800 C   0  0  0  0  0
   15.3060   29.1140   -5.0900 C   0  0  0  0  0
   13.3470   28.4420   -3.9480 C   0  0  0  0  0
   12.5920   29.9330   -5.8430 C   0  0  0  0  0
   10.3150   32.8380   -5.9160 C   0  0  0  0  0
   12.4140   33.4620   -6.9270 C   0  0  0  0  0
   12.9150   32.1800   -6.7040 C   0  0  0  0  0
   13.7450   33.6910   -0.8010 C   0  0  0  0  0
   13.4990   34.9810   -4.1420 C   0  0  0  0  0
   12.1080   31.2260   -6.0830 C   0  0  0  0  0
   10.8130   31.5600   -5.6950 C   0  0  0  0  0
   11.1250   33.7830   -6.5280 C   0  0  0  0  0
   14.4850   34.1700   -7.7700 C   0  0  0  0  0
   14.5910   31.4460   -0.8760 C   0  0  0  0  0
   14.0880   32.5170   -0.1460 C   0  0  0  0  0
   13.8990   33.8000   -2.1710 C   0  0  0  0  0
   14.4020   32.7290   -2.9000 C   0  0  0  0  0
   13.2120   29.8950   -4.4280 C   0  0  0  0  0
   13.5320   34.9960   -2.7150 O   0  0  0  0  0
   14.6330   27.9640   -4.4830 O   0  0  0  0  0
   10.7070   35.0550   -6.7770 O   0  0  0  0  0
   13.1120   34.4780   -7.5150 O   0  0  0  0  0
   13.2490   34.7790   -0.1540 O   0  0  0  0  0
   14.9768   29.5320   -2.4041 H   0  0  0  0  0
   16.3366   30.5499   -3.0327 H   0  0  0  0  0
   14.8554   31.3079   -4.8078 H   0  0  0  0  0
   16.3882   29.0751   -4.9654 H   0  0  0  0  0
   15.1703   29.1515   -6.1709 H   0  0  0  0  0
   12.5174   27.8284   -4.2992 H   0  0  0  0  0
   13.3205   28.3784   -2.8602 H   0  0  0  0  0
   13.3462   29.6746   -6.5863 H   0  0  0  0  0
   11.7769   29.2125   -5.9111 H   0  0  0  0  0
    9.3002   33.0949   -5.6122 H   0  0  0  0  0
   13.9289   31.9251   -7.0123 H   0  0  0  0  0
   14.4898   34.7359   -4.5245 H   0  0  0  0  0
   12.7824   34.2324   -4.4797 H   0  0  0  0  0
   13.1997   35.9633   -4.5076 H   0  0  0  0  0
   10.1839   30.8115   -5.2132 H   0  0  0  0  0
   14.9847   33.9381   -6.8295 H   0  0  0  0  0
   14.5453   33.3098   -8.4367 H   0  0  0  0  0
   14.9678   35.0282   -8.2375 H   0  0  0  0  0
   14.8647   30.5238   -0.3634 H   0  0  0  0  0
   13.9639   32.4349    0.9338 H   0  0  0  0  0
   14.5266   32.8173   -3.9792 H   0  0  0  0  0
   12.5571   30.5459   -3.8488 H   0  0  0  0  0
   11.4137   35.5451   -7.2036 H   0  0  0  0  0
   13.0796   35.4782   -0.7896 H   0  0  0  0  0
  1  2  1  0  0  0
  1 16  4  0  0  0
 19  1  4  0  0  0
  2  3  1  0  0  0
  3  4  1  0  0  0
  3 20  1  0  0  0
  4 22  1  0  0  0
 20  5  1  0  0  0
  5 22  1  0  0  0
  6 12  1  0  0  0
 20  6  1  0  0  0
 13  7  4  0  0  0
  7 14  4  0  0  0
  9  8  4  0  0  0
  8 14  4  0  0  0
  8 24  1  0  0  0
 12  9  4  0  0  0
 10 17  4  0  0  0
 18 10  4  0  0  0
 10 25  1  0  0  0
 21 11  1  0  0  0
 12 13  4  0  0  0
 14 23  1  0  0  0
 24 15  1  0  0  0
 17 16  4  0  0  0
 18 19  4  0  0  0
 18 21  1  0  0  0
  2 26  1  0  0  0
  2 27  1  0  0  0
  3 28  1  0  0  0
  4 29  1  0  0  0
  4 30  1  0  0  0
  5 31  1  0  0  0
  5 32  1  0  0  0
  6 33  1  0  0  0
  6 34  1  0  0  0
  7 35  1  0  0  0
  9 36  1  0  0  0
 11 37  1  0  0  0
 11 38  1  0  0  0
 11 39  1  0  0  0
 13 40  1  0  0  0
 15 41  1  0  0  0
 15 42  1  0  0  0
 15 43  1  0  0  0
 16 44  1  0  0  0
 17 45  1  0  0  0
 19 46  1  0  0  0
 20 47  1  0  0  0
 23 48  1  0  0  0
 25 49  1  0  0  0
M  END
$$$$
