5nhl_ligand
  -I-interpret- 

 53 56  0  0  0  0  0  0  0  0999 V2000
  -11.9760   13.4660   40.2410 C   0  0  0  0  0
  -13.3650   13.3670   40.6550 C   0  0  0  0  0
  -14.3490   12.3820   40.4050 C   0  0  0  0  0
  -20.4050   15.3600   43.7860 N   0  0  0  0  0
  -11.6980   15.1840   42.0790 C   0  0  0  0  0
  -11.3350   14.4570   43.3720 C   0  0  0  0  0
  -13.2260   15.5190   41.9710 C   0  0  0  0  0
  -13.9500   14.3230   41.4380 C   0  0  0  0  0
  -15.5130   12.7760   41.0440 C   0  0  0  0  0
  -16.8660   12.2220   41.1500 C   0  0  0  0  0
  -17.2950   11.0250   40.5560 C   0  0  0  0  0
  -16.4090   10.1100   39.7420 C   0  0  0  0  0
  -18.9850   12.5640   41.9630 C   0  0  0  0  0
  -18.6310   10.7020   40.7620 C   0  0  0  0  0
  -18.7300   15.8090   45.0340 C   0  0  0  0  0
  -18.4480   14.5840   44.4500 C   0  0  0  0  0
  -11.4700   12.6140   39.5260 O   0  0  0  0  0
  -11.2340   14.4540   40.8480 N   0  0  0  0  0
   -9.8440   14.6540   40.4060 C   0  0  0  0  0
   -9.6170   15.9050   39.5770 C   0  0  0  0  0
  -10.1230   15.7350   38.2400 O   0  0  0  0  0
  -10.8030   16.9310   37.8550 C   0  0  0  0  0
  -15.2400   13.9560   41.7050 N   0  0  0  0  0
  -17.7070   13.0040   41.8450 N   0  0  0  0  0
  -19.4920   11.4360   41.4560 N   0  0  0  0  0
  -19.8360   13.2960   42.7730 N   0  0  0  0  0
  -19.5440   14.3280   43.6540 C   0  0  0  0  0
  -21.7030   15.5670   43.1430 C   0  0  0  0  0
  -19.9270   16.2820   44.6790 N   0  0  0  0  0
  -14.2152   11.4753   39.8151 H   0  0  0  0  0
  -11.1567   16.1287   42.1301 H   0  0  0  0  0
  -11.7987   13.4706   43.3752 H   0  0  0  0  0
  -10.2521   14.3510   43.4360 H   0  0  0  0  0
  -11.6961   15.0323   44.2245 H   0  0  0  0  0
  -13.3703   16.3655   41.2997 H   0  0  0  0  0
  -13.6164   15.7766   42.9555 H   0  0  0  0  0
  -16.0192   10.6545   38.8820 H   0  0  0  0  0
  -15.5808    9.7638   40.3603 H   0  0  0  0  0
  -16.9904    9.2543   39.3988 H   0  0  0  0  0
  -18.9995    9.7761   40.3203 H   0  0  0  0  0
  -18.0497   16.3288   45.7086 H   0  0  0  0  0
  -17.5619   13.9645   44.5885 H   0  0  0  0  0
   -9.5859   13.8036   39.7749 H   0  0  0  0  0
   -9.2360   14.7541   41.3051 H   0  0  0  0  0
   -8.5460   16.1004   39.5239 H   0  0  0  0  0
  -10.1419   16.7367   40.0470 H   0  0  0  0  0
  -11.6272   17.1166   38.5437 H   0  0  0  0  0
  -10.1068   17.7691   37.8853 H   0  0  0  0  0
  -11.1920   16.8166   36.8432 H   0  0  0  0  0
  -20.8215   13.0396   42.7138 H   0  0  0  0  0
  -21.5713   15.5920   42.0613 H   0  0  0  0  0
  -22.3736   14.7502   43.4098 H   0  0  0  0  0
  -22.1276   16.5124   43.4806 H   0  0  0  0  0
  2  1  1  0  0  0
  1 17  2  0  0  0
  1 18  1  0  0  0
  3  2  4  0  0  0
  8  2  4  0  0  0
  9  3  4  0  0  0
 27  4  4  0  0  0
  4 28  1  0  0  0
  4 29  4  0  0  0
  5  6  1  0  0  0
  7  5  1  0  0  0
  5 18  1  0  0  0
  8  7  1  0  0  0
 23  8  4  0  0  0
 10  9  1  0  0  0
  9 23  4  0  0  0
 10 11  4  0  0  0
 24 10  4  0  0  0
 11 12  1  0  0  0
 14 11  4  0  0  0
 13 24  4  0  0  0
 13 25  4  0  0  0
 26 13  1  0  0  0
 25 14  4  0  0  0
 16 15  4  0  0  0
 15 29  4  0  0  0
 27 16  4  0  0  0
 18 19  1  0  0  0
 19 20  1  0  0  0
 20 21  1  0  0  0
 21 22  1  0  0  0
 26 27  1  0  0  0
  3 30  1  0  0  0
  5 31  1  0  0  0
  6 32  1  0  0  0
  6 33  1  0  0  0
  6 34  1  0  0  0
  7 35  1  0  0  0
  7 36  1  0  0  0
 12 37  1  0  0  0
 12 38  1  0  0  0
 12 39  1  0  0  0
 14 40  1  0  0  0
 15 41  1  0  0  0
 16 42  1  0  0  0
 19 43  1  0  0  0
 19 44  1  0  0  0
 20 45  1  0  0  0
 20 46  1  0  0  0
 22 47  1  0  0  0
 22 48  1  0  0  0
 22 49  1  0  0  0
 26 50  1  0  0  0
 28 51  1  0  0  0
 28 52  1  0  0  0
 28 53  1  0  0  0
M  END
$$$$
