### 
### Created by X-TOOL on Mon Aug  2 16:14:57 2021
### 

@<TRIPOS>MOLECULE
6mmq_ligand
   33    36     1     0     0
SMALL
GAST_HUCK


@<TRIPOS>ATOM
      1 P          -1.0870  -17.0150   -2.1300 P.3       1 CMP         0.2557
      2 O1P        -2.0970  -17.4480   -3.1610 O.co2     1 CMP        -0.6177
      3 O2P         0.3820  -16.9040   -2.4480 O.co2     1 CMP        -0.6177
      4 O5'        -1.1660  -18.0060   -0.8740 O.3       1 CMP        -0.2514
      5 C5'        -0.8440  -17.5690    0.4460 C.3       1 CMP         0.1128
      6 C4'        -1.2980  -16.1440    0.6390 C.3       1 CMP         0.1242
      7 O4'        -0.7770  -15.5420    1.8450 O.3       1 CMP        -0.3360
      8 C3'        -0.8270  -15.2040   -0.4340 C.3       1 CMP         0.1540
      9 O3'        -1.4680  -15.4900   -1.6540 O.3       1 CMP        -0.2453
     10 C2'        -1.0920  -13.8430    0.2000 C.3       1 CMP         0.1439
     11 O2'        -2.4810  -13.5310    0.1800 O.3       1 CMP        -0.3832
     12 C1'        -0.6840  -14.1340    1.6530 C.3       1 CMP         0.2014
     13 N9          0.6980  -13.7020    1.9390 N.pl3     1 CMP        -0.1919
     14 C8          1.8230  -14.4410    1.7640 C.2       1 CMP         0.1123
     15 N7          2.9340  -13.7380    2.1180 N.2       1 CMP        -0.2958
     16 C5          2.5270  -12.5170    2.5440 C.ar      1 CMP         0.1045
     17 C6          3.1690  -11.2730    3.0540 C.ar      1 CMP         0.1298
     18 N6          4.5170  -11.1450    3.2290 N.pl3     1 CMP        -0.3152
     19 N1          2.3520  -10.2400    3.3720 N.ar      1 CMP        -0.2698
     20 C2          1.0220  -10.3160    3.2300 C.ar      1 CMP         0.0533
     21 N3          0.3640  -11.3820    2.7680 N.ar      1 CMP        -0.2714
     22 C4          1.0510  -12.5000    2.4130 C.ar      1 CMP         0.1613
     23 H1          0.2443  -17.6285    0.5948 H         1 CMP         0.0647
     24 H2         -1.3501  -18.2155    1.1780 H         1 CMP         0.0647
     25 H3         -2.3976  -16.1466    0.6699 H         1 CMP         0.0655
     26 H4          0.2549  -15.3177   -0.5971 H         1 CMP         0.0712
     27 H5         -0.5008  -13.0391   -0.2629 H         1 CMP         0.0680
     28 H6         -2.6191  -12.6803    0.5797 H         1 CMP         0.2101
     29 H7         -1.3716  -13.6143    2.3364 H         1 CMP         0.0996
     30 H8          1.8354  -15.4634    1.3891 H         1 CMP         0.1349
     31 H9          4.9085  -10.2614    3.5851 H         1 CMP         0.1820
     32 H10         5.1425  -11.9321    3.0049 H         1 CMP         0.1820
     33 H11         0.4368   -9.4479    3.5110 H         1 CMP         0.0996
@<TRIPOS>BOND
     1    1    2 ar 
     2    1    3 ar 
     3    1    4 1  
     4    1    9 1  
     5    4    5 1  
     6    5    6 1  
     7    6    7 1  
     8    6    8 1  
     9    7   12 1  
    10    8    9 1  
    11    8   10 1  
    12   10   11 1  
    13   10   12 1  
    14   12   13 1  
    15   13   14 1  
    16   13   22 1  
    17   14   15 2  
    18   15   16 1  
    19   16   17 ar 
    20   16   22 ar 
    21   17   18 1  
    22   17   19 ar 
    23   19   20 ar 
    24   20   21 ar 
    25   21   22 ar 
    26    5   23 1  
    27    5   24 1  
    28    6   25 1  
    29    8   26 1  
    30   10   27 1  
    31   11   28 1  
    32   12   29 1  
    33   14   30 1  
    34   18   31 1  
    35   18   32 1  
    36   20   33 1  
@<TRIPOS>SUBSTRUCTURE
     1 CMP         1

