6mmq_ligand
  -I-interpret- 

 34 37  0  0  0  0  0  0  0  0999 V2000
   -1.0870  -17.0150   -2.1300 P   0  0  0  0  0
   -2.0970  -17.4480   -3.1610 O   0  0  0  0  0
    0.3820  -16.9040   -2.4480 O   0  0  0  0  0
   -1.1660  -18.0060   -0.8740 O   0  0  0  0  0
   -0.8440  -17.5690    0.4460 C   0  0  0  0  0
   -1.2980  -16.1440    0.6390 C   0  0  0  0  0
   -0.7770  -15.5420    1.8450 O   0  0  0  0  0
   -0.8270  -15.2040   -0.4340 C   0  0  0  0  0
   -1.4680  -15.4900   -1.6540 O   0  0  0  0  0
   -1.0920  -13.8430    0.2000 C   0  0  0  0  0
   -2.4810  -13.5310    0.1800 O   0  0  0  0  0
   -0.6840  -14.1340    1.6530 C   0  0  0  0  0
    0.6980  -13.7020    1.9390 N   0  0  0  0  0
    1.8230  -14.4410    1.7640 C   0  0  0  0  0
    2.9340  -13.7380    2.1180 N   0  0  0  0  0
    2.5270  -12.5170    2.5440 C   0  0  0  0  0
    3.1690  -11.2730    3.0540 C   0  0  0  0  0
    4.5170  -11.1450    3.2290 N   0  0  0  0  0
    2.3520  -10.2400    3.3720 N   0  0  0  0  0
    1.0220  -10.3160    3.2300 C   0  0  0  0  0
    0.3640  -11.3820    2.7680 N   0  0  0  0  0
    1.0510  -12.5000    2.4130 C   0  0  0  0  0
    0.8568  -16.6153   -1.6652 H   0  0  0  0  0
    0.2349  -17.6256    0.5906 H   0  0  0  0  0
   -1.3488  -18.2087    1.1700 H   0  0  0  0  0
   -2.3826  -16.2523    0.6476 H   0  0  0  0  0
    0.2206  -15.2748   -0.7266 H   0  0  0  0  0
   -0.5789  -13.0174   -0.2932 H   0  0  0  0  0
   -2.6206  -12.6714    0.5839 H   0  0  0  0  0
   -1.3428  -13.5828    2.3240 H   0  0  0  0  0
    1.8354  -15.4643    1.3888 H   0  0  0  0  0
    5.1364  -11.9244    3.0071 H   0  0  0  0  0
    4.9047  -10.2699    3.5816 H   0  0  0  0  0
    0.4336   -9.4431    3.5125 H   0  0  0  0  0
  1  2  2  0  0  0
  1  3  1  0  0  0
  1  4  1  0  0  0
  1  9  1  0  0  0
  4  5  1  0  0  0
  5  6  1  0  0  0
  6  7  1  0  0  0
  6  8  1  0  0  0
  7 12  1  0  0  0
  8  9  1  0  0  0
  8 10  1  0  0  0
 10 11  1  0  0  0
 10 12  1  0  0  0
 12 13  1  0  0  0
 13 14  4  0  0  0
 13 22  4  0  0  0
 14 15  4  0  0  0
 15 16  4  0  0  0
 16 17  4  0  0  0
 16 22  4  0  0  0
 17 18  1  0  0  0
 17 19  4  0  0  0
 19 20  4  0  0  0
 20 21  4  0  0  0
 21 22  4  0  0  0
  3 23  1  0  0  0
  5 24  1  0  0  0
  5 25  1  0  0  0
  6 26  1  0  0  0
  8 27  1  0  0  0
 10 28  1  0  0  0
 11 29  1  0  0  0
 12 30  1  0  0  0
 14 31  1  0  0  0
 18 32  1  0  0  0
 18 33  1  0  0  0
 20 34  1  0  0  0
M  END
$$$$
