4lqy_ligand
  -I-interpret- 

 37 39  0  0  0  0  0  0  0  0999 V2000
  -28.1090  141.1530   20.0090 P   0  0  0  0  0
  -27.5480  141.1140   21.4290 O   0  0  0  0  0
  -28.4390  139.8080   19.3860 O   0  0  0  0  0
  -27.4410  142.0370   18.9500 O   0  0  0  0  0
  -29.5420  141.8180   20.1650 O   0  0  0  0  0
  -30.3560  142.0740   19.0240 C   0  0  0  0  0
  -31.5490  141.1480   18.9860 C   0  0  0  0  0
  -32.7710  141.8890   18.7900 O   0  0  0  0  0
  -31.5850  140.1330   17.8570 C   0  0  0  0  0
  -30.6700  139.0610   18.0300 O   0  0  0  0  0
  -33.0650  139.7250   17.8180 C   0  0  0  0  0
  -33.3620  138.7310   18.7820 O   0  0  0  0  0
  -33.7640  141.0160   18.2600 C   0  0  0  0  0
  -34.4060  141.6750   17.1160 N   0  0  0  0  0
  -34.0550  141.5040   15.8180 C   0  0  0  0  0
  -34.8320  142.2810   15.0120 N   0  0  0  0  0
  -35.6950  142.9490   15.8230 C   0  0  0  0  0
  -36.7880  143.9320   15.6680 C   0  0  0  0  0
  -37.1480  144.3960   14.4460 N   0  0  0  0  0
  -37.4200  144.3650   16.7830 N   0  0  0  0  0
  -37.0890  143.9350   18.0130 C   0  0  0  0  0
  -36.1020  143.0500   18.2300 N   0  0  0  0  0
  -35.4010  142.5350   17.1950 C   0  0  0  0  0
  -27.3743  142.0096   21.7279 H   0  0  0  0  0
  -27.2284  142.8904   19.3349 H   0  0  0  0  0
  -29.7593  141.9100   18.1267 H   0  0  0  0  0
  -30.7147  143.1020   19.0758 H   0  0  0  0  0
  -31.4581  140.6345   19.9431 H   0  0  0  0  0
  -31.2485  140.5340   16.9009 H   0  0  0  0  0
  -30.7416  138.4575   17.2868 H   0  0  0  0  0
  -33.3565  139.3281   16.8456 H   0  0  0  0  0
  -34.2928  138.5022   18.7278 H   0  0  0  0  0
  -34.5274  140.7816   19.0019 H   0  0  0  0  0
  -33.2643  140.8399   15.4688 H   0  0  0  0  0
  -36.6618  144.0669   13.6119 H   0  0  0  0  0
  -37.9051  145.0742   14.3607 H   0  0  0  0  0
  -37.6438  144.3200   18.8686 H   0  0  0  0  0
  1  2  1  0  0  0
  1  3  2  0  0  0
  1  4  1  0  0  0
  1  5  1  0  0  0
  5  6  1  0  0  0
  6  7  1  0  0  0
  7  8  1  0  0  0
  7  9  1  0  0  0
  8 13  1  0  0  0
  9 10  1  0  0  0
  9 11  1  0  0  0
 11 12  1  0  0  0
 11 13  1  0  0  0
 13 14  1  0  0  0
 14 15  4  0  0  0
 14 23  4  0  0  0
 15 16  4  0  0  0
 16 17  4  0  0  0
 17 18  4  0  0  0
 17 23  4  0  0  0
 18 19  1  0  0  0
 18 20  4  0  0  0
 20 21  4  0  0  0
 21 22  4  0  0  0
 22 23  4  0  0  0
  2 24  1  0  0  0
  4 25  1  0  0  0
  6 26  1  0  0  0
  6 27  1  0  0  0
  7 28  1  0  0  0
  9 29  1  0  0  0
 10 30  1  0  0  0
 11 31  1  0  0  0
 12 32  1  0  0  0
 13 33  1  0  0  0
 15 34  1  0  0  0
 19 35  1  0  0  0
 19 36  1  0  0  0
 21 37  1  0  0  0
M  END
$$$$
