### 
### Created by X-TOOL on Mon Sep 10 21:13:12 2018
### 

@<TRIPOS>MOLECULE
4lqy_ligand
   35    37     1     0     0
SMALL
GAST_HUCK


@<TRIPOS>ATOM
      1 P         -28.1090  141.1530   20.0090 P.3       1 AMP         0.2008
      2 O1P       -27.5480  141.1140   21.4290 O.co2     1 AMP        -0.5537
      3 O2P       -28.4390  139.8080   19.3860 O.co2     1 AMP        -0.5537
      4 O3P       -27.4410  142.0370   18.9500 O.co2     1 AMP        -0.5537
      5 O5'       -29.5420  141.8180   20.1650 O.3       1 AMP        -0.2734
      6 C5'       -30.3560  142.0740   19.0240 C.3       1 AMP         0.1072
      7 C4'       -31.5490  141.1480   18.9860 C.3       1 AMP         0.1182
      8 O4'       -32.7710  141.8890   18.7900 O.3       1 AMP        -0.3365
      9 C3'       -31.5850  140.1330   17.8570 C.3       1 AMP         0.1149
     10 O3'       -30.6700  139.0610   18.0300 O.3       1 AMP        -0.3864
     11 C2'       -33.0650  139.7250   17.8180 C.3       1 AMP         0.1385
     12 O2'       -33.3620  138.7310   18.7820 O.3       1 AMP        -0.3836
     13 C1'       -33.7640  141.0160   18.2600 C.3       1 AMP         0.2010
     14 N9        -34.4060  141.6750   17.1160 N.pl3     1 AMP        -0.1919
     15 C8        -34.0550  141.5040   15.8180 C.2       1 AMP         0.1123
     16 N7        -34.8320  142.2810   15.0120 N.2       1 AMP        -0.2958
     17 C5        -35.6950  142.9490   15.8230 C.ar      1 AMP         0.1045
     18 C6        -36.7880  143.9320   15.6680 C.ar      1 AMP         0.1298
     19 N6        -37.1480  144.3960   14.4460 N.pl3     1 AMP        -0.3152
     20 N1        -37.4200  144.3650   16.7830 N.ar      1 AMP        -0.2698
     21 C2        -37.0890  143.9350   18.0130 C.ar      1 AMP         0.0533
     22 N3        -36.1020  143.0500   18.2300 N.ar      1 AMP        -0.2714
     23 C4        -35.4010  142.5350   17.1950 C.ar      1 AMP         0.1613
     24 H1        -29.7562  141.9240   18.1142 H         1 AMP         0.0639
     25 H2        -30.7105  143.1146   19.0621 H         1 AMP         0.0639
     26 H3        -31.5810  140.6137   19.9470 H         1 AMP         0.0650
     27 H4        -31.3238  140.6293   16.9107 H         1 AMP         0.0648
     28 H5        -30.8734  138.5993   18.8350 H         1 AMP         0.2100
     29 H6        -33.3722  139.3979   16.8137 H         1 AMP         0.0676
     30 H7        -32.8347  137.9593   18.6123 H         1 AMP         0.2101
     31 H8        -34.5187  140.7879   19.0270 H         1 AMP         0.0996
     32 H9        -33.2650  140.8406   15.4691 H         1 AMP         0.1349
     33 H10       -37.9125  145.0809   14.3599 H         1 AMP         0.1820
     34 H11       -36.6570  144.0636   13.6038 H         1 AMP         0.1820
     35 H12       -37.6408  144.3178   18.8639 H         1 AMP         0.0996
@<TRIPOS>BOND
     1    1    2 ar 
     2    1    3 ar 
     3    1    4 ar 
     4    1    5 1  
     5    5    6 1  
     6    6    7 1  
     7    7    8 1  
     8    7    9 1  
     9    8   13 1  
    10    9   10 1  
    11    9   11 1  
    12   11   12 1  
    13   11   13 1  
    14   13   14 1  
    15   14   15 1  
    16   14   23 1  
    17   15   16 2  
    18   16   17 1  
    19   17   18 ar 
    20   17   23 ar 
    21   18   19 1  
    22   18   20 ar 
    23   20   21 ar 
    24   21   22 ar 
    25   22   23 ar 
    26    6   24 1  
    27    6   25 1  
    28    7   26 1  
    29    9   27 1  
    30   10   28 1  
    31   11   29 1  
    32   12   30 1  
    33   13   31 1  
    34   15   32 1  
    35   19   33 1  
    36   19   34 1  
    37   21   35 1  
@<TRIPOS>SUBSTRUCTURE
     1 AMP         1

