4qwj_ligand
  -I-interpret- 

114116  0  0  0  0  0  0  0  0999 V2000
   59.2140 -135.6980   31.6460 C   0  0  0  0  0
   59.9890 -134.8400   31.2170 O   0  0  0  0  0
   58.6900 -136.8480   30.7670 C   0  0  0  0  0
   58.3880 -136.4520   29.3660 N   0  3  0  0  0
   58.5740 -134.9150   27.1580 O   0  0  0  0  0
   59.6160 -136.3950   28.5320 C   0  0  0  0  0
   57.5980 -135.1920   29.2820 C   0  0  0  0  0
   59.1570 -136.2070   27.1250 C   0  0  0  0  0
   57.3150 -134.8590   27.8870 C   0  0  0  0  0
   58.7620 -135.7240   32.9020 N   0  0  0  0  0
   59.1710 -134.7080   33.8720 C   0  0  0  0  0
   60.4270 -135.1890   34.5800 C   0  0  0  0  0
   60.7260 -136.3840   34.6080 O   0  0  0  0  0
   58.0910 -134.5560   34.9170 C   0  0  0  0  0
   57.2360 -133.3780   34.4790 C   0  0  0  0  0
   55.9330 -133.5100   35.0280 C   0  0  0  0  0
   54.8190 -133.1360   34.2660 C   0  0  0  0  0
   55.7120 -133.9800   36.3330 C   0  0  0  0  0
   53.5270 -133.2440   34.7810 C   0  0  0  0  0
   54.4190 -134.0910   36.8470 C   0  0  0  0  0
   53.3230 -133.7220   36.0730 C   0  0  0  0  0
   61.1260 -134.2150   35.1720 N   0  0  0  0  0
   62.3040 -134.5280   35.9740 C   0  0  0  0  0
   61.7680 -134.7990   37.3810 C   0  0  0  0  0
   60.8710 -134.0970   37.8520 O   0  0  0  0  0
   63.2560 -133.3530   36.0170 C   0  0  0  0  0
   64.0860 -133.3900   34.7160 C   0  0  0  0  0
   64.9840 -132.1410   34.6470 C   0  0  0  0  0
   64.9640 -134.6550   34.6450 C   0  0  0  0  0
   62.2950 -135.8660   38.0000 N   0  0  0  0  0
   61.9010 -136.2310   39.3720 C   0  0  0  0  0
   63.1750 -136.2180   40.1990 C   0  0  0  0  0
   64.2750 -136.2490   39.6440 O   0  0  0  0  0
   61.2520 -137.5840   39.4460 C   0  0  0  0  0
   59.9490 -137.4020   38.9610 C   0  0  0  0  0
   59.6140 -137.8080   37.6670 C   0  0  0  0  0
   58.9710 -136.8160   39.7700 C   0  0  0  0  0
   58.3170 -137.6280   37.1870 C   0  0  0  0  0
   57.6750 -136.6340   39.2900 C   0  0  0  0  0
   57.3460 -137.0410   37.9980 C   0  0  0  0  0
   62.9800 -136.1500   41.5240 N   0  0  0  0  0
   64.0940 -135.9830   42.4610 C   0  0  0  0  0
   63.8840 -134.5650   42.9800 C   0  0  0  0  0
   64.9790 -133.5630   42.5020 C   0  0  0  0  0
   64.3890 -132.1380   42.5650 C   0  0  0  0  0
   65.5280 -133.8050   41.0770 C   0  0  0  0  0
   64.0670 -136.9660   43.6610 C   0  0  0  0  0
   64.6460 -138.4520   43.4030 C   0  0  0  0  0
   65.9040 -138.4000   42.4930 C   0  0  0  0  0
   63.6190 -139.2930   42.6300 C   0  0  0  0  0
   62.4070 -139.2580   43.3900 O   0  0  0  0  0
   62.7180 -137.0310   44.1640 O   0  0  0  0  0
   57.7576 -137.1951   31.2122 H   0  0  0  0  0
   59.4728 -137.6054   30.7265 H   0  0  0  0  0
   57.7944 -137.1864   28.9804 H   0  0  0  0  0
   60.2028 -137.3078   28.6347 H   0  0  0  0  0
   60.2656 -135.5777   28.8454 H   0  0  0  0  0
   58.1734 -134.3820   29.7303 H   0  0  0  0  0
   56.6555 -135.3282   29.8124 H   0  0  0  0  0
   59.9657 -136.2904   26.3989 H   0  0  0  0  0
   58.4611 -136.9795   26.7977 H   0  0  0  0  0
   56.5991 -135.5644   27.4650 H   0  0  0  0  0
   56.8773 -133.8634   27.8146 H   0  0  0  0  0
   58.1215 -136.4638   33.1898 H   0  0  0  0  0
   59.3457 -133.7626   33.3583 H   0  0  0  0  0
   58.5215 -134.3826   35.9033 H   0  0  0  0  0
   57.4942 -135.4644   34.9989 H   0  0  0  0  0
   57.1721 -133.3596   33.3910 H   0  0  0  0  0
   57.6869 -132.4504   34.8315 H   0  0  0  0  0
   54.9637 -132.7547   33.2552 H   0  0  0  0  0
   56.5626 -134.2622   36.9534 H   0  0  0  0  0
   52.6731 -132.9529   34.1692 H   0  0  0  0  0
   54.2672 -134.4681   37.8584 H   0  0  0  0  0
   52.3132 -133.8064   36.4747 H   0  0  0  0  0
   60.8330 -133.2442   35.0619 H   0  0  0  0  0
   62.8530 -135.3737   35.5600 H   0  0  0  0  0
   63.9065 -133.4178   36.8892 H   0  0  0  0  0
   62.7053 -132.4155   36.0944 H   0  0  0  0  0
   63.3959 -133.4062   33.8724 H   0  0  0  0  0
   64.3614 -131.2464   34.6571 H   0  0  0  0  0
   65.6539 -132.1287   35.5068 H   0  0  0  0  0
   65.5702 -132.1668   33.7284 H   0  0  0  0  0
   65.6484 -134.6688   35.4932 H   0  0  0  0  0
   64.3277 -135.5395   34.6755 H   0  0  0  0  0
   65.5345 -134.6481   33.7163 H   0  0  0  0  0
   62.9836 -136.4372   37.5101 H   0  0  0  0  0
   61.1600 -135.5229   39.7429 H   0  0  0  0  0
   61.2483 -137.9698   40.4654 H   0  0  0  0  0
   61.7978 -138.3213   38.8573 H   0  0  0  0  0
   60.3696 -138.2675   37.0297 H   0  0  0  0  0
   59.2233 -136.4995   40.7821 H   0  0  0  0  0
   58.0618 -137.9466   36.1763 H   0  0  0  0  0
   56.9185 -136.1732   39.9252 H   0  0  0  0  0
   56.3324 -136.9008   37.6225 H   0  0  0  0  0
   62.0301 -136.2164   41.8896 H   0  0  0  0  0
   65.0470 -136.1730   41.9672 H   0  0  0  0  0
   63.9262 -134.6036   44.0685 H   0  0  0  0  0
   62.9263 -134.2130   42.5967 H   0  0  0  0  0
   65.8279 -133.7074   43.1704 H   0  0  0  0  0
   63.5162 -132.0784   41.9148 H   0  0  0  0  0
   64.0958 -131.9125   43.5903 H   0  0  0  0  0
   65.1398 -131.4203   42.2342 H   0  0  0  0  0
   65.9755 -134.7975   41.0251 H   0  0  0  0  0
   64.7119 -133.7350   40.3579 H   0  0  0  0  0
   66.2823 -133.0525   40.8470 H   0  0  0  0  0
   64.7652 -136.5531   44.3890 H   0  0  0  0  0
   64.8743 -138.8785   44.3798 H   0  0  0  0  0
   65.6395 -137.9527   41.5348 H   0  0  0  0  0
   66.6751 -137.7993   42.9753 H   0  0  0  0  0
   66.2769 -139.4116   42.3326 H   0  0  0  0  0
   63.9701 -140.3172   42.5041 H   0  0  0  0  0
   63.4623 -138.8923   41.6285 H   0  0  0  0  0
   61.7338 -139.7741   42.9406 H   0  0  0  0  0
   62.6840 -137.6363   44.9084 H   0  0  0  0  0
  1  2  2  0  0  0
  3  1  1  0  0  0
  1 10  1  0  0  0
  4  3  1  0  0  0
  6  4  1  0  0  0
  4  7  1  0  0  0
  8  5  1  0  0  0
  5  9  1  0  0  0
  6  8  1  0  0  0
  7  9  1  0  0  0
 10 11  1  0  0  0
 11 12  1  0  0  0
 11 14  1  0  0  0
 12 13  2  0  0  0
 12 22  1  0  0  0
 14 15  1  0  0  0
 15 16  1  0  0  0
 16 17  4  0  0  0
 16 18  4  0  0  0
 17 19  4  0  0  0
 18 20  4  0  0  0
 19 21  4  0  0  0
 20 21  4  0  0  0
 22 23  1  0  0  0
 23 24  1  0  0  0
 23 26  1  0  0  0
 24 25  2  0  0  0
 24 30  1  0  0  0
 26 27  1  0  0  0
 27 28  1  0  0  0
 27 29  1  0  0  0
 30 31  1  0  0  0
 31 32  1  0  0  0
 31 34  1  0  0  0
 32 33  2  0  0  0
 32 41  1  0  0  0
 34 35  1  0  0  0
 35 36  4  0  0  0
 35 37  4  0  0  0
 36 38  4  0  0  0
 37 39  4  0  0  0
 38 40  4  0  0  0
 39 40  4  0  0  0
 41 42  1  0  0  0
 42 43  1  0  0  0
 42 47  1  0  0  0
 43 44  1  0  0  0
 44 45  1  0  0  0
 44 46  1  0  0  0
 47 48  1  0  0  0
 47 52  1  0  0  0
 48 49  1  0  0  0
 48 50  1  0  0  0
 50 51  1  0  0  0
  3 53  1  0  0  0
  3 54  1  0  0  0
  4 55  1  0  0  0
  6 56  1  0  0  0
  6 57  1  0  0  0
  7 58  1  0  0  0
  7 59  1  0  0  0
  8 60  1  0  0  0
  8 61  1  0  0  0
  9 62  1  0  0  0
  9 63  1  0  0  0
 10 64  1  0  0  0
 11 65  1  0  0  0
 14 66  1  0  0  0
 14 67  1  0  0  0
 15 68  1  0  0  0
 15 69  1  0  0  0
 17 70  1  0  0  0
 18 71  1  0  0  0
 19 72  1  0  0  0
 20 73  1  0  0  0
 21 74  1  0  0  0
 22 75  1  0  0  0
 23 76  1  0  0  0
 26 77  1  0  0  0
 26 78  1  0  0  0
 27 79  1  0  0  0
 28 80  1  0  0  0
 28 81  1  0  0  0
 28 82  1  0  0  0
 29 83  1  0  0  0
 29 84  1  0  0  0
 29 85  1  0  0  0
 30 86  1  0  0  0
 31 87  1  0  0  0
 34 88  1  0  0  0
 34 89  1  0  0  0
 36 90  1  0  0  0
 37 91  1  0  0  0
 38 92  1  0  0  0
 39 93  1  0  0  0
 40 94  1  0  0  0
 41 95  1  0  0  0
 42 96  1  0  0  0
 43 97  1  0  0  0
 43 98  1  0  0  0
 44 99  1  0  0  0
 45100  1  0  0  0
 45101  1  0  0  0
 45102  1  0  0  0
 46103  1  0  0  0
 46104  1  0  0  0
 46105  1  0  0  0
 47106  1  0  0  0
 48107  1  0  0  0
 49108  1  0  0  0
 49109  1  0  0  0
 49110  1  0  0  0
 50111  1  0  0  0
 50112  1  0  0  0
 51113  1  0  0  0
 52114  1  0  0  0
M  END
$$$$
