### 
### Created by X-TOOL on Mon Sep 10 21:13:24 2018
### 

@<TRIPOS>MOLECULE
4qwj_ligand
  114   116     1     0     0
SMALL
GAST_HUCK


@<TRIPOS>ATOM
      1 C8         59.2140 -135.6980   31.6460 C.2       1 3BV         0.2238
      2 O9         59.9890 -134.8400   31.2170 O.2       1 3BV        -0.3910
      3 C7         58.6900 -136.8480   30.7670 C.3       1 3BV         0.0582
      4 N4         58.3880 -136.4520   29.3660 N.4       1 3BV         0.2552
      5 O1         58.5740 -134.9150   27.1580 O.3       1 3BV        -0.3693
      6 C5         59.6160 -136.3950   28.5320 C.3       1 3BV        -0.0060
      7 C3         57.5980 -135.1920   29.2820 C.3       1 3BV        -0.0060
      8 C6         59.1570 -136.2070   27.1250 C.3       1 3BV         0.0878
      9 C2         57.3150 -134.8590   27.8870 C.3       1 3BV         0.0878
     10 N10        58.7620 -135.7240   32.9020 N.am      1 3BV        -0.2611
     11 C11        59.1710 -134.7080   33.8720 C.3       1 3BV         0.1328
     12 C20        60.4270 -135.1890   34.5800 C.2       1 3BV         0.2041
     13 O21        60.7260 -136.3840   34.6080 O.2       1 3BV        -0.3944
     14 C12        58.0910 -134.5560   34.9170 C.3       1 3BV        -0.0027
     15 C13        57.2360 -133.3780   34.4790 C.3       1 3BV        -0.0149
     16 C14        55.9330 -133.5100   35.0280 C.ar      1 3BV        -0.0428
     17 C19        54.8190 -133.1360   34.2660 C.ar      1 3BV        -0.0603
     18 C15        55.7120 -133.9800   36.3330 C.ar      1 3BV        -0.0603
     19 C18        53.5270 -133.2440   34.7810 C.ar      1 3BV        -0.0686
     20 C16        54.4190 -134.0910   36.8470 C.ar      1 3BV        -0.0686
     21 C17        53.3230 -133.7220   36.0730 C.ar      1 3BV        -0.0687
     22 N22        61.1260 -134.2150   35.1720 N.am      1 3BV        -0.2637
     23 C23        62.3040 -134.5280   35.9740 C.3       1 3BV         0.1312
     24 C28        61.7680 -134.7990   37.3810 C.2       1 3BV         0.2040
     25 O29        60.8710 -134.0970   37.8520 O.2       1 3BV        -0.3944
     26 C24        63.2560 -133.3530   36.0170 C.3       1 3BV        -0.0101
     27 C25        64.0860 -133.3900   34.7160 C.3       1 3BV        -0.0425
     28 C26        64.9840 -132.1410   34.6470 C.3       1 3BV        -0.0625
     29 C27        64.9640 -134.6550   34.6450 C.3       1 3BV        -0.0625
     30 N30        62.2950 -135.8660   38.0000 N.am      1 3BV        -0.2619
     31 C31        61.9010 -136.2310   39.3720 C.3       1 3BV         0.1403
     32 C39        63.1750 -136.2180   40.1990 C.2       1 3BV         0.2040
     33 O40        64.2750 -136.2490   39.6440 O.2       1 3BV        -0.3943
     34 C32        61.2520 -137.5840   39.4460 C.3       1 3BV         0.0214
     35 C33        59.9490 -137.4020   38.9610 C.ar      1 3BV        -0.0386
     36 C34        59.6140 -137.8080   37.6670 C.ar      1 3BV        -0.0601
     37 C38        58.9710 -136.8160   39.7700 C.ar      1 3BV        -0.0601
     38 C35        58.3170 -137.6280   37.1870 C.ar      1 3BV        -0.0686
     39 C37        57.6750 -136.6340   39.2900 C.ar      1 3BV        -0.0686
     40 C36        57.3460 -137.0410   37.9980 C.ar      1 3BV        -0.0687
     41 N41        62.9800 -136.1500   41.5240 N.am      1 3BV        -0.2794
     42 C42        64.0940 -135.9830   42.4610 C.3       1 3BV         0.0685
     43 C43        63.8840 -134.5650   42.9800 C.3       1 3BV        -0.0251
     44 C44        64.9790 -133.5630   42.5020 C.3       1 3BV        -0.0446
     45 C45        64.3890 -132.1380   42.5650 C.3       1 3BV        -0.0626
     46 C46        65.5280 -133.8050   41.0770 C.3       1 3BV        -0.0626
     47 C47        64.0670 -136.9660   43.6610 C.3       1 3BV         0.0827
     48 C51        64.6460 -138.4520   43.4030 C.3       1 3BV         0.0075
     49 C58        65.9040 -138.4000   42.4930 C.3       1 3BV        -0.0579
     50 C59        63.6190 -139.2930   42.6300 C.3       1 3BV         0.0492
     51 O60        62.4070 -139.2580   43.3900 O.3       1 3BV        -0.3947
     52 O48        62.7180 -137.0310   44.1640 O.3       1 3BV        -0.3892
     53 H1         57.7677 -137.2381   31.2221 H         1 3BV         0.1063
     54 H2         59.4520 -137.6410   30.7452 H         1 3BV         0.1063
     55 H3         57.8084 -137.1805   28.9796 H         1 3BV         0.2054
     56 H4         60.1840 -137.3324   28.6255 H         1 3BV         0.0837
     57 H5         60.2486 -135.5504   28.8425 H         1 3BV         0.0837
     58 H6         58.1719 -134.3733   29.7406 H         1 3BV         0.0837
     59 H7         56.6491 -135.3225   29.8229 H         1 3BV         0.0837
     60 H8         60.0035 -136.2425   26.4235 H         1 3BV         0.0613
     61 H9         58.4158 -136.9697   26.8442 H         1 3BV         0.0613
     62 H10        56.6042 -135.5846   27.4648 H         1 3BV         0.0613
     63 H11        56.8883 -133.8472   27.8219 H         1 3BV         0.0613
     64 H12        58.1340 -136.4493   33.1842 H         1 3BV         0.1884
     65 H13        59.3549 -133.7491   33.3653 H         1 3BV         0.0801
     66 H14        58.5391 -134.3561   35.9015 H         1 3BV         0.0334
     67 H15        57.4813 -135.4700   34.9704 H         1 3BV         0.0334
     68 H16        57.1713 -133.3598   33.3811 H         1 3BV         0.0428
     69 H17        57.6910 -132.4420   34.8351 H         1 3BV         0.0428
     70 H18        54.9629 -132.7568   33.2607 H         1 3BV         0.0557
     71 H19        56.5579 -134.2606   36.9500 H         1 3BV         0.0557
     72 H20        52.6778 -132.9545   34.1726 H         1 3BV         0.0599
     73 H21        54.2681 -134.4660   37.8528 H         1 3BV         0.0599
     74 H22        52.3188 -133.8059   36.4724 H         1 3BV         0.0559
     75 H23        60.8388 -133.2632   35.0641 H         1 3BV         0.1883
     76 H24        62.8217 -135.4120   35.5735 H         1 3BV         0.0800
     77 H25        63.9198 -133.4376   36.8900 H         1 3BV         0.0315
     78 H26        62.6902 -132.4115   36.0764 H         1 3BV         0.0315
     79 H27        63.3983 -133.3881   33.8575 H         1 3BV         0.0298
     80 H28        65.5762 -132.1659   33.7203 H         1 3BV         0.0232
     81 H29        65.6606 -132.1275   35.5142 H         1 3BV         0.0232
     82 H30        64.3568 -131.2374   34.6571 H         1 3BV         0.0232
     83 H31        64.3243 -135.5485   34.6941 H         1 3BV         0.0232
     84 H32        65.6676 -134.6609   35.4905 H         1 3BV         0.0232
     85 H33        65.5265 -134.6584   33.6997 H         1 3BV         0.0232
     86 H34        62.9701 -136.4260   37.5197 H         1 3BV         0.1885
     87 H35        61.1956 -135.4816   39.7602 H         1 3BV         0.0823
     88 H36        61.2285 -137.9427   40.4856 H         1 3BV         0.0474
     89 H37        61.7973 -138.3065   38.8210 H         1 3BV         0.0474
     90 H38        60.3654 -138.2649   37.0332 H         1 3BV         0.0557
     91 H39        59.2220 -136.5013   40.7765 H         1 3BV         0.0557
     92 H40        58.0632 -137.9449   36.1819 H         1 3BV         0.0599
     93 H41        56.9227 -136.1758   39.9217 H         1 3BV         0.0599
     94 H42        56.3379 -136.9016   37.6246 H         1 3BV         0.0559
     95 H43        62.0487 -136.2151   41.8824 H         1 3BV         0.1856
     96 H44        65.0550 -136.0814   41.9350 H         1 3BV         0.0582
     97 H45        63.8914 -134.5913   44.0796 H         1 3BV         0.0291
     98 H46        62.9054 -134.2062   42.6284 H         1 3BV         0.0291
     99 H47        65.8251 -133.6337   43.2014 H         1 3BV         0.0296
    100 H48        65.1458 -131.4128   42.2314 H         1 3BV         0.0232
    101 H49        64.0928 -131.9092   43.5993 H         1 3BV         0.0232
    102 H50        63.5081 -132.0765   41.9091 H         1 3BV         0.0232
    103 H51        65.9528 -134.8177   41.0149 H         1 3BV         0.0232
    104 H52        66.3108 -133.0648   40.8550 H         1 3BV         0.0232
    105 H53        64.7110 -133.7047   40.3473 H         1 3BV         0.0232
    106 H54        64.6988 -136.5225   44.4446 H         1 3BV         0.0620
    107 H55        64.8870 -138.9253   44.3663 H         1 3BV         0.0346
    108 H56        66.2813 -139.4204   42.3304 H         1 3BV         0.0234
    109 H57        66.6831 -137.7941   42.9786 H         1 3BV         0.0234
    110 H58        65.6384 -137.9488   41.5256 H         1 3BV         0.0234
    111 H59        63.9747 -140.3291   42.5304 H         1 3BV         0.0560
    112 H60        63.4528 -138.8647   41.6306 H         1 3BV         0.0560
    113 H61        62.1137 -138.3584   43.4750 H         1 3BV         0.2094
    114 H62        62.1656 -137.4725   43.5296 H         1 3BV         0.2099
@<TRIPOS>BOND
     1    1    2 2  
     2    3    1 1  
     3    1   10 am 
     4    4    3 1  
     5    6    4 1  
     6    4    7 1  
     7    8    5 1  
     8    5    9 1  
     9    6    8 1  
    10    7    9 1  
    11   10   11 1  
    12   11   12 1  
    13   11   14 1  
    14   12   13 2  
    15   12   22 am 
    16   14   15 1  
    17   15   16 1  
    18   16   17 ar 
    19   16   18 ar 
    20   17   19 ar 
    21   18   20 ar 
    22   19   21 ar 
    23   20   21 ar 
    24   22   23 1  
    25   23   24 1  
    26   23   26 1  
    27   24   25 2  
    28   24   30 am 
    29   26   27 1  
    30   27   28 1  
    31   27   29 1  
    32   30   31 1  
    33   31   32 1  
    34   31   34 1  
    35   32   33 2  
    36   32   41 am 
    37   34   35 1  
    38   35   36 ar 
    39   35   37 ar 
    40   36   38 ar 
    41   37   39 ar 
    42   38   40 ar 
    43   39   40 ar 
    44   41   42 1  
    45   42   43 1  
    46   42   47 1  
    47   43   44 1  
    48   44   45 1  
    49   44   46 1  
    50   47   48 1  
    51   47   52 1  
    52   48   49 1  
    53   48   50 1  
    54   50   51 1  
    55    3   53 1  
    56    3   54 1  
    57    4   55 1  
    58    6   56 1  
    59    6   57 1  
    60    7   58 1  
    61    7   59 1  
    62    8   60 1  
    63    8   61 1  
    64    9   62 1  
    65    9   63 1  
    66   10   64 1  
    67   11   65 1  
    68   14   66 1  
    69   14   67 1  
    70   15   68 1  
    71   15   69 1  
    72   17   70 1  
    73   18   71 1  
    74   19   72 1  
    75   20   73 1  
    76   21   74 1  
    77   22   75 1  
    78   23   76 1  
    79   26   77 1  
    80   26   78 1  
    81   27   79 1  
    82   28   80 1  
    83   28   81 1  
    84   28   82 1  
    85   29   83 1  
    86   29   84 1  
    87   29   85 1  
    88   30   86 1  
    89   31   87 1  
    90   34   88 1  
    91   34   89 1  
    92   36   90 1  
    93   37   91 1  
    94   38   92 1  
    95   39   93 1  
    96   40   94 1  
    97   41   95 1  
    98   42   96 1  
    99   43   97 1  
   100   43   98 1  
   101   44   99 1  
   102   45  100 1  
   103   45  101 1  
   104   45  102 1  
   105   46  103 1  
   106   46  104 1  
   107   46  105 1  
   108   47  106 1  
   109   48  107 1  
   110   49  108 1  
   111   49  109 1  
   112   49  110 1  
   113   50  111 1  
   114   50  112 1  
   115   51  113 1  
   116   52  114 1  
@<TRIPOS>SUBSTRUCTURE
     1 3BV         1

