1j37_ligand
  -I-interpret- 

 29 29  0  0  0  0  0  0  0  0999 V2000
   15.3030   -1.2610   17.5100 O   0  0  0  0  0
   14.7460   -2.4090   17.7410 C   0  0  0  0  0
   14.8540   -3.3400   16.9830 O   0  0  0  0  0
   13.9290   -2.4840   19.0320 C   0  0  0  0  0
   14.7850   -2.7970   20.2280 C   0  0  0  0  0
   14.2390   -4.0250   20.9000 C   0  0  0  0  0
   13.0810   -4.5230   20.1270 C   0  0  0  0  0
   12.8860   -3.5530   18.9960 N   0  0  0  0  0
   11.9240   -3.5900   18.0660 C   0  0  0  0  0
   11.8780   -2.6990   17.1680 O   0  0  0  0  0
   10.8730   -4.6980   18.1030 C   0  0  0  0  0
   11.0970   -5.6510   16.9240 C   0  0  0  0  0
    9.5000   -4.0100   18.1130 C   0  0  0  0  0
    8.1180   -5.1660   18.1620 S   0  0  0  0  0
   15.0989   -0.6573   18.2280 H   0  0  0  0  0
   13.4721   -1.4978   19.1140 H   0  0  0  0  0
   14.7731   -1.9573   20.9229 H   0  0  0  0  0
   15.8135   -2.9727   19.9126 H   0  0  0  0  0
   13.9252   -3.7797   21.9146 H   0  0  0  0  0
   15.0103   -4.7940   20.9427 H   0  0  0  0  0
   12.1890   -4.5853   20.7504 H   0  0  0  0  0
   13.2608   -5.5314   19.7542 H   0  0  0  0  0
   10.9408   -5.3222   18.9940 H   0  0  0  0  0
   11.0104   -5.0971   15.9892 H   0  0  0  0  0
   12.0922   -6.0896   16.9970 H   0  0  0  0  0
   10.3472   -6.4417   16.9501 H   0  0  0  0  0
    9.4144   -3.4355   17.1907 H   0  0  0  0  0
    9.4469   -3.3971   19.0128 H   0  0  0  0  0
    6.9743   -4.4872   18.1681 H   0  0  0  0  0
  1  2  1  0  0  0
  2  3  2  0  0  0
  2  4  1  0  0  0
  4  5  1  0  0  0
  4  8  1  0  0  0
  5  6  1  0  0  0
  6  7  1  0  0  0
  7  8  1  0  0  0
  8  9  1  0  0  0
  9 10  2  0  0  0
  9 11  1  0  0  0
 11 12  1  0  0  0
 11 13  1  0  0  0
 13 14  1  0  0  0
  1 15  1  0  0  0
  4 16  1  0  0  0
  5 17  1  0  0  0
  5 18  1  0  0  0
  6 19  1  0  0  0
  6 20  1  0  0  0
  7 21  1  0  0  0
  7 22  1  0  0  0
 11 23  1  0  0  0
 12 24  1  0  0  0
 12 25  1  0  0  0
 12 26  1  0  0  0
 13 27  1  0  0  0
 13 28  1  0  0  0
 14 29  1  0  0  0
M  END
$$$$
