4nxq_ligand
  -I-interpret- 

134136  0  0  0  0  0  0  0  0999 V2000
   44.7070    0.3120   16.9570 N   0  3  0  0  0
   45.5980   -0.6190   16.2730 C   0  0  0  0  0
   46.5200   -1.3290   17.2680 C   0  0  0  0  0
   47.7460   -1.2890   17.1430 O   0  0  0  0  0
   46.4160    0.1160   15.2080 C   0  0  0  0  0
   46.7790   -0.7680   14.0330 C   0  0  0  0  0
   46.1070   -1.7660   13.7520 O   0  0  0  0  0
   47.8530   -0.4050   13.3340 N   0  0  0  0  0
   45.8960   -1.9780   18.2490 N   0  0  0  0  0
   46.5740   -2.6950   19.3290 C   0  0  0  0  0
   47.0970   -4.0850   18.9410 C   0  0  0  0  0
   46.3280   -5.0320   18.8360 O   0  0  0  0  0
   45.6220   -2.8230   20.5240 C   0  0  0  0  0
   46.0280   -2.0480   21.7620 C   0  0  0  0  0
   47.2320   -2.6730   22.4610 C   0  0  0  0  0
   48.1790   -1.9840   22.8310 O   0  0  0  0  0
   47.2050   -3.9880   22.6250 N   0  0  0  0  0
   48.3990   -4.1800   18.6880 N   0  0  0  0  0
   49.0580   -5.4360   18.3300 C   0  0  0  0  0
   49.8810   -5.9690   19.5140 C   0  0  0  0  0
   50.1340   -5.2260   20.4660 O   0  0  0  0  0
   49.9580   -5.1880   17.1120 C   0  0  0  0  0
   50.1210   -6.3550   16.1420 C   0  0  0  0  0
   50.9850   -5.9290   14.9600 C   0  0  0  0  0
   51.2830   -7.0870   14.0200 C   0  0  0  0  0
   52.0040   -8.2030   14.7090 N   0  3  0  0  0
   50.2750   -7.2400   19.5040 N   0  0  0  0  0
   51.2210   -7.7000   20.5260 C   0  0  0  0  0
   52.3150   -8.5780   19.8910 C   0  0  0  0  0
   52.0840   -9.2360   18.8880 O   0  0  0  0  0
   50.5160   -8.4120   21.6940 C   0  0  0  0  0
   51.4900   -9.1860   22.6080 C   0  0  0  0  0
   50.8710   -9.7370   23.8960 C   0  0  0  0  0
   49.7270  -10.2640   23.8860 O   0  0  0  0  0
   51.5650   -9.6440   24.9350 O   0  0  0  0  0
   53.5270   -8.5020   20.4300 N   0  0  0  0  0
   54.6890   -9.2080   19.8930 C   0  0  0  0  0
   55.3370  -10.1050   20.9430 C   0  0  0  0  0
   55.3150   -9.7830   22.1290 O   0  0  0  0  0
   55.7360   -8.2230   19.3770 C   0  0  0  0  0
   55.2710   -7.2660   18.3020 C   0  0  0  0  0
   54.6050   -6.0890   18.6230 C   0  0  0  0  0
   55.5440   -7.5180   16.9650 C   0  0  0  0  0
   54.2110   -5.1980   17.6360 C   0  0  0  0  0
   55.1490   -6.6370   15.9770 C   0  0  0  0  0
   54.4850   -5.4790   16.3170 C   0  0  0  0  0
   54.0970   -4.6070   15.3270 O   0  0  0  0  0
   55.8740  -11.2450   20.5220 N   0  0  0  0  0
   56.6170  -12.1170   21.4440 C   0  0  0  0  0
   58.0540  -12.2760   20.9250 C   0  0  0  0  0
   58.2580  -12.6380   19.7660 O   0  0  0  0  0
   55.8950  -13.4660   21.5890 C   0  0  0  0  0
   54.4680  -13.3190   22.0640 C   0  0  0  0  0
   54.1670  -13.2670   23.4220 C   0  0  0  0  0
   53.4390  -13.1600   21.1510 C   0  0  0  0  0
   52.8570  -13.0940   23.8630 C   0  0  0  0  0
   52.1220  -12.9810   21.5800 C   0  0  0  0  0
   51.8320  -12.9530   22.9380 C   0  0  0  0  0
   59.0500  -11.9980   21.7660 N   0  0  0  0  0
   60.4450  -12.0230   21.3040 C   0  0  0  0  0
   61.3520  -12.8500   22.2240 C   0  0  0  0  0
   62.5230  -13.1270   21.9070 O   0  0  0  0  0
   60.9980  -10.5870   21.1610 C   0  0  0  0  0
   60.3150   -9.7780   20.0830 C   0  0  0  0  0
   60.0830  -10.3240   18.8230 C   0  0  0  0  0
   59.8840   -8.4890   20.3400 C   0  0  0  0  0
   59.4470   -9.5860   17.8450 C   0  0  0  0  0
   59.2480   -7.7400   19.3670 C   0  0  0  0  0
   59.0240   -8.2820   18.1190 C   0  0  0  0  0
   60.9250  -13.2630   23.3000 O   0  0  0  0  0
   44.1689   -0.1906   17.6628 H   0  0  0  0  0
   45.2598    1.0425   17.4056 H   0  0  0  0  0
   44.0715    0.7328   16.2791 H   0  0  0  0  0
   44.9884   -1.3779   15.7825 H   0  0  0  0  0
   47.3433    0.4517   15.6722 H   0  0  0  0  0
   45.8098    0.9398   14.8312 H   0  0  0  0  0
   48.1500   -0.9591   12.5308 H   0  0  0  0  0
   48.3785    0.4271   13.6019 H   0  0  0  0  0
   44.8760   -1.9750   18.2474 H   0  0  0  0  0
   47.4549   -2.1040   19.5797 H   0  0  0  0  0
   45.6130   -3.8763   20.8043 H   0  0  0  0  0
   44.6623   -2.4179   20.2031 H   0  0  0  0  0
   45.1892   -2.0551   22.4580 H   0  0  0  0  0
   46.2988   -1.0372   21.4569 H   0  0  0  0  0
   47.9894   -4.4624   23.0723 H   0  0  0  0  0
   46.3998   -4.5256   22.3039 H   0  0  0  0  0
   48.9667   -3.3346   18.7465 H   0  0  0  0  0
   48.3085   -6.1879   18.0830 H   0  0  0  0  0
   50.9526   -4.9807   17.5070 H   0  0  0  0  0
   49.4863   -4.3857   16.5447 H   0  0  0  0  0
   49.1399   -6.6610   15.7789 H   0  0  0  0  0
   50.6009   -7.1870   16.6573 H   0  0  0  0  0
   51.9322   -5.5555   15.3492 H   0  0  0  0  0
   50.4419   -5.1681   14.3995 H   0  0  0  0  0
   51.9199   -6.7166   13.2167 H   0  0  0  0  0
   50.3346   -7.4745   13.6479 H   0  0  0  0  0
   52.1818   -8.9542   14.0422 H   0  0  0  0  0
   52.8900   -7.8573   15.0778 H   0  0  0  0  0
   51.4299   -8.5554   15.4749 H   0  0  0  0  0
   49.9242   -7.8849   18.7959 H   0  0  0  0  0
   51.7013   -6.8203   20.9544 H   0  0  0  0  0
   49.8171   -9.1325   21.2693 H   0  0  0  0  0
   50.0279   -7.6493   22.3007 H   0  0  0  0  0
   52.2659   -8.4818   22.9084 H   0  0  0  0  0
   51.8424  -10.0446   22.0363 H   0  0  0  0  0
   49.3698  -10.2338   22.9955 H   0  0  0  0  0
   53.6530   -7.9222   21.2597 H   0  0  0  0  0
   54.3278   -9.8261   19.0711 H   0  0  0  0  0
   56.5285   -8.8237   18.9308 H   0  0  0  0  0
   56.0258   -7.6090   20.2297 H   0  0  0  0  0
   54.3889   -5.8627   19.6671 H   0  0  0  0  0
   56.0793   -8.4267   16.6896 H   0  0  0  0  0
   53.6872   -4.2803   17.9035 H   0  0  0  0  0
   55.3622   -6.8576   14.9311 H   0  0  0  0  0
   54.3650   -4.9543   14.4731 H   0  0  0  0  0
   55.7694  -11.5193   19.5452 H   0  0  0  0  0
   56.6622  -11.6734   22.4386 H   0  0  0  0  0
   56.4345  -14.0551   22.3307 H   0  0  0  0  0
   55.8728  -13.9397   20.6076 H   0  0  0  0  0
   54.9700  -13.3633   24.1528 H   0  0  0  0  0
   53.6598  -13.1747   20.0837 H   0  0  0  0  0
   52.6378  -13.0695   24.9305 H   0  0  0  0  0
   51.3219  -12.8633   20.8492 H   0  0  0  0  0
   50.8041  -12.8209   23.2757 H   0  0  0  0  0
   58.8425  -11.7662   22.7374 H   0  0  0  0  0
   60.4450  -12.5069   20.3273 H   0  0  0  0  0
   62.7205  -12.7433   21.0494 H   0  0  0  0  0
   62.0506  -10.6685   20.8899 H   0  0  0  0  0
   60.8281  -10.0763   22.1089 H   0  0  0  0  0
   60.4062  -11.3424   18.6073 H   0  0  0  0  0
   60.0486   -8.0561   21.3267 H   0  0  0  0  0
   59.2748  -10.0196   16.8599 H   0  0  0  0  0
   58.9242   -6.7226   19.5863 H   0  0  0  0  0
   58.5197   -7.6967   17.3501 H   0  0  0  0  0
  1  2  1  0  0  0
  2  3  1  0  0  0
  2  5  1  0  0  0
  3  4  2  0  0  0
  3  9  1  0  0  0
  5  6  1  0  0  0
  6  7  2  0  0  0
  6  8  1  0  0  0
  9 10  1  0  0  0
 10 11  1  0  0  0
 10 13  1  0  0  0
 11 12  2  0  0  0
 11 18  1  0  0  0
 13 14  1  0  0  0
 14 15  1  0  0  0
 15 16  2  0  0  0
 15 17  1  0  0  0
 18 19  1  0  0  0
 19 20  1  0  0  0
 19 22  1  0  0  0
 20 21  2  0  0  0
 20 27  1  0  0  0
 22 23  1  0  0  0
 23 24  1  0  0  0
 24 25  1  0  0  0
 25 26  1  0  0  0
 27 28  1  0  0  0
 28 29  1  0  0  0
 28 31  1  0  0  0
 29 30  2  0  0  0
 29 36  1  0  0  0
 31 32  1  0  0  0
 32 33  1  0  0  0
 33 34  1  0  0  0
 33 35  2  0  0  0
 36 37  1  0  0  0
 37 38  1  0  0  0
 37 40  1  0  0  0
 38 39  2  0  0  0
 38 48  1  0  0  0
 40 41  1  0  0  0
 41 42  4  0  0  0
 41 43  4  0  0  0
 42 44  4  0  0  0
 43 45  4  0  0  0
 44 46  4  0  0  0
 45 46  4  0  0  0
 46 47  1  0  0  0
 48 49  1  0  0  0
 49 50  1  0  0  0
 49 52  1  0  0  0
 50 51  2  0  0  0
 50 59  1  0  0  0
 52 53  1  0  0  0
 53 54  4  0  0  0
 53 55  4  0  0  0
 54 56  4  0  0  0
 55 57  4  0  0  0
 56 58  4  0  0  0
 57 58  4  0  0  0
 59 60  1  0  0  0
 60 61  1  0  0  0
 60 63  1  0  0  0
 61 62  1  0  0  0
 61 70  2  0  0  0
 63 64  1  0  0  0
 64 65  4  0  0  0
 64 66  4  0  0  0
 65 67  4  0  0  0
 66 68  4  0  0  0
 67 69  4  0  0  0
 68 69  4  0  0  0
  1 71  1  0  0  0
  1 72  1  0  0  0
  1 73  1  0  0  0
  2 74  1  0  0  0
  5 75  1  0  0  0
  5 76  1  0  0  0
  8 77  1  0  0  0
  8 78  1  0  0  0
  9 79  1  0  0  0
 10 80  1  0  0  0
 13 81  1  0  0  0
 13 82  1  0  0  0
 14 83  1  0  0  0
 14 84  1  0  0  0
 17 85  1  0  0  0
 17 86  1  0  0  0
 18 87  1  0  0  0
 19 88  1  0  0  0
 22 89  1  0  0  0
 22 90  1  0  0  0
 23 91  1  0  0  0
 23 92  1  0  0  0
 24 93  1  0  0  0
 24 94  1  0  0  0
 25 95  1  0  0  0
 25 96  1  0  0  0
 26 97  1  0  0  0
 26 98  1  0  0  0
 26 99  1  0  0  0
 27100  1  0  0  0
 28101  1  0  0  0
 31102  1  0  0  0
 31103  1  0  0  0
 32104  1  0  0  0
 32105  1  0  0  0
 34106  1  0  0  0
 36107  1  0  0  0
 37108  1  0  0  0
 40109  1  0  0  0
 40110  1  0  0  0
 42111  1  0  0  0
 43112  1  0  0  0
 44113  1  0  0  0
 45114  1  0  0  0
 47115  1  0  0  0
 48116  1  0  0  0
 49117  1  0  0  0
 52118  1  0  0  0
 52119  1  0  0  0
 54120  1  0  0  0
 55121  1  0  0  0
 56122  1  0  0  0
 57123  1  0  0  0
 58124  1  0  0  0
 59125  1  0  0  0
 60126  1  0  0  0
 62127  1  0  0  0
 63128  1  0  0  0
 63129  1  0  0  0
 65130  1  0  0  0
 66131  1  0  0  0
 67132  1  0  0  0
 68133  1  0  0  0
 69134  1  0  0  0
M  END
$$$$
