### 
### Created by X-TOOL on Mon Sep 10 21:13:23 2018
### 

@<TRIPOS>MOLECULE
4nxq_ligand
  132   134     1     0     0
SMALL
GAST_HUCK


@<TRIPOS>ATOM
      1 N          44.7070    0.3120   16.9570 N.4       1 ASN         0.2396
      2 CA         45.5980   -0.6190   16.2730 C.3       1 ASN         0.0818
      3 C          46.5200   -1.3290   17.2680 C.2       1 ASN         0.2291
      4 O          47.7460   -1.2890   17.1430 O.2       1 ASN        -0.3905
      5 CB         46.4160    0.1160   15.2080 C.3       1 ASN         0.0972
      6 CG         46.7790   -0.7680   14.0330 C.2       1 ASN         0.1813
      7 OD1        46.1070   -1.7660   13.7520 O.2       1 ASN        -0.3969
      8 ND2        47.8530   -0.4050   13.3340 N.am      1 ASN        -0.3006
      9 N          45.8960   -1.9780   18.2490 N.am      1 GLN        -0.2607
     10 CA         46.5740   -2.6950   19.3290 C.3       1 GLN         0.1331
     11 C          47.0970   -4.0850   18.9410 C.2       1 GLN         0.2040
     12 O          46.3280   -5.0320   18.8360 O.2       1 GLN        -0.3944
     13 CB         45.6220   -2.8230   20.5240 C.3       1 GLN         0.0045
     14 CG         46.0280   -2.0480   21.7620 C.3       1 GLN         0.0412
     15 CD         47.2320   -2.6730   22.4610 C.2       1 GLN         0.1737
     16 OE1        48.1790   -1.9840   22.8310 O.2       1 GLN        -0.3973
     17 NE2        47.2050   -3.9880   22.6250 N.am      1 GLN        -0.3009
     18 N          48.3990   -4.1800   18.6880 N.am      1 LYS        -0.2637
     19 CA         49.0580   -5.4360   18.3300 C.3       1 LYS         0.1310
     20 C          49.8810   -5.9690   19.5140 C.2       1 LYS         0.2039
     21 O          50.1340   -5.2260   20.4660 O.2       1 LYS        -0.3944
     22 CB         49.9580   -5.1880   17.1120 C.3       1 LYS        -0.0122
     23 CG         50.1210   -6.3550   16.1420 C.3       1 LYS        -0.0440
     24 CD         50.9850   -5.9290   14.9600 C.3       1 LYS        -0.0124
     25 CE         51.2830   -7.0870   14.0200 C.3       1 LYS        -0.0354
     26 NZ         52.0040   -8.2030   14.7090 N.4       1 LYS         0.2185
     27 N          50.2750   -7.2400   19.5040 N.am      1 GLU        -0.2636
     28 CA         51.2210   -7.7000   20.5260 C.3       1 GLU         0.1325
     29 C          52.3150   -8.5780   19.8910 C.2       1 GLU         0.2041
     30 O          52.0840   -9.2360   18.8880 O.2       1 GLU        -0.3944
     31 CB         50.5160   -8.4120   21.6940 C.3       1 GLU        -0.0008
     32 CG         51.4900   -9.1860   22.6080 C.3       1 GLU         0.0044
     33 CD         50.8710   -9.7370   23.8960 C.2       1 GLU         0.0350
     34 OE1        49.7270  -10.2640   23.8860 O.co2     1 GLU        -0.5690
     35 OE2        51.5650   -9.6440   24.9350 O.co2     1 GLU        -0.5690
     36 N          53.5270   -8.5020   20.4300 N.am      1 TYR        -0.2621
     37 CA         54.6890   -9.2080   19.8930 C.3       1 TYR         0.1390
     38 C          55.3370  -10.1050   20.9430 C.2       1 TYR         0.2059
     39 O          55.3150   -9.7830   22.1290 O.2       1 TYR        -0.3942
     40 CB         55.7360   -8.2230   19.3770 C.3       1 TYR         0.0163
     41 CG         55.2710   -7.2660   18.3020 C.ar      1 TYR        -0.0493
     42 CD1        54.6050   -6.0890   18.6230 C.ar      1 TYR        -0.0685
     43 CD2        55.5440   -7.5180   16.9650 C.ar      1 TYR        -0.0685
     44 CE1        54.2110   -5.1980   17.6360 C.ar      1 TYR        -0.0398
     45 CE2        55.1490   -6.6370   15.9770 C.ar      1 TYR        -0.0398
     46 CZ         54.4850   -5.4790   16.3170 C.ar      1 TYR         0.0805
     47 OH         54.0970   -4.6070   15.3270 O.3       1 TYR        -0.3376
     48 N          55.8740  -11.2450   20.5220 N.am      1 PHE        -0.2618
     49 CA         56.6170  -12.1170   21.4440 C.3       1 PHE         0.1404
     50 C          58.0540  -12.2760   20.9250 C.2       1 PHE         0.2055
     51 O          58.2580  -12.6380   19.7660 O.2       1 PHE        -0.3942
     52 CB         55.8950  -13.4660   21.5890 C.3       1 PHE         0.0214
     53 CG         54.4680  -13.3190   22.0640 C.ar      1 PHE        -0.0386
     54 CD1        54.1670  -13.2670   23.4220 C.ar      1 PHE        -0.0601
     55 CD2        53.4390  -13.1600   21.1510 C.ar      1 PHE        -0.0601
     56 CE1        52.8570  -13.0940   23.8630 C.ar      1 PHE        -0.0686
     57 CE2        52.1220  -12.9810   21.5800 C.ar      1 PHE        -0.0686
     58 CZ         51.8320  -12.9530   22.9380 C.ar      1 PHE        -0.0687
     59 N          59.0500  -11.9980   21.7660 N.am      1 PHE        -0.2676
     60 CA         60.4450  -12.0230   21.3040 C.3       1 PHE         0.1039
     61 C          61.3520  -12.8500   22.2240 C.2       1 PHE         0.0621
     62 O          62.5230  -13.1270   21.9070 O.co2     1 PHE        -0.5664
     63 CB         60.9980  -10.5870   21.1610 C.3       1 PHE         0.0159
     64 CG         60.3150   -9.7780   20.0830 C.ar      1 PHE        -0.0392
     65 CD1        60.0830  -10.3240   18.8230 C.ar      1 PHE        -0.0602
     66 CD2        59.8840   -8.4890   20.3400 C.ar      1 PHE        -0.0602
     67 CE1        59.4470   -9.5860   17.8450 C.ar      1 PHE        -0.0686
     68 CE2        59.2480   -7.7400   19.3670 C.ar      1 PHE        -0.0686
     69 CZ         59.0240   -8.2820   18.1190 C.ar      1 PHE        -0.0687
     70 OXT        60.9250  -13.2630   23.3000 O.co2     1 PHE        -0.5664
     71 H1         44.1119    0.7653   16.2814 H         1 ASN         0.2017
     72 H2         45.2541    1.0059   17.4419 H         1 ASN         0.2017
     73 H3         44.1393   -0.1920   17.6202 H         1 ASN         0.2017
     74 H4         44.9823   -1.3805   15.7720 H         1 ASN         0.1125
     75 H5         47.3436    0.4850   15.6699 H         1 ASN         0.0585
     76 H6         45.8266    0.9678   14.8380 H         1 ASN         0.0585
     77 H7         48.1440   -0.9481   12.5464 H         1 ASN         0.1814
     78 H8         48.3684    0.4107   13.5968 H         1 ASN         0.1814
     79 H9         44.8960   -1.9751   18.2474 H         1 GLN         0.1885
     80 H10        47.4401   -2.0901   19.6353 H         1 GLN         0.0801
     81 H11        45.5581   -3.8871   20.7951 H         1 GLN         0.0337
     82 H12        44.6309   -2.4648   20.2088 H         1 GLN         0.0337
     83 H13        45.1806   -2.0302   22.4632 H         1 GLN         0.0504
     84 H14        46.2829   -1.0190   21.4686 H         1 GLN         0.0504
     85 H15        47.9674   -4.4513   23.0768 H         1 GLN         0.1814
     86 H16        46.4222   -4.5168   22.2970 H         1 GLN         0.1814
     87 H17        48.9556   -3.3512   18.7453 H         1 LYS         0.1883
     88 H18        48.2937   -6.1820   18.0668 H         1 LYS         0.0800
     89 H19        50.9578   -4.9190   17.4834 H         1 LYS         0.0312
     90 H20        49.5357   -4.3419   16.5501 H         1 LYS         0.0312
     91 H21        49.1314   -6.6671   15.7769 H         1 LYS         0.0269
     92 H22        50.6025   -7.1967   16.6613 H         1 LYS         0.0269
     93 H23        51.9358   -5.5291   15.3420 H         1 LYS         0.0317
     94 H24        50.4561   -5.1444   14.3990 H         1 LYS         0.0317
     95 H25        51.9073   -6.7197   13.1921 H         1 LYS         0.0813
     96 H26        50.3334   -7.4722   13.6202 H         1 LYS         0.0813
     97 H27        52.1803   -8.9460   14.0510 H         1 LYS         0.1994
     98 H28        51.4375   -8.5522   15.4661 H         1 LYS         0.1994
     99 H29        52.8798   -7.8626   15.0739 H         1 LYS         0.1994
    100 H30        49.9311   -7.8723   18.8098 H         1 GLU         0.1883
    101 H31        51.7142   -6.8089   20.9417 H         1 GLU         0.0801
    102 H32        49.7846   -9.1222   21.2809 H         1 GLU         0.0330
    103 H33        49.9928   -7.6573   22.2995 H         1 GLU         0.0330
    104 H34        52.3089   -8.5065   22.8868 H         1 GLU         0.0433
    105 H35        51.8952  -10.0330   22.0350 H         1 GLU         0.0433
    106 H36        53.6505   -7.9336   21.2434 H         1 TYR         0.1885
    107 H37        54.3515   -9.8359   19.0552 H         1 TYR         0.0821
    108 H38        56.5748   -8.8060   18.9690 H         1 TYR         0.0453
    109 H39        56.0862   -7.6253   20.2315 H         1 TYR         0.0453
    110 H40        54.3901   -5.8639   19.6614 H         1 TYR         0.0530
    111 H41        56.0764   -8.4217   16.6912 H         1 TYR         0.0530
    112 H42        53.6901   -4.2853   17.9020 H         1 TYR         0.0525
    113 H43        55.3610   -6.8564   14.9368 H         1 TYR         0.0525
    114 H44        53.5059   -5.0503   14.7298 H         1 TYR         0.2458
    115 H45        55.7714  -11.5139   19.5643 H         1 PHE         0.1885
    116 H46        56.6552  -11.6393   22.4341 H         1 PHE         0.0823
    117 H47        56.4451  -14.0827   22.3149 H         1 PHE         0.0474
    118 H48        55.8895  -13.9686   20.6105 H         1 PHE         0.0474
    119 H49        54.9656  -13.3628   24.1488 H         1 PHE         0.0557
    120 H50        53.6586  -13.1747   20.0896 H         1 PHE         0.0557
    121 H51        52.6390  -13.0696   24.9246 H         1 PHE         0.0599
    122 H52        51.3263  -12.8639   20.8532 H         1 PHE         0.0599
    123 H53        50.8097  -12.8216   23.2739 H         1 PHE         0.0559
    124 H54        58.8466  -11.7707   22.7184 H         1 PHE         0.1877
    125 H55        60.4580  -12.4939   20.3100 H         1 PHE         0.0749
    126 H56        62.0698  -10.6498   20.9216 H         1 PHE         0.0467
    127 H57        60.8666  -10.0669   22.1213 H         1 PHE         0.0467
    128 H58        60.4045  -11.3368   18.6085 H         1 PHE         0.0557
    129 H59        60.0477   -8.0585   21.3213 H         1 PHE         0.0557
    130 H60        59.2757  -10.0173   16.8653 H         1 PHE         0.0599
    131 H61        58.9260   -6.7282   19.5850 H         1 PHE         0.0599
    132 H62        58.5225   -7.6999   17.3543 H         1 PHE         0.0559
@<TRIPOS>BOND
     1    1    2 1  
     2    2    3 1  
     3    2    5 1  
     4    3    4 2  
     5    3    9 am 
     6    5    6 1  
     7    6    7 2  
     8    6    8 am 
     9    9   10 1  
    10   10   11 1  
    11   10   13 1  
    12   11   12 2  
    13   11   18 am 
    14   13   14 1  
    15   14   15 1  
    16   15   16 2  
    17   15   17 am 
    18   18   19 1  
    19   19   20 1  
    20   19   22 1  
    21   20   21 2  
    22   20   27 am 
    23   22   23 1  
    24   23   24 1  
    25   24   25 1  
    26   25   26 1  
    27   27   28 1  
    28   28   29 1  
    29   28   31 1  
    30   29   30 2  
    31   29   36 am 
    32   31   32 1  
    33   32   33 1  
    34   33   34 ar 
    35   33   35 ar 
    36   36   37 1  
    37   37   38 1  
    38   37   40 1  
    39   38   39 2  
    40   38   48 am 
    41   40   41 1  
    42   41   42 ar 
    43   41   43 ar 
    44   42   44 ar 
    45   43   45 ar 
    46   44   46 ar 
    47   45   46 ar 
    48   46   47 1  
    49   48   49 1  
    50   49   50 1  
    51   49   52 1  
    52   50   51 2  
    53   50   59 am 
    54   52   53 1  
    55   53   54 ar 
    56   53   55 ar 
    57   54   56 ar 
    58   55   57 ar 
    59   56   58 ar 
    60   57   58 ar 
    61   59   60 1  
    62   60   61 1  
    63   60   63 1  
    64   61   62 ar 
    65   61   70 ar 
    66   63   64 1  
    67   64   65 ar 
    68   64   66 ar 
    69   65   67 ar 
    70   66   68 ar 
    71   67   69 ar 
    72   68   69 ar 
    73    1   71 1  
    74    1   72 1  
    75    1   73 1  
    76    2   74 1  
    77    5   75 1  
    78    5   76 1  
    79    8   77 1  
    80    8   78 1  
    81    9   79 1  
    82   10   80 1  
    83   13   81 1  
    84   13   82 1  
    85   14   83 1  
    86   14   84 1  
    87   17   85 1  
    88   17   86 1  
    89   18   87 1  
    90   19   88 1  
    91   22   89 1  
    92   22   90 1  
    93   23   91 1  
    94   23   92 1  
    95   24   93 1  
    96   24   94 1  
    97   25   95 1  
    98   25   96 1  
    99   26   97 1  
   100   26   98 1  
   101   26   99 1  
   102   27  100 1  
   103   28  101 1  
   104   31  102 1  
   105   31  103 1  
   106   32  104 1  
   107   32  105 1  
   108   36  106 1  
   109   37  107 1  
   110   40  108 1  
   111   40  109 1  
   112   42  110 1  
   113   43  111 1  
   114   44  112 1  
   115   45  113 1  
   116   47  114 1  
   117   48  115 1  
   118   49  116 1  
   119   52  117 1  
   120   52  118 1  
   121   54  119 1  
   122   55  120 1  
   123   56  121 1  
   124   57  122 1  
   125   58  123 1  
   126   59  124 1  
   127   60  125 1  
   128   63  126 1  
   129   63  127 1  
   130   65  128 1  
   131   66  129 1  
   132   67  130 1  
   133   68  131 1  
   134   69  132 1  
@<TRIPOS>SUBSTRUCTURE
     1 ASN         1

