5ey9_ligand
  -I-interpret- 

 73 75  0  0  0  0  0  0  0  0999 V2000
   14.7890   -7.6150   13.9810 C   0  0  0  0  0
   13.1690   -6.0450   14.0130 C   0  0  0  0  0
   12.7040   -8.2940   14.7860 C   0  0  0  0  0
   12.2320   -6.9730   14.5430 C   0  0  0  0  0
   14.0130   -8.6130   14.4910 N   0  0  0  0  0
   14.4830   -6.3260   13.7130 N   0  0  0  0  0
   11.1510   -5.0960   14.3030 C   0  0  0  0  0
    7.7080   -2.2220   16.0750 C   0  0  0  0  0
    7.6570   -3.7670   16.0130 C   0  0  0  0  0
    6.3850   -4.3250   16.6680 C   0  0  0  0  0
    6.0960   -5.8000   16.3680 C   0  0  0  0  0
    4.7360   -6.2170   16.9510 C   0  0  0  0  0
    4.8060   -6.3010   18.4850 C   0  0  0  0  0
    3.6510   -5.5780   19.1930 C   0  0  0  0  0
    8.2560    0.1850   14.2990 O   0  0  0  0  0
    9.4180   -0.2690   15.2630 P   0  0  0  0  0
    9.7930    0.6490   16.3520 O   0  0  0  0  0
   10.5470   -0.4570   14.1640 O   0  0  0  0  0
   10.4960   -1.1260   12.9590 C   0  0  0  0  0
   11.8780   -1.7570   12.6500 C   0  0  0  0  0
   12.2930   -2.5220   13.7650 O   0  0  0  0  0
   11.8140   -2.7460   11.4730 C   0  0  0  0  0
   11.9470   -1.9680   10.3310 O   0  0  0  0  0
   13.0500   -3.6430   11.7730 C   0  0  0  0  0
   14.1680   -3.0020   11.2760 O   0  0  0  0  0
   13.0750   -3.6150   13.3340 C   0  0  0  0  0
   12.4740   -4.8470   13.8640 N   0  0  0  0  0
   10.9770   -6.3590   14.7150 N   0  0  0  0  0
   11.9130   -9.2670   15.3210 N   0  0  0  0  0
    8.9700   -1.7560   15.6440 O   0  0  0  0  0
    2.2760   -6.0760   18.7480 C   0  0  0  0  0
    1.1800   -5.6930   19.7500 C   0  0  0  0  0
    1.3370   -6.4800   21.0550 C   0  0  0  0  0
    0.1960   -6.1520   22.0260 C   0  0  0  0  0
    0.3230   -6.9770   23.3020 C   0  0  0  0  0
   15.8160   -7.9010   13.7540 H   0  0  0  0  0
   10.3620   -4.3439   14.3055 H   0  0  0  0  0
    7.5422   -1.9012   17.1035 H   0  0  0  0  0
    6.9359   -1.8138   15.4228 H   0  0  0  0  0
    8.5192   -4.1592   16.5522 H   0  0  0  0  0
    7.6617   -4.0672   14.9652 H   0  0  0  0  0
    5.5480   -3.7526   16.2682 H   0  0  0  0  0
    6.5247   -4.2445   17.7460 H   0  0  0  0  0
    6.8761   -6.4112   16.8218 H   0  0  0  0  0
    6.0746   -5.9421   15.2875 H   0  0  0  0  0
    4.4684   -7.1970   16.5559 H   0  0  0  0  0
    3.9897   -5.4731   16.6722 H   0  0  0  0  0
    5.7331   -5.8200   18.7969 H   0  0  0  0  0
    4.7484   -7.3547   18.7578 H   0  0  0  0  0
    3.7183   -4.5190   18.9437 H   0  0  0  0  0
    3.7443   -5.7687   20.2621 H   0  0  0  0  0
    8.1073   -0.4941   13.6369 H   0  0  0  0  0
   10.2354   -0.4234   12.1674 H   0  0  0  0  0
    9.7446   -1.9136   13.0155 H   0  0  0  0  0
   12.5546   -0.9355   12.4145 H   0  0  0  0  0
   10.9162   -3.3502   11.3428 H   0  0  0  0  0
   11.9146   -2.5324    9.5551 H   0  0  0  0  0
   13.0203   -4.6467   11.3490 H   0  0  0  0  0
   14.9459   -3.5372   11.4493 H   0  0  0  0  0
   14.1035   -3.5291   13.6846 H   0  0  0  0  0
   10.9438   -9.0606   15.5630 H   0  0  0  0  0
   12.2903  -10.2013   15.4793 H   0  0  0  0  0
    2.3115   -7.1632   18.6779 H   0  0  0  0  0
    2.0390   -5.6162   17.7886 H   0  0  0  0  0
    0.2084   -5.9254   19.3141 H   0  0  0  0  0
    1.2609   -4.6284   19.9696 H   0  0  0  0  0
    2.2846   -6.2070   21.5195 H   0  0  0  0  0
    1.3120   -7.5460   20.8290 H   0  0  0  0  0
   -0.7542   -6.3872   21.5466 H   0  0  0  0  0
    0.2445   -5.0939   22.2833 H   0  0  0  0  0
    0.2817   -8.0374   23.0531 H   0  0  0  0  0
    1.2740   -6.7526   23.7851 H   0  0  0  0  0
   -0.4963   -6.7287   23.9767 H   0  0  0  0  0
  1  5  4  0  0  0
  6  1  4  0  0  0
  2  4  4  0  0  0
  2  6  4  0  0  0
 27  2  4  0  0  0
  4  3  4  0  0  0
  3  5  4  0  0  0
  3 29  1  0  0  0
 28  4  4  0  0  0
 27  7  4  0  0  0
  7 28  4  0  0  0
  8  9  1  0  0  0
 30  8  1  0  0  0
  9 10  1  0  0  0
 10 11  1  0  0  0
 11 12  1  0  0  0
 12 13  1  0  0  0
 13 14  1  0  0  0
 14 31  1  0  0  0
 16 15  1  0  0  0
 16 17  2  0  0  0
 18 16  1  0  0  0
 16 30  1  0  0  0
 19 18  1  0  0  0
 20 19  1  0  0  0
 21 20  1  0  0  0
 22 20  1  0  0  0
 26 21  1  0  0  0
 22 23  1  0  0  0
 24 22  1  0  0  0
 24 25  1  0  0  0
 26 24  1  0  0  0
 26 27  1  0  0  0
 31 32  1  0  0  0
 32 33  1  0  0  0
 33 34  1  0  0  0
 34 35  1  0  0  0
  1 36  1  0  0  0
  7 37  1  0  0  0
  8 38  1  0  0  0
  8 39  1  0  0  0
  9 40  1  0  0  0
  9 41  1  0  0  0
 10 42  1  0  0  0
 10 43  1  0  0  0
 11 44  1  0  0  0
 11 45  1  0  0  0
 12 46  1  0  0  0
 12 47  1  0  0  0
 13 48  1  0  0  0
 13 49  1  0  0  0
 14 50  1  0  0  0
 14 51  1  0  0  0
 15 52  1  0  0  0
 19 53  1  0  0  0
 19 54  1  0  0  0
 20 55  1  0  0  0
 22 56  1  0  0  0
 23 57  1  0  0  0
 24 58  1  0  0  0
 25 59  1  0  0  0
 26 60  1  0  0  0
 29 61  1  0  0  0
 29 62  1  0  0  0
 31 63  1  0  0  0
 31 64  1  0  0  0
 32 65  1  0  0  0
 32 66  1  0  0  0
 33 67  1  0  0  0
 33 68  1  0  0  0
 34 69  1  0  0  0
 34 70  1  0  0  0
 35 71  1  0  0  0
 35 72  1  0  0  0
 35 73  1  0  0  0
M  END
$$$$
