### 
### Created by X-TOOL on Mon Sep 10 21:13:23 2018
### 

@<TRIPOS>MOLECULE
5ey9_ligand
   72    74     1     0     0
SMALL
GAST_HUCK


@<TRIPOS>ATOM
      1 C2         14.7890   -7.6150   13.9810 C.ar      1 5SV         0.0533
      2 C4         13.1690   -6.0450   14.0130 C.ar      1 5SV         0.1613
      3 C6         12.7040   -8.2940   14.7860 C.ar      1 5SV         0.1298
      4 C5         12.2320   -6.9730   14.5430 C.ar      1 5SV         0.1045
      5 N1         14.0130   -8.6130   14.4910 N.ar      1 5SV        -0.2698
      6 N3         14.4830   -6.3260   13.7130 N.ar      1 5SV        -0.2714
      7 C8         11.1510   -5.0960   14.3030 C.2       1 5SV         0.1123
      8 C9          7.7080   -2.2220   16.0750 C.3       1 5SV         0.0837
      9 C10         7.6570   -3.7670   16.0130 C.3       1 5SV        -0.0243
     10 C11         6.3850   -4.3250   16.6680 C.3       1 5SV        -0.0506
     11 C12         6.0960   -5.8000   16.3680 C.3       1 5SV        -0.0530
     12 C13         4.7360   -6.2170   16.9510 C.3       1 5SV        -0.0531
     13 C14         4.8060   -6.3010   18.4850 C.3       1 5SV        -0.0531
     14 C15         3.6510   -5.5780   19.1930 C.3       1 5SV        -0.0531
     15 O2P         8.2560    0.1850   14.2990 O.co2     1 5SV        -0.6177
     16 P           9.4180   -0.2690   15.2630 P.3       1 5SV         0.2552
     17 O1P         9.7930    0.6490   16.3520 O.co2     1 5SV        -0.6177
     18 O5'        10.5470   -0.4570   14.1640 O.3       1 5SV        -0.2514
     19 C5'        10.4960   -1.1260   12.9590 C.3       1 5SV         0.1124
     20 C4'        11.8780   -1.7570   12.6500 C.3       1 5SV         0.1189
     21 O4'        12.2930   -2.5220   13.7650 O.3       1 5SV        -0.3364
     22 C3'        11.8140   -2.7460   11.4730 C.3       1 5SV         0.1149
     23 O3'        11.9470   -1.9680   10.3310 O.3       1 5SV        -0.3864
     24 C2'        13.0500   -3.6430   11.7730 C.3       1 5SV         0.1385
     25 O2'        14.1680   -3.0020   11.2760 O.3       1 5SV        -0.3836
     26 C1'        13.0750   -3.6150   13.3340 C.3       1 5SV         0.2010
     27 N9         12.4740   -4.8470   13.8640 N.pl3     1 5SV        -0.1919
     28 N7         10.9770   -6.3590   14.7150 N.2       1 5SV        -0.2958
     29 N6         11.9130   -9.2670   15.3210 N.pl3     1 5SV        -0.3152
     30 O3P         8.9700   -1.7560   15.6440 O.3       1 5SV        -0.2541
     31 C16         2.2760   -6.0760   18.7480 C.3       1 5SV        -0.0531
     32 C17         1.1800   -5.6930   19.7500 C.3       1 5SV        -0.0531
     33 C18         1.3370   -6.4800   21.0550 C.3       1 5SV        -0.0533
     34 C19         0.1960   -6.1520   22.0260 C.3       1 5SV        -0.0559
     35 C20         0.3230   -6.9770   23.3020 C.3       1 5SV        -0.0653
     36 H1         15.8104   -7.8994   13.7553 H         1 5SV         0.0996
     37 H2         10.3627   -4.3446   14.3055 H         1 5SV         0.1349
     38 H3          7.5344   -1.8943   17.1106 H         1 5SV         0.0620
     39 H4          6.9256   -1.8065   15.4229 H         1 5SV         0.0620
     40 H5          8.5345   -4.1731   16.5375 H         1 5SV         0.0291
     41 H6          7.6816   -4.0816   14.9592 H         1 5SV         0.0291
     42 H7          5.5298   -3.7308   16.3137 H         1 5SV         0.0266
     43 H8          6.4842   -4.2114   17.7576 H         1 5SV         0.0266
     44 H9          6.8862   -6.4210   16.8152 H         1 5SV         0.0265
     45 H10         6.0834   -5.9511   15.2785 H         1 5SV         0.0265
     46 H11         4.4566   -7.2015   16.5477 H         1 5SV         0.0265
     47 H12         3.9769   -5.4744   16.6642 H         1 5SV         0.0265
     48 H13         5.7533   -5.8498   18.8153 H         1 5SV         0.0265
     49 H14         4.7835   -7.3614   18.7767 H         1 5SV         0.0265
     50 H15         3.7228   -4.5026   18.9733 H         1 5SV         0.0265
     51 H16         3.7484   -5.7382   20.2769 H         1 5SV         0.0265
     52 H17        10.2305   -0.4187   12.1595 H         1 5SV         0.0647
     53 H18         9.7362   -1.9196   13.0137 H         1 5SV         0.0647
     54 H19        12.6037   -0.9592   12.4334 H         1 5SV         0.0651
     55 H20        10.8838   -3.3322   11.4416 H         1 5SV         0.0648
     56 H21        11.9150   -2.5265    9.5632 H         1 5SV         0.2100
     57 H22        12.9556   -4.6609   11.3668 H         1 5SV         0.0676
     58 H23        14.0701   -2.8776   10.3393 H         1 5SV         0.2101
     59 H24        14.1093   -3.5135   13.6943 H         1 5SV         0.0996
     60 H25        12.2940  -10.2105   15.4808 H         1 5SV         0.1820
     61 H26        10.9343   -9.0586   15.5654 H         1 5SV         0.1820
     62 H27         2.3068   -7.1717   18.6556 H         1 5SV         0.0265
     63 H28         2.0357   -5.6322   17.7706 H         1 5SV         0.0265
     64 H29         0.1962   -5.9153   19.3110 H         1 5SV         0.0265
     65 H30         1.2499   -4.6169   19.9672 H         1 5SV         0.0265
     66 H31         2.2967   -6.2156   21.5230 H         1 5SV         0.0265
     67 H32         1.3225   -7.5569   20.8313 H         1 5SV         0.0265
     68 H33        -0.7660   -6.3789   21.5432 H         1 5SV         0.0263
     69 H34         0.2349   -5.0828   22.2815 H         1 5SV         0.0263
     70 H35        -0.5033   -6.7273   23.9838 H         1 5SV         0.0230
     71 H36         1.2824   -6.7514   23.7906 H         1 5SV         0.0230
     72 H37         0.2815   -8.0474   23.0522 H         1 5SV         0.0230
@<TRIPOS>BOND
     1    1    5 ar 
     2    6    1 ar 
     3    2    4 ar 
     4    2    6 ar 
     5   27    2 1  
     6    4    3 ar 
     7    3    5 ar 
     8    3   29 1  
     9   28    4 1  
    10   27    7 1  
    11    7   28 2  
    12    8    9 1  
    13   30    8 1  
    14    9   10 1  
    15   10   11 1  
    16   11   12 1  
    17   12   13 1  
    18   13   14 1  
    19   14   31 1  
    20   16   15 ar 
    21   16   17 ar 
    22   18   16 1  
    23   16   30 1  
    24   19   18 1  
    25   20   19 1  
    26   21   20 1  
    27   22   20 1  
    28   26   21 1  
    29   22   23 1  
    30   24   22 1  
    31   24   25 1  
    32   26   24 1  
    33   26   27 1  
    34   31   32 1  
    35   32   33 1  
    36   33   34 1  
    37   34   35 1  
    38    1   36 1  
    39    7   37 1  
    40    8   38 1  
    41    8   39 1  
    42    9   40 1  
    43    9   41 1  
    44   10   42 1  
    45   10   43 1  
    46   11   44 1  
    47   11   45 1  
    48   12   46 1  
    49   12   47 1  
    50   13   48 1  
    51   13   49 1  
    52   14   50 1  
    53   14   51 1  
    54   19   52 1  
    55   19   53 1  
    56   20   54 1  
    57   22   55 1  
    58   23   56 1  
    59   24   57 1  
    60   25   58 1  
    61   26   59 1  
    62   29   60 1  
    63   29   61 1  
    64   31   62 1  
    65   31   63 1  
    66   32   64 1  
    67   32   65 1  
    68   33   66 1  
    69   33   67 1  
    70   34   68 1  
    71   34   69 1  
    72   35   70 1  
    73   35   71 1  
    74   35   72 1  
@<TRIPOS>SUBSTRUCTURE
     1 5SV         1

