2qbw_ligand
  -I-interpret- 

126129  0  0  0  0  0  0  0  0999 V2000
   -6.0850  -17.3670   -5.4480 N   0  3  0  0  0
   -4.7150  -17.8410   -5.5790 C   0  0  0  0  0
   -3.6840  -16.8240   -5.0900 C   0  0  0  0  0
   -3.9490  -15.6110   -5.0420 O   0  0  0  0  0
   -4.5680  -18.0850   -7.0830 C   0  0  0  0  0
   -5.7110  -17.3700   -7.7320 C   0  0  0  0  0
   -6.8010  -17.3790   -6.7350 C   0  0  0  0  0
   -2.5150  -17.3310   -4.7140 N   0  0  0  0  0
   -1.4050  -16.4990   -4.3330 C   0  0  0  0  0
   -0.9660  -15.6510   -5.5250 C   0  0  0  0  0
   -1.1050  -16.0440   -6.7050 O   0  0  0  0  0
   -0.2430  -17.3200   -3.7920 C   0  0  0  0  0
    0.5350  -18.0050   -4.8620 C   0  0  0  0  0
    1.6870  -18.8730   -4.3710 C   0  0  0  0  0
    1.9070  -19.0750   -3.1680 O   0  0  0  0  0
    2.4370  -19.3770   -5.3200 N   0  0  0  0  0
   -0.4620  -14.4540   -5.2170 N   0  0  0  0  0
   -0.0630  -13.5790   -6.2910 C   0  0  0  0  0
    1.2010  -14.0750   -6.9900 C   0  0  0  0  0
    2.0170  -14.7890   -6.4090 O   0  0  0  0  0
    0.2010  -12.2570   -5.5720 C   0  0  0  0  0
    0.6000  -12.6200   -4.2260 C   0  0  0  0  0
   -0.2160  -13.8530   -3.8920 C   0  0  0  0  0
    1.3750  -13.6520   -8.2300 N   0  0  0  0  0
    2.6130  -13.9610   -8.9720 C   0  0  0  0  0
    3.3660  -12.6980   -9.3910 C   0  0  0  0  0
    4.3860  -12.7850  -10.0710 O   0  0  0  0  0
    2.3670  -14.8940  -10.1710 C   0  0  0  0  0
    1.6850  -16.1820   -9.6920 C   0  0  0  0  0
    1.5410  -14.2360  -11.2420 C   0  0  0  0  0
    2.8940  -11.5420   -8.9180 N   0  0  0  0  0
    3.4460  -10.2450   -9.3190 C   0  0  0  0  0
    3.9420   -9.3930   -8.1660 C   0  0  0  0  0
    3.5320   -9.5640   -7.0040 O   0  0  0  0  0
    2.4340   -9.4460  -10.1760 C   0  0  0  0  0
    1.1770   -9.0240   -9.4470 C   0  0  0  0  0
    0.7850   -9.6800   -8.4550 O   0  0  0  0  0
    0.5320   -8.0100   -9.9370 O   0  0  0  0  0
    4.8290   -8.4510   -8.5050 N   0  0  0  0  0
    5.4330   -7.5590   -7.5510 C   0  0  0  0  0
    5.4320   -6.1530   -8.1360 C   0  0  0  0  0
    5.8090   -5.9900   -9.3000 O   0  0  0  0  0
    6.8760   -7.9700   -7.2390 C   0  0  0  0  0
    6.9580   -9.2970   -6.7390 O   0  0  0  0  0
    5.0840   -5.1720   -7.3170 N   0  0  0  0  0
    5.0620   -3.7630   -7.7410 C   0  0  0  0  0
    6.4150   -3.1120   -7.6620 C   0  0  0  0  0
    7.1820   -3.3230   -6.7010 O   0  0  0  0  0
    4.0040   -3.0040   -6.8980 C   0  0  0  0  0
    2.6200   -3.4080   -7.3230 C   0  0  0  0  0
    1.8900   -4.5060   -6.9140 C   0  0  0  0  0
    1.8130   -2.7500   -8.3000 C   0  0  0  0  0
    0.7110   -4.5510   -7.5600 N   0  0  0  0  0
    0.6240   -3.4850   -8.4200 C   0  0  0  0  0
    1.9750   -1.5880   -9.0770 C   0  0  0  0  0
   -0.3850   -3.1220   -9.3030 C   0  0  0  0  0
    0.9680   -1.2280   -9.9420 C   0  0  0  0  0
   -0.1930   -1.9780  -10.0480 C   0  0  0  0  0
    6.6780   -2.2610   -8.6660 N   0  0  0  0  0
    7.9340   -1.5990   -8.8140 C   0  0  0  0  0
    7.6290   -0.1250   -9.0870 C   0  0  0  0  0
    8.5670    0.6670   -8.9940 O   0  0  0  0  0
    8.8280   -2.2350   -9.9250 C   0  0  0  0  0
    9.2280   -3.6580   -9.4960 C   0  0  0  0  0
    8.1590   -2.2630  -11.3060 C   0  0  0  0  0
    6.4570    0.2250   -9.3570 O   0  0  0  0  0
   -6.0579  -16.4057   -5.1080 H   0  0  0  0  0
   -6.5763  -17.9878   -4.8049 H   0  0  0  0  0
   -4.5333  -18.7262   -4.9695 H   0  0  0  0  0
   -4.5875  -19.1502   -7.3133 H   0  0  0  0  0
   -3.6112  -17.7144   -7.4509 H   0  0  0  0  0
   -6.0133  -17.8590   -8.6580 H   0  0  0  0  0
   -5.4370  -16.3535   -8.0144 H   0  0  0  0  0
   -7.4776  -16.5317   -6.8461 H   0  0  0  0  0
   -7.4586  -18.2419   -6.8407 H   0  0  0  0  0
   -2.4007  -18.3444   -4.6948 H   0  0  0  0  0
   -1.7312  -15.8418   -3.5269 H   0  0  0  0  0
   -0.0047  -17.3986   -2.7313 H   0  0  0  0  0
    0.2973  -17.8933   -5.9199 H   0  0  0  0  0
    3.2382  -19.9612   -5.0808 H   0  0  0  0  0
    2.2196  -19.1851   -6.2979 H   0  0  0  0  0
   -0.8142  -13.5100   -7.0777 H   0  0  0  0  0
   -0.6843  -11.6212   -5.5680 H   0  0  0  0  0
    0.9747  -11.6768   -6.0748 H   0  0  0  0  0
    0.4163  -11.8111   -3.5189 H   0  0  0  0  0
    1.6704  -12.8152   -4.1615 H   0  0  0  0  0
    0.2987  -14.5292   -3.2094 H   0  0  0  0  0
   -1.1357  -13.6195   -3.3557 H   0  0  0  0  0
    0.6427  -13.1037   -8.6811 H   0  0  0  0  0
    3.2529  -14.5036   -8.2761 H   0  0  0  0  0
    3.3355  -15.1311  -10.6114 H   0  0  0  0  0
    2.3271  -16.6841   -8.9683 H   0  0  0  0  0
    0.7321  -15.9347   -9.2242 H   0  0  0  0  0
    1.5130  -16.8392  -10.5444 H   0  0  0  0  0
    0.5732  -13.9514  -10.8292 H   0  0  0  0  0
    2.0586  -13.3476  -11.6038 H   0  0  0  0  0
    1.3948  -14.9339  -12.0664 H   0  0  0  0  0
    2.1208  -11.5624   -8.2531 H   0  0  0  0  0
    4.3241  -10.4855   -9.9184 H   0  0  0  0  0
    2.1226  -10.1010  -10.9897 H   0  0  0  0  0
    2.9385   -8.5325  -10.4908 H   0  0  0  0  0
    1.0122   -7.6610  -10.6914 H   0  0  0  0  0
    5.0898   -8.3606   -9.4869 H   0  0  0  0  0
    4.8604   -7.5977   -6.6243 H   0  0  0  0  0
    7.2642   -7.2949   -6.4763 H   0  0  0  0  0
    7.4512   -7.9191   -8.1635 H   0  0  0  0  0
    7.8755   -9.5132   -6.5573 H   0  0  0  0  0
    4.8219   -5.4013   -6.3583 H   0  0  0  0  0
    4.7847   -3.7211   -8.7943 H   0  0  0  0  0
    4.1268   -1.9317   -7.0504 H   0  0  0  0  0
    4.1414   -3.2500   -5.8450 H   0  0  0  0  0
    2.2218   -5.2332   -6.1729 H   0  0  0  0  0
    2.8798   -0.9857   -8.9951 H   0  0  0  0  0
   -1.2923   -3.7178   -9.4029 H   0  0  0  0  0
    1.0852   -0.3353  -10.5563 H   0  0  0  0  0
   -0.9733   -1.6553  -10.7373 H   0  0  0  0  0
    5.9475   -2.0791   -9.3543 H   0  0  0  0  0
    8.5216   -1.7062   -7.9022 H   0  0  0  0  0
    9.7103   -1.6039  -10.0316 H   0  0  0  0  0
    9.7836   -3.6111   -8.5594 H   0  0  0  0  0
    8.3301   -4.2602   -9.3575 H   0  0  0  0  0
    9.8525   -4.1069  -10.2684 H   0  0  0  0  0
    7.2400   -2.8465  -11.2513 H   0  0  0  0  0
    7.9262   -1.2443  -11.6163 H   0  0  0  0  0
    8.8374   -2.7180  -12.0278 H   0  0  0  0  0
    5.8901   -0.5494   -9.3793 H   0  0  0  0  0
  1  2  1  0  0  0
  1  7  1  0  0  0
  2  3  1  0  0  0
  2  5  1  0  0  0
  3  4  2  0  0  0
  3  8  1  0  0  0
  5  6  1  0  0  0
  6  7  1  0  0  0
  8  9  1  0  0  0
  9 10  1  0  0  0
  9 12  1  0  0  0
 10 11  2  0  0  0
 10 17  1  0  0  0
 12 13  2  0  0  0
 13 14  1  0  0  0
 14 15  2  0  0  0
 14 16  1  0  0  0
 17 18  1  0  0  0
 17 23  1  0  0  0
 18 19  1  0  0  0
 18 21  1  0  0  0
 19 20  2  0  0  0
 19 24  1  0  0  0
 21 22  1  0  0  0
 22 23  1  0  0  0
 24 25  1  0  0  0
 25 26  1  0  0  0
 25 28  1  0  0  0
 26 27  2  0  0  0
 26 31  1  0  0  0
 28 29  1  0  0  0
 28 30  1  0  0  0
 31 32  1  0  0  0
 32 33  1  0  0  0
 32 35  1  0  0  0
 33 34  2  0  0  0
 33 39  1  0  0  0
 35 36  1  0  0  0
 36 37  2  0  0  0
 36 38  1  0  0  0
 39 40  1  0  0  0
 40 41  1  0  0  0
 40 43  1  0  0  0
 41 42  2  0  0  0
 41 45  1  0  0  0
 43 44  1  0  0  0
 45 46  1  0  0  0
 46 47  1  0  0  0
 46 49  1  0  0  0
 47 48  2  0  0  0
 47 59  1  0  0  0
 49 50  1  0  0  0
 50 51  4  0  0  0
 50 52  4  0  0  0
 51 53  4  0  0  0
 52 54  4  0  0  0
 52 55  4  0  0  0
 53 54  4  0  0  0
 54 56  4  0  0  0
 55 57  4  0  0  0
 56 58  4  0  0  0
 57 58  4  0  0  0
 59 60  1  0  0  0
 60 61  1  0  0  0
 60 63  1  0  0  0
 61 62  2  0  0  0
 61 66  1  0  0  0
 63 64  1  0  0  0
 63 65  1  0  0  0
  1 67  1  0  0  0
  1 68  1  0  0  0
  2 69  1  0  0  0
  5 70  1  0  0  0
  5 71  1  0  0  0
  6 72  1  0  0  0
  6 73  1  0  0  0
  7 74  1  0  0  0
  7 75  1  0  0  0
  8 76  1  0  0  0
  9 77  1  0  0  0
 12 78  1  0  0  0
 13 79  1  0  0  0
 16 80  1  0  0  0
 16 81  1  0  0  0
 18 82  1  0  0  0
 21 83  1  0  0  0
 21 84  1  0  0  0
 22 85  1  0  0  0
 22 86  1  0  0  0
 23 87  1  0  0  0
 23 88  1  0  0  0
 24 89  1  0  0  0
 25 90  1  0  0  0
 28 91  1  0  0  0
 29 92  1  0  0  0
 29 93  1  0  0  0
 29 94  1  0  0  0
 30 95  1  0  0  0
 30 96  1  0  0  0
 30 97  1  0  0  0
 31 98  1  0  0  0
 32 99  1  0  0  0
 35100  1  0  0  0
 35101  1  0  0  0
 38102  1  0  0  0
 39103  1  0  0  0
 40104  1  0  0  0
 43105  1  0  0  0
 43106  1  0  0  0
 44107  1  0  0  0
 45108  1  0  0  0
 46109  1  0  0  0
 49110  1  0  0  0
 49111  1  0  0  0
 51112  1  0  0  0
 55113  1  0  0  0
 56114  1  0  0  0
 57115  1  0  0  0
 58116  1  0  0  0
 59117  1  0  0  0
 60118  1  0  0  0
 63119  1  0  0  0
 64120  1  0  0  0
 64121  1  0  0  0
 64122  1  0  0  0
 65123  1  0  0  0
 65124  1  0  0  0
 65125  1  0  0  0
 66126  1  0  0  0
M  END
$$$$
