5hu1_ligand
  -I-interpret- 

 45 47  0  0  0  0  0  0  0  0999 V2000
   22.7360   10.3830   20.7720 C   0  0  0  0  0
   21.5330    9.9810   21.6110 C   0  0  0  0  0
   20.6500    9.0380   20.7890 C   0  0  0  0  0
   20.6560   11.1270   22.0640 C   0  0  0  0  0
   21.5520   12.2130   23.1450 S   0  0  0  0  0
   22.4280   11.0730   24.0920 N   0  0  0  0  0
   22.3680    9.6820   23.8530 C   0  0  0  0  0
   21.9140    9.1570   22.7570 N   0  0  0  0  0
   22.8110    8.9190   24.9000 N   0  0  0  0  0
   23.0610   11.6570   25.2910 C   0  0  0  0  0
   20.5700   12.8320   24.0170 O   0  0  0  0  0
   22.5710   12.9310   22.4450 O   0  0  0  0  0
   24.0310   10.0450   21.1620 C   0  0  0  0  0
   25.1380   10.3980   20.4240 C   0  0  0  0  0
   24.9950   11.0970   19.2320 C   0  0  0  0  0
   23.7170   11.4440   18.8310 C   0  0  0  0  0
   22.6180   11.1110   19.5980 C   0  0  0  0  0
   21.3770   11.4890   19.1970 F   0  0  0  0  0
   26.3820    9.9940   20.9260 N   0  0  0  0  0
   31.0160   10.0770   22.0860 C   0  0  0  0  0
   30.7510    9.0820   23.0070 C   0  0  0  0  0
   29.4780    8.5610   23.0580 C   0  0  0  0  0
   28.4820    8.9760   22.2580 N   0  0  0  0  0
   28.7600    9.9480   21.3830 C   0  0  0  0  0
   30.0090   10.5300   21.2520 C   0  0  0  0  0
   27.6420   10.3910   20.5150 C   0  0  0  0  0
   27.8770   11.0830   19.5330 O   0  0  0  0  0
   31.6990    8.6040   23.8310 F   0  0  0  0  0
   21.2280    8.1598   20.5011 H   0  0  0  0  0
   19.7931    8.7301   21.3882 H   0  0  0  0  0
   20.3026    9.5551   19.8946 H   0  0  0  0  0
   19.7983   10.7232   22.6019 H   0  0  0  0  0
   20.3315   11.6898   21.1888 H   0  0  0  0  0
   21.8205    8.1433   22.6932 H   0  0  0  0  0
   23.1439    9.3679   25.7532 H   0  0  0  0  0
   22.5552   11.2883   26.1834 H   0  0  0  0  0
   24.1118   11.3691   25.3222 H   0  0  0  0  0
   22.9817   12.7433   25.2495 H   0  0  0  0  0
   24.1720    9.4811   22.0841 H   0  0  0  0  0
   25.8638   11.3642   18.6305 H   0  0  0  0  0
   23.5758   11.9877   17.8969 H   0  0  0  0  0
   26.3554    9.3213   21.6923 H   0  0  0  0  0
   32.0163   10.5044   22.0164 H   0  0  0  0  0
   29.2681    7.7739   23.7823 H   0  0  0  0  0
   30.1925   11.3158   20.5192 H   0  0  0  0  0
  1  2  1  0  0  0
 13  1  4  0  0  0
  1 17  4  0  0  0
  2  3  1  0  0  0
  2  4  1  0  0  0
  2  8  1  0  0  0
  4  5  1  0  0  0
  5  6  1  0  0  0
  5 11  2  0  0  0
  5 12  2  0  0  0
  7  6  4  0  0  0
  6 10  1  0  0  0
  8  7  1  0  0  0
  7  9  2  0  0  0
 14 13  4  0  0  0
 14 15  4  0  0  0
 19 14  1  0  0  0
 15 16  4  0  0  0
 16 17  4  0  0  0
 17 18  1  0  0  0
 26 19  1  0  0  0
 20 21  4  0  0  0
 25 20  4  0  0  0
 22 21  4  0  0  0
 21 28  1  0  0  0
 23 22  4  0  0  0
 24 23  4  0  0  0
 24 25  4  0  0  0
 24 26  1  0  0  0
 26 27  2  0  0  0
  3 29  1  0  0  0
  3 30  1  0  0  0
  3 31  1  0  0  0
  4 32  1  0  0  0
  4 33  1  0  0  0
  8 34  1  0  0  0
  9 35  1  0  0  0
 10 36  1  0  0  0
 10 37  1  0  0  0
 10 38  1  0  0  0
 13 39  1  0  0  0
 15 40  1  0  0  0
 16 41  1  0  0  0
 19 42  1  0  0  0
 20 43  1  0  0  0
 22 44  1  0  0  0
 25 45  1  0  0  0
M  END
$$$$
