3bex_ligand
  -I-interpret- 

 32 31  0  0  0  0  0  0  0  0999 V2000
    3.7490   13.6700   18.2660 O   0  0  0  0  0
    4.5470   12.5230   16.2990 C   0  0  0  0  0
    4.3430   13.8310   17.0230 C   0  0  0  0  0
    5.3890   11.6250   17.1540 C   0  0  0  0  0
    5.2270   12.7970   14.9760 C   0  0  0  0  0
    3.1870   11.9050   16.0200 C   0  0  0  0  0
    2.4120   12.7940   15.2560 O   0  0  0  0  0
    3.1500   10.5570   15.3360 C   0  0  0  0  0
    3.3850    9.5210   16.0300 O   0  0  0  0  0
    2.8950   10.4820   14.1180 N   0  0  0  0  0
    2.7530    9.2730   13.3530 C   0  0  0  0  0
    3.4880    9.4070   12.0210 C   0  0  0  0  0
    3.0250   10.5080   11.1050 C   0  0  0  0  0
    2.3810   11.4360   11.5100 O   0  0  0  0  0
    3.3820   10.4150    9.9400 O   0  0  0  0  0
    3.6425   14.5285   18.6822 H   0  0  0  0  0
    5.3225   14.2837   17.1771 H   0  0  0  0  0
    3.6829   14.4497   16.4151 H   0  0  0  0  0
    4.8844   11.4527   18.1047 H   0  0  0  0  0
    5.5382   10.6739   16.6428 H   0  0  0  0  0
    6.3546   12.0976   17.3341 H   0  0  0  0  0
    5.3467   11.8613   14.4298 H   0  0  0  0  0
    4.6168   13.4851   14.3910 H   0  0  0  0  0
    6.2057   13.2413   15.1571 H   0  0  0  0  0
    2.7943   11.7230   17.0204 H   0  0  0  0  0
    2.4191   13.6601   15.6701 H   0  0  0  0  0
    2.7758   11.3621   13.6164 H   0  0  0  0  0
    1.6952    9.0922   13.1618 H   0  0  0  0  0
    3.1785    8.4415   13.9149 H   0  0  0  0  0
    3.3121    8.4746   11.4845 H   0  0  0  0  0
    4.5238    9.6377   12.2701 H   0  0  0  0  0
    3.8828    9.6043    9.8237 H   0  0  0  0  0
  1  3  1  0  0  0
  3  2  1  0  0  0
  2  4  1  0  0  0
  2  5  1  0  0  0
  2  6  1  0  0  0
  6  7  1  0  0  0
  6  8  1  0  0  0
  8  9  2  0  0  0
  8 10  1  0  0  0
 10 11  1  0  0  0
 11 12  1  0  0  0
 12 13  1  0  0  0
 13 14  2  0  0  0
 13 15  1  0  0  0
  1 16  1  0  0  0
  3 17  1  0  0  0
  3 18  1  0  0  0
  4 19  1  0  0  0
  4 20  1  0  0  0
  4 21  1  0  0  0
  5 22  1  0  0  0
  5 23  1  0  0  0
  5 24  1  0  0  0
  6 25  1  0  0  0
  7 26  1  0  0  0
 10 27  1  0  0  0
 11 28  1  0  0  0
 11 29  1  0  0  0
 12 30  1  0  0  0
 12 31  1  0  0  0
 15 32  1  0  0  0
M  END
$$$$
