5m6m_ligand
  -I-interpret- 

 74 78  0  0  0  0  0  0  0  0999 V2000
  -15.4440  -21.8480   -0.3530 C   0  0  0  0  0
  -15.9550  -20.4860   -0.7400 C   0  0  0  0  0
  -15.9000  -20.2730   -2.2360 C   0  0  0  0  0
  -16.1850  -18.8940   -2.6530 N   0  3  0  0  0
  -16.4260  -18.8400   -4.0940 C   0  0  0  0  0
  -15.1700  -19.0300   -4.9340 C   0  0  0  0  0
  -16.2670  -18.3770   -8.4160 C   0  0  0  0  0
  -17.0090  -19.5130   -9.1290 C   0  0  0  0  0
  -16.7130  -17.0440   -9.0070 C   0  0  0  0  0
  -14.7720  -18.4870   -8.4730 C   0  0  0  0  0
  -12.6490  -18.4570   -9.3480 C   0  0  0  0  0
  -12.0420  -18.7160   -8.1340 C   0  0  0  0  0
  -10.2220  -21.3140   -7.5120 C   0  0  0  0  0
   -9.2950  -22.8160   -9.1300 C   0  0  0  0  0
   -9.1550  -21.7660  -10.0100 C   0  0  0  0  0
   -9.5580  -20.4920   -9.6460 C   0  0  0  0  0
  -12.8860  -18.8730   -7.0410 C   0  0  0  0  0
  -14.2620  -18.7400   -7.1880 C   0  0  0  0  0
  -15.2950  -17.9120   -2.0050 C   0  0  0  0  0
  -15.6050  -16.4620   -2.4080 C   0  0  0  0  0
  -14.4260  -15.0950   -5.6960 C   0  0  0  0  0
  -14.1170  -19.3600   -4.4360 O   0  0  0  0  0
  -15.2990  -18.8160   -6.2660 N   0  0  0  0  0
  -16.5690  -18.4240   -6.8970 C   0  0  0  0  0
  -13.9710  -18.3450   -9.5290 N   0  0  0  0  0
  -10.5410  -18.8640   -7.9930 C   0  0  0  0  0
  -10.0960  -20.2500   -8.3890 C   0  0  0  0  0
   -9.8230  -22.5890   -7.8800 C   0  0  0  0  0
  -14.8730  -15.9920   -3.5990 N   0  0  0  0  0
  -13.3950  -15.9770   -3.6640 C   0  0  0  0  0
  -13.0820  -15.4170   -5.0350 C   0  0  0  0  0
  -15.4740  -15.4690   -4.6790 C   0  0  0  0  0
  -16.6790  -15.3340   -4.7940 O   0  0  0  0  0
  -15.4720  -18.0510   -0.5070 C   0  0  0  0  0
  -15.1320  -19.4310   -0.0660 N   0  3  0  0  0
  -14.4036  -21.9459   -0.6631 H   0  0  0  0  0
  -15.5151  -21.9676    0.7281 H   0  0  0  0  0
  -16.0446  -22.6132   -0.8448 H   0  0  0  0  0
  -16.9955  -20.4188   -0.4224 H   0  0  0  0  0
  -16.6636  -20.9103   -2.6820 H   0  0  0  0  0
  -14.8853  -20.5056   -2.5589 H   0  0  0  0  0
  -17.0756  -18.5612   -2.2835 H   0  0  0  0  0
  -16.8223  -17.8502   -4.3207 H   0  0  0  0  0
  -17.1083  -19.6535   -4.3404 H   0  0  0  0  0
  -18.0827  -19.3888   -8.9879 H   0  0  0  0  0
  -16.7756  -19.4859  -10.1934 H   0  0  0  0  0
  -16.6945  -20.4693   -8.7110 H   0  0  0  0  0
  -16.4804  -17.0241  -10.0717 H   0  0  0  0  0
  -17.7875  -16.9270   -8.8662 H   0  0  0  0  0
  -16.1887  -16.2314   -8.5040 H   0  0  0  0  0
  -12.0063  -18.3353  -10.2199 H   0  0  0  0  0
  -10.6404  -21.1466   -6.5195 H   0  0  0  0  0
   -8.9894  -23.8207   -9.4220 H   0  0  0  0  0
   -8.7253  -21.9383  -10.9968 H   0  0  0  0  0
   -9.4517  -19.6702  -10.3541 H   0  0  0  0  0
  -12.4661  -19.1020   -6.0616 H   0  0  0  0  0
  -14.2732  -18.1184   -2.3235 H   0  0  0  0  0
  -15.3033  -15.8267   -1.5753 H   0  0  0  0  0
  -16.6676  -16.4161   -2.6464 H   0  0  0  0  0
  -14.5565  -15.6479   -6.6262 H   0  0  0  0  0
  -14.4940  -14.0426   -5.9714 H   0  0  0  0  0
  -17.3681  -19.1286   -6.6664 H   0  0  0  0  0
  -16.9232  -17.4621   -6.5264 H   0  0  0  0  0
  -10.2686  -18.6931   -6.9515 H   0  0  0  0  0
  -10.0549  -18.1400   -8.6469 H   0  0  0  0  0
   -9.9278  -23.4150   -7.1766 H   0  0  0  0  0
  -12.9695  -16.9704   -3.5214 H   0  0  0  0  0
  -12.9570  -15.3759   -2.8672 H   0  0  0  0  0
  -12.4631  -14.5231   -4.9575 H   0  0  0  0  0
  -12.5192  -16.1368   -5.6294 H   0  0  0  0  0
  -16.5119  -17.8450   -0.2533 H   0  0  0  0  0
  -14.8085  -17.3462   -0.0058 H   0  0  0  0  0
  -14.1554  -19.6004   -0.3066 H   0  0  0  0  0
  -15.3153  -19.4892    0.9357 H   0  0  0  0  0
  2  1  1  0  0  0
  3  2  1  0  0  0
  2 35  1  0  0  0
  4  3  1  0  0  0
  4  5  1  0  0  0
 19  4  1  0  0  0
  5  6  1  0  0  0
  6 22  2  0  0  0
  6 23  1  0  0  0
  7  8  1  0  0  0
  7  9  1  0  0  0
  7 10  1  0  0  0
 24  7  1  0  0  0
 18 10  4  0  0  0
 10 25  4  0  0  0
 12 11  4  0  0  0
 25 11  4  0  0  0
 17 12  4  0  0  0
 12 26  1  0  0  0
 27 13  4  0  0  0
 13 28  4  0  0  0
 15 14  4  0  0  0
 28 14  4  0  0  0
 16 15  4  0  0  0
 27 16  4  0  0  0
 18 17  4  0  0  0
 23 18  1  0  0  0
 20 19  1  0  0  0
 19 34  1  0  0  0
 29 20  1  0  0  0
 21 31  1  0  0  0
 32 21  1  0  0  0
 23 24  1  0  0  0
 26 27  1  0  0  0
 29 30  1  0  0  0
 29 32  1  0  0  0
 30 31  1  0  0  0
 32 33  2  0  0  0
 34 35  1  0  0  0
  1 36  1  0  0  0
  1 37  1  0  0  0
  1 38  1  0  0  0
  2 39  1  0  0  0
  3 40  1  0  0  0
  3 41  1  0  0  0
  4 42  1  0  0  0
  5 43  1  0  0  0
  5 44  1  0  0  0
  8 45  1  0  0  0
  8 46  1  0  0  0
  8 47  1  0  0  0
  9 48  1  0  0  0
  9 49  1  0  0  0
  9 50  1  0  0  0
 11 51  1  0  0  0
 13 52  1  0  0  0
 14 53  1  0  0  0
 15 54  1  0  0  0
 16 55  1  0  0  0
 17 56  1  0  0  0
 19 57  1  0  0  0
 20 58  1  0  0  0
 20 59  1  0  0  0
 21 60  1  0  0  0
 21 61  1  0  0  0
 24 62  1  0  0  0
 24 63  1  0  0  0
 26 64  1  0  0  0
 26 65  1  0  0  0
 28 66  1  0  0  0
 30 67  1  0  0  0
 30 68  1  0  0  0
 31 69  1  0  0  0
 31 70  1  0  0  0
 34 71  1  0  0  0
 34 72  1  0  0  0
 35 73  1  0  0  0
 35 74  1  0  0  0
M  END
$$$$
