### 
### Created by X-TOOL on Mon Sep 10 21:12:56 2018
### 

@<TRIPOS>MOLECULE
2j9l_ligand
   43    45     1     0     0
SMALL
GAST_HUCK


@<TRIPOS>ATOM
      1 PG         14.2980   75.9230   56.8070 P.3       1 ATP         0.1879
      2 O1G        14.8130   75.8020   58.3540 O.co2     1 ATP        -0.6091
      3 O2G        15.4610   76.7600   56.0260 O.co2     1 ATP        -0.6091
      4 O3G        12.9510   76.5570   56.6990 O.co2     1 ATP        -0.6091
      5 PB         13.5210   74.0030   54.9300 P.3       1 ATP         0.3553
      6 O1B        12.1320   73.7010   55.3000 O.co2     1 ATP        -0.5652
      7 O2B        14.3300   72.9780   54.2600 O.co2     1 ATP        -0.5652
      8 O3B        14.3500   74.4210   56.2200 O.3       1 ATP        -0.1546
      9 PA         13.0500   75.3780   52.5090 P.3       1 ATP         0.3266
     10 O1A        12.3170   76.6320   52.2730 O.co2     1 ATP        -0.5692
     11 O2A        14.1890   75.0200   51.6540 O.co2     1 ATP        -0.5692
     12 O3A        13.5380   75.3360   54.0420 O.3       1 ATP        -0.1171
     13 N9         10.7820   73.2460   48.9490 N.pl3     1 ATP        -0.1919
     14 C8         12.0420   73.6670   49.0490 C.2       1 ATP         0.1123
     15 N7         12.3980   74.2530   47.9070 N.2       1 ATP        -0.2958
     16 C5         11.3590   74.2030   47.0820 C.ar      1 ATP         0.1045
     17 C6         11.1450   74.6320   45.7850 C.ar      1 ATP         0.1298
     18 N6         12.1100   75.2440   45.1130 N.pl3     1 ATP        -0.3152
     19 N1          9.9560   74.4230   45.2230 N.ar      1 ATP        -0.2698
     20 C2          8.9910   73.8090   45.8810 C.ar      1 ATP         0.0533
     21 N3          9.1640   73.3820   47.1180 N.ar      1 ATP        -0.2714
     22 C4         10.3340   73.5640   47.7410 C.ar      1 ATP         0.1613
     23 O5'        11.9610   74.2290   52.4480 O.3       1 ATP        -0.2441
     24 C5'        10.5760   74.5430   52.6120 C.3       1 ATP         0.1131
     25 C4'         9.6820   73.3680   52.1920 C.3       1 ATP         0.1189
     26 O4'         9.3470   73.5520   50.8010 O.3       1 ATP        -0.3364
     27 C3'        10.3550   71.9920   52.2990 C.3       1 ATP         0.1149
     28 O3'         9.3600   70.9810   52.5390 O.3       1 ATP        -0.3864
     29 C2'        10.9540   71.7820   50.9210 C.3       1 ATP         0.1385
     30 O2'        10.9080   70.3860   50.5840 O.3       1 ATP        -0.3836
     31 C1'        10.0030   72.5490   50.0020 C.3       1 ATP         0.2010
     32 H1         12.6791   73.5506   49.9245 H         1 ATP         0.1349
     33 H2         11.9439   75.5610   44.1472 H         1 ATP         0.1820
     34 H3         13.0259   75.4025   45.5567 H         1 ATP         0.1820
     35 H4          8.0349   73.6518   45.3949 H         1 ATP         0.0996
     36 H5         10.3315   75.4181   51.9921 H         1 ATP         0.0648
     37 H6         10.3850   74.7779   53.6695 H         1 ATP         0.0648
     38 H7          8.7727   73.3731   52.8110 H         1 ATP         0.0651
     39 H8         11.1228   71.9743   53.0865 H         1 ATP         0.0648
     40 H9          9.7818   70.1323   52.6043 H         1 ATP         0.2100
     41 H10        11.9837   72.1639   50.8591 H         1 ATP         0.0676
     42 H11        11.4051   69.8903   51.2241 H         1 ATP         0.2101
     43 H12         9.2693   71.8660   49.5491 H         1 ATP         0.0996
@<TRIPOS>BOND
     1    1    2 ar 
     2    1    3 ar 
     3    1    4 ar 
     4    8    1 1  
     5    5    6 ar 
     6    5    7 ar 
     7    5    8 1  
     8   12    5 1  
     9    9   10 ar 
    10    9   11 ar 
    11    9   12 1  
    12   23    9 1  
    13   13   14 1  
    14   13   22 1  
    15   31   13 1  
    16   14   15 2  
    17   16   15 1  
    18   16   17 ar 
    19   22   16 ar 
    20   17   18 1  
    21   17   19 ar 
    22   20   19 ar 
    23   21   20 ar 
    24   22   21 ar 
    25   24   23 1  
    26   25   24 1  
    27   26   25 1  
    28   25   27 1  
    29   26   31 1  
    30   27   28 1  
    31   27   29 1  
    32   29   30 1  
    33   29   31 1  
    34   14   32 1  
    35   18   33 1  
    36   18   34 1  
    37   20   35 1  
    38   24   36 1  
    39   24   37 1  
    40   25   38 1  
    41   27   39 1  
    42   28   40 1  
    43   29   41 1  
    44   30   42 1  
    45   31   43 1  
@<TRIPOS>SUBSTRUCTURE
     1 ATP         1

