2j9l_ligand
  -I-interpret- 

 47 49  0  0  0  0  0  0  0  0999 V2000
   14.2980   75.9230   56.8070 P   0  0  0  0  0
   14.8130   75.8020   58.3540 O   0  0  0  0  0
   15.4610   76.7600   56.0260 O   0  0  0  0  0
   12.9510   76.5570   56.6990 O   0  0  0  0  0
   13.5210   74.0030   54.9300 P   0  0  0  0  0
   12.1320   73.7010   55.3000 O   0  0  0  0  0
   14.3300   72.9780   54.2600 O   0  0  0  0  0
   14.3500   74.4210   56.2200 O   0  0  0  0  0
   13.0500   75.3780   52.5090 P   0  0  0  0  0
   12.3170   76.6320   52.2730 O   0  0  0  0  0
   14.1890   75.0200   51.6540 O   0  0  0  0  0
   13.5380   75.3360   54.0420 O   0  0  0  0  0
   10.7820   73.2460   48.9490 N   0  0  0  0  0
   12.0420   73.6670   49.0490 C   0  0  0  0  0
   12.3980   74.2530   47.9070 N   0  0  0  0  0
   11.3590   74.2030   47.0820 C   0  0  0  0  0
   11.1450   74.6320   45.7850 C   0  0  0  0  0
   12.1100   75.2440   45.1130 N   0  0  0  0  0
    9.9560   74.4230   45.2230 N   0  0  0  0  0
    8.9910   73.8090   45.8810 C   0  0  0  0  0
    9.1640   73.3820   47.1180 N   0  0  0  0  0
   10.3340   73.5640   47.7410 C   0  0  0  0  0
   11.9610   74.2290   52.4480 O   0  0  0  0  0
   10.5760   74.5430   52.6120 C   0  0  0  0  0
    9.6820   73.3680   52.1920 C   0  0  0  0  0
    9.3470   73.5520   50.8010 O   0  0  0  0  0
   10.3550   71.9920   52.2990 C   0  0  0  0  0
    9.3600   70.9810   52.5390 O   0  0  0  0  0
   10.9540   71.7820   50.9210 C   0  0  0  0  0
   10.9080   70.3860   50.5840 O   0  0  0  0  0
   10.0030   72.5490   50.0020 C   0  0  0  0  0
   15.6798   75.3897   58.3702 H   0  0  0  0  0
   16.3021   76.3087   56.1285 H   0  0  0  0  0
   11.7417   74.4675   55.7262 H   0  0  0  0  0
   11.6077   76.7124   52.9149 H   0  0  0  0  0
   12.6797   73.5505   49.9253 H   0  0  0  0  0
   13.0170   75.4010   45.5524 H   0  0  0  0  0
   11.9455   75.5579   44.1566 H   0  0  0  0  0
    8.0296   73.6509   45.3922 H   0  0  0  0  0
   10.3386   75.4008   51.9828 H   0  0  0  0  0
   10.3922   74.7589   53.6645 H   0  0  0  0  0
    8.8257   73.3714   52.8664 H   0  0  0  0  0
   11.0860   71.9373   53.1057 H   0  0  0  0  0
    9.7863   70.1234   52.6050 H   0  0  0  0  0
   11.9911   72.1097   50.8492 H   0  0  0  0  0
   11.2875   70.2558   49.7119 H   0  0  0  0  0
    9.2903   71.8643   49.5423 H   0  0  0  0  0
  1  2  1  0  0  0
  1  3  1  0  0  0
  1  4  2  0  0  0
  8  1  1  0  0  0
  5  6  1  0  0  0
  5  7  2  0  0  0
  5  8  1  0  0  0
 12  5  1  0  0  0
  9 10  1  0  0  0
  9 11  2  0  0  0
  9 12  1  0  0  0
 23  9  1  0  0  0
 13 14  4  0  0  0
 13 22  4  0  0  0
 31 13  1  0  0  0
 14 15  4  0  0  0
 16 15  4  0  0  0
 16 17  4  0  0  0
 22 16  4  0  0  0
 17 18  1  0  0  0
 17 19  4  0  0  0
 20 19  4  0  0  0
 21 20  4  0  0  0
 22 21  4  0  0  0
 24 23  1  0  0  0
 25 24  1  0  0  0
 26 25  1  0  0  0
 25 27  1  0  0  0
 26 31  1  0  0  0
 27 28  1  0  0  0
 27 29  1  0  0  0
 29 30  1  0  0  0
 29 31  1  0  0  0
  2 32  1  0  0  0
  3 33  1  0  0  0
  6 34  1  0  0  0
 10 35  1  0  0  0
 14 36  1  0  0  0
 18 37  1  0  0  0
 18 38  1  0  0  0
 20 39  1  0  0  0
 24 40  1  0  0  0
 24 41  1  0  0  0
 25 42  1  0  0  0
 27 43  1  0  0  0
 28 44  1  0  0  0
 29 45  1  0  0  0
 30 46  1  0  0  0
 31 47  1  0  0  0
M  END
$$$$
