3wkd_ligand
  -I-interpret- 

 36 38  0  0  0  0  0  0  0  0999 V2000
  -18.5460   -3.7830   53.3940 C   0  0  0  0  0
  -19.0930   -4.7170   54.2460 C   0  0  0  0  0
  -17.1850   -3.6580   53.3050 C   0  0  0  0  0
  -18.2880   -5.5280   55.0060 C   0  0  0  0  0
  -14.8780   -7.6730   57.7660 C   0  0  0  0  0
  -14.2700   -8.6030   58.6020 C   0  0  0  0  0
  -15.4250   -9.6520   56.6840 C   0  0  0  0  0
  -15.5330   -8.2760   56.6500 C   0  0  0  0  0
  -16.3730   -4.4790   54.0660 C   0  0  0  0  0
  -16.9140   -5.4190   54.9210 C   0  0  0  0  0
  -16.2560   -7.6180   55.6150 C   0  0  0  0  0
  -14.6300   -2.9900   53.6720 C   0  0  0  0  0
  -14.3720   -5.4410   53.2270 C   0  0  0  0  0
  -13.1830   -2.9050   54.0220 C   0  0  0  0  0
  -12.8930   -5.2700   53.4930 C   0  0  0  0  0
  -14.9910   -4.3580   53.9670 N   0  0  0  0  0
  -16.0890   -6.2580   55.6980 N   0  0  0  0  0
  -16.9830   -8.2380   54.8220 O   0  0  0  0  0
  -12.5260   -3.8980   53.2540 O   0  0  0  0  0
  -14.5240  -10.2300   58.0470 S   0  0  0  0  0
  -19.1941   -3.1455   52.7926 H   0  0  0  0  0
  -20.1764   -4.8129   54.3173 H   0  0  0  0  0
  -16.7447   -2.9162   52.6387 H   0  0  0  0  0
  -18.7344   -6.2603   55.6787 H   0  0  0  0  0
  -14.8568   -6.5978   57.9438 H   0  0  0  0  0
  -13.7033   -8.3432   59.4962 H   0  0  0  0  0
  -15.8617  -10.3077   55.9307 H   0  0  0  0  0
  -14.8149   -2.7334   52.6289 H   0  0  0  0  0
  -15.2306   -2.2770   54.2368 H   0  0  0  0  0
  -14.7376   -6.4181   53.5428 H   0  0  0  0  0
  -14.6071   -5.4010   52.1634 H   0  0  0  0  0
  -13.0284   -3.0697   55.0883 H   0  0  0  0  0
  -12.7853   -1.9142   53.8023 H   0  0  0  0  0
  -12.3238   -5.9222   52.8307 H   0  0  0  0  0
  -12.6741   -5.5329   54.5279 H   0  0  0  0  0
  -15.3787   -5.8603   56.3126 H   0  0  0  0  0
  1  2  4  0  0  0
  3  1  4  0  0  0
  4  2  4  0  0  0
  9  3  4  0  0  0
 10  4  4  0  0  0
  5  6  4  0  0  0
  8  5  4  0  0  0
 20  6  4  0  0  0
  8  7  4  0  0  0
  7 20  4  0  0  0
 11  8  1  0  0  0
  9 10  4  0  0  0
 16  9  1  0  0  0
 10 17  1  0  0  0
 17 11  1  0  0  0
 11 18  2  0  0  0
 12 14  1  0  0  0
 16 12  1  0  0  0
 13 15  1  0  0  0
 13 16  1  0  0  0
 14 19  1  0  0  0
 15 19  1  0  0  0
  1 21  1  0  0  0
  2 22  1  0  0  0
  3 23  1  0  0  0
  4 24  1  0  0  0
  5 25  1  0  0  0
  6 26  1  0  0  0
  7 27  1  0  0  0
 12 28  1  0  0  0
 12 29  1  0  0  0
 13 30  1  0  0  0
 13 31  1  0  0  0
 14 32  1  0  0  0
 14 33  1  0  0  0
 15 34  1  0  0  0
 15 35  1  0  0  0
 17 36  1  0  0  0
M  END
$$$$
