2r5b_ligand
  -I-interpret- 

229235  0  0  0  0  0  0  0  0999 V2000
  -20.0330  -12.3940   18.0430 N   0  3  0  0  0
  -20.5160  -11.4260   17.0220 C   0  0  0  0  0
  -20.1870  -11.9320   15.6180 C   0  0  0  0  0
  -19.0120  -12.0290   15.2550 O   0  0  0  0  0
  -22.0170  -11.2010   17.1760 C   0  0  0  0  0
  -22.4780   -9.7710   16.8950 C   0  0  0  0  0
  -23.8960   -9.5520   17.4100 C   0  0  0  0  0
  -24.2630   -8.0700   17.4730 C   0  0  0  0  0
  -25.7260   -7.8430   17.7060 N   0  3  0  0  0
  -21.2230  -12.2610   14.8450 N   0  0  0  0  0
  -21.0700  -12.7390   13.4700 C   0  0  0  0  0
  -21.9450  -13.9420   13.1770 C   0  0  0  0  0
  -22.8220  -14.2770   13.9760 O   0  0  0  0  0
  -21.7180  -14.5670   12.0240 N   0  0  0  0  0
  -22.3810  -15.8240   11.6530 C   0  0  0  0  0
  -22.0190  -16.2290   10.2180 C   0  0  0  0  0
  -23.8910  -15.7540   11.7960 C   0  0  0  0  0
  -24.5260  -16.7320   12.1800 O   0  0  0  0  0
  -24.4490  -14.5910   11.4750 N   0  0  0  0  0
  -25.8980  -14.4240   11.3710 C   0  0  0  0  0
  -26.5730  -14.5730   12.7240 C   0  0  0  0  0
  -27.7460  -14.9220   12.7930 O   0  0  0  0  0
  -26.2320  -13.0700   10.7370 C   0  0  0  0  0
  -25.8290  -13.0460    8.9690 S   0  0  0  0  0
  -25.8040  -14.3510   13.7900 N   0  0  0  0  0
  -26.3010  -14.4230   15.1630 C   0  0  0  0  0
  -26.4170  -15.8410   15.7140 C   0  0  0  0  0
  -27.0590  -16.0470   16.7460 O   0  0  0  0  0
  -25.4150  -13.5890   16.0980 C   0  0  0  0  0
  -25.3380  -12.1510   15.6850 C   0  0  0  0  0
  -24.2850  -11.7360   15.1610 O   0  0  0  0  0
  -26.3280  -11.4220   15.8700 O   0  0  0  0  0
  -25.8000  -16.8050   15.0310 N   0  0  0  0  0
  -25.6890  -18.1660   15.5500 C   0  0  0  0  0
  -26.5240  -19.1350   14.7390 C   0  0  0  0  0
  -26.3330  -19.2520   13.5280 O   0  0  0  0  0
  -24.2200  -18.6540   15.5320 C   0  0  0  0  0
  -23.2580  -17.8250   16.3460 C   0  0  0  0  0
  -22.6830  -18.3280   17.5210 C   0  0  0  0  0
  -22.9200  -16.5400   15.9450 C   0  0  0  0  0
  -21.7870  -17.5550   18.2730 C   0  0  0  0  0
  -22.0400  -15.7640   16.6660 C   0  0  0  0  0
  -21.4750  -16.2660   17.8400 C   0  0  0  0  0
  -20.6050  -15.4640   18.5470 O   0  0  0  0  0
  -27.4190  -19.8740   15.4050 N   0  0  0  0  0
  -28.1690  -20.9290   14.7210 C   0  0  0  0  0
  -28.9790  -21.5940   15.8500 C   0  0  0  0  0
  -28.4130  -21.0880   17.1060 C   0  0  0  0  0
  -27.8010  -19.7570   16.8210 C   0  0  0  0  0
  -27.2580  -21.9550   14.0250 C   0  0  0  0  0
  -27.5910  -22.4130   12.9410 O   0  0  0  0  0
  -26.1260  -22.3040   14.6430 N   0  0  0  0  0
  -25.1920  -23.2950   14.0750 C   0  0  0  0  0
  -24.5160  -22.8300   12.7750 C   0  0  0  0  0
  -23.9410  -23.6550   12.0420 O   0  0  0  0  0
  -24.1010  -23.6700   15.0990 C   0  0  0  0  0
  -24.5160  -23.5150   16.5670 C   0  0  0  0  0
  -24.0520  -22.2030   17.1720 C   0  0  0  0  0
  -24.9190  -21.3400   17.4250 O   0  0  0  0  0
  -22.8220  -22.0400   17.3930 O   0  0  0  0  0
  -24.5390  -21.5210   12.5120 N   0  0  0  0  0
  -23.7830  -20.9460   11.3880 C   0  0  0  0  0
  -22.8440  -19.8420   11.8680 C   0  0  0  0  0
  -21.7140  -20.3520   12.6880 C   0  0  0  0  0
  -21.6160  -20.3510   14.0450 C   0  0  0  0  0
  -20.4120  -20.9300   14.4310 N   0  0  0  0  0
  -19.7150  -21.2960   13.3070 C   0  0  0  0  0
  -18.4550  -21.8990   13.1760 C   0  0  0  0  0
  -18.0060  -22.1690   11.8990 C   0  0  0  0  0
  -18.7690  -21.8520   10.7730 C   0  0  0  0  0
  -20.0270  -21.2560   10.9000 C   0  0  0  0  0
  -20.5110  -20.9660   12.1910 C   0  0  0  0  0
  -24.7220  -20.3690   10.3190 C   0  0  0  0  0
  -24.2980  -19.5960    9.4710 O   0  0  0  0  0
  -25.9940  -20.7350   10.3820 N   0  0  0  0  0
  -26.9830  -20.1870    9.4340 C   0  0  0  0  0
  -26.6220  -20.5010    7.9840 C   0  0  0  0  0
  -26.8500  -19.6870    7.1020 O   0  0  0  0  0
  -28.3980  -20.6730    9.7770 C   0  0  0  0  0
  -28.9650  -20.0180   11.0430 C   0  0  0  0  0
  -28.7720  -18.5150   11.0270 C   0  0  0  0  0
  -29.2190  -17.8270   10.1110 O   0  0  0  0  0
  -28.0740  -18.0020   12.0210 N   0  0  0  0  0
  -26.0270  -21.6660    7.7470 N   0  0  0  0  0
  -25.6650  -22.0700    6.3910 C   0  0  0  0  0
  -25.1710  -23.5310    6.3750 C   0  0  0  0  0
  -23.9450  -23.7070    7.2460 C   0  0  0  0  0
  -23.9250  -24.0320    8.5670 C   0  0  0  0  0
  -22.6140  -24.0610    9.0280 N   0  0  0  0  0
  -21.7720  -23.7600    7.9940 C   0  0  0  0  0
  -20.3770  -23.6520    7.9740 C   0  0  0  0  0
  -19.7790  -23.3080    6.7740 C   0  0  0  0  0
  -20.5420  -23.0740    5.6220 C   0  0  0  0  0
  -21.9400  -23.1800    5.6450 C   0  0  0  0  0
  -22.5710  -23.5070    6.8560 C   0  0  0  0  0
  -24.6060  -21.0990    5.8130 C   0  0  0  0  0
  -24.5800  -20.8440    4.6030 O   0  0  0  0  0
  -23.7550  -20.5630    6.6880 N   0  0  0  0  0
  -22.6410  -19.7110    6.2840 C   0  0  0  0  0
  -21.5260  -19.7380    7.3420 C   0  0  0  0  0
  -20.3020  -18.8230    7.1470 C   0  0  0  0  0
  -19.5860  -19.0420    5.7740 C   0  0  0  0  0
  -19.3430  -19.0380    8.3240 C   0  0  0  0  0
  -23.1330  -18.2980    6.0520 C   0  0  0  0  0
  -22.7820  -17.6640    5.0790 O   0  0  0  0  0
  -23.9890  -17.8280    6.9470 N   0  0  0  0  0
  -24.6640  -16.5570    6.7880 C   0  0  0  0  0
  -25.4100  -16.5390    5.4440 C   0  0  0  0  0
  -25.3860  -15.5440    4.7070 O   0  0  0  0  0
  -25.6340  -16.3790    7.9700 C   0  0  0  0  0
  -26.4200  -14.7920    8.0370 S   0  0  0  0  0
  -26.0670  -17.6470    5.1270 N   0  0  0  0  0
  -26.8540  -17.7750    3.8880 C   0  0  0  0  0
  -27.7160  -19.0380    3.9290 C   0  0  0  0  0
  -25.9750  -17.7580    2.6340 C   0  0  0  0  0
  -26.3520  -17.1570    1.6260 O   0  0  0  0  0
  -24.8040  -18.3940    2.7190 N   0  0  0  0  0
  -23.8130  -18.4220    1.6400 C   0  0  0  0  0
  -22.6140  -19.3550    2.0250 C   0  0  0  0  0
  -23.2970  -17.0270    1.2650 C   0  0  0  0  0
  -22.8940  -16.7930    0.1250 O   0  0  0  0  0
  -23.2847  -16.0613    2.1794 O   0  0  0  0  0
  -19.0293  -12.5347   17.9284 H   0  0  0  0  0
  -20.2216  -12.0255   18.9752 H   0  0  0  0  0
  -20.5181  -13.2832   17.9230 H   0  0  0  0  0
  -20.0089  -10.4729   17.1721 H   0  0  0  0  0
  -22.2662  -11.4173   18.2148 H   0  0  0  0  0
  -22.5115  -11.8437   16.4476 H   0  0  0  0  0
  -22.4635   -9.6009   15.8185 H   0  0  0  0  0
  -21.8073   -9.0780   17.4029 H   0  0  0  0  0
  -23.9580   -9.9605   18.4187 H   0  0  0  0  0
  -24.5861  -10.0440   16.7246 H   0  0  0  0  0
  -24.0043   -7.6211   16.5140 H   0  0  0  0  0
  -23.7195   -7.6268   18.3075 H   0  0  0  0  0
  -25.9123   -6.8407   17.7388 H   0  0  0  0  0
  -26.2596   -8.2645   16.9457 H   0  0  0  0  0
  -25.9983   -8.2698   18.5915 H   0  0  0  0  0
  -22.1640  -12.1757   15.2292 H   0  0  0  0  0
  -20.0305  -13.0351   13.3291 H   0  0  0  0  0
  -21.3665  -11.9340   12.7976 H   0  0  0  0  0
  -21.0539  -14.1546   11.3688 H   0  0  0  0  0
  -22.0174  -16.5793   12.3497 H   0  0  0  0  0
  -22.3381  -15.4465    9.5295 H   0  0  0  0  0
  -20.9402  -16.3644   10.1412 H   0  0  0  0  0
  -22.5224  -17.1627    9.9674 H   0  0  0  0  0
  -23.8462  -13.7881   11.2952 H   0  0  0  0  0
  -26.2845  -15.2138   10.7268 H   0  0  0  0  0
  -25.6427  -12.3006   11.2358 H   0  0  0  0  0
  -27.3012  -12.8905   10.8497 H   0  0  0  0  0
  -24.8218  -14.1198   13.6406 H   0  0  0  0  0
  -27.3124  -14.0183   15.1254 H   0  0  0  0  0
  -24.4072  -14.0029   16.0638 H   0  0  0  0  0
  -25.8495  -13.6290   17.0969 H   0  0  0  0  0
  -23.6494  -12.4537   15.1109 H   0  0  0  0  0
  -25.3942  -16.5865   14.1211 H   0  0  0  0  0
  -26.0549  -18.1394   16.5764 H   0  0  0  0  0
  -23.8839  -18.5970   14.4967 H   0  0  0  0  0
  -24.2169  -19.6537   15.9664 H   0  0  0  0  0
  -22.9359  -19.3343   17.8549 H   0  0  0  0  0
  -23.3628  -16.1343   15.0354 H   0  0  0  0  0
  -21.3405  -17.9555   19.1831 H   0  0  0  0  0
  -21.7855  -14.7617   16.3215 H   0  0  0  0  0
  -20.5142  -14.6197   18.0992 H   0  0  0  0  0
  -28.7884  -20.5244   13.9205 H   0  0  0  0  0
  -28.9124  -22.6806   15.7964 H   0  0  0  0  0
  -30.0391  -21.3537   15.7696 H   0  0  0  0  0
  -27.6613  -21.7779   17.4896 H   0  0  0  0  0
  -29.1913  -20.9944   17.8634 H   0  0  0  0  0
  -28.4810  -18.9266   17.0110 H   0  0  0  0  0
  -26.9570  -19.5286   17.4719 H   0  0  0  0  0
  -25.8997  -21.8705   15.5381 H   0  0  0  0  0
  -25.8033  -24.1645   13.8334 H   0  0  0  0  0
  -23.2647  -22.9908   14.9333 H   0  0  0  0  0
  -23.8714  -24.7243   14.9448 H   0  0  0  0  0
  -24.0554  -24.3253   17.1321 H   0  0  0  0  0
  -25.6049  -23.5369   16.6108 H   0  0  0  0  0
  -22.3426  -22.8269   17.1236 H   0  0  0  0  0
  -25.0944  -20.9043   13.1050 H   0  0  0  0  0
  -23.1992  -21.7562   10.9510 H   0  0  0  0  0
  -23.4244  -19.1617   12.4912 H   0  0  0  0  0
  -22.4218  -19.3601   10.9862 H   0  0  0  0  0
  -22.3684  -19.9556   14.7274 H   0  0  0  0  0
  -17.8528  -22.1452   14.0505 H   0  0  0  0  0
  -17.0325  -22.6410   11.7662 H   0  0  0  0  0
  -18.3775  -22.0727    9.7800 H   0  0  0  0  0
  -20.6218  -21.0202   10.0176 H   0  0  0  0  0
  -26.2925  -21.4025   11.0932 H   0  0  0  0  0
  -26.9646  -19.1019    9.5356 H   0  0  0  0  0
  -28.3470  -21.7475    9.9529 H   0  0  0  0  0
  -29.0510  -20.4090    8.9451 H   0  0  0  0  0
  -28.4381  -20.4239   11.9066 H   0  0  0  0  0
  -30.0336  -20.2277   11.0905 H   0  0  0  0  0
  -27.8873  -16.9996   12.0491 H   0  0  0  0  0
  -27.7207  -18.6075   12.7619 H   0  0  0  0  0
  -25.8194  -22.2895    8.5270 H   0  0  0  0  0
  -26.5484  -22.0190    5.7545 H   0  0  0  0  0
  -24.9102  -23.7978    5.3509 H   0  0  0  0  0
  -25.9653  -24.1700    6.7608 H   0  0  0  0  0
  -24.8064  -24.2390    9.1739 H   0  0  0  0  0
  -19.7833  -23.8321    8.8702 H   0  0  0  0  0
  -18.6939  -23.2174    6.7241 H   0  0  0  0  0
  -20.0403  -22.8051    4.6925 H   0  0  0  0  0
  -22.5252  -23.0119    4.7409 H   0  0  0  0  0
  -23.8879  -20.7563    7.6807 H   0  0  0  0  0
  -22.2242  -20.0922    5.3517 H   0  0  0  0  0
  -21.1297  -20.7530    7.3113 H   0  0  0  0  0
  -21.9977  -19.3896    8.2608 H   0  0  0  0  0
  -20.6438  -17.7882    7.1278 H   0  0  0  0  0
  -19.2422  -20.0741    5.7055 H   0  0  0  0  0
  -20.2857  -18.8363    4.9639 H   0  0  0  0  0
  -18.7329  -18.3678    5.6990 H   0  0  0  0  0
  -19.8511  -18.7880    9.2553 H   0  0  0  0  0
  -19.0286  -20.0814    8.3489 H   0  0  0  0  0
  -18.4700  -18.3970    8.2015 H   0  0  0  0  0
  -24.1801  -18.3833    7.7810 H   0  0  0  0  0
  -23.9509  -15.7326    6.7843 H   0  0  0  0  0
  -25.0490  -16.4857    8.8835 H   0  0  0  0  0
  -26.4224  -17.1224    7.8522 H   0  0  0  0  0
  -26.0257  -18.4411    5.7658 H   0  0  0  0  0
  -27.5061  -16.9036    3.8294 H   0  0  0  0  0
  -27.0730  -19.9120    4.0327 H   0  0  0  0  0
  -28.3974  -18.9839    4.7780 H   0  0  0  0  0
  -28.2897  -19.1149    3.0054 H   0  0  0  0  0
  -24.5870  -18.8885    3.5843 H   0  0  0  0  0
  -24.3199  -18.8193    0.7606 H   0  0  0  0  0
  -22.1411  -18.9808    2.9330 H   0  0  0  0  0
  -22.9827  -20.3664    2.1961 H   0  0  0  0  0
  -21.8872  -19.3644    1.2127 H   0  0  0  0  0
  -23.6276  -16.4028    3.0085 H   0  0  0  0  0
  1  2  1  0  0  0
  2  3  1  0  0  0
  2  5  1  0  0  0
  3  4  2  0  0  0
  3 10  1  0  0  0
  5  6  1  0  0  0
  6  7  1  0  0  0
  7  8  1  0  0  0
  8  9  1  0  0  0
 10 11  1  0  0  0
 11 12  1  0  0  0
 12 13  2  0  0  0
 12 14  1  0  0  0
 14 15  1  0  0  0
 15 16  1  0  0  0
 15 17  1  0  0  0
 17 18  2  0  0  0
 17 19  1  0  0  0
 19 20  1  0  0  0
 20 21  1  0  0  0
 20 23  1  0  0  0
 21 22  2  0  0  0
 21 25  1  0  0  0
 23 24  1  0  0  0
 24111  1  0  0  0
 25 26  1  0  0  0
 26 27  1  0  0  0
 26 29  1  0  0  0
 27 28  2  0  0  0
 27 33  1  0  0  0
 29 30  1  0  0  0
 30 31  1  0  0  0
 30 32  2  0  0  0
 33 34  1  0  0  0
 34 35  1  0  0  0
 34 37  1  0  0  0
 35 36  2  0  0  0
 35 45  1  0  0  0
 37 38  1  0  0  0
 38 39  4  0  0  0
 38 40  4  0  0  0
 39 41  4  0  0  0
 40 42  4  0  0  0
 41 43  4  0  0  0
 42 43  4  0  0  0
 43 44  1  0  0  0
 45 46  1  0  0  0
 45 49  1  0  0  0
 46 47  1  0  0  0
 46 50  1  0  0  0
 47 48  1  0  0  0
 48 49  1  0  0  0
 50 51  2  0  0  0
 50 52  1  0  0  0
 52 53  1  0  0  0
 53 54  1  0  0  0
 53 56  1  0  0  0
 54 55  2  0  0  0
 54 61  1  0  0  0
 56 57  1  0  0  0
 57 58  1  0  0  0
 58 59  2  0  0  0
 58 60  1  0  0  0
 61 62  1  0  0  0
 62 63  1  0  0  0
 62 73  1  0  0  0
 63 64  1  0  0  0
 64 65  4  0  0  0
 64 72  4  0  0  0
 65 66  4  0  0  0
 66 67  4  0  0  0
 67 68  4  0  0  0
 67 72  4  0  0  0
 68 69  4  0  0  0
 69 70  4  0  0  0
 70 71  4  0  0  0
 71 72  4  0  0  0
 73 74  2  0  0  0
 73 75  1  0  0  0
 75 76  1  0  0  0
 76 77  1  0  0  0
 76 79  1  0  0  0
 77 78  2  0  0  0
 77 84  1  0  0  0
 79 80  1  0  0  0
 80 81  1  0  0  0
 81 82  2  0  0  0
 81 83  1  0  0  0
 84 85  1  0  0  0
 85 86  1  0  0  0
 85 96  1  0  0  0
 86 87  1  0  0  0
 87 88  4  0  0  0
 87 95  4  0  0  0
 88 89  4  0  0  0
 89 90  4  0  0  0
 90 91  4  0  0  0
 90 95  4  0  0  0
 91 92  4  0  0  0
 92 93  4  0  0  0
 93 94  4  0  0  0
 94 95  4  0  0  0
 96 97  2  0  0  0
 96 98  1  0  0  0
 98 99  1  0  0  0
 99100  1  0  0  0
 99104  1  0  0  0
100101  1  0  0  0
101102  1  0  0  0
101103  1  0  0  0
104105  2  0  0  0
104106  1  0  0  0
106107  1  0  0  0
107108  1  0  0  0
107110  1  0  0  0
108109  2  0  0  0
108112  1  0  0  0
110111  1  0  0  0
112113  1  0  0  0
113114  1  0  0  0
113115  1  0  0  0
115116  2  0  0  0
115117  1  0  0  0
117118  1  0  0  0
118119  1  0  0  0
118120  1  0  0  0
120121  2  0  0  0
120122  1  0  0  0
  1123  1  0  0  0
  1124  1  0  0  0
  1125  1  0  0  0
  2126  1  0  0  0
  5127  1  0  0  0
  5128  1  0  0  0
  6129  1  0  0  0
  6130  1  0  0  0
  7131  1  0  0  0
  7132  1  0  0  0
  8133  1  0  0  0
  8134  1  0  0  0
  9135  1  0  0  0
  9136  1  0  0  0
  9137  1  0  0  0
 10138  1  0  0  0
 11139  1  0  0  0
 11140  1  0  0  0
 14141  1  0  0  0
 15142  1  0  0  0
 16143  1  0  0  0
 16144  1  0  0  0
 16145  1  0  0  0
 19146  1  0  0  0
 20147  1  0  0  0
 23148  1  0  0  0
 23149  1  0  0  0
 25150  1  0  0  0
 26151  1  0  0  0
 29152  1  0  0  0
 29153  1  0  0  0
 31154  1  0  0  0
 33155  1  0  0  0
 34156  1  0  0  0
 37157  1  0  0  0
 37158  1  0  0  0
 39159  1  0  0  0
 40160  1  0  0  0
 41161  1  0  0  0
 42162  1  0  0  0
 44163  1  0  0  0
 46164  1  0  0  0
 47165  1  0  0  0
 47166  1  0  0  0
 48167  1  0  0  0
 48168  1  0  0  0
 49169  1  0  0  0
 49170  1  0  0  0
 52171  1  0  0  0
 53172  1  0  0  0
 56173  1  0  0  0
 56174  1  0  0  0
 57175  1  0  0  0
 57176  1  0  0  0
 60177  1  0  0  0
 61178  1  0  0  0
 62179  1  0  0  0
 63180  1  0  0  0
 63181  1  0  0  0
 65182  1  0  0  0
 68183  1  0  0  0
 69184  1  0  0  0
 70185  1  0  0  0
 71186  1  0  0  0
 75187  1  0  0  0
 76188  1  0  0  0
 79189  1  0  0  0
 79190  1  0  0  0
 80191  1  0  0  0
 80192  1  0  0  0
 83193  1  0  0  0
 83194  1  0  0  0
 84195  1  0  0  0
 85196  1  0  0  0
 86197  1  0  0  0
 86198  1  0  0  0
 88199  1  0  0  0
 91200  1  0  0  0
 92201  1  0  0  0
 93202  1  0  0  0
 94203  1  0  0  0
 98204  1  0  0  0
 99205  1  0  0  0
100206  1  0  0  0
100207  1  0  0  0
101208  1  0  0  0
102209  1  0  0  0
102210  1  0  0  0
102211  1  0  0  0
103212  1  0  0  0
103213  1  0  0  0
103214  1  0  0  0
106215  1  0  0  0
107216  1  0  0  0
110217  1  0  0  0
110218  1  0  0  0
112219  1  0  0  0
113220  1  0  0  0
114221  1  0  0  0
114222  1  0  0  0
114223  1  0  0  0
117224  1  0  0  0
118225  1  0  0  0
119226  1  0  0  0
119227  1  0  0  0
119228  1  0  0  0
122229  1  0  0  0
M  END
$$$$
