### 
### Created by X-TOOL on Mon Sep 10 21:12:56 2018
### 

@<TRIPOS>MOLECULE
2r5b_ligand
  229   235     1     0     0
SMALL
GAST_HUCK


@<TRIPOS>ATOM
      1 N         -20.0330  -12.3940   18.0430 N.4       1 DLY         0.2379
      2 CA        -20.5160  -11.4260   17.0220 C.3       1 DLY         0.0650
      3 C         -20.1870  -11.9320   15.6180 C.2       1 DLY         0.2265
      4 O         -19.0120  -12.0290   15.2550 O.2       1 DLY        -0.3907
      5 CB        -22.0170  -11.2010   17.1760 C.3       1 DLY         0.0080
      6 CG        -22.4780   -9.7710   16.8950 C.3       1 DLY        -0.0410
      7 CD        -23.8960   -9.5520   17.4100 C.3       1 DLY        -0.0123
      8 CE        -24.2630   -8.0700   17.4730 C.3       1 DLY        -0.0354
      9 NZ        -25.7260   -7.8430   17.7060 N.4       1 DLY         0.2185
     10 N         -21.2230  -12.2610   14.8450 N.am      1 GLY        -0.2637
     11 CA        -21.0700  -12.7390   13.4700 C.3       1 GLY         0.1202
     12 C         -21.9450  -13.9420   13.1770 C.2       1 GLY         0.2007
     13 O         -22.8220  -14.2770   13.9760 O.2       1 GLY        -0.3947
     14 N         -21.7180  -14.5670   12.0240 N.am      1 DAL        -0.2642
     15 CA        -22.3810  -15.8240   11.6530 C.3       1 DAL         0.1282
     16 CB        -22.0190  -16.2290   10.2180 C.3       1 DAL        -0.0244
     17 C         -23.8910  -15.7540   11.7960 C.2       1 DAL         0.2036
     18 O         -24.5260  -16.7320   12.1800 O.2       1 DAL        -0.3944
     19 N         -24.4490  -14.5910   11.4750 N.am      1 DCY        -0.2629
     20 CA        -25.8980  -14.4240   11.3710 C.3       1 DCY         0.1406
     21 C         -26.5730  -14.5730   12.7240 C.2       1 DCY         0.2048
     22 O         -27.7460  -14.9220   12.7930 O.2       1 DCY        -0.3944
     23 CB        -26.2320  -13.0700   10.7370 C.3       1 DCY         0.0443
     24 SG        -25.8290  -13.0460    8.9690 S.3       1 DCY        -0.0882
     25 N         -25.8040  -14.3510   13.7900 N.am      1 DAS        -0.2621
     26 CA        -26.3010  -14.4230   15.1630 C.3       1 DAS         0.1423
     27 C         -26.4170  -15.8410   15.7140 C.2       1 DAS         0.2057
     28 O         -27.0590  -16.0470   16.7460 O.2       1 DAS        -0.3943
     29 CB        -25.4150  -13.5890   16.0980 C.3       1 DAS         0.0406
     30 CG        -25.3380  -12.1510   15.6850 C.2       1 DAS         0.0393
     31 OD1       -24.2850  -11.7360   15.1610 O.co2     1 DAS        -0.5688
     32 OD2       -26.3280  -11.4220   15.8700 O.co2     1 DAS        -0.5688
     33 N         -25.8000  -16.8050   15.0310 N.am      1 DTY        -0.2620
     34 CA        -25.6890  -18.1660   15.5500 C.3       1 DTY         0.1392
     35 C         -26.5240  -19.1350   14.7390 C.2       1 DTY         0.2082
     36 O         -26.3330  -19.2520   13.5280 O.2       1 DTY        -0.3940
     37 CB        -24.2200  -18.6540   15.5320 C.3       1 DTY         0.0164
     38 CG        -23.2580  -17.8250   16.3460 C.ar      1 DTY        -0.0493
     39 CD1       -22.6830  -18.3280   17.5210 C.ar      1 DTY        -0.0685
     40 CD2       -22.9200  -16.5400   15.9450 C.ar      1 DTY        -0.0685
     41 CE1       -21.7870  -17.5550   18.2730 C.ar      1 DTY        -0.0398
     42 CE2       -22.0400  -15.7640   16.6660 C.ar      1 DTY        -0.0398
     43 CZ        -21.4750  -16.2660   17.8400 C.ar      1 DTY         0.0805
     44 OH        -20.6050  -15.4640   18.5470 O.3       1 DTY        -0.3376
     45 N         -27.4190  -19.8740   15.4050 N.am      1 DPR        -0.2497
     46 CA        -28.1690  -20.9290   14.7210 C.3       1 DPR         0.1338
     47 CB        -28.9790  -21.5940   15.8500 C.3       1 DPR        -0.0104
     48 CG        -28.4130  -21.0880   17.1060 C.3       1 DPR        -0.0281
     49 CD        -27.8010  -19.7570   16.8210 C.3       1 DPR         0.0369
     50 C         -27.2580  -21.9550   14.0250 C.2       1 DPR         0.2041
     51 O         -27.5910  -22.4130   12.9410 O.2       1 DPR        -0.3944
     52 N         -26.1260  -22.3040   14.6430 N.am      1 DGL        -0.2636
     53 CA        -25.1920  -23.2950   14.0750 C.3       1 DGL         0.1325
     54 C         -24.5160  -22.8300   12.7750 C.2       1 DGL         0.2041
     55 O         -23.9410  -23.6550   12.0420 O.2       1 DGL        -0.3944
     56 CB        -24.1010  -23.6700   15.0990 C.3       1 DGL        -0.0008
     57 CG        -24.5160  -23.5150   16.5670 C.3       1 DGL         0.0044
     58 CD        -24.0520  -22.2030   17.1720 C.2       1 DGL         0.0350
     59 OE1       -24.9190  -21.3400   17.4250 O.co2     1 DGL        -0.5690
     60 OE2       -22.8220  -22.0400   17.3930 O.co2     1 DGL        -0.5690
     61 N         -24.5390  -21.5210   12.5120 N.am      1 DTR        -0.2627
     62 CA        -23.7830  -20.9460   11.3880 C.3       1 DTR         0.1352
     63 CB        -22.8440  -19.8420   11.8680 C.3       1 DTR         0.0042
     64 CG        -21.7140  -20.3520   12.6880 C.2       1 DTR        -0.0418
     65 CD1       -21.6160  -20.3510   14.0450 C.2       1 DTR         0.0167
     66 NE1       -20.4120  -20.9300   14.4310 N.pl3     1 DTR        -0.2890
     67 CE2       -19.7150  -21.2960   13.3070 C.ar      1 DTR         0.0603
     68 CZ2       -18.4550  -21.8990   13.1760 C.ar      1 DTR        -0.0443
     69 CH2       -18.0060  -22.1690   11.8990 C.ar      1 DTR        -0.0768
     70 CZ3       -18.7690  -21.8520   10.7730 C.ar      1 DTR        -0.0792
     71 CE3       -20.0270  -21.2560   10.9000 C.ar      1 DTR        -0.0747
     72 CD2       -20.5110  -20.9660   12.1910 C.ar      1 DTR        -0.0214
     73 C         -24.7220  -20.3690   10.3190 C.2       1 DTR         0.2052
     74 O         -24.2980  -19.5960    9.4710 O.2       1 DTR        -0.3942
     75 N         -25.9940  -20.7350   10.3820 N.am      1 DGN        -0.2635
     76 CA        -26.9830  -20.1870    9.4340 C.3       1 DGN         0.1330
     77 C         -26.6220  -20.5010    7.9840 C.2       1 DGN         0.2041
     78 O         -26.8500  -19.6870    7.1020 O.2       1 DGN        -0.3944
     79 CB        -28.3980  -20.6730    9.7770 C.3       1 DGN         0.0045
     80 CG        -28.9650  -20.0180   11.0430 C.3       1 DGN         0.0412
     81 CD        -28.7720  -18.5150   11.0270 C.2       1 DGN         0.1737
     82 OE1       -29.2190  -17.8270   10.1110 O.2       1 DGN        -0.3973
     83 NE2       -28.0740  -18.0020   12.0210 N.am      1 DGN        -0.3009
     84 N         -26.0270  -21.6660    7.7470 N.am      1 DTR        -0.2627
     85 CA        -25.6650  -22.0700    6.3910 C.3       1 DTR         0.1352
     86 CB        -25.1710  -23.5310    6.3750 C.3       1 DTR         0.0042
     87 CG        -23.9450  -23.7070    7.2460 C.2       1 DTR        -0.0418
     88 CD1       -23.9250  -24.0320    8.5670 C.2       1 DTR         0.0167
     89 NE1       -22.6140  -24.0610    9.0280 N.pl3     1 DTR        -0.2890
     90 CE2       -21.7720  -23.7600    7.9940 C.ar      1 DTR         0.0603
     91 CZ2       -20.3770  -23.6520    7.9740 C.ar      1 DTR        -0.0443
     92 CH2       -19.7790  -23.3080    6.7740 C.ar      1 DTR        -0.0768
     93 CZ3       -20.5420  -23.0740    5.6220 C.ar      1 DTR        -0.0792
     94 CE3       -21.9400  -23.1800    5.6450 C.ar      1 DTR        -0.0747
     95 CD2       -22.5710  -23.5070    6.8560 C.ar      1 DTR        -0.0214
     96 C         -24.6060  -21.0990    5.8130 C.2       1 DTR         0.2052
     97 O         -24.5800  -20.8440    4.6030 O.2       1 DTR        -0.3942
     98 N         -23.7550  -20.5630    6.6880 N.am      1 DLE        -0.2636
     99 CA        -22.6410  -19.7110    6.2840 C.3       1 DLE         0.1312
    100 CB        -21.5260  -19.7380    7.3420 C.3       1 DLE        -0.0101
    101 CG        -20.3020  -18.8230    7.1470 C.3       1 DLE        -0.0425
    102 CD1       -19.5860  -19.0420    5.7740 C.3       1 DLE        -0.0625
    103 CD2       -19.3430  -19.0380    8.3240 C.3       1 DLE        -0.0625
    104 C         -23.1330  -18.2980    6.0520 C.2       1 DLE         0.2039
    105 O         -22.7820  -17.6640    5.0790 O.2       1 DLE        -0.3944
    106 N         -23.9890  -17.8280    6.9470 N.am      1 DCY        -0.2629
    107 CA        -24.6640  -16.5570    6.7880 C.3       1 DCY         0.1406
    108 C         -25.4100  -16.5390    5.4440 C.2       1 DCY         0.2047
    109 O         -25.3860  -15.5440    4.7070 O.2       1 DCY        -0.3944
    110 CB        -25.6340  -16.3790    7.9700 C.3       1 DCY         0.0443
    111 SG        -26.4200  -14.7920    8.0370 S.3       1 DCY        -0.0882
    112 N         -26.0670  -17.6470    5.1270 N.am      1 DAL        -0.2640
    113 CA        -26.8540  -17.7750    3.8880 C.3       1 DAL         0.1282
    114 CB        -27.7160  -19.0380    3.9290 C.3       1 DAL        -0.0244
    115 C         -25.9750  -17.7580    2.6340 C.2       1 DAL         0.2037
    116 O         -26.3520  -17.1570    1.6260 O.2       1 DAL        -0.3944
    117 N         -24.8040  -18.3940    2.7190 N.am      1 DAL        -0.2626
    118 CA        -23.8130  -18.4220    1.6400 C.3       1 DAL         0.1392
    119 CB        -22.6140  -19.3550    2.0250 C.3       1 DAL        -0.0230
    120 C         -23.2970  -17.0270    1.2650 C.2       1 DAL         0.2568
    121 O         -22.8940  -16.7930    0.1250 O.2       1 DAL        -0.3680
    122 H1        -20.2554  -12.0499   18.9640 H         1 DLY         0.2015
    123 H2        -19.0346  -12.5028   17.9571 H         1 DLY         0.2015
    124 H3        -20.4817  -13.2852   17.8999 H         1 DLY         0.2015
    125 H4        -20.0014  -10.4663   17.1770 H         1 DLY         0.1098
    126 H5        -22.2980  -11.4554   18.2086 H         1 DLY         0.0346
    127 H6        -22.5381  -11.8728   16.4781 H         1 DLY         0.0346
    128 H7        -22.4559   -9.5909   15.8101 H         1 DLY         0.0270
    129 H8        -21.7984   -9.0670   17.3975 H         1 DLY         0.0270
    130 H9        -23.9766   -9.9804   18.4199 H         1 DLY         0.0317
    131 H10       -24.6004  -10.0634   16.7375 H         1 DLY         0.0317
    132 H11       -23.9815   -7.5975   16.5204 H         1 DLY         0.0813
    133 H12       -23.6998   -7.6031   18.2945 H         1 DLY         0.0813
    134 H13       -25.9113   -6.8527   17.7386 H         1 DLY         0.1994
    135 H14       -25.9963   -8.2643   18.5809 H         1 DLY         0.1994
    136 H15       -26.2544   -8.2592   16.9552 H         1 DLY         0.1994
    137 H16       -22.1456  -12.1774   15.2217 H         1 GLY         0.1882
    138 H17       -20.0186  -13.0188   13.3079 H         1 GLY         0.0763
    139 H18       -21.3437  -11.9266   12.7808 H         1 GLY         0.0763
    140 H19       -21.0669  -14.1627   11.3816 H         1 DAL         0.1883
    141 H20       -22.0143  -16.6065   12.3336 H         1 DAL         0.0797
    142 H21       -22.5265  -17.1713    9.9639 H         1 DAL         0.0277
    143 H22       -20.9304  -16.3660   10.1392 H         1 DAL         0.0277
    144 H23       -22.3406  -15.4401    9.5221 H         1 DAL         0.0277
    145 H24       -23.8580  -13.8038   11.2987 H         1 DCY         0.1884
    146 H25       -26.2851  -15.2149   10.7117 H         1 DCY         0.0808
    147 H26       -25.6539  -12.2847   11.2460 H         1 DCY         0.0432
    148 H27       -27.3070  -12.8727   10.8612 H         1 DCY         0.0432
    149 H28       -24.8411  -14.1244   13.6435 H         1 DAS         0.1884
    150 H29       -27.3102  -13.9853   15.1662 H         1 DAS         0.0819
    151 H30       -24.3997  -14.0123   16.0923 H         1 DAS         0.0478
    152 H31       -25.8286  -13.6418   17.1159 H         1 DAS         0.0478
    153 H32       -25.4022  -16.5907   14.1389 H         1 DTY         0.1885
    154 H33       -26.0513  -18.1691   16.5886 H         1 DTY         0.0821
    155 H34       -23.8731  -18.6508   14.4882 H         1 DTY         0.0453
    156 H35       -24.1981  -19.6821   15.9226 H         1 DTY         0.0453
    157 H36       -22.9345  -19.3288   17.8531 H         1 DTY         0.0530
    158 H37       -23.3603  -16.1365   15.0404 H         1 DTY         0.0530
    159 H38       -21.3429  -17.9533   19.1781 H         1 DTY         0.0525
    160 H39       -21.7869  -14.7672   16.3234 H         1 DTY         0.0525
    161 H40       -20.3005  -15.9304   19.3166 H         1 DTY         0.2458
    162 H41       -28.8424  -20.4886   13.9710 H         1 DPR         0.0802
    163 H42       -28.8786  -22.6882   15.7990 H         1 DPR         0.0313
    164 H43       -30.0412  -21.3191   15.7714 H         1 DPR         0.0313
    165 H44       -27.6449  -21.7821   17.4779 H         1 DPR         0.0287
    166 H45       -29.2073  -20.9820   17.8596 H         1 DPR         0.0287
    167 H46       -28.5287  -18.9457   16.9699 H         1 DPR         0.0524
    168 H47       -26.9204  -19.5810   17.4563 H         1 DPR         0.0524
    169 H48       -25.9042  -21.8790   15.5206 H         1 DGL         0.1883
    170 H49       -25.7740  -24.1995   13.8445 H         1 DGL         0.0801
    171 H50       -23.2279  -23.0251   14.9204 H         1 DGL         0.0330
    172 H51       -23.8213  -24.7206   14.9317 H         1 DGL         0.0330
    173 H52       -24.0797  -24.3428   17.1452 H         1 DGL         0.0433
    174 H53       -25.6132  -23.5625   16.6293 H         1 DGL         0.0433
    175 H54       -25.0835  -20.9164   13.0933 H         1 DTR         0.1884
    176 H55       -23.1821  -21.7469   10.9325 H         1 DTR         0.0815
    177 H56       -23.4226  -19.1296   12.4743 H         1 DTR         0.0397
    178 H57       -22.4327  -19.3254   10.9883 H         1 DTR         0.0397
    179 H58       -22.3678  -19.9560   14.7267 H         1 DTR         0.0795
    180 H59       -20.0951  -21.0625   15.4020 H         1 DTR         0.2216
    181 H60       -17.8561  -22.1439   14.0457 H         1 DTR         0.0541
    182 H61       -17.0379  -22.6384   11.7669 H         1 DTR         0.0530
    183 H62       -18.3797  -22.0715    9.7854 H         1 DTR         0.0510
    184 H63       -20.6186  -21.0215   10.0224 H         1 DTR         0.0540
    185 H64       -26.2867  -21.3894   11.0792 H         1 DGN         0.1883
    186 H65       -26.9729  -19.0926    9.5440 H         1 DGN         0.0801
    187 H66       -28.3676  -21.7620    9.9291 H         1 DGN         0.0337
    188 H67       -29.0635  -20.4390    8.9330 H         1 DGN         0.0337
    189 H68       -28.4508  -20.4347   11.9216 H         1 DGN         0.0504
    190 H69       -30.0405  -20.2392   11.1085 H         1 DGN         0.0504
    191 H70       -27.9142  -17.0157   12.0630 H         1 DGN         0.1814
    192 H71       -27.7044  -18.5992   12.7329 H         1 DGN         0.1814
    193 H72       -25.8234  -22.2773    8.5118 H         1 DTR         0.1884
    194 H73       -26.5642  -22.0089    5.7604 H         1 DTR         0.0815
    195 H74       -24.9199  -23.8130    5.3419 H         1 DTR         0.0397
    196 H75       -25.9729  -24.1845    6.7490 H         1 DTR         0.0397
    197 H76       -24.8056  -24.2388    9.1733 H         1 DTR         0.0795
    198 H77       -22.3238  -24.2748    9.9929 H         1 DTR         0.2216
    199 H78       -19.7865  -23.8311    8.8653 H         1 DTR         0.0541
    200 H79       -18.6999  -23.2179    6.7243 H         1 DTR         0.0530
    201 H80       -20.0430  -22.8066    4.6976 H         1 DTR         0.0510
    202 H81       -22.5220  -23.0128    4.7459 H         1 DTR         0.0540
    203 H82       -23.8853  -20.7525    7.6612 H         1 DLE         0.1883
    204 H83       -22.2304  -20.0967    5.3392 H         1 DLE         0.0800
    205 H84       -21.1531  -20.7716    7.3938 H         1 DLE         0.0315
    206 H85       -21.9849  -19.4650    8.3037 H         1 DLE         0.0315
    207 H86       -20.6506  -17.7800    7.1726 H         1 DLE         0.0298
    208 H87       -18.7247  -18.3621    5.6971 H         1 DLE         0.0232
    209 H88       -20.2911  -18.8346    4.9556 H         1 DLE         0.0232
    210 H89       -19.2385  -20.0833    5.7036 H         1 DLE         0.0232
    211 H90       -19.8810  -18.8757    9.2696 H         1 DLE         0.0232
    212 H91       -18.5073  -18.3265    8.2508 H         1 DLE         0.0232
    213 H92       -18.9528  -20.0661    8.2960 H         1 DLE         0.0232
    214 H93       -24.1764  -18.3724    7.7646 H         1 DCY         0.1884
    215 H94       -23.9254  -15.7419    6.7988 H         1 DCY         0.0808
    216 H95       -25.0699  -16.5235    8.9032 H         1 DCY         0.0432
    217 H96       -26.4168  -17.1479    7.8919 H         1 DCY         0.0432
    218 H97       -26.0265  -18.4256    5.7533 H         1 DAL         0.1883
    219 H98       -27.5280  -16.9075    3.8316 H         1 DAL         0.0797
    220 H99       -28.2955  -19.1168    2.9974 H         1 DAL         0.0277
    221 H100      -28.4042  -18.9846    4.7855 H         1 DAL         0.0277
    222 H101      -27.0682  -19.9208    4.0336 H         1 DAL         0.0277
    223 H102      -24.5912  -18.8788    3.5673 H         1 DAL         0.1884
    224 H103      -24.3032  -18.8449    0.7507 H         1 DAL         0.0813
    225 H104      -21.8798  -19.3653    1.2060 H         1 DAL         0.0278
    226 H105      -22.9848  -20.3761    2.1979 H         1 DAL         0.0278
    227 H106      -22.1359  -18.9784    2.9413 H         1 DAL         0.0278
    228 O         -23.2847  -16.0613    2.1794 O.3       1 NH2        -0.2910
    229 H107      -23.6240  -16.3992    2.9998 H         1 NH2         0.2540
@<TRIPOS>BOND
     1    1    2 1  
     2    2    3 1  
     3    2    5 1  
     4    3    4 2  
     5    3   10 am 
     6    5    6 1  
     7    6    7 1  
     8    7    8 1  
     9    8    9 1  
    10   10   11 1  
    11   11   12 1  
    12   12   13 2  
    13   12   14 am 
    14   14   15 1  
    15   15   16 1  
    16   15   17 1  
    17   17   18 2  
    18   17   19 am 
    19   19   20 1  
    20   20   21 1  
    21   20   23 1  
    22   21   22 2  
    23   21   25 am 
    24   23   24 1  
    25   24  111 1  
    26   25   26 1  
    27   26   27 1  
    28   26   29 1  
    29   27   28 2  
    30   27   33 am 
    31   29   30 1  
    32   30   31 ar 
    33   30   32 ar 
    34   33   34 1  
    35   34   35 1  
    36   34   37 1  
    37   35   36 2  
    38   35   45 am 
    39   37   38 1  
    40   38   39 ar 
    41   38   40 ar 
    42   39   41 ar 
    43   40   42 ar 
    44   41   43 ar 
    45   42   43 ar 
    46   43   44 1  
    47   45   46 1  
    48   45   49 1  
    49   46   47 1  
    50   46   50 1  
    51   47   48 1  
    52   48   49 1  
    53   50   51 2  
    54   50   52 am 
    55   52   53 1  
    56   53   54 1  
    57   53   56 1  
    58   54   55 2  
    59   54   61 am 
    60   56   57 1  
    61   57   58 1  
    62   58   59 ar 
    63   58   60 ar 
    64   61   62 1  
    65   62   63 1  
    66   62   73 1  
    67   63   64 1  
    68   64   65 2  
    69   64   72 1  
    70   65   66 1  
    71   66   67 1  
    72   67   68 ar 
    73   67   72 ar 
    74   68   69 ar 
    75   69   70 ar 
    76   70   71 ar 
    77   71   72 ar 
    78   73   74 2  
    79   73   75 am 
    80   75   76 1  
    81   76   77 1  
    82   76   79 1  
    83   77   78 2  
    84   77   84 am 
    85   79   80 1  
    86   80   81 1  
    87   81   82 2  
    88   81   83 am 
    89   84   85 1  
    90   85   86 1  
    91   85   96 1  
    92   86   87 1  
    93   87   88 2  
    94   87   95 1  
    95   88   89 1  
    96   89   90 1  
    97   90   91 ar 
    98   90   95 ar 
    99   91   92 ar 
   100   92   93 ar 
   101   93   94 ar 
   102   94   95 ar 
   103   96   97 2  
   104   96   98 am 
   105   98   99 1  
   106   99  100 1  
   107   99  104 1  
   108  100  101 1  
   109  101  102 1  
   110  101  103 1  
   111  104  105 2  
   112  104  106 am 
   113  106  107 1  
   114  107  108 1  
   115  107  110 1  
   116  108  109 2  
   117  108  112 am 
   118  110  111 1  
   119  112  113 1  
   120  113  114 1  
   121  113  115 1  
   122  115  116 2  
   123  115  117 am 
   124  117  118 1  
   125  118  119 1  
   126  118  120 1  
   127  120  121 2  
   128    1  122 1  
   129    1  123 1  
   130    1  124 1  
   131    2  125 1  
   132    5  126 1  
   133    5  127 1  
   134    6  128 1  
   135    6  129 1  
   136    7  130 1  
   137    7  131 1  
   138    8  132 1  
   139    8  133 1  
   140    9  134 1  
   141    9  135 1  
   142    9  136 1  
   143   10  137 1  
   144   11  138 1  
   145   11  139 1  
   146   14  140 1  
   147   15  141 1  
   148   16  142 1  
   149   16  143 1  
   150   16  144 1  
   151   19  145 1  
   152   20  146 1  
   153   23  147 1  
   154   23  148 1  
   155   25  149 1  
   156   26  150 1  
   157   29  151 1  
   158   29  152 1  
   159   33  153 1  
   160   34  154 1  
   161   37  155 1  
   162   37  156 1  
   163   39  157 1  
   164   40  158 1  
   165   41  159 1  
   166   42  160 1  
   167   44  161 1  
   168   46  162 1  
   169   47  163 1  
   170   47  164 1  
   171   48  165 1  
   172   48  166 1  
   173   49  167 1  
   174   49  168 1  
   175   52  169 1  
   176   53  170 1  
   177   56  171 1  
   178   56  172 1  
   179   57  173 1  
   180   57  174 1  
   181   61  175 1  
   182   62  176 1  
   183   63  177 1  
   184   63  178 1  
   185   65  179 1  
   186   66  180 1  
   187   68  181 1  
   188   69  182 1  
   189   70  183 1  
   190   71  184 1  
   191   75  185 1  
   192   76  186 1  
   193   79  187 1  
   194   79  188 1  
   195   80  189 1  
   196   80  190 1  
   197   83  191 1  
   198   83  192 1  
   199   84  193 1  
   200   85  194 1  
   201   86  195 1  
   202   86  196 1  
   203   88  197 1  
   204   89  198 1  
   205   91  199 1  
   206   92  200 1  
   207   93  201 1  
   208   94  202 1  
   209   98  203 1  
   210   99  204 1  
   211  100  205 1  
   212  100  206 1  
   213  101  207 1  
   214  102  208 1  
   215  102  209 1  
   216  102  210 1  
   217  103  211 1  
   218  103  212 1  
   219  103  213 1  
   220  106  214 1  
   221  107  215 1  
   222  110  216 1  
   223  110  217 1  
   224  112  218 1  
   225  113  219 1  
   226  114  220 1  
   227  114  221 1  
   228  114  222 1  
   229  117  223 1  
   230  118  224 1  
   231  119  225 1  
   232  119  226 1  
   233  119  227 1  
   234  120  228 1  
   235  228  229 1  
@<TRIPOS>SUBSTRUCTURE
     1 DLY         1

