6hv7_ligand
  -I-interpret- 

 86 87  0  0  0  0  0  0  0  0999 V2000
   56.7520 -134.6370   32.1620 C   0  0  0  0  0
   58.2320 -136.0350   33.3610 C   0  0  0  0  0
   59.3720 -136.1210   34.1550 C   0  0  0  0  0
   60.9230 -134.9550   36.4950 C   0  0  0  0  0
   62.4300 -136.3400   39.4490 C   0  0  0  0  0
   63.3150 -135.8840   41.6980 C   0  0  0  0  0
   63.8500 -133.4860   41.9380 C   0  0  0  0  0
   65.0010 -131.1400   40.8130 C   0  0  0  0  0
   65.6120 -130.0330   40.2030 C   0  0  0  0  0
   64.6360 -133.5280   40.7710 C   0  0  0  0  0
   61.6420 -137.3470   42.9330 C   0  0  0  0  0
   61.2390 -140.1540   41.9590 C   0  0  0  0  0
   63.6600 -132.2340   42.5280 C   0  0  0  0  0
   64.2270 -131.0800   41.9830 C   0  0  0  0  0
   64.8560 -128.7710   40.3020 N   0  3  0  0  0
   65.1990 -132.3790   40.2240 C   0  0  0  0  0
   63.2450 -134.5750   42.5600 C   0  0  0  0  0
   63.1220 -137.1900   42.5020 C   0  0  0  0  0
   61.0400 -139.0290   43.3320 S   0  0  0  0  0
   59.5840 -138.9720   43.7490 O   0  0  0  0  0
   61.7680 -139.5540   44.5500 O   0  0  0  0  0
   62.2850 -135.8050   40.6570 N   0  0  0  0  0
   63.3930 -137.0010   39.0680 O   0  0  0  0  0
   61.1870 -136.2000   38.6110 C   0  0  0  0  0
   60.4990 -137.5570   38.8270 C   0  0  0  0  0
   59.1720 -137.6760   38.0710 C   0  0  0  0  0
   58.6010 -139.0910   38.2560 C   0  0  0  0  0
   58.2000 -136.6060   38.5820 C   0  0  0  0  0
   61.4840 -135.9620   37.1910 N   0  0  0  0  0
   60.1420 -134.1200   36.9470 O   0  0  0  0  0
   61.3060 -134.9020   35.0270 C   0  0  0  0  0
   62.0410 -133.6040   34.7300 C   0  0  0  0  0
   63.4500 -133.6580   35.3460 C   0  0  0  0  0
   64.0750 -132.2700   35.3060 C   0  0  0  0  0
   64.3430 -134.6500   34.5970 C   0  0  0  0  0
   60.0720 -134.9660   34.2530 N   0  0  0  0  0
   59.7090 -137.1910   34.6680 O   0  0  0  0  0
   57.8590 -134.8100   32.9620 N   0  0  0  0  0
   55.9840 -135.7180   31.7320 C   0  0  0  0  0
   56.3680 -137.0130   32.1360 N   0  0  0  0  0
   57.5020 -137.1690   32.9570 C   0  0  0  0  0
   56.4690 -133.6295   31.8572 H   0  0  0  0  0
   64.3215 -135.9340   41.2827 H   0  0  0  0  0
   65.6977 -130.2661   39.1417 H   0  0  0  0  0
   66.5596 -129.8734   40.7175 H   0  0  0  0  0
   64.8084 -134.4870   40.2823 H   0  0  0  0  0
   61.0539 -137.0248   42.0737 H   0  0  0  0  0
   61.5474 -136.7781   43.8579 H   0  0  0  0  0
   60.9114 -141.1501   42.2567 H   0  0  0  0  0
   60.6378 -139.8087   41.1179 H   0  0  0  0  0
   62.2888 -140.1873   41.6675 H   0  0  0  0  0
   63.0567 -132.1563   43.4325 H   0  0  0  0  0
   64.0665 -130.1195   42.4726 H   0  0  0  0  0
   65.3743 -128.0279   39.8334 H   0  0  0  0  0
   63.9457 -128.8855   39.8563 H   0  0  0  0  0
   64.7268 -128.5296   41.2846 H   0  0  0  0  0
   65.8038 -132.4543   39.3203 H   0  0  0  0  0
   63.7743 -134.7620   43.4943 H   0  0  0  0  0
   62.1935 -134.3310   42.7114 H   0  0  0  0  0
   63.7488 -137.1536   43.3930 H   0  0  0  0  0
   63.4003 -138.0369   41.8747 H   0  0  0  0  0
   61.4156 -135.3160   40.8703 H   0  0  0  0  0
   60.5763 -135.3426   38.8940 H   0  0  0  0  0
   60.2873 -137.6585   39.8914 H   0  0  0  0  0
   61.1669 -138.3333   38.4537 H   0  0  0  0  0
   59.3287 -137.5127   37.0048 H   0  0  0  0  0
   59.3093 -139.8213   37.8646 H   0  0  0  0  0
   58.4333 -139.2779   39.3167 H   0  0  0  0  0
   57.6570 -139.1737   37.7175 H   0  0  0  0  0
   58.0277 -136.7529   39.6482 H   0  0  0  0  0
   58.6287 -135.6179   38.4147 H   0  0  0  0  0
   57.2551 -136.6892   38.0451 H   0  0  0  0  0
   62.1392 -136.5825   36.7155 H   0  0  0  0  0
   61.9648 -135.7312   34.7691 H   0  0  0  0  0
   61.4890 -132.7681   35.1597 H   0  0  0  0  0
   62.1216 -133.4715   33.6511 H   0  0  0  0  0
   63.3618 -133.9946   36.3790 H   0  0  0  0  0
   64.1427 -131.9331   34.2716 H   0  0  0  0  0
   63.4552 -131.5773   35.8753 H   0  0  0  0  0
   65.0730 -132.3096   35.7426 H   0  0  0  0  0
   63.9015 -135.6452   34.6488 H   0  0  0  0  0
   64.4297 -134.3435   33.5546 H   0  0  0  0  0
   65.3315 -134.6653   35.0560 H   0  0  0  0  0
   59.7314 -134.1295   33.7790 H   0  0  0  0  0
   55.1092 -135.5660   31.0998 H   0  0  0  0  0
   57.8129 -138.1632   33.2780 H   0  0  0  0  0
 38  1  4  0  0  0
  1 39  4  0  0  0
  3  2  1  0  0  0
  2 38  4  0  0  0
  2 41  4  0  0  0
 36  3  1  0  0  0
  3 37  2  0  0  0
  4 29  1  0  0  0
  4 30  2  0  0  0
 31  4  1  0  0  0
  5 22  1  0  0  0
  5 23  2  0  0  0
 24  5  1  0  0  0
  6 17  1  0  0  0
  6 18  1  0  0  0
 22  6  1  0  0  0
  7 10  4  0  0  0
  7 13  4  0  0  0
 17  7  1  0  0  0
  8  9  1  0  0  0
 14  8  4  0  0  0
 16  8  4  0  0  0
  9 15  1  0  0  0
 10 16  4  0  0  0
 18 11  1  0  0  0
 11 19  1  0  0  0
 19 12  1  0  0  0
 13 14  4  0  0  0
 19 20  2  0  0  0
 19 21  2  0  0  0
 24 25  1  0  0  0
 29 24  1  0  0  0
 25 26  1  0  0  0
 26 27  1  0  0  0
 26 28  1  0  0  0
 31 32  1  0  0  0
 31 36  1  0  0  0
 32 33  1  0  0  0
 33 34  1  0  0  0
 33 35  1  0  0  0
 39 40  4  0  0  0
 40 41  4  0  0  0
  1 42  1  0  0  0
  6 43  1  0  0  0
  9 44  1  0  0  0
  9 45  1  0  0  0
 10 46  1  0  0  0
 11 47  1  0  0  0
 11 48  1  0  0  0
 12 49  1  0  0  0
 12 50  1  0  0  0
 12 51  1  0  0  0
 13 52  1  0  0  0
 14 53  1  0  0  0
 15 54  1  0  0  0
 15 55  1  0  0  0
 15 56  1  0  0  0
 16 57  1  0  0  0
 17 58  1  0  0  0
 17 59  1  0  0  0
 18 60  1  0  0  0
 18 61  1  0  0  0
 22 62  1  0  0  0
 24 63  1  0  0  0
 25 64  1  0  0  0
 25 65  1  0  0  0
 26 66  1  0  0  0
 27 67  1  0  0  0
 27 68  1  0  0  0
 27 69  1  0  0  0
 28 70  1  0  0  0
 28 71  1  0  0  0
 28 72  1  0  0  0
 29 73  1  0  0  0
 31 74  1  0  0  0
 32 75  1  0  0  0
 32 76  1  0  0  0
 33 77  1  0  0  0
 34 78  1  0  0  0
 34 79  1  0  0  0
 34 80  1  0  0  0
 35 81  1  0  0  0
 35 82  1  0  0  0
 35 83  1  0  0  0
 36 84  1  0  0  0
 39 85  1  0  0  0
 41 86  1  0  0  0
M  END
$$$$
