6ohu_ligand
  -I-interpret- 

 58 60  0  0  0  0  0  0  0  0999 V2000
   -8.4940    7.7450   25.9090 C   0  0  0  0  0
   -9.1070    8.8510   26.7670 C   0  0  0  0  0
  -17.0700    9.4940   26.2670 O   0  0  0  0  0
  -17.3960   10.3430   25.1590 C   0  0  0  0  0
  -18.9120   10.5090   25.0210 C   0  0  0  0  0
  -15.7120    9.4340   26.2620 C   0  0  0  0  0
  -14.9850   10.5070   26.7520 C   0  0  0  0  0
  -13.6110   10.4530   26.7400 C   0  0  0  0  0
  -13.6770    8.2570   25.7400 C   0  0  0  0  0
  -15.0570    8.3170   25.7560 C   0  0  0  0  0
  -12.9450    9.3230   26.2640 C   0  0  0  0  0
  -11.4680    9.3520   26.2310 C   0  0  0  0  0
  -10.9840   10.2760   25.1830 C   0  0  0  0  0
  -11.0830    9.8840   23.8500 C   0  0  0  0  0
  -10.6600   10.7500   22.8710 C   0  0  0  0  0
  -10.1560   11.9970   23.2030 C   0  0  0  0  0
  -10.0670   12.4000   24.5220 C   0  0  0  0  0
  -10.4920   11.5470   25.5160 C   0  0  0  0  0
  -11.4340    5.2800   28.4750 C   0  0  0  0  0
  -11.4720    5.6280   29.8160 C   0  0  0  0  0
  -11.2320    6.9270   30.2200 C   0  0  0  0  0
  -10.9490    7.8890   29.2780 C   0  0  0  0  0
  -10.9250    7.5560   27.9230 C   0  0  0  0  0
  -11.1530    6.2330   27.5210 C   0  0  0  0  0
  -10.5840    8.5990   26.9470 C   0  0  0  0  0
  -19.4070    9.7490   23.8670 N   0  3  0  0  0
  -20.8330   10.0800   23.7540 C   0  0  0  0  0
  -19.3460    8.3300   24.2400 C   0  0  0  0  0
   -8.6388    6.7830   26.4007 H   0  0  0  0  0
   -8.9797    7.7325   24.9333 H   0  0  0  0  0
   -7.4278    7.9333   25.7832 H   0  0  0  0  0
   -8.9629    9.8119   26.2731 H   0  0  0  0  0
   -8.6215    8.8610   27.7429 H   0  0  0  0  0
  -17.0097    9.8897   24.2461 H   0  0  0  0  0
  -16.9511   11.3237   25.3276 H   0  0  0  0  0
  -19.1418   11.5646   24.8759 H   0  0  0  0  0
  -19.3937   10.1360   25.9248 H   0  0  0  0  0
  -15.4975   11.3858   27.1434 H   0  0  0  0  0
  -13.0354   11.3029   27.1066 H   0  0  0  0  0
  -13.1668    7.3885   25.3236 H   0  0  0  0  0
  -15.6381    7.4803   25.3681 H   0  0  0  0  0
  -11.4891    8.9069   23.5882 H   0  0  0  0  0
  -10.7215   10.4534   21.8239 H   0  0  0  0  0
   -9.8248   12.6702   22.4123 H   0  0  0  0  0
   -9.6650   13.3817   24.7726 H   0  0  0  0  0
  -10.4463   11.8587   26.5595 H   0  0  0  0  0
  -11.6269    4.2501   28.1747 H   0  0  0  0  0
  -11.6945    4.8657   30.5627 H   0  0  0  0  0
  -11.2666    7.1880   31.2777 H   0  0  0  0  0
  -10.7432    8.9128   29.5905 H   0  0  0  0  0
  -11.1085    5.9614   26.4663 H   0  0  0  0  0
  -18.8828    9.9464   23.0146 H   0  0  0  0  0
  -21.2909    9.4524   22.9895 H   0  0  0  0  0
  -21.3226    9.9037   24.7118 H   0  0  0  0  0
  -20.9404   11.1288   23.4772 H   0  0  0  0  0
  -19.8603    8.1828   25.1897 H   0  0  0  0  0
  -19.8286    7.7315   23.4674 H   0  0  0  0  0
  -18.3039    8.0261   24.3388 H   0  0  0  0  0
  2  1  1  0  0  0
 25  2  1  0  0  0
  3  4  1  0  0  0
  6  3  1  0  0  0
  4  5  1  0  0  0
  5 26  1  0  0  0
  7  6  4  0  0  0
 10  6  4  0  0  0
  8  7  4  0  0  0
 11  8  4  0  0  0
  9 10  4  0  0  0
 11  9  4  0  0  0
 12 11  1  0  0  0
 12 13  1  0  0  0
 25 12  2  0  0  0
 13 14  4  0  0  0
 13 18  4  0  0  0
 14 15  4  0  0  0
 15 16  4  0  0  0
 17 16  4  0  0  0
 18 17  4  0  0  0
 19 20  4  0  0  0
 24 19  4  0  0  0
 21 20  4  0  0  0
 22 21  4  0  0  0
 23 22  4  0  0  0
 23 24  4  0  0  0
 23 25  1  0  0  0
 26 27  1  0  0  0
 26 28  1  0  0  0
  1 29  1  0  0  0
  1 30  1  0  0  0
  1 31  1  0  0  0
  2 32  1  0  0  0
  2 33  1  0  0  0
  4 34  1  0  0  0
  4 35  1  0  0  0
  5 36  1  0  0  0
  5 37  1  0  0  0
  7 38  1  0  0  0
  8 39  1  0  0  0
  9 40  1  0  0  0
 10 41  1  0  0  0
 14 42  1  0  0  0
 15 43  1  0  0  0
 16 44  1  0  0  0
 17 45  1  0  0  0
 18 46  1  0  0  0
 19 47  1  0  0  0
 20 48  1  0  0  0
 21 49  1  0  0  0
 22 50  1  0  0  0
 24 51  1  0  0  0
 26 52  1  0  0  0
 27 53  1  0  0  0
 27 54  1  0  0  0
 27 55  1  0  0  0
 28 56  1  0  0  0
 28 57  1  0  0  0
 28 58  1  0  0  0
M  END
$$$$
