2hwh_ligand
  -I-interpret- 

 40 42  0  0  0  0  0  0  0  0999 V2000
   10.2660   29.1620   73.4880 C   0  0  0  0  0
    9.0540   29.6500   73.0310 C   0  0  0  0  0
    9.3170   30.6330   72.0760 C   0  0  0  0  0
   10.6920   30.7380   71.9500 O   0  0  0  0  0
   11.2800   29.8380   72.8190 C   0  0  0  0  0
   12.7710   29.6500   72.9960 C   0  0  0  0  0
    7.3420   32.2730   72.1900 C   0  0  0  0  0
    7.8920   33.1020   73.6240 S   0  0  0  0  0
    6.2730   33.6410   73.8590 C   0  0  0  0  0
    5.9200   34.4610   74.9500 N   0  0  0  0  0
    7.0170   35.5440   75.6950 S   0  0  0  0  0
    7.7240   36.6040   74.5170 C   0  0  0  0  0
    9.0830   36.4520   74.1650 C   0  0  0  0  0
    9.6460   37.3330   73.1980 C   0  0  0  0  0
    8.8470   38.3550   72.5940 C   0  0  0  0  0
    7.4730   38.4870   72.9670 C   0  0  0  0  0
    6.9090   37.6090   73.9340 C   0  0  0  0  0
    9.4490   39.3100   71.5560 C   0  0  0  0  0
    8.1280   34.6370   76.3790 O   0  0  0  0  0
    6.2550   36.3670   76.8210 O   0  0  0  0  0
    5.9910   32.4520   71.9920 C   0  0  0  0  0
    5.3720   33.2280   72.9310 N   0  0  0  0  0
    5.2980   31.9020   70.9300 O   0  0  0  0  0
    8.3090   31.4590   71.3000 C   0  0  0  0  0
   10.4015   28.3846   74.2399 H   0  0  0  0  0
    8.0672   29.3237   73.3594 H   0  0  0  0  0
   13.0433   29.8677   74.0288 H   0  0  0  0  0
   13.0368   28.6200   72.7582 H   0  0  0  0  0
   13.3031   30.3274   72.3281 H   0  0  0  0  0
    4.9679   34.4066   75.3119 H   0  0  0  0  0
    9.6910   35.6734   74.6257 H   0  0  0  0  0
   10.6936   37.2280   72.9158 H   0  0  0  0  0
    6.8569   39.2613   72.5099 H   0  0  0  0  0
    5.8628   37.7071   74.2238 H   0  0  0  0  0
   10.2736   39.8619   72.0071 H   0  0  0  0  0
    9.8166   38.7355   70.7058 H   0  0  0  0  0
    8.6831   40.0090   71.2200 H   0  0  0  0  0
    4.3734   32.1538   70.9879 H   0  0  0  0  0
    7.7038   30.7650   70.7167 H   0  0  0  0  0
    8.8716   32.1726   70.6981 H   0  0  0  0  0
  2  1  4  0  0  0
  5  1  4  0  0  0
  3  2  4  0  0  0
  3  4  4  0  0  0
 24  3  1  0  0  0
  4  5  4  0  0  0
  5  6  1  0  0  0
  7  8  4  0  0  0
  7 21  4  0  0  0
  7 24  1  0  0  0
  8  9  4  0  0  0
  9 10  1  0  0  0
  9 22  4  0  0  0
 10 11  1  0  0  0
 11 12  1  0  0  0
 11 19  2  0  0  0
 11 20  2  0  0  0
 12 13  4  0  0  0
 12 17  4  0  0  0
 13 14  4  0  0  0
 14 15  4  0  0  0
 15 16  4  0  0  0
 15 18  1  0  0  0
 16 17  4  0  0  0
 21 22  4  0  0  0
 21 23  1  0  0  0
  1 25  1  0  0  0
  2 26  1  0  0  0
  6 27  1  0  0  0
  6 28  1  0  0  0
  6 29  1  0  0  0
 10 30  1  0  0  0
 13 31  1  0  0  0
 14 32  1  0  0  0
 16 33  1  0  0  0
 17 34  1  0  0  0
 18 35  1  0  0  0
 18 36  1  0  0  0
 18 37  1  0  0  0
 23 38  1  0  0  0
 24 39  1  0  0  0
 24 40  1  0  0  0
M  END
$$$$
