3vtc_ligand
  -I-interpret- 

 91 96  0  0  0  0  0  0  0  0999 V2000
    3.6850   -1.1560   35.4470 C   0  0  0  0  0
    2.3590   -1.2190   36.3030 C   0  0  0  0  0
    1.3130   -0.1880   35.7470 C   0  0  0  0  0
    1.9060    1.2640   35.8390 C   0  0  0  0  0
    3.2190    1.3490   34.9820 C   0  0  0  0  0
    4.2600    0.3180   35.5220 C   0  0  0  0  0
    3.3320   -1.4720   33.9440 C   0  0  0  0  0
    0.9880   -0.5250   34.2490 C   0  0  0  0  0
    2.9010    1.0130   33.4880 C   0  0  0  0  0
    2.2950   -0.4330   33.3930 C   0  0  0  0  0
    4.7440   -2.2220   35.8850 C   0  0  0  0  0
    4.9830   -2.5210   37.4010 C   0  0  0  0  0
    5.7300   -1.4160   38.0030 C   0  0  0  0  0
    6.3040   -0.4770   38.4430 C   0  0  0  0  0
    6.9730    0.7240   38.9330 C   0  0  0  0  0
    6.6740    1.9820   38.0580 C   0  0  0  0  0
    7.7620    3.1100   38.2120 C   0  0  0  0  0
    5.2410    2.4310   38.4530 C   0  0  0  0  0
    5.7390   -3.7020   37.5440 O   0  0  0  0  0
    7.6670    4.3940   37.3160 C   0  0  0  0  0
    9.0900    4.9770   37.5900 C   0  0  0  0  0
   10.0280    3.7810   37.3850 C   0  0  0  0  0
    9.2270    2.6060   37.9710 C   0  0  0  0  0
    6.6460    5.4800   37.8090 C   0  0  0  0  0
    6.8420    6.8630   37.1270 C   0  0  0  0  0
    8.3110    7.3430   37.2020 C   0  0  0  0  0
    9.3070    6.2640   36.7570 C   0  0  0  0  0
    7.4120    4.0160   35.7990 C   0  0  0  0  0
   10.2500    6.3790   35.8060 C   0  0  0  0  0
   10.5440    7.5570   34.9810 C   0  0  0  0  0
   11.0880    7.5770   33.7590 C   0  0  0  0  0
   11.3430    8.9040   33.0670 C   0  0  0  0  0
   12.6990    9.0090   32.3130 C   0  0  0  0  0
   12.9050    7.8050   31.3970 C   0  0  0  0  0
   12.8240    6.4760   32.1620 C   0  0  0  0  0
   11.5010    6.3390   32.9500 C   0  0  0  0  0
   13.0770    7.9050   30.0630 C   0  0  0  0  0
   12.9350    5.3950   31.2500 O   0  0  0  0  0
   13.7840    9.0650   33.2490 O   0  0  0  0  0
    2.5889   -0.9736   37.3398 H   0  0  0  0  0
    1.9401   -2.2235   36.2428 H   0  0  0  0  0
    0.3995   -0.2458   36.3388 H   0  0  0  0  0
    2.1352    1.4974   36.8787 H   0  0  0  0  0
    1.1767    1.9789   35.4580 H   0  0  0  0  0
    3.6241    2.3586   35.0512 H   0  0  0  0  0
    5.1603    0.3751   34.9102 H   0  0  0  0  0
    4.4821    0.5556   36.5624 H   0  0  0  0  0
    2.8986   -2.4704   33.8845 H   0  0  0  0  0
    4.2421   -1.4145   33.3470 H   0  0  0  0  0
    0.2558    0.1873   33.8687 H   0  0  0  0  0
    0.5842   -1.5354   34.1850 H   0  0  0  0  0
    3.8187    1.0612   32.9019 H   0  0  0  0  0
    2.1822    1.7341   33.0989 H   0  0  0  0  0
    2.0643   -0.6497   32.3500 H   0  0  0  0  0
    5.6942   -1.8172   35.5368 H   0  0  0  0  0
    4.3647   -3.1608   35.4814 H   0  0  0  0  0
    4.0180   -2.6381   37.8940 H   0  0  0  0  0
    8.0476    0.5437   38.9026 H   0  0  0  0  0
    6.6068    0.9230   39.9402 H   0  0  0  0  0
    6.7212    1.7492   36.9942 H   0  0  0  0  0
    7.5331    3.3843   39.2418 H   0  0  0  0  0
    4.5384    1.6242   38.2444 H   0  0  0  0  0
    5.2166    2.6700   39.5162 H   0  0  0  0  0
    4.9656    3.3129   37.8747 H   0  0  0  0  0
    5.8813   -3.8785   38.4768 H   0  0  0  0  0
    9.2787    5.3583   38.5936 H   0  0  0  0  0
   10.9950    3.9155   37.8698 H   0  0  0  0  0
   10.2953    3.6292   36.3393 H   0  0  0  0  0
    9.2315    1.7603   37.2833 H   0  0  0  0  0
    9.6733    2.2686   38.9064 H   0  0  0  0  0
    6.8008    5.6157   38.8794 H   0  0  0  0  0
    5.6450    5.1285   37.5591 H   0  0  0  0  0
    6.2186    7.5907   37.6465 H   0  0  0  0  0
    6.5680    6.7669   36.0764 H   0  0  0  0  0
    8.5295    7.5940   38.2399 H   0  0  0  0  0
    8.4198    8.1967   36.5330 H   0  0  0  0  0
    8.2338    3.3983   35.4367 H   0  0  0  0  0
    6.4763    3.4632   35.7160 H   0  0  0  0  0
    7.3511    4.9273   35.2041 H   0  0  0  0  0
   10.8661    5.4978   35.6272 H   0  0  0  0  0
   10.2903    8.5251   35.4130 H   0  0  0  0  0
   11.3593    9.6652   33.8470 H   0  0  0  0  0
   10.5593    9.0219   32.3187 H   0  0  0  0  0
   12.6772    9.9194   31.7140 H   0  0  0  0  0
   13.6458    6.4591   32.8778 H   0  0  0  0  0
   10.7151    6.1709   32.2137 H   0  0  0  0  0
   11.6473    5.5317   33.6676 H   0  0  0  0  0
   13.0735    8.8846   29.5849 H   0  0  0  0  0
   13.2195    7.0062   29.4630 H   0  0  0  0  0
   12.8841    4.5656   31.7308 H   0  0  0  0  0
   14.6142    9.1296   32.7713 H   0  0  0  0  0
  1  2  1  0  0  0
  1  6  1  0  0  0
  1  7  1  0  0  0
  1 11  1  0  0  0
  2  3  1  0  0  0
  3  4  1  0  0  0
  3  8  1  0  0  0
  4  5  1  0  0  0
  5  6  1  0  0  0
  5  9  1  0  0  0
  7 10  1  0  0  0
  8 10  1  0  0  0
  9 10  1  0  0  0
 11 12  1  0  0  0
 12 13  1  0  0  0
 12 19  1  0  0  0
 13 14  3  0  0  0
 14 15  1  0  0  0
 15 16  1  0  0  0
 16 17  1  0  0  0
 16 18  1  0  0  0
 17 20  1  0  0  0
 17 23  1  0  0  0
 20 21  1  0  0  0
 20 24  1  0  0  0
 20 28  1  0  0  0
 21 22  1  0  0  0
 21 27  1  0  0  0
 22 23  1  0  0  0
 24 25  1  0  0  0
 25 26  1  0  0  0
 26 27  1  0  0  0
 27 29  2  0  0  0
 29 30  1  0  0  0
 30 31  2  0  0  0
 31 32  1  0  0  0
 31 36  1  0  0  0
 32 33  1  0  0  0
 33 34  1  0  0  0
 33 39  1  0  0  0
 34 35  1  0  0  0
 34 37  2  0  0  0
 35 36  1  0  0  0
 35 38  1  0  0  0
  2 40  1  0  0  0
  2 41  1  0  0  0
  3 42  1  0  0  0
  4 43  1  0  0  0
  4 44  1  0  0  0
  5 45  1  0  0  0
  6 46  1  0  0  0
  6 47  1  0  0  0
  7 48  1  0  0  0
  7 49  1  0  0  0
  8 50  1  0  0  0
  8 51  1  0  0  0
  9 52  1  0  0  0
  9 53  1  0  0  0
 10 54  1  0  0  0
 11 55  1  0  0  0
 11 56  1  0  0  0
 12 57  1  0  0  0
 15 58  1  0  0  0
 15 59  1  0  0  0
 16 60  1  0  0  0
 17 61  1  0  0  0
 18 62  1  0  0  0
 18 63  1  0  0  0
 18 64  1  0  0  0
 19 65  1  0  0  0
 21 66  1  0  0  0
 22 67  1  0  0  0
 22 68  1  0  0  0
 23 69  1  0  0  0
 23 70  1  0  0  0
 24 71  1  0  0  0
 24 72  1  0  0  0
 25 73  1  0  0  0
 25 74  1  0  0  0
 26 75  1  0  0  0
 26 76  1  0  0  0
 28 77  1  0  0  0
 28 78  1  0  0  0
 28 79  1  0  0  0
 29 80  1  0  0  0
 30 81  1  0  0  0
 32 82  1  0  0  0
 32 83  1  0  0  0
 33 84  1  0  0  0
 35 85  1  0  0  0
 36 86  1  0  0  0
 36 87  1  0  0  0
 37 88  1  0  0  0
 37 89  1  0  0  0
 38 90  1  0  0  0
 39 91  1  0  0  0
M  END
$$$$
