4g0y_ligand
  -I-interpret- 

 37 39  0  0  0  0  0  0  0  0999 V2000
   25.3280   34.5700   38.3120 P   0  0  0  0  0
   25.8450   36.0560   38.4480 O   0  0  0  0  0
   25.6460   34.3310   36.7820 O   0  0  0  0  0
   23.9120   34.3830   38.6580 O   0  0  0  0  0
   26.3220   33.5580   39.0930 O   0  0  0  0  0
   27.6890   33.7670   39.3790 C   0  0  0  0  0
   28.2630   32.4330   39.9400 C   0  0  0  0  0
   27.8490   31.2530   39.2630 O   0  0  0  0  0
   29.8370   32.3810   39.9000 C   0  0  0  0  0
   30.3250   32.7200   41.1520 O   0  0  0  0  0
   30.1860   30.9000   39.5070 C   0  0  0  0  0
   31.1770   30.2640   40.2220 O   0  0  0  0  0
   28.7720   30.1960   39.5710 C   0  0  0  0  0
   28.5650   29.1150   38.6100 N   0  0  0  0  0
   28.1400   27.7680   38.8110 C   0  0  0  0  0
   28.0770   27.0540   37.6890 N   0  0  0  0  0
   28.4790   27.9420   36.6750 C   0  0  0  0  0
   28.6140   27.7570   35.2710 C   0  0  0  0  0
   28.3500   26.5670   34.6650 N   0  0  0  0  0
   29.0320   28.8180   34.4950 N   0  0  0  0  0
   29.2890   29.9910   35.1430 C   0  0  0  0  0
   29.2050   30.3060   36.4660 N   0  0  0  0  0
   28.7860   29.2270   37.2140 C   0  0  0  0  0
   26.7731   36.0942   38.2056 H   0  0  0  0  0
   26.5831   34.4688   36.6258 H   0  0  0  0  0
   27.8062   34.5678   40.1092 H   0  0  0  0  0
   28.2251   34.0615   38.4768 H   0  0  0  0  0
   27.8637   32.4400   40.9542 H   0  0  0  0  0
   30.2820   33.0772   39.1892 H   0  0  0  0  0
   31.2845   32.6914   41.1387 H   0  0  0  0  0
   30.6657   30.8572   38.5292 H   0  0  0  0  0
   31.2914   29.3725   39.8848 H   0  0  0  0  0
   28.6541   29.7243   40.5466 H   0  0  0  0  0
   27.8903   27.3616   39.7911 H   0  0  0  0  0
   28.0435   25.7685   35.2208 H   0  0  0  0  0
   28.4587   26.4738   33.6551 H   0  0  0  0  0
   29.6139   30.8077   34.4984 H   0  0  0  0  0
  1  2  1  0  0  0
  1  3  1  0  0  0
  1  4  2  0  0  0
  1  5  1  0  0  0
  5  6  1  0  0  0
  6  7  1  0  0  0
  7  8  1  0  0  0
  7  9  1  0  0  0
  8 13  1  0  0  0
  9 10  1  0  0  0
  9 11  1  0  0  0
 11 12  1  0  0  0
 11 13  1  0  0  0
 13 14  1  0  0  0
 14 15  4  0  0  0
 14 23  4  0  0  0
 15 16  4  0  0  0
 16 17  4  0  0  0
 17 18  4  0  0  0
 17 23  4  0  0  0
 18 19  1  0  0  0
 18 20  4  0  0  0
 20 21  4  0  0  0
 21 22  4  0  0  0
 22 23  4  0  0  0
  2 24  1  0  0  0
  3 25  1  0  0  0
  6 26  1  0  0  0
  6 27  1  0  0  0
  7 28  1  0  0  0
  9 29  1  0  0  0
 10 30  1  0  0  0
 11 31  1  0  0  0
 12 32  1  0  0  0
 13 33  1  0  0  0
 15 34  1  0  0  0
 19 35  1  0  0  0
 19 36  1  0  0  0
 21 37  1  0  0  0
M  END
$$$$
