4mi3_ligand
  -I-interpret- 

 55 56  0  0  0  0  0  0  0  0999 V2000
   40.7160   27.1100   34.9900 C   0  0  0  0  0
   39.9490   28.1510   34.1610 C   0  0  0  0  0
   39.4910   29.2820   35.0850 C   0  0  0  0  0
   38.8340   27.5850   33.4280 C   0  0  0  0  0
   38.7170   27.8910   32.0590 C   0  0  0  0  0
   37.6830   27.3810   31.2730 C   0  0  0  0  0
   37.8630   26.7430   34.0060 C   0  0  0  0  0
   36.8090   26.2340   33.2290 C   0  0  0  0  0
   36.7260   26.5470   31.8510 C   0  0  0  0  0
   35.6780   26.0620   31.0320 C   0  0  0  0  0
   35.9600   24.6980   30.3560 C   0  0  0  0  0
   36.6460   23.7510   31.3130 C   0  0  0  0  0
   34.6410   24.0690   29.8210 C   0  0  0  0  0
   33.5510   24.1720   30.3810 O   0  0  0  0  0
   34.7920   23.4460   28.6610 N   0  0  0  0  0
   33.6690   22.8650   27.9410 C   0  0  0  0  0
   33.5760   21.4590   28.2000 O   0  0  0  0  0
   32.3910   20.9380   27.5810 C   0  0  0  0  0
   32.2450   19.4920   28.0210 C   0  0  0  0  0
   33.2840   18.7650   27.3500 O   0  0  0  0  0
   32.4710   21.0910   26.0200 C   0  0  0  0  0
   31.2610   20.6190   25.3920 O   0  0  0  0  0
   32.7160   22.5500   25.5990 C   0  0  0  0  0
   33.0170   22.6200   24.1890 O   0  0  0  0  0
   33.9140   23.1180   26.4230 C   0  0  0  0  0
   34.1010   24.5310   26.1750 O   0  0  0  0  0
   40.0406   26.6552   35.7146 H   0  0  0  0  0
   41.1122   26.3403   34.3277 H   0  0  0  0  0
   41.5376   27.5984   35.5139 H   0  0  0  0  0
   40.6263   28.5429   33.4022 H   0  0  0  0  0
   39.0300   30.0708   34.4906 H   0  0  0  0  0
   38.7662   28.8938   35.8006 H   0  0  0  0  0
   40.3518   29.6839   35.6194 H   0  0  0  0  0
   39.4566   28.5463   31.5989 H   0  0  0  0  0
   37.6235   27.6327   30.2141 H   0  0  0  0  0
   37.9301   26.4849   35.0629 H   0  0  0  0  0
   36.0534   25.5966   33.6883 H   0  0  0  0  0
   35.5396   26.7890   30.2318 H   0  0  0  0  0
   34.8110   25.9219   31.6776 H   0  0  0  0  0
   36.6285   24.8721   29.5128 H   0  0  0  0  0
   37.5928   24.1846   31.6351 H   0  0  0  0  0
   36.0065   23.5865   32.1802 H   0  0  0  0  0
   36.8318   22.8012   30.8116 H   0  0  0  0  0
   35.7267   23.3713   28.2596 H   0  0  0  0  0
   32.7327   23.3198   28.2644 H   0  0  0  0  0
   31.5066   21.4951   27.8900 H   0  0  0  0  0
   31.2610   19.0997   27.7644 H   0  0  0  0  0
   32.3349   19.3987   29.1033 H   0  0  0  0  0
   33.2350   17.8384   27.5962 H   0  0  0  0  0
   33.3153   20.4854   25.6906 H   0  0  0  0  0
   31.3342   20.7228   24.4404 H   0  0  0  0  0
   31.8191   23.1388   25.7915 H   0  0  0  0  0
   33.1675   23.5349   23.9401 H   0  0  0  0  0
   34.8223   22.6036   26.1091 H   0  0  0  0  0
   34.2508   24.6731   25.2375 H   0  0  0  0  0
  1  2  1  0  0  0
  2  3  1  0  0  0
  2  4  1  0  0  0
  4  5  4  0  0  0
  4  7  4  0  0  0
  5  6  4  0  0  0
  6  9  4  0  0  0
  7  8  4  0  0  0
  8  9  4  0  0  0
  9 10  1  0  0  0
 10 11  1  0  0  0
 11 12  1  0  0  0
 11 13  1  0  0  0
 13 14  2  0  0  0
 13 15  1  0  0  0
 15 16  1  0  0  0
 16 17  1  0  0  0
 16 25  1  0  0  0
 17 18  1  0  0  0
 18 19  1  0  0  0
 18 21  1  0  0  0
 19 20  1  0  0  0
 21 22  1  0  0  0
 21 23  1  0  0  0
 23 24  1  0  0  0
 23 25  1  0  0  0
 25 26  1  0  0  0
  1 27  1  0  0  0
  1 28  1  0  0  0
  1 29  1  0  0  0
  2 30  1  0  0  0
  3 31  1  0  0  0
  3 32  1  0  0  0
  3 33  1  0  0  0
  5 34  1  0  0  0
  6 35  1  0  0  0
  7 36  1  0  0  0
  8 37  1  0  0  0
 10 38  1  0  0  0
 10 39  1  0  0  0
 11 40  1  0  0  0
 12 41  1  0  0  0
 12 42  1  0  0  0
 12 43  1  0  0  0
 15 44  1  0  0  0
 16 45  1  0  0  0
 18 46  1  0  0  0
 19 47  1  0  0  0
 19 48  1  0  0  0
 20 49  1  0  0  0
 21 50  1  0  0  0
 22 51  1  0  0  0
 23 52  1  0  0  0
 24 53  1  0  0  0
 25 54  1  0  0  0
 26 55  1  0  0  0
M  END
$$$$
