5wg6_ligand
  -I-interpret- 

 78 82  0  0  0  0  0  0  0  0999 V2000
  -81.0680    1.9100  -55.0910 C   0  0  0  0  0
  -81.3420    2.8270  -56.1320 C   0  0  0  0  0
  -82.6430    2.9030  -56.8830 C   0  0  0  0  0
  -84.0930    3.5650  -58.7840 C   0  0  0  0  0
  -82.8490    3.5210  -58.1310 C   0  0  0  0  0
  -83.2830    2.2080  -46.7640 C   0  0  0  0  0
  -82.6480    1.5280  -47.9580 C   0  0  0  0  0
  -82.8500    0.4130  -49.9940 C   0  0  0  0  0
  -81.2600    1.4160  -48.0770 C   0  0  0  0  0
  -79.2010    0.7030  -49.2680 C   0  0  0  0  0
  -80.6760    0.7930  -49.1840 C   0  0  0  0  0
  -79.6830    0.7740  -53.2490 C   0  0  0  0  0
  -79.8850    1.8110  -54.3820 C   0  0  0  0  0
  -81.4640    0.2590  -50.1830 C   0  0  0  0  0
  -80.9130   -0.4150  -51.3900 C   0  0  0  0  0
  -75.9310    6.8280  -58.2680 C   0  0  0  0  0
  -76.2780    5.5480  -57.5050 C   0  0  0  0  0
  -77.7010    5.5670  -56.8850 C   0  0  0  0  0
  -77.8940    6.9600  -56.2510 C   0  0  0  0  0
  -76.9820    4.0140  -54.9960 C   0  0  0  0  0
  -77.4580    2.9690  -54.2290 C   0  0  0  0  0
  -76.6250    2.3260  -53.1650 C   0  0  0  0  0
  -78.8120    2.7050  -54.6800 C   0  0  0  0  0
  -85.2530    2.9770  -58.2220 C   0  0  0  0  0
  -86.8420    2.3460  -60.2220 C   0  0  0  0  0
  -87.8910    1.2030  -60.1460 C   0  0  0  0  0
  -88.8740    2.2360  -58.1750 C   0  0  0  0  0
  -87.8400    3.3790  -58.2600 C   0  0  0  0  0
  -83.8610    2.3510  -56.4120 C   0  0  0  0  0
  -80.3070    3.6880  -56.4190 C   0  0  0  0  0
  -79.0840    3.6470  -55.7430 C   0  0  0  0  0
  -77.9380    4.4490  -55.9180 N   0  0  0  0  0
  -80.8950    0.5420  -52.5070 N   0  0  0  0  0
  -83.4570    1.0200  -48.9300 N   0  0  0  0  0
  -86.5340    3.0490  -58.9320 N   0  0  0  0  0
  -89.1330    1.6860  -59.5270 N   0  3  0  0  0
  -85.0870    2.3650  -56.9990 N   0  0  0  0  0
  -78.6680    0.2270  -53.0290 O   0  0  0  0  0
  -83.6360   -0.0860  -50.9440 O   0  0  0  0  0
  -81.8643    1.2159  -54.8222 H   0  0  0  0  0
  -84.1672    4.0654  -59.7495 H   0  0  0  0  0
  -81.9955    3.9921  -58.6186 H   0  0  0  0  0
  -82.9945    1.6837  -45.8530 H   0  0  0  0  0
  -82.9425    3.2422  -46.7129 H   0  0  0  0  0
  -84.3677    2.1861  -46.8694 H   0  0  0  0  0
  -80.6212    1.8217  -47.2925 H   0  0  0  0  0
  -78.9036   -0.3451  -49.3031 H   0  0  0  0  0
  -78.8581    1.2097  -50.1701 H   0  0  0  0  0
  -78.7588    1.1783  -48.3924 H   0  0  0  0  0
  -81.5360   -1.2710  -51.6495 H   0  0  0  0  0
  -79.8998   -0.7618  -51.1869 H   0  0  0  0  0
  -76.6419    6.9681  -59.0823 H   0  0  0  0  0
  -75.9818    7.6792  -57.5891 H   0  0  0  0  0
  -74.9229    6.7453  -58.6743 H   0  0  0  0  0
  -75.5643    5.4492  -56.6871 H   0  0  0  0  0
  -76.2397    4.7216  -58.2147 H   0  0  0  0  0
  -78.4479    5.3972  -57.6605 H   0  0  0  0  0
  -77.1355    7.1170  -55.4840 H   0  0  0  0  0
  -77.7973    7.7250  -57.0214 H   0  0  0  0  0
  -78.8851    7.0189  -55.8011 H   0  0  0  0  0
  -75.9861    4.4453  -54.8950 H   0  0  0  0  0
  -75.7228    1.9100  -53.6135 H   0  0  0  0  0
  -76.3507    3.0724  -52.4195 H   0  0  0  0  0
  -77.1968    1.5290  -52.6898 H   0  0  0  0  0
  -87.2614    3.1006  -60.8875 H   0  0  0  0  0
  -85.9101    1.8831  -60.5466 H   0  0  0  0  0
  -87.4868    0.3904  -59.5423 H   0  0  0  0  0
  -88.1100    0.8552  -61.1555 H   0  0  0  0  0
  -89.8047    2.6241  -57.7611 H   0  0  0  0  0
  -88.4830    1.4452  -57.5347 H   0  0  0  0  0
  -87.5938    3.6425  -57.2314 H   0  0  0  0  0
  -88.3017    4.1616  -58.8621 H   0  0  0  0  0
  -83.8070    1.8464  -55.4473 H   0  0  0  0  0
  -80.4465    4.4310  -57.2042 H   0  0  0  0  0
  -81.7466    1.0445  -52.7575 H   0  0  0  0  0
  -84.4726    1.0897  -48.8663 H   0  0  0  0  0
  -89.7824    0.9039  -59.4432 H   0  0  0  0  0
  -89.5240    2.4249  -60.1114 H   0  0  0  0  0
  2  1  4  0  0  0
  1 13  4  0  0  0
  3  2  1  0  0  0
  2 30  4  0  0  0
  5  3  4  0  0  0
  3 29  4  0  0  0
  4  5  4  0  0  0
 24  4  4  0  0  0
  7  6  1  0  0  0
  9  7  2  0  0  0
 34  7  1  0  0  0
 14  8  1  0  0  0
  8 34  1  0  0  0
  8 39  2  0  0  0
 11  9  1  0  0  0
 11 10  1  0  0  0
 14 11  2  0  0  0
 13 12  1  0  0  0
 12 33  1  0  0  0
 12 38  2  0  0  0
 13 23  4  0  0  0
 15 14  1  0  0  0
 33 15  1  0  0  0
 17 16  1  0  0  0
 18 17  1  0  0  0
 18 19  1  0  0  0
 32 18  1  0  0  0
 21 20  4  0  0  0
 20 32  4  0  0  0
 21 22  1  0  0  0
 23 21  4  0  0  0
 23 31  4  0  0  0
 35 24  1  0  0  0
 24 37  4  0  0  0
 26 25  1  0  0  0
 25 35  1  0  0  0
 36 26  1  0  0  0
 27 28  1  0  0  0
 27 36  1  0  0  0
 28 35  1  0  0  0
 29 37  4  0  0  0
 30 31  4  0  0  0
 31 32  4  0  0  0
  1 40  1  0  0  0
  4 41  1  0  0  0
  5 42  1  0  0  0
  6 43  1  0  0  0
  6 44  1  0  0  0
  6 45  1  0  0  0
  9 46  1  0  0  0
 10 47  1  0  0  0
 10 48  1  0  0  0
 10 49  1  0  0  0
 15 50  1  0  0  0
 15 51  1  0  0  0
 16 52  1  0  0  0
 16 53  1  0  0  0
 16 54  1  0  0  0
 17 55  1  0  0  0
 17 56  1  0  0  0
 18 57  1  0  0  0
 19 58  1  0  0  0
 19 59  1  0  0  0
 19 60  1  0  0  0
 20 61  1  0  0  0
 22 62  1  0  0  0
 22 63  1  0  0  0
 22 64  1  0  0  0
 25 65  1  0  0  0
 25 66  1  0  0  0
 26 67  1  0  0  0
 26 68  1  0  0  0
 27 69  1  0  0  0
 27 70  1  0  0  0
 28 71  1  0  0  0
 28 72  1  0  0  0
 29 73  1  0  0  0
 30 74  1  0  0  0
 33 75  1  0  0  0
 34 76  1  0  0  0
 36 77  1  0  0  0
 36 78  1  0  0  0
M  END
$$$$
