3bt9_ligand
  -I-interpret- 

 77 80  0  0  0  0  0  0  0  0999 V2000
  -71.4790  -49.7460    7.1730 C   0  0  0  0  0
  -71.5780  -51.0210    6.5230 C   0  0  0  0  0
  -72.7470  -51.8230    6.7060 C   0  0  0  0  0
  -73.8150  -51.3510    7.5340 C   0  0  0  0  0
  -72.5330  -49.2010    8.0320 C   0  0  0  0  0
  -73.7420  -50.0570    8.2050 C   0  0  0  0  0
  -74.8340  -49.6050    9.0350 C   0  0  0  0  0
  -74.7740  -48.3450    9.6930 C   0  0  0  0  0
  -73.6950  -47.4420    9.6160 C   0  0  0  0  0
  -72.5060  -47.8060    8.7890 N   0  0  0  0  0
  -62.4470  -45.3570    0.7260 C   0  0  0  0  0
  -62.6870  -45.0190    2.1640 C   0  0  0  0  0
  -61.4380  -45.0510    3.1990 N   0  0  0  0  0
  -60.1070  -45.4480    2.4650 C   0  0  0  0  0
  -60.0370  -45.7420    1.0990 C   0  0  0  0  0
  -61.1290  -45.7180    0.2390 C   0  0  0  0  0
  -63.5530  -45.3340   -0.2020 C   0  0  0  0  0
  -64.8830  -44.9860    0.1910 C   0  0  0  0  0
  -65.1470  -44.6510    1.5480 C   0  0  0  0  0
  -64.0800  -44.6680    2.4960 C   0  0  0  0  0
  -61.2780  -45.0800    4.8050 C   0  0  0  0  0
  -62.7070  -45.1660    5.2910 C   0  0  0  0  0
  -62.8990  -45.1990    6.8060 C   0  0  0  0  0
  -64.3800  -45.3410    6.8990 C   0  0  0  0  0
  -65.0680  -45.3840    8.2440 C   0  0  0  0  0
  -66.5330  -45.5660    7.8070 C   0  0  0  0  0
  -67.5730  -45.6160    8.8930 C   0  0  0  0  0
  -68.9720  -45.8580    8.2810 C   0  0  0  0  0
  -70.0250  -46.9520    7.9960 C   0  0  0  0  0
  -71.3440  -46.7460    8.7890 C   0  0  0  0  0
  -73.8900  -46.1440   10.4350 C   0  0  0  0  0
  -58.7530  -45.5520    3.1750 C   0  0  0  0  0
  -76.0410  -50.3550    9.2680 N   0  0  0  0  0
  -60.6980  -46.0770   -1.1020 N   0  3  0  0  0
  -70.5763  -49.1544    7.0204 H   0  0  0  0  0
  -70.7642  -51.3772    5.8914 H   0  0  0  0  0
  -72.8251  -52.7932    6.2154 H   0  0  0  0  0
  -74.7016  -51.9712    7.6662 H   0  0  0  0  0
  -75.6290  -48.0557   10.3041 H   0  0  0  0  0
  -72.7490  -46.9907    9.3168 H   0  0  0  0  0
  -59.0650  -46.0066    0.6828 H   0  0  0  0  0
  -62.1971  -45.6232    0.0434 H   0  0  0  0  0
  -63.3665  -45.5924   -1.2444 H   0  0  0  0  0
  -65.6883  -44.9775   -0.5435 H   0  0  0  0  0
  -66.1561  -44.3834    1.8614 H   0  0  0  0  0
  -64.3091  -44.4054    3.5288 H   0  0  0  0  0
  -60.7534  -44.2064    5.1919 H   0  0  0  0  0
  -60.6643  -45.9112    5.1522 H   0  0  0  0  0
  -63.1027  -46.1083    4.9120 H   0  0  0  0  0
  -63.2045  -44.2622    4.9393 H   0  0  0  0  0
  -62.5057  -44.3223    7.3207 H   0  0  0  0  0
  -62.3464  -45.9954    7.3044 H   0  0  0  0  0
  -64.5819  -46.3201    6.4646 H   0  0  0  0  0
  -64.7648  -44.4347    6.4314 H   0  0  0  0  0
  -64.8941  -44.5023    8.8609 H   0  0  0  0  0
  -64.7008  -46.1678    8.9065 H   0  0  0  0  0
  -66.5758  -46.5358    7.3113 H   0  0  0  0  0
  -66.7740  -44.6888    7.2065 H   0  0  0  0  0
  -67.5767  -44.6662    9.4277 H   0  0  0  0  0
  -67.3365  -46.4314    9.5765 H   0  0  0  0  0
  -68.6597  -45.7349    7.2440 H   0  0  0  0  0
  -69.5277  -45.3798    9.0876 H   0  0  0  0  0
  -69.6006  -47.9087    8.3004 H   0  0  0  0  0
  -70.2665  -46.9117    6.9338 H   0  0  0  0  0
  -71.0140  -46.7343    9.8278 H   0  0  0  0  0
  -71.7947  -45.8785    8.3069 H   0  0  0  0  0
  -74.7733  -45.6173   10.0739 H   0  0  0  0  0
  -74.0207  -46.3961   11.4874 H   0  0  0  0  0
  -73.0129  -45.5073   10.3188 H   0  0  0  0  0
  -58.3690  -46.5672    3.0753 H   0  0  0  0  0
  -58.0519  -44.8509    2.7222 H   0  0  0  0  0
  -58.8784  -45.3116    4.2307 H   0  0  0  0  0
  -76.7718  -49.9718    9.8676 H   0  0  0  0  0
  -76.1651  -51.2694    8.8335 H   0  0  0  0  0
  -59.6973  -46.2742   -1.0948 H   0  0  0  0  0
  -61.2068  -46.9053   -1.4110 H   0  0  0  0  0
  -60.8886  -45.3025   -1.7378 H   0  0  0  0  0
  1  2  4  0  0  0
  5  1  4  0  0  0
  2  3  4  0  0  0
  4  3  4  0  0  0
  6  4  4  0  0  0
  5  6  4  0  0  0
 10  5  1  0  0  0
  6  7  1  0  0  0
  8  7  2  0  0  0
  7 33  1  0  0  0
  9  8  1  0  0  0
 10  9  1  0  0  0
  9 31  1  0  0  0
 30 10  1  0  0  0
 12 11  4  0  0  0
 11 16  1  0  0  0
 11 17  4  0  0  0
 13 12  1  0  0  0
 12 20  4  0  0  0
 13 14  1  0  0  0
 21 13  1  0  0  0
 14 15  2  0  0  0
 14 32  1  0  0  0
 15 16  1  0  0  0
 16 34  1  0  0  0
 17 18  4  0  0  0
 19 18  4  0  0  0
 20 19  4  0  0  0
 22 21  1  0  0  0
 23 22  1  0  0  0
 24 23  1  0  0  0
 25 24  1  0  0  0
 26 25  1  0  0  0
 27 26  1  0  0  0
 28 27  1  0  0  0
 29 28  1  0  0  0
 29 30  1  0  0  0
  1 35  1  0  0  0
  2 36  1  0  0  0
  3 37  1  0  0  0
  4 38  1  0  0  0
  8 39  1  0  0  0
  9 40  1  0  0  0
 15 41  1  0  0  0
 16 42  1  0  0  0
 17 43  1  0  0  0
 18 44  1  0  0  0
 19 45  1  0  0  0
 20 46  1  0  0  0
 21 47  1  0  0  0
 21 48  1  0  0  0
 22 49  1  0  0  0
 22 50  1  0  0  0
 23 51  1  0  0  0
 23 52  1  0  0  0
 24 53  1  0  0  0
 24 54  1  0  0  0
 25 55  1  0  0  0
 25 56  1  0  0  0
 26 57  1  0  0  0
 26 58  1  0  0  0
 27 59  1  0  0  0
 27 60  1  0  0  0
 28 61  1  0  0  0
 28 62  1  0  0  0
 29 63  1  0  0  0
 29 64  1  0  0  0
 30 65  1  0  0  0
 30 66  1  0  0  0
 31 67  1  0  0  0
 31 68  1  0  0  0
 31 69  1  0  0  0
 32 70  1  0  0  0
 32 71  1  0  0  0
 32 72  1  0  0  0
 33 73  1  0  0  0
 33 74  1  0  0  0
 34 75  1  0  0  0
 34 76  1  0  0  0
 34 77  1  0  0  0
M  END
$$$$
