5knv_ligand
  -I-interpret- 

 50 51  0  0  0  0  0  0  0  0999 V2000
  -36.6220   45.4320  -40.4600 C   0  0  0  0  0
  -37.5570   45.7780  -39.4900 C   0  0  0  0  0
  -37.1850   46.5610  -38.4280 C   0  0  0  0  0
  -38.4960   44.5060  -41.0630 C   0  0  0  0  0
  -35.8910   47.0030  -38.3240 N   0  0  0  0  0
  -35.3630   45.8490  -40.3790 N   0  0  0  0  0
  -31.4340   43.8680  -46.6420 O   0  0  0  0  0
  -31.3410   44.8480  -45.4900 P   0  0  0  0  0
  -30.9970   46.2440  -46.0290 O   0  0  0  0  0
  -30.2400   44.3920  -44.5200 O   0  0  0  0  0
  -32.9860   44.9150  -44.5860 C   0  0  0  0  0
  -33.1860   43.6340  -43.7660 C   0  0  0  0  0
  -33.9700   42.5800  -44.5990 C   0  0  0  0  0
  -34.7210   41.5930  -43.6240 C   0  0  0  0  0
  -36.1260   41.9880  -43.5210 N   0  0  0  0  0
  -36.9350   40.8390  -43.6150 C   0  0  0  0  0
  -37.8940   40.9690  -44.8200 C   0  0  0  0  0
  -38.5670   39.2970  -45.2370 P   0  0  0  0  0
  -37.4920   38.2750  -45.0480 O   0  0  0  0  0
  -39.7230   38.9430  -44.3390 O   0  0  0  0  0
  -39.0310   39.2880  -46.6800 O   0  0  0  0  0
  -36.3630   42.6390  -42.2600 C   0  0  0  0  0
  -36.6230   44.1490  -42.4790 C   0  0  0  0  0
  -37.2530   44.7050  -41.3180 N   0  0  0  0  0
  -34.9400   46.6490  -39.3170 C   0  0  0  0  0
  -38.1650   46.9240  -37.4110 O   0  0  0  0  0
  -38.7700   45.1730  -39.8890 N   0  0  0  0  0
  -39.1977   43.9228  -41.6594 H   0  0  0  0  0
  -35.6121   47.5853  -37.5343 H   0  0  0  0  0
  -30.9387   46.8628  -45.2974 H   0  0  0  0  0
  -30.1809   45.0128  -43.7901 H   0  0  0  0  0
  -33.7922   45.0044  -45.3141 H   0  0  0  0  0
  -32.9924   45.7746  -43.9159 H   0  0  0  0  0
  -33.7533   43.8713  -42.8661 H   0  0  0  0  0
  -32.2114   43.2251  -43.4996 H   0  0  0  0  0
  -33.2739   42.0171  -45.2209 H   0  0  0  0  0
  -34.6966   43.0862  -45.2345 H   0  0  0  0  0
  -34.2582   41.6329  -42.6379 H   0  0  0  0  0
  -34.6559   40.5769  -44.0132 H   0  0  0  0  0
  -37.5186   40.7341  -42.7004 H   0  0  0  0  0
  -36.3012   39.9630  -43.7525 H   0  0  0  0  0
  -37.3548   41.3725  -45.6771 H   0  0  0  0  0
  -38.7130   41.6423  -44.5671 H   0  0  0  0  0
  -40.4225   39.5912  -44.4492 H   0  0  0  0  0
  -39.7209   39.9452  -46.7972 H   0  0  0  0  0
  -35.4859   42.5163  -41.6246 H   0  0  0  0  0
  -37.2365   42.1915  -41.7859 H   0  0  0  0  0
  -37.2755   44.2815  -43.3421 H   0  0  0  0  0
  -35.6745   44.6570  -42.6532 H   0  0  0  0  0
  -33.9077   46.9928  -39.2515 H   0  0  0  0  0
  1  2  4  0  0  0
  1  6  1  0  0  0
 24  1  4  0  0  0
  2  3  1  0  0  0
 27  2  4  0  0  0
  3  5  1  0  0  0
  3 26  2  0  0  0
 24  4  4  0  0  0
  4 27  4  0  0  0
 25  5  1  0  0  0
  6 25  2  0  0  0
  8  7  2  0  0  0
  8  9  1  0  0  0
  8 10  1  0  0  0
 11  8  1  0  0  0
 12 11  1  0  0  0
 13 12  1  0  0  0
 14 13  1  0  0  0
 15 14  1  0  0  0
 15 16  1  0  0  0
 22 15  1  0  0  0
 16 17  1  0  0  0
 17 18  1  0  0  0
 18 19  2  0  0  0
 18 20  1  0  0  0
 18 21  1  0  0  0
 23 22  1  0  0  0
 23 24  1  0  0  0
  4 28  1  0  0  0
  5 29  1  0  0  0
  9 30  1  0  0  0
 10 31  1  0  0  0
 11 32  1  0  0  0
 11 33  1  0  0  0
 12 34  1  0  0  0
 12 35  1  0  0  0
 13 36  1  0  0  0
 13 37  1  0  0  0
 14 38  1  0  0  0
 14 39  1  0  0  0
 16 40  1  0  0  0
 16 41  1  0  0  0
 17 42  1  0  0  0
 17 43  1  0  0  0
 20 44  1  0  0  0
 21 45  1  0  0  0
 22 46  1  0  0  0
 22 47  1  0  0  0
 23 48  1  0  0  0
 23 49  1  0  0  0
 25 50  1  0  0  0
M  END
$$$$
