### 
### Created by X-TOOL on Mon Sep 10 21:13:32 2018
### 

@<TRIPOS>MOLECULE
5knv_ligand
   46    47     1     0     0
SMALL
GAST_HUCK


@<TRIPOS>ATOM
      1 C4        -36.6220   45.4320  -40.4600 C.2       1 6W9         0.1334
      2 C5        -37.5570   45.7780  -39.4900 C.2       1 6W9         0.1043
      3 C6        -37.1850   46.5610  -38.4280 C.2       1 6W9         0.2200
      4 C8        -38.4960   44.5060  -41.0630 C.2       1 6W9         0.0980
      5 N1        -35.8910   47.0030  -38.3240 N.am      1 6W9        -0.2042
      6 N3        -35.3630   45.8490  -40.3790 N.2       1 6W9        -0.2684
      7 OAD       -31.4340   43.8680  -46.6420 O.co2     1 6W9        -0.5623
      8 PAZ       -31.3410   44.8480  -45.4900 P.3       1 6W9         0.0579
      9 OAE       -30.9970   46.2440  -46.0290 O.co2     1 6W9        -0.5623
     10 OAB       -30.2400   44.3920  -44.5200 O.co2     1 6W9        -0.5623
     11 CAP       -32.9860   44.9150  -44.5860 C.3       1 6W9         0.0196
     12 CAK       -33.1860   43.6340  -43.7660 C.3       1 6W9        -0.0369
     13 CAJ       -33.9700   42.5800  -44.5990 C.3       1 6W9        -0.0389
     14 CAL       -34.7210   41.5930  -43.6240 C.3       1 6W9        -0.0009
     15 NAX       -36.1260   41.9880  -43.5210 N.3       1 6W9        -0.2983
     16 CAN       -36.9350   40.8390  -43.6150 C.3       1 6W9         0.0139
     17 CAQ       -37.8940   40.9690  -44.8200 C.3       1 6W9         0.0323
     18 PBA       -38.5670   39.2970  -45.2370 P.3       1 6W9         0.0591
     19 OAF       -37.4920   38.2750  -45.0480 O.co2     1 6W9        -0.5622
     20 OAG       -39.7230   38.9430  -44.3390 O.co2     1 6W9        -0.5622
     21 OAC       -39.0310   39.2880  -46.6800 O.co2     1 6W9        -0.5622
     22 CAM       -36.3630   42.6390  -42.2600 C.3       1 6W9         0.0268
     23 CAO       -36.6230   44.1490  -42.4790 C.3       1 6W9         0.0722
     24 N9        -37.2530   44.7050  -41.3180 N.pl3     1 6W9        -0.2326
     25 C2        -34.9400   46.6490  -39.3170 C.2       1 6W9         0.1273
     26 O6        -38.1650   46.9240  -37.4110 O.2       1 6W9        -0.4066
     27 N7        -38.7700   45.1730  -39.8890 N.2       1 6W9        -0.3156
     28 H1        -39.1970   43.9234  -41.6589 H         1 6W9         0.1212
     29 H2        -35.6176   47.5739  -37.5498 H         1 6W9         0.2557
     30 H3        -33.8009   45.0094  -45.3188 H         1 6W9         0.0451
     31 H4        -32.9963   45.7843  -43.9121 H         1 6W9         0.0451
     32 H5        -33.7532   43.8712  -42.8539 H         1 6W9         0.0279
     33 H6        -32.2041   43.2219  -43.4904 H         1 6W9         0.0279
     34 H7        -33.2674   42.0119  -45.2263 H         1 6W9         0.0278
     35 H8        -34.7034   43.0909  -45.2401 H         1 6W9         0.0278
     36 H9        -34.2542   41.6341  -42.6288 H         1 6W9         0.0427
     37 H10       -34.6558   40.5679  -44.0175 H         1 6W9         0.0427
     38 H11       -37.5224   40.7297  -42.6914 H         1 6W9         0.0440
     39 H12       -36.2967   39.9534  -43.7506 H         1 6W9         0.0440
     40 H13       -37.3470   41.3726  -45.6848 H         1 6W9         0.0464
     41 H14       -38.7217   41.6457  -44.5613 H         1 6W9         0.0464
     42 H15       -35.4817   42.5120  -41.6141 H         1 6W9         0.0454
     43 H16       -37.2407   42.1856  -41.7762 H         1 6W9         0.0454
     44 H17       -37.2797   44.2841  -43.3511 H         1 6W9         0.0631
     45 H18       -35.6666   44.6625  -42.6570 H         1 6W9         0.0631
     46 H19       -33.9087   46.9925  -39.2516 H         1 6W9         0.1493
@<TRIPOS>BOND
     1    1    2 2  
     2    1    6 1  
     3   24    1 1  
     4    2    3 1  
     5   27    2 1  
     6    3    5 am 
     7    3   26 2  
     8   24    4 1  
     9    4   27 2  
    10   25    5 am 
    11    6   25 2  
    12    8    7 ar 
    13    8    9 ar 
    14    8   10 ar 
    15   11    8 1  
    16   12   11 1  
    17   13   12 1  
    18   14   13 1  
    19   15   14 1  
    20   15   16 1  
    21   22   15 1  
    22   16   17 1  
    23   17   18 1  
    24   18   19 ar 
    25   18   20 ar 
    26   18   21 ar 
    27   23   22 1  
    28   23   24 1  
    29    4   28 1  
    30    5   29 1  
    31   11   30 1  
    32   11   31 1  
    33   12   32 1  
    34   12   33 1  
    35   13   34 1  
    36   13   35 1  
    37   14   36 1  
    38   14   37 1  
    39   16   38 1  
    40   16   39 1  
    41   17   40 1  
    42   17   41 1  
    43   22   42 1  
    44   22   43 1  
    45   23   44 1  
    46   23   45 1  
    47   25   46 1  
@<TRIPOS>SUBSTRUCTURE
     1 6W9         1

