4cwq_ligand
  -I-interpret- 

 42 46  0  0  0  0  0  0  0  0999 V2000
    3.2100   12.7990   24.3950 C   0  0  0  0  0
    4.0320   13.8010   24.7710 C   0  0  0  0  0
    3.6810   15.0490   25.2080 O   0  0  0  0  0
    4.9410   15.7700   25.4060 C   0  0  0  0  0
    5.9750   14.8150   25.1710 O   0  0  0  0  0
    5.3590   13.6530   24.7520 C   0  0  0  0  0
    5.9160   12.4830   24.3510 C   0  0  0  0  0
    5.1140   11.3920   23.9580 C   0  0  0  0  0
    3.7180   11.5680   23.9820 C   0  0  0  0  0
    2.8170   10.5390   23.5940 C   0  0  0  0  0
    1.9770   10.1190   24.6590 C   0  0  0  0  0
    2.4850    9.3240   25.6170 N   0  0  0  0  0
    1.7160    8.9080   26.6650 C   0  0  0  0  0
    2.2530    8.0840   27.6520 C   0  0  0  0  0
    1.4770    7.6410   28.7190 C   0  0  0  0  0
    2.1320    6.5920   29.9720 S   0  0  0  0  0
    3.5990    6.3480   29.7390 O   0  0  0  0  0
    1.3980    5.2580   29.9260 O   0  0  0  0  0
    1.7890    7.2960   31.5360 N   0  0  0  0  0
    0.1470    8.0230   28.8060 C   0  0  0  0  0
   -0.4040    8.8500   27.8250 C   0  0  0  0  0
    0.3770    9.3050   26.7480 C   0  0  0  0  0
   -0.1250   10.0980   25.7810 C   0  0  0  0  0
   -1.3400   10.6330   25.5820 N   0  0  0  0  0
    0.6820   10.4950   24.7740 N   0  0  0  0  0
    0.0110   11.2530   23.9810 N   0  0  0  0  0
   -1.2440   11.3270   24.4530 C   0  0  0  0  0
   -2.2410   12.0200   23.8760 N   0  0  0  0  0
    2.1313   12.9546   24.4145 H   0  0  0  0  0
    5.0063   16.1866   26.4111 H   0  0  0  0  0
    5.0233   16.6192   24.7277 H   0  0  0  0  0
    7.0014   12.3846   24.3323 H   0  0  0  0  0
    5.5590   10.4468   23.6470 H   0  0  0  0  0
    3.4065    9.6802   23.2729 H   0  0  0  0  0
    2.1815   10.9312   22.8000 H   0  0  0  0  0
    3.2981    7.7814   27.5874 H   0  0  0  0  0
    2.5515    7.4982   32.1826 H   0  0  0  0  0
    0.8264    7.5044   31.8015 H   0  0  0  0  0
   -0.4670    7.6786   29.6382 H   0  0  0  0  0
   -1.4507    9.1460   27.8949 H   0  0  0  0  0
   -3.1645   12.0409   24.3086 H   0  0  0  0  0
   -2.0740   12.5249   23.0056 H   0  0  0  0  0
  1  2  4  0  0  0
  1  9  4  0  0  0
  2  3  1  0  0  0
  2  6  4  0  0  0
  3  4  1  0  0  0
  4  5  1  0  0  0
  5  6  1  0  0  0
  6  7  4  0  0  0
  7  8  4  0  0  0
  8  9  4  0  0  0
  9 10  1  0  0  0
 10 11  1  0  0  0
 11 12  4  0  0  0
 11 25  4  0  0  0
 12 13  4  0  0  0
 13 14  4  0  0  0
 13 22  4  0  0  0
 14 15  4  0  0  0
 15 16  1  0  0  0
 15 20  4  0  0  0
 16 17  2  0  0  0
 16 18  2  0  0  0
 16 19  1  0  0  0
 20 21  4  0  0  0
 21 22  4  0  0  0
 22 23  4  0  0  0
 23 24  4  0  0  0
 23 25  4  0  0  0
 24 27  4  0  0  0
 25 26  4  0  0  0
 26 27  4  0  0  0
 27 28  1  0  0  0
  1 29  1  0  0  0
  4 30  1  0  0  0
  4 31  1  0  0  0
  7 32  1  0  0  0
  8 33  1  0  0  0
 10 34  1  0  0  0
 10 35  1  0  0  0
 14 36  1  0  0  0
 19 37  1  0  0  0
 19 38  1  0  0  0
 20 39  1  0  0  0
 21 40  1  0  0  0
 28 41  1  0  0  0
 28 42  1  0  0  0
M  END
$$$$
