3ccn_ligand
  -I-interpret- 

 37 40  0  0  0  0  0  0  0  0999 V2000
   19.8940   14.0380   56.7370 N   0  0  0  0  0
   20.8490   15.9900   56.4400 N   0  0  0  0  0
   17.3070   12.5760   58.6220 C   0  0  0  0  0
   17.6150   11.2230   58.4810 C   0  0  0  0  0
   16.7470   10.2460   58.9650 C   0  0  0  0  0
   18.1810   13.5470   58.1280 C   0  0  0  0  0
   18.0960   14.8680   58.5830 C   0  0  0  0  0
   19.8850   15.3840   57.1250 C   0  0  0  0  0
   22.0550   11.7230   55.9930 C   0  0  0  0  0
   24.0510   11.0370   57.1590 C   0  0  0  0  0
   22.0290    9.7090   57.3190 C   0  0  0  0  0
   23.3950   11.9410   56.3180 C   0  0  0  0  0
   23.3660    9.9290   57.6550 C   0  0  0  0  0
   24.0000    9.0420   58.4670 O   0  0  0  0  0
   21.3730   10.6120   56.4840 C   0  0  0  0  0
   21.3200   12.6980   55.0700 C   0  0  0  0  0
   20.9240   13.9780   55.8110 C   0  0  0  0  0
   19.1050   13.2070   57.2030 N   0  0  0  0  0
   21.4420   15.1960   55.6920 N   0  0  0  0  0
   18.9680   15.8210   58.0750 C   0  0  0  0  0
   16.1160   12.9460   59.2540 C   0  0  0  0  0
   15.2430   11.9730   59.7380 C   0  0  0  0  0
   15.5580   10.6250   59.5960 C   0  0  0  0  0
   18.5415   10.9276   57.9886 H   0  0  0  0  0
   16.9940    9.1904   58.8521 H   0  0  0  0  0
   17.3518   15.1458   59.3294 H   0  0  0  0  0
   25.0954   11.1983   57.4261 H   0  0  0  0  0
   21.5018    8.8373   57.7068 H   0  0  0  0  0
   23.9243   12.8069   55.9203 H   0  0  0  0  0
   23.3891    8.3446   58.7161 H   0  0  0  0  0
   20.3291   10.4492   56.2159 H   0  0  0  0  0
   20.4135   12.2140   54.7065 H   0  0  0  0  0
   21.9850   12.9651   54.2487 H   0  0  0  0  0
   18.9357   16.8596   58.4041 H   0  0  0  0  0
   15.8687   14.0013   59.3689 H   0  0  0  0  0
   14.3146   12.2677   60.2272 H   0  0  0  0  0
   14.8772    9.8638   59.9770 H   0  0  0  0  0
  1  8  4  0  0  0
 17  1  4  0  0  0
  1 18  4  0  0  0
  8  2  4  0  0  0
  2 19  4  0  0  0
  3  4  4  0  0  0
  6  3  1  0  0  0
  3 21  4  0  0  0
  4  5  4  0  0  0
  5 23  4  0  0  0
  6  7  4  0  0  0
 18  6  4  0  0  0
 20  7  4  0  0  0
  8 20  4  0  0  0
  9 12  4  0  0  0
  9 15  4  0  0  0
 16  9  1  0  0  0
 12 10  4  0  0  0
 10 13  4  0  0  0
 11 13  4  0  0  0
 15 11  4  0  0  0
 13 14  1  0  0  0
 16 17  1  0  0  0
 17 19  4  0  0  0
 21 22  4  0  0  0
 22 23  4  0  0  0
  4 24  1  0  0  0
  5 25  1  0  0  0
  7 26  1  0  0  0
 10 27  1  0  0  0
 11 28  1  0  0  0
 12 29  1  0  0  0
 14 30  1  0  0  0
 15 31  1  0  0  0
 16 32  1  0  0  0
 16 33  1  0  0  0
 20 34  1  0  0  0
 21 35  1  0  0  0
 22 36  1  0  0  0
 23 37  1  0  0  0
M  END
$$$$
