1f1j_ligand
  -I-interpret- 

 67 66  0  0  0  0  0  0  0  0999 V2000
   29.7510   29.8600   -0.6500 C   0  0  0  0  0
   28.5520   30.1000   -0.8120 O   0  0  0  0  0
   30.8010   30.1830   -1.6750 C   0  0  0  0  0
   30.2520   29.3080    0.4270 N   0  0  0  0  0
   31.5580   28.6890    0.3630 C   0  0  0  0  0
   31.6650   27.5780   -0.6680 C   0  0  0  0  0
   30.7600   26.7830   -0.9370 O   0  0  0  0  0
   32.0620   28.3420    1.7560 C   0  0  0  0  0
   32.1440   29.5950    2.6020 C   0  0  0  0  0
   32.3050   30.7050    2.0530 O   0  0  0  0  0
   32.0490   29.4840    3.8390 O   0  0  0  0  0
   32.8300   27.5370   -1.2740 N   0  0  0  0  0
   33.1430   26.5350   -2.2780 C   0  0  0  0  0
   34.2820   25.6360   -1.6960 C   0  0  0  0  0
   35.0960   26.0720   -0.8840 O   0  0  0  0  0
   33.6810   27.3120   -3.4770 C   0  0  0  0  0
   33.0570   27.1020   -4.8490 C   0  0  0  0  0
   32.7410   28.4830   -5.4060 C   0  0  0  0  0
   33.6530   29.1470   -5.9490 O   0  0  0  0  0
   31.5750   28.9170   -5.2670 O   0  0  0  0  0
   34.3950   24.3700   -2.0530 N   0  0  0  0  0
   35.6260   23.6440   -1.6850 C   0  0  0  0  0
   36.6550   23.3970   -2.8980 C   0  0  0  0  0
   36.2320   23.4330   -4.0490 O   0  0  0  0  0
   35.1880   22.3330   -1.0180 C   0  0  0  0  0
   34.0570   22.4640   -0.0080 C   0  0  0  0  0
   34.8010   21.2730   -2.0310 C   0  0  0  0  0
   37.9550   23.1170   -2.6710 N   0  0  0  0  0
   38.9890   22.9510   -3.7080 C   0  0  0  0  0
   39.2120   21.4880   -3.9690 C   0  0  0  0  0
   40.2750   21.1000   -4.8400 O   0  0  0  0  0
   40.3560   23.6120   -3.4290 C   0  0  0  0  0
   40.2260   25.0930   -3.7120 C   0  0  0  0  0
   41.0410   25.8780   -3.1940 O   0  0  0  0  0
   39.3020   25.4820   -4.4580 O   0  0  0  0  0
   30.5808   29.6493   -2.5995 H   0  0  0  0  0
   30.8032   31.2563   -1.8652 H   0  0  0  0  0
   31.7781   29.8770   -1.3012 H   0  0  0  0  0
   29.7270   29.3145    1.3015 H   0  0  0  0  0
   32.2558   29.4290   -0.0287 H   0  0  0  0  0
   33.0532   27.8953    1.6785 H   0  0  0  0  0
   31.3728   27.6380    2.2224 H   0  0  0  0  0
   32.3552   30.5860    1.1017 H   0  0  0  0  0
   33.5372   28.2309   -1.0317 H   0  0  0  0  0
   32.2873   25.9183   -2.5529 H   0  0  0  0  0
   34.7107   26.9719   -3.5870 H   0  0  0  0  0
   33.4823   28.3573   -3.2404 H   0  0  0  0  0
   32.1524   26.4984   -4.7745 H   0  0  0  0  0
   33.7409   26.5663   -5.5074 H   0  0  0  0  0
   34.4632   28.6320   -5.9532 H   0  0  0  0  0
   33.6494   23.9048   -2.5707 H   0  0  0  0  0
   36.2043   24.2649   -1.0008 H   0  0  0  0  0
   36.0799   22.0312   -0.4688 H   0  0  0  0  0
   34.3648   23.1332    0.7955 H   0  0  0  0  0
   33.1748   22.8701   -0.5029 H   0  0  0  0  0
   33.8242   21.4822    0.4042 H   0  0  0  0  0
   33.9718   21.6373   -2.6374 H   0  0  0  0  0
   35.6549   21.0569   -2.6731 H   0  0  0  0  0
   34.4991   20.3655   -1.5081 H   0  0  0  0  0
   38.2470   23.0112   -1.6994 H   0  0  0  0  0
   38.5848   23.4775   -4.5726 H   0  0  0  0  0
   38.3024   21.1470   -4.4634 H   0  0  0  0  0
   39.4720   21.0640   -2.9991 H   0  0  0  0  0
   40.2959   20.1429   -4.9109 H   0  0  0  0  0
   41.1236   23.1729   -4.0662 H   0  0  0  0  0
   40.6472   23.4512   -2.3910 H   0  0  0  0  0
   38.7891   24.7254   -4.7514 H   0  0  0  0  0
  1  2  2  0  0  0
  1  3  1  0  0  0
  1  4  1  0  0  0
  4  5  1  0  0  0
  5  6  1  0  0  0
  5  8  1  0  0  0
  6  7  2  0  0  0
  6 12  1  0  0  0
  8  9  1  0  0  0
  9 10  1  0  0  0
  9 11  2  0  0  0
 12 13  1  0  0  0
 13 14  1  0  0  0
 13 16  1  0  0  0
 14 15  2  0  0  0
 14 21  1  0  0  0
 16 17  1  0  0  0
 17 18  1  0  0  0
 18 19  1  0  0  0
 18 20  2  0  0  0
 21 22  1  0  0  0
 22 23  1  0  0  0
 22 25  1  0  0  0
 23 24  2  0  0  0
 23 28  1  0  0  0
 25 26  1  0  0  0
 25 27  1  0  0  0
 28 29  1  0  0  0
 29 30  1  0  0  0
 29 32  1  0  0  0
 30 31  1  0  0  0
 32 33  1  0  0  0
 33 34  2  0  0  0
 33 35  1  0  0  0
  3 36  1  0  0  0
  3 37  1  0  0  0
  3 38  1  0  0  0
  4 39  1  0  0  0
  5 40  1  0  0  0
  8 41  1  0  0  0
  8 42  1  0  0  0
 10 43  1  0  0  0
 12 44  1  0  0  0
 13 45  1  0  0  0
 16 46  1  0  0  0
 16 47  1  0  0  0
 17 48  1  0  0  0
 17 49  1  0  0  0
 19 50  1  0  0  0
 21 51  1  0  0  0
 22 52  1  0  0  0
 25 53  1  0  0  0
 26 54  1  0  0  0
 26 55  1  0  0  0
 26 56  1  0  0  0
 27 57  1  0  0  0
 27 58  1  0  0  0
 27 59  1  0  0  0
 28 60  1  0  0  0
 29 61  1  0  0  0
 30 62  1  0  0  0
 30 63  1  0  0  0
 31 64  1  0  0  0
 32 65  1  0  0  0
 32 66  1  0  0  0
 35 67  1  0  0  0
M  END
$$$$
