6gx3_ligand
  -I-interpret- 

 20 21  0  0  0  0  0  0  0  0999 V2000
   47.8260   32.4480   86.9980 O   0  0  0  0  0
   47.1160   32.2570   86.0610 C   0  0  0  0  0
   47.1830   31.0240   85.2940 N   0  0  0  0  0
   48.0530   29.9680   85.5780 O   0  0  0  0  0
   46.1000   33.2920   85.5690 C   0  0  0  0  0
   45.4370   34.3000   86.2530 C   0  0  0  0  0
   44.5460   35.0770   85.4550 C   0  0  0  0  0
   43.7620   36.1580   85.9360 C   0  0  0  0  0
   43.8620   36.6220   87.6590 Cl  0  0  0  0  0
   42.9320   36.8500   85.0720 C   0  0  0  0  0
   42.8530   36.4890   83.7280 C   0  0  0  0  0
   43.6230   35.4260   83.2490 C   0  0  0  0  0
   44.4650   34.7290   84.1250 C   0  0  0  0  0
   45.5470   33.3800   83.9260 S   0  0  0  0  0
   46.5544   30.9231   84.4971 H   0  0  0  0  0
   47.9185   29.2636   84.9398 H   0  0  0  0  0
   45.5852   34.4840   87.3171 H   0  0  0  0  0
   42.3359   37.6830   85.4448 H   0  0  0  0  0
   42.1929   37.0340   83.0531 H   0  0  0  0  0
   43.5687   35.1404   82.1985 H   0  0  0  0  0
  1  2  2  0  0  0
  2  3  1  0  0  0
  2  5  1  0  0  0
  3  4  1  0  0  0
  5  6  4  0  0  0
  5 14  4  0  0  0
  6  7  4  0  0  0
  7  8  4  0  0  0
  7 13  4  0  0  0
  8  9  1  0  0  0
  8 10  4  0  0  0
 10 11  4  0  0  0
 11 12  4  0  0  0
 12 13  4  0  0  0
 13 14  4  0  0  0
  3 15  1  0  0  0
  4 16  1  0  0  0
  6 17  1  0  0  0
 10 18  1  0  0  0
 11 19  1  0  0  0
 12 20  1  0  0  0
M  END
$$$$
