1oiu_ligand
  -I-interpret- 

 49 52  0  0  0  0  0  0  0  0999 V2000
    7.9160   43.6120   49.8510 C   0  0  0  0  0
   10.5520   46.4410   52.0420 C   0  0  0  0  0
    4.8670   45.3510   51.9070 C   0  0  0  0  0
    4.0240   45.8620   53.0570 C   0  0  0  0  0
    2.5620   45.5450   52.7500 C   0  0  0  0  0
    1.6820   46.0090   53.9120 C   0  0  0  0  0
    2.1170   45.3790   55.2320 C   0  0  0  0  0
    3.6010   45.6060   55.5280 C   0  0  0  0  0
    4.4730   45.1740   54.3530 C   0  0  0  0  0
    3.9800   40.7090   48.5370 C   0  0  0  0  0
    4.8080   40.9170   47.4370 C   0  0  0  0  0
    7.6260   42.6110   48.9930 N   0  0  0  0  0
    6.0320   41.5580   47.6210 C   0  0  0  0  0
    6.4230   41.9980   48.8840 C   0  0  0  0  0
    4.0430   38.8600   46.0080 N   0  0  0  0  0
    6.9350   44.2280   50.5510 N   0  0  0  0  0
    7.1960   45.2310   51.4250 C   0  0  0  0  0
    6.1920   45.8270   52.1090 O   0  0  0  0  0
    8.5840   45.6720   51.6220 C   0  0  0  0  0
    9.2230   46.6190   52.3980 N   0  0  0  0  0
   10.8110   45.4370   51.1020 N   0  0  0  0  0
    9.5550   44.9660   50.8410 C   0  0  0  0  0
    9.2100   43.9690   49.9980 N   0  0  0  0  0
    5.5980   41.7740   49.9860 C   0  0  0  0  0
    4.3750   41.1310   49.8100 C   0  0  0  0  0
    4.3510   40.4270   45.9660 S   0  0  0  0  0
    5.3810   40.6740   45.0070 O   0  0  0  0  0
    3.1650   41.1500   45.6150 O   0  0  0  0  0
   11.3492   47.0486   52.4701 H   0  0  0  0  0
    4.4730   45.7080   50.9555 H   0  0  0  0  0
    4.8522   44.2615   51.8762 H   0  0  0  0  0
    4.1412   46.9384   53.1823 H   0  0  0  0  0
    2.4452   44.4699   52.6138 H   0  0  0  0  0
    2.2624   46.0632   51.8391 H   0  0  0  0  0
    0.6547   45.7070   53.7081 H   0  0  0  0  0
    1.7715   47.0917   54.0010 H   0  0  0  0  0
    1.9480   44.3043   55.1638 H   0  0  0  0  0
    1.5396   45.8419   56.0322 H   0  0  0  0  0
    3.8755   45.0129   56.4003 H   0  0  0  0  0
    3.7606   46.6695   55.7060 H   0  0  0  0  0
    5.5054   45.4555   54.5602 H   0  0  0  0  0
    4.3825   44.0951   54.2270 H   0  0  0  0  0
    3.0179   40.2141   48.4048 H   0  0  0  0  0
    8.3731   42.2903   48.3770 H   0  0  0  0  0
    6.6908   41.7169   46.7672 H   0  0  0  0  0
    4.5595   38.2223   45.4022 H   0  0  0  0  0
    3.3298   38.4972   46.6406 H   0  0  0  0  0
    5.9083   42.1001   50.9787 H   0  0  0  0  0
    3.7243   40.9564   50.6669 H   0  0  0  0  0
  1 12  1  0  0  0
 16  1  4  0  0  0
  1 23  4  0  0  0
 20  2  4  0  0  0
  2 21  4  0  0  0
  3  4  1  0  0  0
 18  3  1  0  0  0
  4  5  1  0  0  0
  4  9  1  0  0  0
  5  6  1  0  0  0
  6  7  1  0  0  0
  8  7  1  0  0  0
  9  8  1  0  0  0
 11 10  4  0  0  0
 10 25  4  0  0  0
 13 11  4  0  0  0
 11 26  1  0  0  0
 12 14  1  0  0  0
 14 13  4  0  0  0
 14 24  4  0  0  0
 26 15  1  0  0  0
 17 16  4  0  0  0
 17 18  1  0  0  0
 19 17  4  0  0  0
 19 20  4  0  0  0
 19 22  4  0  0  0
 21 22  4  0  0  0
 22 23  4  0  0  0
 24 25  4  0  0  0
 26 27  2  0  0  0
 26 28  2  0  0  0
  2 29  1  0  0  0
  3 30  1  0  0  0
  3 31  1  0  0  0
  4 32  1  0  0  0
  5 33  1  0  0  0
  5 34  1  0  0  0
  6 35  1  0  0  0
  6 36  1  0  0  0
  7 37  1  0  0  0
  7 38  1  0  0  0
  8 39  1  0  0  0
  8 40  1  0  0  0
  9 41  1  0  0  0
  9 42  1  0  0  0
 10 43  1  0  0  0
 12 44  1  0  0  0
 13 45  1  0  0  0
 15 46  1  0  0  0
 15 47  1  0  0  0
 24 48  1  0  0  0
 25 49  1  0  0  0
M  END
$$$$
