5e28_ligand
  -I-interpret- 

 29 30  0  0  0  0  0  0  0  0999 V2000
   -5.9570    0.8810   16.5850 S   0  0  0  0  0
   -5.4610   -0.4620   15.8480 N   0  0  0  0  0
   -7.3410    1.0690   16.2500 O   0  0  0  0  0
   -5.5850    0.7740   17.9680 O   0  0  0  0  0
   -5.0520    2.2350   15.8920 C   0  0  0  0  0
   -5.7160    3.4000   15.5260 C   0  0  0  0  0
   -5.0050    4.4630   14.9820 C   0  0  0  0  0
   -3.6300    4.3620   14.8040 C   0  0  0  0  0
   -2.9660    3.1970   15.1710 C   0  0  0  0  0
   -3.6770    2.1330   15.7150 C   0  0  0  0  0
   -2.8700    5.4990   14.2220 C   0  0  0  0  0
   -1.9610    5.2750   13.1940 C   0  0  0  0  0
   -1.2510    6.3380   12.6500 C   0  0  0  0  0
   -1.4480    7.6260   13.1340 C   0  0  0  0  0
   -2.3570    7.8510   14.1620 C   0  0  0  0  0
   -3.0680    6.7870   14.7060 C   0  0  0  0  0
   -0.7420    8.6820   12.5940 N   0  0  0  0  0
   -6.1106   -0.9972   15.2719 H   0  0  0  0  0
   -4.4972   -0.7775   15.9573 H   0  0  0  0  0
   -6.7941    3.4798   15.6656 H   0  0  0  0  0
   -5.5258    5.3764   14.6947 H   0  0  0  0  0
   -1.8878    3.1176   15.0323 H   0  0  0  0  0
   -3.1565    1.2195   16.0025 H   0  0  0  0  0
   -1.8054    4.2650   12.8148 H   0  0  0  0  0
   -0.5393    6.1619   11.8434 H   0  0  0  0  0
   -2.5121    8.8611   14.5412 H   0  0  0  0  0
   -3.7805    6.9629   15.5119 H   0  0  0  0  0
   -0.0755    8.5173   11.8396 H   0  0  0  0  0
   -0.8867    9.6271   12.9493 H   0  0  0  0  0
  1  2  1  0  0  0
  1  3  2  0  0  0
  1  4  2  0  0  0
  1  5  1  0  0  0
  5  6  4  0  0  0
  5 10  4  0  0  0
  6  7  4  0  0  0
  7  8  4  0  0  0
  8  9  4  0  0  0
  8 11  1  0  0  0
  9 10  4  0  0  0
 11 12  4  0  0  0
 11 16  4  0  0  0
 12 13  4  0  0  0
 13 14  4  0  0  0
 14 15  4  0  0  0
 14 17  1  0  0  0
 15 16  4  0  0  0
  2 18  1  0  0  0
  2 19  1  0  0  0
  6 20  1  0  0  0
  7 21  1  0  0  0
  9 22  1  0  0  0
 10 23  1  0  0  0
 12 24  1  0  0  0
 13 25  1  0  0  0
 15 26  1  0  0  0
 16 27  1  0  0  0
 17 28  1  0  0  0
 17 29  1  0  0  0
M  END
$$$$
