5llg_ligand
  -I-interpret- 

 27 27  0  0  0  0  0  0  0  0999 V2000
   -5.3750    0.9020   18.1090 O   0  0  0  0  0
   -5.9240    0.7870   16.8000 S   0  0  0  0  0
   -7.3640    0.8430   16.6840 O   0  0  0  0  0
   -5.4010   -0.5830   16.0810 N   0  0  0  0  0
   -5.3610    2.1980   15.9020 C   0  0  0  0  0
   -4.0210    2.2330   15.5340 C   0  0  0  0  0
   -3.5610    3.3850   14.8480 C   0  0  0  0  0
   -4.4450    4.4220   14.5210 C   0  0  0  0  0
   -5.7950    4.3700   14.8720 C   0  0  0  0  0
   -6.2630    3.2490   15.5940 C   0  0  0  0  0
   -3.9420    5.8600   13.6220 S   0  0  0  0  0
   -2.0640    5.8330   13.6550 C   0  0  0  0  0
   -1.5380    7.2170   13.2970 C   0  0  0  0  0
   -1.6540    7.9300   14.6450 C   0  0  0  0  0
   -4.7690   -1.2106   16.5781 H   0  0  0  0  0
   -5.7064   -0.8110   15.1349 H   0  0  0  0  0
   -3.3494    1.4059   15.7642 H   0  0  0  0  0
   -2.5095    3.4650   14.5722 H   0  0  0  0  0
   -6.4737    5.1768   14.5951 H   0  0  0  0  0
   -7.3045    3.1924   15.9105 H   0  0  0  0  0
   -1.6955    5.1034   12.9339 H   0  0  0  0  0
   -1.7192    5.5566   14.6514 H   0  0  0  0  0
   -2.0882    7.7035   12.4916 H   0  0  0  0  0
   -0.5287    7.2127   12.8855 H   0  0  0  0  0
   -2.6955    7.9294   14.9665 H   0  0  0  0  0
   -1.0441    7.4096   15.3835 H   0  0  0  0  0
   -1.3047    8.9574   14.5424 H   0  0  0  0  0
  1  2  2  0  0  0
  2  3  2  0  0  0
  2  4  1  0  0  0
  2  5  1  0  0  0
  5  6  4  0  0  0
  5 10  4  0  0  0
  6  7  4  0  0  0
  7  8  4  0  0  0
  8  9  4  0  0  0
  8 11  1  0  0  0
  9 10  4  0  0  0
 11 12  1  0  0  0
 12 13  1  0  0  0
 13 14  1  0  0  0
  4 15  1  0  0  0
  4 16  1  0  0  0
  6 17  1  0  0  0
  7 18  1  0  0  0
  9 19  1  0  0  0
 10 20  1  0  0  0
 12 21  1  0  0  0
 12 22  1  0  0  0
 13 23  1  0  0  0
 13 24  1  0  0  0
 14 25  1  0  0  0
 14 26  1  0  0  0
 14 27  1  0  0  0
M  END
$$$$
