### 
### Created by X-TOOL on Mon Sep 10 21:13:31 2018
### 

@<TRIPOS>MOLECULE
5ja0_ligand
   49    48     1     0     0
SMALL
GAST_HUCK


@<TRIPOS>ATOM
      1 C1          5.0990   76.5450   28.6140 C.3       1 FPP         0.0917
      2 O1          5.2910   75.0980   28.5880 O.3       1 FPP        -0.2411
      3 C2          3.6060   76.6670   28.9160 C.2       1 FPP        -0.0782
      4 C3          2.8750   77.7450   28.5810 C.2       1 FPP        -0.0804
      5 C4          3.4740   78.9710   27.9490 C.3       1 FPP        -0.0402
      6 C5          1.3960   77.7360   28.9030 C.3       1 FPP        -0.0253
      7 C6          0.5280   77.3780   27.7110 C.3       1 FPP        -0.0388
      8 C7         -0.9720   77.4100   28.0650 C.2       1 FPP        -0.1070
      9 C8         -1.9260   77.4100   27.1120 C.2       1 FPP        -0.0827
     10 C10        -1.6320   77.3420   25.6270 C.3       1 FPP        -0.0402
     11 C9         -3.3870   77.4140   27.5720 C.3       1 FPP        -0.0254
     12 C11        -4.2840   78.3500   26.7650 C.3       1 FPP        -0.0388
     13 C12        -4.0570   79.7780   27.1550 C.2       1 FPP        -0.1074
     14 C13        -4.8690   80.6100   27.8590 C.2       1 FPP        -0.0870
     15 C14        -6.2270   80.2830   28.3940 C.3       1 FPP        -0.0406
     16 C15        -4.3850   81.9950   28.1250 C.3       1 FPP        -0.0406
     17 PA          6.1250   74.2810   27.4940 P.3       1 FPP         0.3288
     18 O1A         6.0670   72.8810   28.0300 O.co2     1 FPP        -0.5555
     19 O2A         5.6470   74.5340   26.0700 O.co2     1 FPP        -0.5555
     20 O3A         7.5810   74.8210   27.9570 O.3       1 FPP        -0.1547
     21 PB          8.9540   74.4730   27.2010 P.3       1 FPP         0.2070
     22 O1B         8.8470   75.2250   25.8700 O.co2     1 FPP        -0.5891
     23 O2B         8.9380   72.9930   27.0730 O.co2     1 FPP        -0.5891
     24 O3B         9.9520   75.2000   27.9910 O.co2     1 FPP        -0.5891
     25 H1          5.3478   76.9979   27.6429 H         1 FPP         0.0696
     26 H2          5.7051   77.0137   29.4033 H         1 FPP         0.0696
     27 H3          3.1107   75.8423   29.4264 H         1 FPP         0.0268
     28 H4          2.6832   79.7140   27.7685 H         1 FPP         0.0375
     29 H5          3.9455   78.6978   26.9935 H         1 FPP         0.0375
     30 H6          4.2314   79.3981   28.6228 H         1 FPP         0.0375
     31 H7          1.1089   78.7372   29.2566 H         1 FPP         0.0425
     32 H8          1.2160   76.9999   29.7003 H         1 FPP         0.0425
     33 H9          0.7917   76.3661   27.3696 H         1 FPP         0.0361
     34 H10         0.7184   78.0991   26.9025 H         1 FPP         0.0361
     35 H11        -1.2691   77.4332   29.1124 H         1 FPP         0.0244
     36 H12        -2.5775   77.3566   25.0650 H         1 FPP         0.0375
     37 H13        -1.0868   76.4132   25.4033 H         1 FPP         0.0375
     38 H14        -1.0183   78.2069   25.3347 H         1 FPP         0.0375
     39 H15        -3.4180   77.7271   28.6260 H         1 FPP         0.0425
     40 H16        -3.7821   76.3914   27.4814 H         1 FPP         0.0425
     41 H17        -5.3363   78.0891   26.9510 H         1 FPP         0.0361
     42 H18        -4.0599   78.2293   25.6949 H         1 FPP         0.0361
     43 H19        -3.1113   80.2090   26.8298 H         1 FPP         0.0244
     44 H20        -6.6350   81.1593   28.9190 H         1 FPP         0.0375
     45 H21        -6.1515   79.4382   29.0945 H         1 FPP         0.0375
     46 H22        -6.8932   80.0111   27.5620 H         1 FPP         0.0375
     47 H23        -3.3830   82.1232   27.6895 H         1 FPP         0.0375
     48 H24        -4.3373   82.1646   29.2108 H         1 FPP         0.0375
     49 H25        -5.0775   82.7190   27.6708 H         1 FPP         0.0375
@<TRIPOS>BOND
     1    1    2 1  
     2    1    3 1  
     3    2   17 1  
     4    3    4 2  
     5    4    5 1  
     6    4    6 1  
     7    6    7 1  
     8    7    8 1  
     9    8    9 2  
    10    9   10 1  
    11    9   11 1  
    12   11   12 1  
    13   12   13 1  
    14   13   14 2  
    15   14   15 1  
    16   14   16 1  
    17   17   18 ar 
    18   17   19 ar 
    19   17   20 1  
    20   20   21 1  
    21   21   22 ar 
    22   21   23 ar 
    23   21   24 ar 
    24    1   25 1  
    25    1   26 1  
    26    3   27 1  
    27    5   28 1  
    28    5   29 1  
    29    5   30 1  
    30    6   31 1  
    31    6   32 1  
    32    7   33 1  
    33    7   34 1  
    34    8   35 1  
    35   10   36 1  
    36   10   37 1  
    37   10   38 1  
    38   11   39 1  
    39   11   40 1  
    40   12   41 1  
    41   12   42 1  
    42   13   43 1  
    43   15   44 1  
    44   15   45 1  
    45   15   46 1  
    46   16   47 1  
    47   16   48 1  
    48   16   49 1  
@<TRIPOS>SUBSTRUCTURE
     1 FPP         1

