5ja0_ligand
  -I-interpret- 

 52 51  0  0  0  0  0  0  0  0999 V2000
    5.0990   76.5450   28.6140 C   0  0  0  0  0
    5.2910   75.0980   28.5880 O   0  0  0  0  0
    3.6060   76.6670   28.9160 C   0  0  0  0  0
    2.8750   77.7450   28.5810 C   0  0  0  0  0
    3.4740   78.9710   27.9490 C   0  0  0  0  0
    1.3960   77.7360   28.9030 C   0  0  0  0  0
    0.5280   77.3780   27.7110 C   0  0  0  0  0
   -0.9720   77.4100   28.0650 C   0  0  0  0  0
   -1.9260   77.4100   27.1120 C   0  0  0  0  0
   -1.6320   77.3420   25.6270 C   0  0  0  0  0
   -3.3870   77.4140   27.5720 C   0  0  0  0  0
   -4.2840   78.3500   26.7650 C   0  0  0  0  0
   -4.0570   79.7780   27.1550 C   0  0  0  0  0
   -4.8690   80.6100   27.8590 C   0  0  0  0  0
   -6.2270   80.2830   28.3940 C   0  0  0  0  0
   -4.3850   81.9950   28.1250 C   0  0  0  0  0
    6.1250   74.2810   27.4940 P   0  0  0  0  0
    6.0670   72.8810   28.0300 O   0  0  0  0  0
    5.6470   74.5340   26.0700 O   0  0  0  0  0
    7.5810   74.8210   27.9570 O   0  0  0  0  0
    8.9540   74.4730   27.2010 P   0  0  0  0  0
    8.8470   75.2250   25.8700 O   0  0  0  0  0
    8.9380   72.9930   27.0730 O   0  0  0  0  0
    9.9520   75.2000   27.9910 O   0  0  0  0  0
    5.3911   77.0342   27.6848 H   0  0  0  0  0
    5.7285   77.0491   29.3472 H   0  0  0  0  0
    3.1103   75.8416   29.4269 H   0  0  0  0  0
    4.2243   79.3931   28.6175 H   0  0  0  0  0
    3.9409   78.6990   27.0023 H   0  0  0  0  0
    2.6895   79.7064   27.7706 H   0  0  0  0  0
    1.1210   78.7412   29.2223 H   0  0  0  0  0
    1.2295   76.9815   29.6718 H   0  0  0  0  0
    0.7834   76.3674   27.3924 H   0  0  0  0  0
    0.7097   78.1088   26.9230 H   0  0  0  0  0
   -1.2693   77.4332   29.1134 H   0  0  0  0  0
   -1.0239   78.1994   25.3387 H   0  0  0  0  0
   -1.0918   76.4213   25.4067 H   0  0  0  0  0
   -2.5696   77.3566   25.0713 H   0  0  0  0  0
   -3.4017   77.7603   28.6054 H   0  0  0  0  0
   -3.7717   76.4025   27.4419 H   0  0  0  0  0
   -5.3249   78.0943   26.9631 H   0  0  0  0  0
   -4.0486   78.2345   25.7070 H   0  0  0  0  0
   -3.1104   80.2094   26.8295 H   0  0  0  0  0
   -6.8861   80.0137   27.5687 H   0  0  0  0  0
   -6.1508   79.4458   29.0879 H   0  0  0  0  0
   -6.6302   81.1520   28.9140 H   0  0  0  0  0
   -3.4575   81.9510   28.6958 H   0  0  0  0  0
   -4.2065   82.5043   27.1780 H   0  0  0  0  0
   -5.1385   82.5386   28.6950 H   0  0  0  0  0
    5.7409   75.4667   25.8631 H   0  0  0  0  0
    8.2019   74.7890   25.3084 H   0  0  0  0  0
    8.2040   72.7293   26.5133 H   0  0  0  0  0
  1  2  1  0  0  0
  1  3  1  0  0  0
  2 17  1  0  0  0
  3  4  2  0  0  0
  4  5  1  0  0  0
  4  6  1  0  0  0
  6  7  1  0  0  0
  7  8  1  0  0  0
  8  9  2  0  0  0
  9 10  1  0  0  0
  9 11  1  0  0  0
 11 12  1  0  0  0
 12 13  1  0  0  0
 13 14  2  0  0  0
 14 15  1  0  0  0
 14 16  1  0  0  0
 17 18  2  0  0  0
 17 19  1  0  0  0
 17 20  1  0  0  0
 20 21  1  0  0  0
 21 22  1  0  0  0
 21 23  1  0  0  0
 21 24  2  0  0  0
  1 25  1  0  0  0
  1 26  1  0  0  0
  3 27  1  0  0  0
  5 28  1  0  0  0
  5 29  1  0  0  0
  5 30  1  0  0  0
  6 31  1  0  0  0
  6 32  1  0  0  0
  7 33  1  0  0  0
  7 34  1  0  0  0
  8 35  1  0  0  0
 10 36  1  0  0  0
 10 37  1  0  0  0
 10 38  1  0  0  0
 11 39  1  0  0  0
 11 40  1  0  0  0
 12 41  1  0  0  0
 12 42  1  0  0  0
 13 43  1  0  0  0
 15 44  1  0  0  0
 15 45  1  0  0  0
 15 46  1  0  0  0
 16 47  1  0  0  0
 16 48  1  0  0  0
 16 49  1  0  0  0
 19 50  1  0  0  0
 22 51  1  0  0  0
 23 52  1  0  0  0
M  END
$$$$
