6avi_ligand
  -I-interpret- 

 29 28  0  0  0  0  0  0  0  0999 V2000
   18.0090   63.2370    9.9130 C   0  0  0  0  0
   17.8960   62.2050   10.6230 O   0  0  0  0  0
   16.8140   64.1780    9.7680 C   0  0  0  0  0
   19.0960   63.4840    9.3250 O   0  0  0  0  0
   17.2230   65.5850    9.3220 C   0  0  0  0  0
   15.9480   66.3490    8.9630 C   0  0  0  0  0
   14.8170   65.9210    9.9050 C   0  0  0  0  0
   13.4820   65.6750    9.1950 C   0  0  0  0  0
   12.9570   64.2550    9.4520 C   0  0  0  0  0
   11.4130   64.2280    9.4520 C   0  0  0  0  0
   10.8470   62.7940    9.5340 C   0  0  0  0  0
   16.3328   64.2616   10.7424 H   0  0  0  0  0
   16.1517   63.7643    9.0075 H   0  0  0  0  0
   19.0121   64.3025    8.8303 H   0  0  0  0  0
   17.8878   65.5310    8.4599 H   0  0  0  0  0
   17.7581   66.0957   10.1226 H   0  0  0  0  0
   15.6681   66.1272    7.9332 H   0  0  0  0  0
   16.1233   67.4198    9.0671 H   0  0  0  0  0
   14.6623   66.7317   10.6170 H   0  0  0  0  0
   15.1173   64.9810   10.3680 H   0  0  0  0  0
   13.6353   65.7962    8.1227 H   0  0  0  0  0
   12.7515   66.3867    9.5797 H   0  0  0  0  0
   13.3128   63.9215   10.4268 H   0  0  0  0  0
   13.3184   63.5996    8.6596 H   0  0  0  0  0
   11.0688   64.6726    8.5182 H   0  0  0  0  0
   11.0670   64.7768   10.3279 H   0  0  0  0  0
   11.1934   62.2184    8.6756 H   0  0  0  0  0
   11.1916   62.3208   10.4534 H   0  0  0  0  0
    9.7577   62.8340    9.5306 H   0  0  0  0  0
  1  2  2  0  0  0
  1  3  1  0  0  0
  1  4  1  0  0  0
  3  5  1  0  0  0
  5  6  1  0  0  0
  6  7  1  0  0  0
  7  8  1  0  0  0
  8  9  1  0  0  0
  9 10  1  0  0  0
 10 11  1  0  0  0
  3 12  1  0  0  0
  3 13  1  0  0  0
  4 14  1  0  0  0
  5 15  1  0  0  0
  5 16  1  0  0  0
  6 17  1  0  0  0
  6 18  1  0  0  0
  7 19  1  0  0  0
  7 20  1  0  0  0
  8 21  1  0  0  0
  8 22  1  0  0  0
  9 23  1  0  0  0
  9 24  1  0  0  0
 10 25  1  0  0  0
 10 26  1  0  0  0
 11 27  1  0  0  0
 11 28  1  0  0  0
 11 29  1  0  0  0
M  END
$$$$
