1d6w_ligand
  -I-interpret- 

 65 69  0  0  0  0  0  0  0  0999 V2000
   13.5570  -11.0860   19.9620 C   0  0  0  0  0
   14.4460  -12.4670   20.0420 C   0  0  0  0  0
   13.4950  -13.6750   20.3320 C   0  0  0  0  0
   12.3520  -13.3920   21.4960 C   0  0  0  0  0
   12.8360  -12.0680   22.3430 C   0  0  0  0  0
   12.9450  -10.7710   21.4690 C   0  0  0  0  0
   15.5870  -12.3820   20.9900 N   0  0  0  0  0
   12.0340  -11.9000   23.2690 C   0  0  0  0  0
   11.6470  -12.8270   24.2480 N   0  0  0  0  0
   10.7930  -12.2360   25.1330 C   0  0  0  0  0
   10.6170  -10.9750   24.7980 N   0  0  0  0  0
   11.4440  -10.7640   23.5830 C   0  0  0  0  0
   10.2640  -12.9570   26.1260 N   0  0  0  0  0
   17.3700  -17.1500   23.9450 C   0  0  0  0  0
   18.0250  -16.1340   23.1370 N   0  0  0  0  0
   19.1440  -16.3230   22.3250 C   0  0  0  0  0
   19.8090  -17.3580   22.1880 O   0  0  0  0  0
   19.3820  -15.1200   21.6610 N   0  0  0  0  0
   18.3990  -14.2200   22.0660 N   0  0  0  0  0
   17.5690  -14.8270   22.9990 C   0  0  0  0  0
   16.5890  -14.3440   23.5610 O   0  0  0  0  0
   20.6360  -14.6960   21.0740 C   0  0  0  0  0
   20.5340  -13.3510   20.3930 C   0  0  0  0  0
   19.4230  -12.5950   20.5510 C   0  0  0  0  0
   18.2030  -12.9610   21.3610 C   0  0  0  0  0
   16.9240  -13.1160   20.5000 C   0  0  0  0  0
   16.9030  -13.8470   19.2370 O   0  0  0  0  0
   18.3370  -17.9690   24.7590 C   0  0  0  0  0
   18.8410  -17.1800   26.2810 S   0  0  0  0  0
   17.6720  -16.3950   26.7250 O   0  0  0  0  0
   19.2610  -18.2340   27.1910 O   0  0  0  0  0
   20.1650  -16.0750   25.8620 C   0  0  0  0  0
   20.1810  -14.7560   26.3300 C   0  0  0  0  0
   21.2000  -13.8930   25.9430 C   0  0  0  0  0
   22.2100  -14.3250   25.1010 C   0  0  0  0  0
   22.2260  -15.6300   24.6340 C   0  0  0  0  0
   21.2070  -16.4980   25.0150 C   0  0  0  0  0
   14.1838  -10.2572   19.6329 H   0  0  0  0  0
   12.7436  -11.2067   19.2465 H   0  0  0  0  0
   14.9217  -12.6231   19.0738 H   0  0  0  0  0
   14.1203  -14.4914   20.6933 H   0  0  0  0  0
   12.9596  -13.8865   19.4064 H   0  0  0  0  0
   12.2546  -14.2544   22.1554 H   0  0  0  0  0
   11.3762  -13.2208   21.0415 H   0  0  0  0  0
   13.8437  -12.2504   22.7164 H   0  0  0  0  0
   11.9443  -10.3557   21.3500 H   0  0  0  0  0
   13.6189  -10.0773   21.9719 H   0  0  0  0  0
   15.5239  -11.8941   21.8835 H   0  0  0  0  0
   11.5463   -9.8244   23.0401 H   0  0  0  0  0
   10.4991  -13.9451   26.2201 H   0  0  0  0  0
    9.6252  -12.5193   26.7898 H   0  0  0  0  0
   16.8491  -17.8273   23.2682 H   0  0  0  0  0
   16.7000  -16.6416   24.6384 H   0  0  0  0  0
   20.9198  -15.4320   20.3218 H   0  0  0  0  0
   21.3697  -14.6111   21.8756 H   0  0  0  0  0
   21.3555  -12.9897   19.7744 H   0  0  0  0  0
   19.4075  -11.6296   20.0451 H   0  0  0  0  0
   18.0684  -12.1336   22.0577 H   0  0  0  0  0
   17.8341  -18.8989   25.0245 H   0  0  0  0  0
   19.2323  -18.1131   24.1542 H   0  0  0  0  0
   19.3943  -14.4053   26.9981 H   0  0  0  0  0
   21.2035  -12.8654   26.3065 H   0  0  0  0  0
   22.9985  -13.6340   24.8030 H   0  0  0  0  0
   23.0259  -15.9718   23.9772 H   0  0  0  0  0
   21.2158  -17.5252   24.6506 H   0  0  0  0  0
  1  6  1  0  0  0
  2  1  1  0  0  0
  7  2  1  0  0  0
  2  3  1  0  0  0
  3  4  1  0  0  0
  4  5  1  0  0  0
  5  8  1  0  0  0
  6  5  1  0  0  0
  8 12  4  0  0  0
  8  9  4  0  0  0
  9 10  4  0  0  0
 10 13  1  0  0  0
 10 11  4  0  0  0
 12 11  4  0  0  0
 15 14  1  0  0  0
 20 15  1  0  0  0
 15 16  1  0  0  0
 18 16  1  0  0  0
 16 17  2  0  0  0
 18 22  1  0  0  0
 19 18  1  0  0  0
 25 19  1  0  0  0
 19 20  1  0  0  0
 20 21  2  0  0  0
 26 25  1  0  0  0
 25 24  1  0  0  0
 24 23  2  0  0  0
 23 22  1  0  0  0
 26 27  2  0  0  0
 28 29  1  0  0  0
 29 32  1  0  0  0
 29 31  2  0  0  0
 29 30  2  0  0  0
 32 37  4  0  0  0
 32 33  4  0  0  0
 33 34  4  0  0  0
 34 35  4  0  0  0
 36 35  4  0  0  0
 37 36  4  0  0  0
 14 28  1  0  0  0
 26  7  1  0  0  0
  1 38  1  0  0  0
  1 39  1  0  0  0
  2 40  1  0  0  0
  3 41  1  0  0  0
  3 42  1  0  0  0
  4 43  1  0  0  0
  4 44  1  0  0  0
  5 45  1  0  0  0
  6 46  1  0  0  0
  6 47  1  0  0  0
  7 48  1  0  0  0
 12 49  1  0  0  0
 13 50  1  0  0  0
 13 51  1  0  0  0
 14 52  1  0  0  0
 14 53  1  0  0  0
 22 54  1  0  0  0
 22 55  1  0  0  0
 23 56  1  0  0  0
 24 57  1  0  0  0
 25 58  1  0  0  0
 28 59  1  0  0  0
 28 60  1  0  0  0
 33 61  1  0  0  0
 34 62  1  0  0  0
 35 63  1  0  0  0
 36 64  1  0  0  0
 37 65  1  0  0  0
M  END
$$$$
