### 
### Created by X-TOOL on Mon Sep 10 21:13:16 2018
### 

@<TRIPOS>MOLECULE
4ktu_ligand
  202   208     1     0     0
SMALL
GAST_HUCK


@<TRIPOS>ATOM
      1 C          32.0720  -18.8540   85.0110 C.2       1 ACE         0.1751
      2 O          31.8390  -19.1110   83.8620 O.2       1 ACE        -0.3972
      3 CH3        32.9510  -19.7900   85.7950 C.3       1 ACE         0.0258
      4 N          31.6050  -17.7570   85.5930 N.am      1 ILE        -0.2656
      5 CA         30.6960  -16.8350   84.8780 C.3       1 ILE         0.1334
      6 C          31.4430  -15.8510   84.0400 C.2       1 ILE         0.2042
      7 O          32.0260  -14.9070   84.5780 O.2       1 ILE        -0.3944
      8 CB         29.6890  -16.0870   85.7740 C.3       1 ILE        -0.0037
      9 CG1        28.7840  -17.0780   86.5440 C.3       1 ILE        -0.0491
     10 CG2        28.8200  -15.1370   84.9530 C.3       1 ILE        -0.0582
     11 CD1        27.8950  -16.4330   87.5960 C.3       1 ILE        -0.0648
     12 N          31.3730  -16.0000   82.7220 N.am      1 SER        -0.2616
     13 CA         31.9370  -15.0430   81.8210 C.3       1 SER         0.1539
     14 C          30.8480  -14.5660   80.8400 C.2       1 SER         0.2063
     15 O          30.3650  -15.3440   80.0240 O.2       1 SER        -0.3943
     16 CB         33.0750  -15.6330   81.0550 C.3       1 SER         0.0843
     17 OG         33.5590  -14.7970   80.2190 O.3       1 SER        -0.3903
     18 N          30.4180  -13.3170   80.9820 N.am      1 THR        -0.2610
     19 CA         29.4160  -12.7870   80.0980 C.3       1 THR         0.1612
     20 C          29.9480  -12.6970   78.6700 C.2       1 THR         0.2068
     21 O          31.1650  -12.6710   78.3790 O.2       1 THR        -0.3943
     22 CB         28.8900  -11.4380   80.6270 C.3       1 THR         0.1246
     23 OG1        29.9830  -10.6080   81.0680 O.3       1 THR        -0.2688
     24 CG2        27.9940  -11.6210   81.8280 C.3       1 THR        -0.0298
     25 N          29.0500  -12.6280   77.7140 N.am      1 ARG        -0.2636
     26 CA         29.3360  -12.7620   76.2880 C.3       1 ARG         0.1311
     27 C          29.1790  -11.4600   75.4650 C.2       1 ARG         0.2039
     28 O          28.9000  -11.4920   74.2690 O.2       1 ARG        -0.3944
     29 CB         28.6010  -13.9520   75.6950 C.3       1 ARG        -0.0092
     30 CG         29.2180  -15.2280   76.2270 C.3       1 ARG        -0.0156
     31 CD         28.4920  -16.5360   75.8850 C.3       1 ARG         0.0627
     32 NE         29.3520  -17.6680   76.3350 N.pl3     1 ARG        -0.2723
     33 CZ         29.0680  -18.9450   76.0230 C.cat     1 ARG         0.2882
     34 NH1        27.9280  -19.2740   75.4260 N.pl3     1 ARG        -0.2849
     35 NH2        29.9100  -19.8880   76.4290 N.pl3     1 ARG        -0.2849
     36 N          29.4640  -10.3280   76.1340 N.am      1 LYS        -0.2637
     37 CA         29.5690   -9.0520   75.3980 C.3       1 LYS         0.1310
     38 C          30.9300   -8.9490   74.7180 C.2       1 LYS         0.2040
     39 O          31.8890   -9.6120   75.1520 O.2       1 LYS        -0.3944
     40 CB         29.3360   -7.9460   76.4040 C.3       1 LYS        -0.0123
     41 CG         29.4890   -6.5200   75.8590 C.3       1 LYS        -0.0470
     42 CD         28.8560   -5.4680   76.7770 C.3       1 LYS        -0.0325
     43 CE         29.3960   -4.0600   76.5190 C.3       1 LYS         0.0309
     44 NZ         30.8000   -3.9450   76.8780 N.am      1 LYS        -0.2870
     45 N          31.0060   -8.1950   73.6510 N.am      1 TYR        -0.2621
     46 CA         32.2520   -7.9500   72.9210 C.3       1 TYR         0.1392
     47 C          32.9070   -6.6280   73.4210 C.2       1 TYR         0.2082
     48 O          32.1910   -5.6470   73.5790 O.2       1 TYR        -0.3940
     49 CB         32.0000   -7.8400   71.4210 C.3       1 TYR         0.0164
     50 CG         33.2280   -7.3800   70.6470 C.ar      1 TYR        -0.0493
     51 CD1        33.4310   -6.0510   70.4970 C.ar      1 TYR        -0.0685
     52 CD2        34.1490   -8.2400   70.1240 C.ar      1 TYR        -0.0685
     53 CE1        34.5570   -5.5840   69.8180 C.ar      1 TYR        -0.0398
     54 CE2        35.2790   -7.7940   69.3900 C.ar      1 TYR        -0.0398
     55 CZ         35.4460   -6.4450   69.2740 C.ar      1 TYR         0.0805
     56 OH         36.5450   -5.9450   68.6250 O.3       1 TYR        -0.3376
     57 N          34.2510   -6.6220   73.6070 N.am      1 PRO        -0.2497
     58 CA         35.1520   -7.7480   73.4430 C.3       1 PRO         0.1338
     59 C          35.0890   -8.7420   74.6010 C.2       1 PRO         0.2042
     60 O          35.4640   -9.9160   74.4290 O.2       1 PRO        -0.3944
     61 CB         36.5450   -7.0970   73.3740 C.3       1 PRO        -0.0104
     62 CG         36.3480   -5.7580   73.8770 C.3       1 PRO        -0.0281
     63 CD         34.9340   -5.3190   73.7780 C.3       1 PRO         0.0369
     64 N          34.6630   -8.2670   75.7430 N.am      1 SER        -0.2613
     65 CA         34.4050   -9.0310   76.9300 C.3       1 SER         0.1586
     66 C          33.6010   -8.2330   77.9140 C.2       1 SER         0.2067
     67 O          33.4270   -6.9750   77.6810 O.2       1 SER        -0.3943
     68 CB         35.7310   -9.4780   77.5690 C.3       1 SER         0.1168
     69 OG         36.4120   -8.2780   77.9580 O.3       1 SER        -0.2721
     70 N          33.0820   -8.7850   78.9820 N.am      1 ASP        -0.2614
     71 CA         32.3390   -8.0170   79.9670 C.3       1 ASP         0.1489
     72 C          33.3210   -7.1070   80.7390 C.2       1 ASP         0.2064
     73 O          33.1040   -5.9170   80.9050 O.2       1 ASP        -0.3942
     74 CB         31.5430   -8.9280   80.8940 C.3       1 ASP         0.0890
     75 CG         30.4790   -9.7670   80.1610 C.2       1 ASP         0.2388
     76 OD1        30.2440   -9.6380   78.9980 O.2       1 ASP        -0.3701
     77 N          34.4480   -7.6390   81.1470 N.am      1 TRP        -0.2625
     78 CA         35.4280   -6.8910   81.9460 C.3       1 TRP         0.1352
     79 C          36.1010   -5.7930   81.1050 C.2       1 TRP         0.2052
     80 O          36.6180   -4.7850   81.7110 O.2       1 TRP        -0.3942
     81 CB         36.4070   -7.9120   82.5520 C.3       1 TRP         0.0042
     82 CG         37.2270   -8.5910   81.5670 C.2       1 TRP        -0.0418
     83 CD1        37.0200   -9.8220   81.0230 C.2       1 TRP         0.0167
     84 CD2        38.4680   -8.1320   81.0600 C.ar      1 TRP        -0.0214
     85 NE1        38.0260  -10.1190   80.1480 N.pl3     1 TRP        -0.2890
     86 CE2        38.9390   -9.1110   80.1550 C.ar      1 TRP         0.0603
     87 CE3        39.2170   -6.9790   81.2500 C.ar      1 TRP        -0.0747
     88 CZ2        40.1770   -9.0030   79.5150 C.ar      1 TRP        -0.0443
     89 CZ3        40.4460   -6.8510   80.5700 C.ar      1 TRP        -0.0792
     90 CH2        40.8840   -7.8600   79.6960 C.ar      1 TRP        -0.0768
     91 N          36.2430   -5.9650   79.8170 N.am      1 GLU        -0.2635
     92 CA         37.0200   -5.0270   78.9850 C.3       1 GLU         0.1331
     93 C          36.4170   -3.6710   78.7640 C.2       1 GLU         0.2035
     94 O          37.1250   -2.7430   78.3370 O.2       1 GLU        -0.3944
     95 CB         37.2930   -5.5760   77.6270 C.3       1 GLU         0.0058
     96 CG         38.1730   -6.7550   77.5970 C.3       1 GLU         0.0529
     97 CD         37.5210   -8.0370   77.2240 C.2       1 GLU         0.2341
     98 OE2        38.0290   -8.8320   76.4640 O.2       1 GLU        -0.3704
     99 N          35.1240   -3.5270   79.0960 N.am      1 GLU        -0.2693
    100 CA         34.4340   -2.2720   78.9180 C.3       1 GLU         0.0964
    101 C          34.5270   -1.4770   80.2460 C.2       1 GLU         0.0602
    102 O          33.8610   -0.4900   80.4910 O.co2     1 GLU        -0.5666
    103 CB         33.0090   -2.5540   78.3860 C.3       1 GLU        -0.0010
    104 CG         33.1430   -3.2040   76.9480 C.3       1 GLU         0.0408
    105 CD         31.8450   -3.3340   76.1840 C.2       1 GLU         0.1761
    106 OE2        31.5700   -2.8310   75.0800 O.2       1 GLU        -0.3971
    107 H          33.0639  -19.4129   86.8222 H         1 ACE         0.0467
    108 H          33.9395  -19.8519   85.3165 H         1 ACE         0.0467
    109 H          32.4923  -20.7895   85.8197 H         1 ACE         0.0467
    110 H          31.8729  -17.5494   86.5338 H         1 ILE         0.1883
    111 H          30.1034  -17.4604   84.1942 H         1 ILE         0.0803
    112 H          30.2572  -15.4940   86.5057 H         1 ILE         0.0345
    113 H          29.4293  -17.8150   87.0445 H         1 ILE         0.0267
    114 H          28.1382  -17.5906   85.8158 H         1 ILE         0.0267
    115 H          29.4633  -14.4324   84.4055 H         1 ILE         0.0235
    116 H          28.1523  -14.5777   85.6248 H         1 ILE         0.0235
    117 H          28.2185  -15.7164   84.2372 H         1 ILE         0.0235
    118 H          27.2902  -17.2077   88.0900 H         1 ILE         0.0230
    119 H          27.2303  -15.7002   87.1152 H         1 ILE         0.0230
    120 H          28.5214  -15.9246   88.3438 H         1 ILE         0.0230
    121 H          30.9123  -16.8052   82.3486 H         1 SER         0.1884
    122 H          32.3056  -14.1829   82.3992 H         1 SER         0.0823
    123 H          32.7177  -16.5185   80.5090 H         1 SER         0.0606
    124 H          33.8646  -15.9311   81.7605 H         1 SER         0.0606
    125 H          34.2788  -15.2014   79.7491 H         1 SER         0.2097
    126 H          30.7938  -12.7418   81.7086 H         1 THR         0.1884
    127 H          28.5695  -13.4894   80.0890 H         1 THR         0.0830
    128 H          28.3349  -10.9327   79.8230 H         1 THR         0.0696
    129 H          27.6403  -10.6388   82.1746 H         1 THR         0.0260
    130 H          28.5575  -12.1132   82.6343 H         1 THR         0.0260
    131 H          27.1312  -12.2443   81.5503 H         1 THR         0.0260
    132 H          28.0994  -12.4721   77.9825 H         1 ARG         0.1883
    133 H          30.4057  -13.0106   76.2250 H         1 ARG         0.0800
    134 H          28.6875  -13.9299   74.5986 H         1 ARG         0.0313
    135 H          27.5394  -13.9091   75.9800 H         1 ARG         0.0313
    136 H          29.2605  -15.1466   77.3231 H         1 ARG         0.0301
    137 H          30.2393  -15.2980   75.8246 H         1 ARG         0.0301
    138 H          28.3281  -16.5998   74.7992 H         1 ARG         0.0689
    139 H          27.5233  -16.5729   76.4048 H         1 ARG         0.0689
    140 H          30.1882  -17.4660   76.9015 H         1 ARG         0.2642
    141 H          27.7323  -20.2589   75.1967 H         1 ARG         0.2615
    142 H          27.2397  -18.5442   75.1924 H         1 ARG         0.2615
    143 H          30.7924  -19.6262   76.8913 H         1 ARG         0.2615
    144 H          29.6808  -20.8813   76.2816 H         1 ARG         0.2615
    145 H          29.6039  -10.3505   77.1239 H         1 LYS         0.1883
    146 H          28.7883   -9.0060   74.6245 H         1 LYS         0.0800
    147 H          30.0574   -8.0753   77.2242 H         1 LYS         0.0312
    148 H          28.3133   -8.0523   76.7949 H         1 LYS         0.0312
    149 H          29.0038   -6.4654   74.8733 H         1 LYS         0.0268
    150 H          30.5608   -6.2962   75.7530 H         1 LYS         0.0268
    151 H          29.0664   -5.7399   77.8219 H         1 LYS         0.0285
    152 H          27.7686   -5.4641   76.6109 H         1 LYS         0.0285
    153 H          28.8159   -3.3413   77.1165 H         1 LYS         0.0520
    154 H          29.2816   -3.8252   75.4505 H         1 LYS         0.0520
    155 H          31.0539   -4.3650   77.7493 H         1 LYS         0.1850
    156 H          30.1686   -7.7630   73.3162 H         1 TYR         0.1885
    157 H          32.9406   -8.7875   73.1065 H         1 TYR         0.0821
    158 H          31.1881   -7.1170   71.2534 H         1 TYR         0.0453
    159 H          31.6959   -8.8271   71.0427 H         1 TYR         0.0453
    160 H          32.7162   -5.3461   70.9059 H         1 TYR         0.0530
    161 H          34.0125   -9.3048   70.2748 H         1 TYR         0.0530
    162 H          34.7211   -4.5165   69.7255 H         1 TYR         0.0525
    163 H          35.9767   -8.4926   68.9425 H         1 TYR         0.0525
    164 H          36.5501   -6.2562   67.7274 H         1 TYR         0.2458
    165 H          34.9252   -8.2794   72.5070 H         1 PRO         0.0802
    166 H          36.9108   -7.0720   72.3369 H         1 PRO         0.0313
    167 H          37.2616   -7.6461   74.0025 H         1 PRO         0.0313
    168 H          36.9743   -5.0661   73.2947 H         1 PRO         0.0287
    169 H          36.6538   -5.7288   74.9332 H         1 PRO         0.0287
    170 H          34.6043   -4.8060   74.6935 H         1 PRO         0.0524
    171 H          34.7740   -4.6611   72.9111 H         1 PRO         0.0524
    172 H          34.5024   -7.2813   75.7934 H         1 SER         0.1884
    173 H          33.8288   -9.9257   76.6517 H         1 SER         0.0827
    174 H          36.3346  -10.0401   76.8412 H         1 SER         0.0662
    175 H          35.5367  -10.1085   78.4491 H         1 SER         0.0662
    176 H          33.2008   -9.7676   79.1246 H         1 ASP         0.1885
    177 H          31.6224   -7.3737   79.4353 H         1 ASP         0.0827
    178 H          31.0379   -8.3045   81.6464 H         1 ASP         0.0567
    179 H          32.2427   -9.6130   81.3952 H         1 ASP         0.0567
    180 H          34.6477   -8.5886   80.9054 H         1 TRP         0.1884
    181 H          34.9010   -6.3932   82.7733 H         1 TRP         0.0815
    182 H          35.8251   -8.6680   83.0996 H         1 TRP         0.0397
    183 H          37.0712   -7.3831   83.2513 H         1 TRP         0.0397
    184 H          36.1775  -10.4731   81.2516 H         1 TRP         0.0795
    185 H          38.0840  -10.9719   79.5735 H         1 TRP         0.2216
    186 H          38.8645   -6.1928   81.9077 H         1 TRP         0.0540
    187 H          40.5591   -9.8058   78.8949 H         1 TRP         0.0541
    188 H          41.0566   -5.9684   80.7227 H         1 TRP         0.0510
    189 H          41.8113   -7.7212   79.1521 H         1 TRP         0.0530
    190 H          35.8120   -6.7560   79.3828 H         1 GLU         0.1883
    191 H          37.9811   -4.8814   79.4999 H         1 GLU         0.0801
    192 H          37.7642   -4.7835   77.0271 H         1 GLU         0.0338
    193 H          36.3312   -5.8568   77.1730 H         1 GLU         0.0338
    194 H          38.6089   -6.8769   78.5996 H         1 GLU         0.0521
    195 H          38.9749   -6.5597   76.8698 H         1 GLU         0.0521
    196 H          34.6275   -4.3077   79.4755 H         1 GLU         0.1875
    197 H          34.9575   -1.6858   78.1484 H         1 GLU         0.0727
    198 O1         35.3398   -1.8771   81.1217 O.co2     1 GLU        -0.5666
    199 H          32.4426   -1.6134   78.3191 H         1 GLU         0.0330
    200 H          32.4886   -3.2481   79.0623 H         1 GLU         0.0330
    201 H          33.5718   -4.2100   77.0665 H         1 GLU         0.0504
    202 H          33.8280   -2.5811   76.3540 H         1 GLU         0.0504
@<TRIPOS>BOND
     1    1    2 2  
     2    1    3 1  
     3    1    4 am 
     4    4    5 1  
     5    5    6 1  
     6    5    8 1  
     7    6    7 2  
     8    6   12 am 
     9    8    9 1  
    10    8   10 1  
    11    9   11 1  
    12   12   13 1  
    13   13   14 1  
    14   13   16 1  
    15   14   15 2  
    16   14   18 am 
    17   16   17 1  
    18   18   19 1  
    19   19   20 1  
    20   19   22 1  
    21   20   21 2  
    22   20   25 am 
    23   22   23 1  
    24   22   24 1  
    25   23   75 1  
    26   25   26 1  
    27   26   27 1  
    28   26   29 1  
    29   27   28 2  
    30   27   36 am 
    31   29   30 1  
    32   30   31 1  
    33   31   32 1  
    34   32   33 ar 
    35   33   34 ar 
    36   33   35 ar 
    37   36   37 1  
    38   37   38 1  
    39   37   40 1  
    40   38   39 2  
    41   38   45 am 
    42   40   41 1  
    43   41   42 1  
    44   42   43 1  
    45   43   44 1  
    46   44  105 am 
    47   45   46 1  
    48   46   47 1  
    49   46   49 1  
    50   47   48 2  
    51   47   57 am 
    52   49   50 1  
    53   50   51 ar 
    54   50   52 ar 
    55   51   53 ar 
    56   52   54 ar 
    57   53   55 ar 
    58   54   55 ar 
    59   55   56 1  
    60   57   58 1  
    61   57   63 1  
    62   58   59 1  
    63   58   61 1  
    64   59   60 2  
    65   59   64 am 
    66   61   62 1  
    67   62   63 1  
    68   64   65 1  
    69   65   66 1  
    70   65   68 1  
    71   66   67 2  
    72   66   70 am 
    73   68   69 1  
    74   69   97 1  
    75   70   71 1  
    76   71   72 1  
    77   71   74 1  
    78   72   73 2  
    79   72   77 am 
    80   74   75 1  
    81   75   76 2  
    82   77   78 1  
    83   78   79 1  
    84   78   81 1  
    85   79   80 2  
    86   79   91 am 
    87   81   82 1  
    88   82   83 2  
    89   82   84 1  
    90   83   85 1  
    91   84   86 ar 
    92   84   87 ar 
    93   85   86 1  
    94   86   88 ar 
    95   87   89 ar 
    96   88   90 ar 
    97   89   90 ar 
    98   91   92 1  
    99   92   93 1  
   100   92   95 1  
   101   93   94 2  
   102   93   99 am 
   103   95   96 1  
   104   96   97 1  
   105   97   98 2  
   106   99  100 1  
   107  100  101 1  
   108  100  103 1  
   109  101  102 ar 
   110  103  104 1  
   111  104  105 1  
   112  105  106 2  
   113    3  107 1  
   114    3  108 1  
   115    3  109 1  
   116    4  110 1  
   117    5  111 1  
   118    8  112 1  
   119    9  113 1  
   120    9  114 1  
   121   10  115 1  
   122   10  116 1  
   123   10  117 1  
   124   11  118 1  
   125   11  119 1  
   126   11  120 1  
   127   12  121 1  
   128   13  122 1  
   129   16  123 1  
   130   16  124 1  
   131   17  125 1  
   132   18  126 1  
   133   19  127 1  
   134   22  128 1  
   135   24  129 1  
   136   24  130 1  
   137   24  131 1  
   138   25  132 1  
   139   26  133 1  
   140   29  134 1  
   141   29  135 1  
   142   30  136 1  
   143   30  137 1  
   144   31  138 1  
   145   31  139 1  
   146   32  140 1  
   147   34  141 1  
   148   34  142 1  
   149   35  143 1  
   150   35  144 1  
   151   36  145 1  
   152   37  146 1  
   153   40  147 1  
   154   40  148 1  
   155   41  149 1  
   156   41  150 1  
   157   42  151 1  
   158   42  152 1  
   159   43  153 1  
   160   43  154 1  
   161   44  155 1  
   162   45  156 1  
   163   46  157 1  
   164   49  158 1  
   165   49  159 1  
   166   51  160 1  
   167   52  161 1  
   168   53  162 1  
   169   54  163 1  
   170   56  164 1  
   171   58  165 1  
   172   61  166 1  
   173   61  167 1  
   174   62  168 1  
   175   62  169 1  
   176   63  170 1  
   177   63  171 1  
   178   64  172 1  
   179   65  173 1  
   180   68  174 1  
   181   68  175 1  
   182   70  176 1  
   183   71  177 1  
   184   74  178 1  
   185   74  179 1  
   186   77  180 1  
   187   78  181 1  
   188   81  182 1  
   189   81  183 1  
   190   83  184 1  
   191   85  185 1  
   192   87  186 1  
   193   88  187 1  
   194   89  188 1  
   195   90  189 1  
   196   91  190 1  
   197   92  191 1  
   198   95  192 1  
   199   95  193 1  
   200   96  194 1  
   201   96  195 1  
   202   99  196 1  
   203  100  197 1  
   204  101  198 ar 
   205  103  199 1  
   206  103  200 1  
   207  104  201 1  
   208  104  202 1  
@<TRIPOS>SUBSTRUCTURE
     1 ACE         1

