4ktu_ligand
  -I-interpret- 

201207  0  0  0  0  0  0  0  0999 V2000
   32.0720  -18.8540   85.0110 C   0  0  0  0  0
   31.8390  -19.1110   83.8620 O   0  0  0  0  0
   32.9510  -19.7900   85.7950 C   0  0  0  0  0
   31.6050  -17.7570   85.5930 N   0  0  0  0  0
   30.6960  -16.8350   84.8780 C   0  0  0  0  0
   31.4430  -15.8510   84.0400 C   0  0  0  0  0
   32.0260  -14.9070   84.5780 O   0  0  0  0  0
   29.6890  -16.0870   85.7740 C   0  0  0  0  0
   28.7840  -17.0780   86.5440 C   0  0  0  0  0
   28.8200  -15.1370   84.9530 C   0  0  0  0  0
   27.8950  -16.4330   87.5960 C   0  0  0  0  0
   31.3730  -16.0000   82.7220 N   0  0  0  0  0
   31.9370  -15.0430   81.8210 C   0  0  0  0  0
   30.8480  -14.5660   80.8400 C   0  0  0  0  0
   30.3650  -15.3440   80.0240 O   0  0  0  0  0
   33.0750  -15.6330   81.0550 C   0  0  0  0  0
   33.5590  -14.7970   80.2190 O   0  0  0  0  0
   30.4180  -13.3170   80.9820 N   0  0  0  0  0
   29.4160  -12.7870   80.0980 C   0  0  0  0  0
   29.9480  -12.6970   78.6700 C   0  0  0  0  0
   31.1650  -12.6710   78.3790 O   0  0  0  0  0
   28.8900  -11.4380   80.6270 C   0  0  0  0  0
   29.9830  -10.6080   81.0680 O   0  0  0  0  0
   27.9940  -11.6210   81.8280 C   0  0  0  0  0
   29.0500  -12.6280   77.7140 N   0  0  0  0  0
   29.3360  -12.7620   76.2880 C   0  0  0  0  0
   29.1790  -11.4600   75.4650 C   0  0  0  0  0
   28.9000  -11.4920   74.2690 O   0  0  0  0  0
   28.6010  -13.9520   75.6950 C   0  0  0  0  0
   29.2180  -15.2280   76.2270 C   0  0  0  0  0
   28.4920  -16.5360   75.8850 C   0  0  0  0  0
   29.3520  -17.6680   76.3350 N   0  0  0  0  0
   29.0680  -18.9450   76.0230 C   0  0  0  0  0
   27.9280  -19.2740   75.4260 N   0  0  0  0  0
   29.9100  -19.8880   76.4290 N   0  0  0  0  0
   29.4640  -10.3280   76.1340 N   0  0  0  0  0
   29.5690   -9.0520   75.3980 C   0  0  0  0  0
   30.9300   -8.9490   74.7180 C   0  0  0  0  0
   31.8890   -9.6120   75.1520 O   0  0  0  0  0
   29.3360   -7.9460   76.4040 C   0  0  0  0  0
   29.4890   -6.5200   75.8590 C   0  0  0  0  0
   28.8560   -5.4680   76.7770 C   0  0  0  0  0
   29.3960   -4.0600   76.5190 C   0  0  0  0  0
   30.8000   -3.9450   76.8780 N   0  0  0  0  0
   31.0060   -8.1950   73.6510 N   0  0  0  0  0
   32.2520   -7.9500   72.9210 C   0  0  0  0  0
   32.9070   -6.6280   73.4210 C   0  0  0  0  0
   32.1910   -5.6470   73.5790 O   0  0  0  0  0
   32.0000   -7.8400   71.4210 C   0  0  0  0  0
   33.2280   -7.3800   70.6470 C   0  0  0  0  0
   33.4310   -6.0510   70.4970 C   0  0  0  0  0
   34.1490   -8.2400   70.1240 C   0  0  0  0  0
   34.5570   -5.5840   69.8180 C   0  0  0  0  0
   35.2790   -7.7940   69.3900 C   0  0  0  0  0
   35.4460   -6.4450   69.2740 C   0  0  0  0  0
   36.5450   -5.9450   68.6250 O   0  0  0  0  0
   34.2510   -6.6220   73.6070 N   0  0  0  0  0
   35.1520   -7.7480   73.4430 C   0  0  0  0  0
   35.0890   -8.7420   74.6010 C   0  0  0  0  0
   35.4640   -9.9160   74.4290 O   0  0  0  0  0
   36.5450   -7.0970   73.3740 C   0  0  0  0  0
   36.3480   -5.7580   73.8770 C   0  0  0  0  0
   34.9340   -5.3190   73.7780 C   0  0  0  0  0
   34.6630   -8.2670   75.7430 N   0  0  0  0  0
   34.4050   -9.0310   76.9300 C   0  0  0  0  0
   33.6010   -8.2330   77.9140 C   0  0  0  0  0
   33.4270   -6.9750   77.6810 O   0  0  0  0  0
   35.7310   -9.4780   77.5690 C   0  0  0  0  0
   36.4120   -8.2780   77.9580 O   0  0  0  0  0
   33.0820   -8.7850   78.9820 N   0  0  0  0  0
   32.3390   -8.0170   79.9670 C   0  0  0  0  0
   33.3210   -7.1070   80.7390 C   0  0  0  0  0
   33.1040   -5.9170   80.9050 O   0  0  0  0  0
   31.5430   -8.9280   80.8940 C   0  0  0  0  0
   30.4790   -9.7670   80.1610 C   0  0  0  0  0
   30.2440   -9.6380   78.9980 O   0  0  0  0  0
   34.4480   -7.6390   81.1470 N   0  0  0  0  0
   35.4280   -6.8910   81.9460 C   0  0  0  0  0
   36.1010   -5.7930   81.1050 C   0  0  0  0  0
   36.6180   -4.7850   81.7110 O   0  0  0  0  0
   36.4070   -7.9120   82.5520 C   0  0  0  0  0
   37.2270   -8.5910   81.5670 C   0  0  0  0  0
   37.0200   -9.8220   81.0230 C   0  0  0  0  0
   38.4680   -8.1320   81.0600 C   0  0  0  0  0
   38.0260  -10.1190   80.1480 N   0  0  0  0  0
   38.9390   -9.1110   80.1550 C   0  0  0  0  0
   39.2170   -6.9790   81.2500 C   0  0  0  0  0
   40.1770   -9.0030   79.5150 C   0  0  0  0  0
   40.4460   -6.8510   80.5700 C   0  0  0  0  0
   40.8840   -7.8600   79.6960 C   0  0  0  0  0
   36.2430   -5.9650   79.8170 N   0  0  0  0  0
   37.0200   -5.0270   78.9850 C   0  0  0  0  0
   36.4170   -3.6710   78.7640 C   0  0  0  0  0
   37.1250   -2.7430   78.3370 O   0  0  0  0  0
   37.2930   -5.5760   77.6270 C   0  0  0  0  0
   38.1730   -6.7550   77.5970 C   0  0  0  0  0
   37.5210   -8.0370   77.2240 C   0  0  0  0  0
   38.0290   -8.8320   76.4640 O   0  0  0  0  0
   35.1240   -3.5270   79.0960 N   0  0  0  0  0
   34.4340   -2.2720   78.9180 C   0  0  0  0  0
   34.5270   -1.4770   80.2460 C   0  0  0  0  0
   33.8610   -0.4900   80.4910 O   0  0  0  0  0
   33.0090   -2.5540   78.3860 C   0  0  0  0  0
   33.1430   -3.2040   76.9480 C   0  0  0  0  0
   31.8450   -3.3340   76.1840 C   0  0  0  0  0
   31.5700   -2.8310   75.0800 O   0  0  0  0  0
   35.3398   -1.8771   81.1217 O   0  0  0  0  0
   32.4954  -20.7800   85.8187 H   0  0  0  0  0
   33.9301  -19.8505   85.3198 H   0  0  0  0  0
   33.0621  -19.4153   86.8125 H   0  0  0  0  0
   31.8783  -17.5452   86.5526 H   0  0  0  0  0
   30.1101  -17.4961   84.2394 H   0  0  0  0  0
   30.2675  -15.5053   86.4917 H   0  0  0  0  0
   29.4426  -17.7727   87.0652 H   0  0  0  0  0
   28.1250  -17.5437   85.8113 H   0  0  0  0  0
   28.2245  -15.7124   84.2442 H   0  0  0  0  0
   28.1589  -14.5835   85.6198 H   0  0  0  0  0
   29.4585  -14.4394   84.4110 H   0  0  0  0  0
   28.5168  -15.9296   88.3363 H   0  0  0  0  0
   27.2370  -15.7071   87.1183 H   0  0  0  0  0
   27.2963  -17.2016   88.0847 H   0  0  0  0  0
   30.9031  -16.8213   82.3411 H   0  0  0  0  0
   32.3150  -14.2008   82.4006 H   0  0  0  0  0
   32.7087  -16.4996   80.5045 H   0  0  0  0  0
   33.8590  -15.9104   81.7596 H   0  0  0  0  0
   34.2864  -15.2057   79.7442 H   0  0  0  0  0
   30.8014  -12.7303   81.7231 H   0  0  0  0  0
   28.5662  -13.4691   80.0706 H   0  0  0  0  0
   28.3408  -10.9814   79.8036 H   0  0  0  0  0
   27.1396  -12.2387   81.5515 H   0  0  0  0  0
   28.5535  -12.1088   82.6262 H   0  0  0  0  0
   27.6442  -10.6471   82.1705 H   0  0  0  0  0
   28.0804  -12.4689   77.9879 H   0  0  0  0  0
   30.4041  -12.9663   76.2135 H   0  0  0  0  0
   28.6824  -13.9298   74.6083 H   0  0  0  0  0
   27.5480  -13.9093   75.9732 H   0  0  0  0  0
   29.1927  -15.1446   77.3135 H   0  0  0  0  0
   30.2032  -15.3010   75.7664 H   0  0  0  0  0
   28.3146  -16.6000   74.8114 H   0  0  0  0  0
   27.5251  -16.5736   76.3867 H   0  0  0  0  0
   30.1801  -17.4679   76.8960 H   0  0  0  0  0
   27.6951  -20.2558   75.2771 H   0  0  0  0  0
   27.2854  -18.5448   75.1165 H   0  0  0  0  0
   30.7425  -19.6338   76.9607 H   0  0  0  0  0
   29.6067  -10.3510   77.1437 H   0  0  0  0  0
   28.8281   -8.9792   74.6018 H   0  0  0  0  0
   30.0919   -8.0660   77.1800 H   0  0  0  0  0
   28.3035   -8.0424   76.7398 H   0  0  0  0  0
   28.9825   -6.4728   74.8950 H   0  0  0  0  0
   30.5543   -6.3021   75.7831 H   0  0  0  0  0
   29.0939   -5.7348   77.8067 H   0  0  0  0  0
   27.7833   -5.4563   76.5838 H   0  0  0  0  0
   28.8280   -3.3584   77.1299 H   0  0  0  0  0
   29.2960   -3.8447   75.4552 H   0  0  0  0  0
   31.0589   -4.3734   77.7667 H   0  0  0  0  0
   30.1518   -7.7544   73.3095 H   0  0  0  0  0
   32.9181   -8.7930   73.1048 H   0  0  0  0  0
   31.2137   -7.1007   71.2685 H   0  0  0  0  0
   31.7272   -8.8300   71.0554 H   0  0  0  0  0
   32.7122   -5.3422   70.9081 H   0  0  0  0  0
   34.0118   -9.3106   70.2757 H   0  0  0  0  0
   34.7220   -4.5106   69.7250 H   0  0  0  0  0
   35.9806   -8.4965   68.9400 H   0  0  0  0  0
   37.0786   -6.6717   68.2953 H   0  0  0  0  0
   34.8925   -8.3331   72.5607 H   0  0  0  0  0
   36.9441   -7.0962   72.3597 H   0  0  0  0  0
   37.2811   -7.6476   73.9597 H   0  0  0  0  0
   36.9546   -5.0797   73.2770 H   0  0  0  0  0
   36.6314   -5.7480   74.9295 H   0  0  0  0  0
   34.5866   -4.7460   74.6377 H   0  0  0  0  0
   34.7454   -4.6105   72.9714 H   0  0  0  0  0
   34.4992   -7.2615   75.7944 H   0  0  0  0  0
   33.8282   -9.9130   76.6518 H   0  0  0  0  0
   36.3291  -10.0594   76.8673 H   0  0  0  0  0
   35.5547  -10.1258   78.4277 H   0  0  0  0  0
   33.2032   -9.7873   79.1274 H   0  0  0  0  0
   31.6066   -7.3867   79.4626 H   0  0  0  0  0
   31.0238   -8.2934   81.6122 H   0  0  0  0  0
   32.2458   -9.6205   81.3574 H   0  0  0  0  0
   34.6517   -8.6076   80.9006 H   0  0  0  0  0
   34.9504   -6.3522   82.7644 H   0  0  0  0  0
   35.8123   -8.6714   83.0597 H   0  0  0  0  0
   37.0789   -7.3655   83.2138 H   0  0  0  0  0
   36.1767  -10.4737   81.2518 H   0  0  0  0  0
   38.8625   -6.1884   81.9114 H   0  0  0  0  0
   40.5612   -9.8103   78.8915 H   0  0  0  0  0
   41.0599   -5.9635   80.7236 H   0  0  0  0  0
   41.8165   -7.7205   79.1491 H   0  0  0  0  0
   35.8034   -6.7719   79.3741 H   0  0  0  0  0
   37.9225   -4.9052   79.5839 H   0  0  0  0  0
   37.8005   -4.7907   77.0667 H   0  0  0  0  0
   36.3334   -5.8896   77.2160 H   0  0  0  0  0
   38.5500   -6.8844   78.6115 H   0  0  0  0  0
   38.9261   -6.5585   76.8339 H   0  0  0  0  0
   34.6175   -4.3233   79.4831 H   0  0  0  0  0
   34.8891   -1.6315   78.1625 H   0  0  0  0  0
   32.4383   -1.6271   78.3286 H   0  0  0  0  0
   32.4835   -3.2322   79.0583 H   0  0  0  0  0
   33.5260   -4.2141   77.0931 H   0  0  0  0  0
   33.7881   -2.5475   76.3641 H   0  0  0  0  0
   35.7959   -2.6583   80.8002 H   0  0  0  0  0
  1  2  2  0  0  0
  1  3  1  0  0  0
  1  4  1  0  0  0
  4  5  1  0  0  0
  5  6  1  0  0  0
  5  8  1  0  0  0
  6  7  2  0  0  0
  6 12  1  0  0  0
  8  9  1  0  0  0
  8 10  1  0  0  0
  9 11  1  0  0  0
 12 13  1  0  0  0
 13 14  1  0  0  0
 13 16  1  0  0  0
 14 15  2  0  0  0
 14 18  1  0  0  0
 16 17  1  0  0  0
 18 19  1  0  0  0
 19 20  1  0  0  0
 19 22  1  0  0  0
 20 21  2  0  0  0
 20 25  1  0  0  0
 22 23  1  0  0  0
 22 24  1  0  0  0
 23 75  1  0  0  0
 25 26  1  0  0  0
 26 27  1  0  0  0
 26 29  1  0  0  0
 27 28  2  0  0  0
 27 36  1  0  0  0
 29 30  1  0  0  0
 30 31  1  0  0  0
 31 32  1  0  0  0
 32 33  1  0  0  0
 33 34  1  0  0  0
 33 35  2  0  0  0
 36 37  1  0  0  0
 37 38  1  0  0  0
 37 40  1  0  0  0
 38 39  2  0  0  0
 38 45  1  0  0  0
 40 41  1  0  0  0
 41 42  1  0  0  0
 42 43  1  0  0  0
 43 44  1  0  0  0
 44105  1  0  0  0
 45 46  1  0  0  0
 46 47  1  0  0  0
 46 49  1  0  0  0
 47 48  2  0  0  0
 47 57  1  0  0  0
 49 50  1  0  0  0
 50 51  4  0  0  0
 50 52  4  0  0  0
 51 53  4  0  0  0
 52 54  4  0  0  0
 53 55  4  0  0  0
 54 55  4  0  0  0
 55 56  1  0  0  0
 57 58  1  0  0  0
 57 63  1  0  0  0
 58 59  1  0  0  0
 58 61  1  0  0  0
 59 60  2  0  0  0
 59 64  1  0  0  0
 61 62  1  0  0  0
 62 63  1  0  0  0
 64 65  1  0  0  0
 65 66  1  0  0  0
 65 68  1  0  0  0
 66 67  2  0  0  0
 66 70  1  0  0  0
 68 69  1  0  0  0
 69 97  1  0  0  0
 70 71  1  0  0  0
 71 72  1  0  0  0
 71 74  1  0  0  0
 72 73  2  0  0  0
 72 77  1  0  0  0
 74 75  1  0  0  0
 75 76  2  0  0  0
 77 78  1  0  0  0
 78 79  1  0  0  0
 78 81  1  0  0  0
 79 80  2  0  0  0
 79 91  1  0  0  0
 81 82  1  0  0  0
 82 83  4  0  0  0
 82 84  4  0  0  0
 83 85  4  0  0  0
 84 86  4  0  0  0
 84 87  4  0  0  0
 85 86  4  0  0  0
 86 88  4  0  0  0
 87 89  4  0  0  0
 88 90  4  0  0  0
 89 90  4  0  0  0
 91 92  1  0  0  0
 92 93  1  0  0  0
 92 95  1  0  0  0
 93 94  2  0  0  0
 93 99  1  0  0  0
 95 96  1  0  0  0
 96 97  1  0  0  0
 97 98  2  0  0  0
 99100  1  0  0  0
100101  1  0  0  0
100103  1  0  0  0
101102  2  0  0  0
103104  1  0  0  0
104105  1  0  0  0
105106  2  0  0  0
101107  1  0  0  0
  3108  1  0  0  0
  3109  1  0  0  0
  3110  1  0  0  0
  4111  1  0  0  0
  5112  1  0  0  0
  8113  1  0  0  0
  9114  1  0  0  0
  9115  1  0  0  0
 10116  1  0  0  0
 10117  1  0  0  0
 10118  1  0  0  0
 11119  1  0  0  0
 11120  1  0  0  0
 11121  1  0  0  0
 12122  1  0  0  0
 13123  1  0  0  0
 16124  1  0  0  0
 16125  1  0  0  0
 17126  1  0  0  0
 18127  1  0  0  0
 19128  1  0  0  0
 22129  1  0  0  0
 24130  1  0  0  0
 24131  1  0  0  0
 24132  1  0  0  0
 25133  1  0  0  0
 26134  1  0  0  0
 29135  1  0  0  0
 29136  1  0  0  0
 30137  1  0  0  0
 30138  1  0  0  0
 31139  1  0  0  0
 31140  1  0  0  0
 32141  1  0  0  0
 34142  1  0  0  0
 34143  1  0  0  0
 35144  1  0  0  0
 36145  1  0  0  0
 37146  1  0  0  0
 40147  1  0  0  0
 40148  1  0  0  0
 41149  1  0  0  0
 41150  1  0  0  0
 42151  1  0  0  0
 42152  1  0  0  0
 43153  1  0  0  0
 43154  1  0  0  0
 44155  1  0  0  0
 45156  1  0  0  0
 46157  1  0  0  0
 49158  1  0  0  0
 49159  1  0  0  0
 51160  1  0  0  0
 52161  1  0  0  0
 53162  1  0  0  0
 54163  1  0  0  0
 56164  1  0  0  0
 58165  1  0  0  0
 61166  1  0  0  0
 61167  1  0  0  0
 62168  1  0  0  0
 62169  1  0  0  0
 63170  1  0  0  0
 63171  1  0  0  0
 64172  1  0  0  0
 65173  1  0  0  0
 68174  1  0  0  0
 68175  1  0  0  0
 70176  1  0  0  0
 71177  1  0  0  0
 74178  1  0  0  0
 74179  1  0  0  0
 77180  1  0  0  0
 78181  1  0  0  0
 81182  1  0  0  0
 81183  1  0  0  0
 83184  1  0  0  0
 87185  1  0  0  0
 88186  1  0  0  0
 89187  1  0  0  0
 90188  1  0  0  0
 91189  1  0  0  0
 92190  1  0  0  0
 95191  1  0  0  0
 95192  1  0  0  0
 96193  1  0  0  0
 96194  1  0  0  0
 99195  1  0  0  0
100196  1  0  0  0
103197  1  0  0  0
103198  1  0  0  0
104199  1  0  0  0
104200  1  0  0  0
107201  1  0  0  0
M  END
$$$$
