6j6m_ligand
  -I-interpret- 

 66 70  0  0  0  0  0  0  0  0999 V2000
   -1.9250   13.6910  113.6890 C   0  0  0  0  0
   -2.7110   12.8330  114.6930 C   0  0  0  0  0
   -1.3950   11.0970  116.1130 C   0  0  0  0  0
   -1.6450   18.3170  109.5020 C   0  0  0  0  0
   -1.9920   16.9710  110.1070 C   0  0  0  0  0
   -1.0500   16.0210  110.3940 C   0  0  0  0  0
    1.1280   14.8670  110.5660 C   0  0  0  0  0
    0.4990   14.0100  111.6220 C   0  0  0  0  0
   -0.9260   13.6710  111.3110 C   0  0  0  0  0
   -1.7220   12.9830  112.4030 C   0  0  0  0  0
   -1.6300   11.8810  117.3930 C   0  0  0  0  0
   -0.3670   11.9460  118.2460 C   0  0  0  0  0
   -1.7340   10.8240  113.6000 C   0  0  0  0  0
   -1.0300   11.6840  112.5620 C   0  0  0  0  0
   -3.2390   16.4100  110.4670 C   0  0  0  0  0
   -4.6300   16.9790  110.3790 C   0  0  0  0  0
   -5.1930   17.2190  109.1440 C   0  0  0  0  0
   -6.4710   17.7260  109.1030 C   0  0  0  0  0
   -5.3190   17.2140  111.5530 C   0  0  0  0  0
   -6.5990   17.7240  111.5050 C   0  0  0  0  0
   -7.1620   17.9840  110.2700 C   0  0  0  0  0
   -8.9540   19.4030  111.0330 C   0  0  0  0  0
   -8.2230   20.5090  111.4410 C   0  0  0  0  0
   -8.8020   21.4190  112.3070 C   0  0  0  0  0
  -10.1000   21.2270  112.7570 C   0  0  0  0  0
  -10.8240   20.1280  112.3350 C   0  0  0  0  0
  -10.2560   19.2220  111.4570 C   0  0  0  0  0
   -2.6430   19.3410  109.3850 N   0  0  0  0  0
    0.3910   16.0370  110.2640 N   0  0  0  0  0
   -1.9520   11.5640  114.8780 N   0  0  0  0  0
   -1.6730   14.9380  110.9160 N   0  0  0  0  0
   -3.0200   15.1560  110.9570 N   0  0  0  0  0
   -0.7620   10.1020  116.1100 O   0  0  0  0  0
   -8.4560   18.4720  110.1220 O   0  0  0  0  0
   -0.5210   18.4830  109.1060 O   0  0  0  0  0
   -0.9473   13.9115  114.1175 H   0  0  0  0  0
   -2.4945   14.5997  113.4943 H   0  0  0  0  0
   -3.7147   12.6289  114.3201 H   0  0  0  0  0
   -2.8199   13.3568  115.6427 H   0  0  0  0  0
    1.1806   14.2722  109.6541 H   0  0  0  0  0
    2.1006   15.1842  110.9423 H   0  0  0  0  0
    0.5158   14.5650  112.5599 H   0  0  0  0  0
    1.0619   13.0783  111.6786 H   0  0  0  0  0
   -0.8490   12.9416  110.5046 H   0  0  0  0  0
   -2.7647   12.9172  112.0921 H   0  0  0  0  0
   -2.4099   11.3807  117.9670 H   0  0  0  0  0
   -1.9212   12.8974  117.1278 H   0  0  0  0  0
   -0.0566   10.9353  118.5109 H   0  0  0  0  0
    0.4267   12.4349  117.6811 H   0  0  0  0  0
   -0.5718   12.5141  119.1534 H   0  0  0  0  0
   -1.1070    9.9572  113.8088 H   0  0  0  0  0
   -2.7064   10.5341  113.2020 H   0  0  0  0  0
   -0.0072   11.8674  112.8911 H   0  0  0  0  0
   -1.0387   11.1606  111.6059 H   0  0  0  0  0
   -4.6416   17.0130  108.2266 H   0  0  0  0  0
   -6.9423   17.9258  108.1407 H   0  0  0  0  0
   -4.8524   16.9970  112.5139 H   0  0  0  0  0
   -7.1553   17.9181  112.4220 H   0  0  0  0  0
   -7.2043   20.6592  111.0834 H   0  0  0  0  0
   -8.2362   22.2902  112.6371 H   0  0  0  0  0
  -10.5495   21.9438  113.4443 H   0  0  0  0  0
  -11.8419   19.9751  112.6937 H   0  0  0  0  0
  -10.8337   18.3688  111.1013 H   0  0  0  0  0
   -2.4071   20.2366  108.9576 H   0  0  0  0  0
   -3.5884   19.1735  109.7293 H   0  0  0  0  0
    0.8710   16.8833  109.9577 H   0  0  0  0  0
  1  2  1  0  0  0
 10  1  1  0  0  0
  2 30  1  0  0  0
  3 11  1  0  0  0
 30  3  1  0  0  0
  3 33  2  0  0  0
  5  4  1  0  0  0
  4 28  1  0  0  0
  4 35  2  0  0  0
  5  6  4  0  0  0
 15  5  4  0  0  0
  6 29  1  0  0  0
  6 31  4  0  0  0
  7  8  1  0  0  0
 29  7  1  0  0  0
  9  8  1  0  0  0
  9 10  1  0  0  0
 31  9  1  0  0  0
 10 14  1  0  0  0
 11 12  1  0  0  0
 14 13  1  0  0  0
 13 30  1  0  0  0
 16 15  1  0  0  0
 15 32  4  0  0  0
 17 16  4  0  0  0
 19 16  4  0  0  0
 18 17  4  0  0  0
 21 18  4  0  0  0
 20 19  4  0  0  0
 21 20  4  0  0  0
 34 21  1  0  0  0
 22 23  4  0  0  0
 22 27  4  0  0  0
 22 34  1  0  0  0
 23 24  4  0  0  0
 24 25  4  0  0  0
 25 26  4  0  0  0
 26 27  4  0  0  0
 31 32  4  0  0  0
  1 36  1  0  0  0
  1 37  1  0  0  0
  2 38  1  0  0  0
  2 39  1  0  0  0
  7 40  1  0  0  0
  7 41  1  0  0  0
  8 42  1  0  0  0
  8 43  1  0  0  0
  9 44  1  0  0  0
 10 45  1  0  0  0
 11 46  1  0  0  0
 11 47  1  0  0  0
 12 48  1  0  0  0
 12 49  1  0  0  0
 12 50  1  0  0  0
 13 51  1  0  0  0
 13 52  1  0  0  0
 14 53  1  0  0  0
 14 54  1  0  0  0
 17 55  1  0  0  0
 18 56  1  0  0  0
 19 57  1  0  0  0
 20 58  1  0  0  0
 23 59  1  0  0  0
 24 60  1  0  0  0
 25 61  1  0  0  0
 26 62  1  0  0  0
 27 63  1  0  0  0
 28 64  1  0  0  0
 28 65  1  0  0  0
 29 66  1  0  0  0
M  END
$$$$
