1tl9_ligand
  -I-interpret- 

 70 69  0  0  0  0  0  0  0  0999 V2000
   37.3180   21.4640   37.1170 C   0  0  0  0  0
   37.2960   20.3850   36.5090 O   0  0  0  0  0
   38.5750   22.2710   37.1810 C   0  0  0  0  0
   36.2640   21.9710   37.7650 N   0  0  0  0  0
   34.9630   21.3030   37.7850 C   0  0  0  0  0
   34.3090   21.3980   36.4170 C   0  0  0  0  0
   34.3570   22.4410   35.7560 O   0  0  0  0  0
   34.0460   21.9010   38.8580 C   0  0  0  0  0
   34.5150   21.8090   40.3170 C   0  0  0  0  0
   33.5760   22.6050   41.1970 C   0  0  0  0  0
   34.5980   20.3630   40.7980 C   0  0  0  0  0
   33.7890   20.2620   35.9670 N   0  0  0  0  0
   33.1490   20.1560   34.6660 C   0  0  0  0  0
   31.6410   20.0940   34.8260 C   0  0  0  0  0
   31.1330   19.5310   35.7990 O   0  0  0  0  0
   33.6580   18.9070   33.9270 C   0  0  0  0  0
   35.1790   18.6790   33.8550 C   0  0  0  0  0
   35.4780   17.3340   33.2600 C   0  0  0  0  0
   35.8730   19.7860   33.0730 C   0  0  0  0  0
   30.9380   20.7050   33.8780 N   0  0  0  0  0
   29.4810   20.7220   33.8810 C   0  0  0  0  0
   28.8010   19.7290   32.7490 C   0  0  0  0  0
   27.6190   19.4090   32.4930 O   0  0  0  0  0
   28.9370   22.1390   33.7810 C   0  0  0  0  0
   28.7760   22.8230   35.1170 C   0  0  0  0  0
   28.0290   24.1320   34.9590 C   0  0  0  0  0
   26.6650   23.9540   34.4680 N   0  0  0  0  0
   25.5760   24.0550   35.2260 C   0  0  0  0  0
   24.3790   23.8740   34.6860 N   0  0  0  0  0
   25.6790   24.3290   36.5210 N   0  0  0  0  0
   39.3574   21.6848   37.6630 H   0  0  0  0  0
   38.8874   22.5353   36.1707 H   0  0  0  0  0
   38.3933   23.1791   37.7558 H   0  0  0  0  0
   36.3710   22.8548   38.2629 H   0  0  0  0  0
   35.1236   20.2536   38.0321 H   0  0  0  0  0
   33.1210   21.3264   38.8089 H   0  0  0  0  0
   33.9859   22.9661   38.6342 H   0  0  0  0  0
   35.5202   22.2259   40.3788 H   0  0  0  0  0
   33.5774   23.6474   40.8783 H   0  0  0  0  0
   32.5681   22.1989   41.1114 H   0  0  0  0  0
   33.9085   22.5401   42.2330 H   0  0  0  0  0
   33.6138   19.9002   40.7253 H   0  0  0  0  0
   35.3056   19.8146   40.1761 H   0  0  0  0  0
   34.9337   20.3450   41.8349 H   0  0  0  0  0
   33.8406   19.4316   36.5570 H   0  0  0  0  0
   33.4006   21.0386   34.0779 H   0  0  0  0  0
   33.3351   19.0311   32.8933 H   0  0  0  0  0
   33.2649   18.0591   34.4879 H   0  0  0  0  0
   35.5711   18.7038   34.8717 H   0  0  0  0  0
   35.0305   16.5566   33.8792 H   0  0  0  0  0
   35.0624   17.2828   32.2536 H   0  0  0  0  0
   36.5575   17.1892   33.2165 H   0  0  0  0  0
   35.4792   19.8132   32.0570 H   0  0  0  0  0
   35.6898   20.7434   33.5608 H   0  0  0  0  0
   36.9450   19.5911   33.0434 H   0  0  0  0  0
   31.4350   21.1778   33.1231 H   0  0  0  0  0
   29.1850   20.3129   34.8470 H   0  0  0  0  0
   29.1632   18.7703   33.1201 H   0  0  0  0  0
   29.0201   20.3115   31.8541 H   0  0  0  0  0
   27.6072   18.7990   31.7518 H   0  0  0  0  0
   27.9488   22.0773   33.3253 H   0  0  0  0  0
   29.6517   22.7222   33.2003 H   0  0  0  0  0
   29.7636   23.0274   35.5306 H   0  0  0  0  0
   28.2095   22.1709   35.7818 H   0  0  0  0  0
   28.5684   24.7366   34.2300 H   0  0  0  0  0
   27.9702   24.6017   35.9408 H   0  0  0  0  0
   26.5389   23.7381   33.4791 H   0  0  0  0  0
   24.2950   23.6581   33.6927 H   0  0  0  0  0
   24.8393   24.3994   37.0958 H   0  0  0  0  0
   26.5978   24.4691   36.9411 H   0  0  0  0  0
  1  2  2  0  0  0
  1  3  1  0  0  0
  1  4  1  0  0  0
  4  5  1  0  0  0
  5  6  1  0  0  0
  5  8  1  0  0  0
  6  7  2  0  0  0
  6 12  1  0  0  0
  8  9  1  0  0  0
  9 10  1  0  0  0
  9 11  1  0  0  0
 12 13  1  0  0  0
 13 14  1  0  0  0
 13 16  1  0  0  0
 14 15  2  0  0  0
 14 20  1  0  0  0
 16 17  1  0  0  0
 17 18  1  0  0  0
 17 19  1  0  0  0
 20 21  1  0  0  0
 21 22  1  0  0  0
 21 24  1  0  0  0
 22 23  1  0  0  0
 24 25  1  0  0  0
 25 26  1  0  0  0
 26 27  1  0  0  0
 27 28  1  0  0  0
 28 29  2  0  0  0
 28 30  1  0  0  0
  3 31  1  0  0  0
  3 32  1  0  0  0
  3 33  1  0  0  0
  4 34  1  0  0  0
  5 35  1  0  0  0
  8 36  1  0  0  0
  8 37  1  0  0  0
  9 38  1  0  0  0
 10 39  1  0  0  0
 10 40  1  0  0  0
 10 41  1  0  0  0
 11 42  1  0  0  0
 11 43  1  0  0  0
 11 44  1  0  0  0
 12 45  1  0  0  0
 13 46  1  0  0  0
 16 47  1  0  0  0
 16 48  1  0  0  0
 17 49  1  0  0  0
 18 50  1  0  0  0
 18 51  1  0  0  0
 18 52  1  0  0  0
 19 53  1  0  0  0
 19 54  1  0  0  0
 19 55  1  0  0  0
 20 56  1  0  0  0
 21 57  1  0  0  0
 22 58  1  0  0  0
 22 59  1  0  0  0
 23 60  1  0  0  0
 24 61  1  0  0  0
 24 62  1  0  0  0
 25 63  1  0  0  0
 25 64  1  0  0  0
 26 65  1  0  0  0
 26 66  1  0  0  0
 27 67  1  0  0  0
 29 68  1  0  0  0
 30 69  1  0  0  0
 30 70  1  0  0  0
M  END
$$$$
