2azm_ligand
  -I-interpret- 

 84 84  0  0  0  0  0  0  0  0999 V2000
   38.9600   86.8870   98.7730 N   0  3  0  0  0
   40.1370   86.6910   97.8820 C   0  0  0  0  0
   40.1350   85.3090   97.2150 C   0  0  0  0  0
   39.5900   84.3310   97.7620 O   0  0  0  0  0
   41.4270   86.9080   98.6520 C   0  0  0  0  0
   40.7430   85.2430   96.0340 N   0  0  0  0  0
   40.8910   83.9940   95.2940 C   0  0  0  0  0
   41.5250   84.2450   93.9260 C   0  0  0  0  0
   40.6100   84.8830   93.0690 O   0  0  0  0  0
   41.7170   82.9620   96.0510 C   0  0  0  0  0
   42.8060   83.2470   96.5450 O   0  0  0  0  0
   41.3810   85.6860   91.9300 P   0  0  0  0  0
   42.3830   84.6970   91.1690 O   0  0  0  0  0
   42.2750   86.9160   92.4750 O   0  0  0  0  0
   40.2220   86.2500   90.9790 O   0  0  0  0  0
   41.1720   81.7580   96.1080 N   0  0  0  0  0
   41.7870   80.6420   96.7780 C   0  0  0  0  0
   43.1350   80.2600   96.1660 C   0  0  0  0  0
   43.2500   80.1080   94.9470 O   0  0  0  0  0
   40.8460   79.4520   96.6880 C   0  0  0  0  0
   41.2700   78.2970   97.5500 C   0  0  0  0  0
   40.4070   78.1640   98.7660 C   0  0  0  0  0
   39.1750   78.0460   98.6630 O   0  0  0  0  0
   41.0390   78.1740   99.9330 N   0  0  0  0  0
   44.1470   80.1200   97.0200 N   0  0  0  0  0
   45.4390   79.5580   96.6210 C   0  0  0  0  0
   45.4850   78.0850   96.9880 C   0  0  0  0  0
   44.9250   77.6770   98.0000 O   0  0  0  0  0
   46.5890   80.2860   97.2990 C   0  0  0  0  0
   46.6910   81.7400   96.9320 C   0  0  0  0  0
   47.9170   82.4050   97.5300 C   0  0  0  0  0
   49.0160   81.8010   97.4870 O   0  0  0  0  0
   47.7780   83.5430   98.0330 O   0  0  0  0  0
   46.1590   77.2880   96.1730 N   0  0  0  0  0
   46.1900   75.8450   96.4000 C   0  0  0  0  0
   47.5990   75.3020   96.6570 C   0  0  0  0  0
   47.7560   74.2000   97.1930 O   0  0  0  0  0
   45.4800   75.1060   95.2550 C   0  0  0  0  0
   44.0030   75.4420   95.1690 C   0  0  0  0  0
   43.5510   76.4840   94.3570 C   0  0  0  0  0
   43.0600   74.7400   95.9210 C   0  0  0  0  0
   42.1950   76.8050   94.2820 C   0  0  0  0  0
   41.7080   75.0480   95.8550 C   0  0  0  0  0
   41.2830   76.0740   95.0280 C   0  0  0  0  0
   39.9470   76.3920   94.9550 O   0  0  0  0  0
   48.6110   75.9410   96.3630 O   0  0  0  0  0
   38.1031   86.7376   98.2402 H   0  0  0  0  0
   39.0035   86.2199   99.5434 H   0  0  0  0  0
   38.9701   87.8373   99.1435 H   0  0  0  0  0
   40.0680   87.4331   97.0866 H   0  0  0  0  0
   41.5222   86.1424   99.4220 H   0  0  0  0  0
   42.2726   86.8435   97.9672 H   0  0  0  0  0
   41.4093   87.8933   99.1177 H   0  0  0  0  0
   41.1209   86.0996   95.6293 H   0  0  0  0  0
   39.8861   83.5916   95.1659 H   0  0  0  0  0
   41.8132   83.2892   93.4883 H   0  0  0  0  0
   42.3980   84.8854   94.0522 H   0  0  0  0  0
   41.7114   87.5379   92.9411 H   0  0  0  0  0
   39.6521   86.8352   91.4834 H   0  0  0  0  0
   40.2701   81.6129   95.6541 H   0  0  0  0  0
   41.9713   80.9303   97.8129 H   0  0  0  0  0
   40.8444   79.1093   95.6533 H   0  0  0  0  0
   39.8651   79.7793   97.0327 H   0  0  0  0  0
   42.2957   78.4709   97.8754 H   0  0  0  0  0
   41.1803   77.3819   96.9647 H   0  0  0  0  0
   40.5100   78.0820  100.8003 H   0  0  0  0  0
   42.0537   78.2737   99.9626 H   0  0  0  0  0
   44.0175   80.4151   97.9878 H   0  0  0  0  0
   45.5465   79.6785   95.5430 H   0  0  0  0  0
   47.5123   79.8049   96.9762 H   0  0  0  0  0
   46.4161   80.2346   98.3740 H   0  0  0  0  0
   45.8088   82.2481   97.3215 H   0  0  0  0  0
   46.7665   81.8087   95.8468 H   0  0  0  0  0
   48.8952   80.9491   97.0613 H   0  0  0  0  0
   46.6613   77.6853   95.3792 H   0  0  0  0  0
   45.6407   75.6535   97.3218 H   0  0  0  0  0
   46.8985   73.8066   97.3704 H   0  0  0  0  0
   45.5697   74.0357   95.4408 H   0  0  0  0  0
   45.9478   75.4107   94.3188 H   0  0  0  0  0
   44.2700   77.0569   93.7713 H   0  0  0  0  0
   43.3920   73.9328   96.5739 H   0  0  0  0  0
   41.8565   77.6214   93.6440 H   0  0  0  0  0
   40.9869   74.4868   96.4493 H   0  0  0  0  0
   39.4471   75.8014   95.5233 H   0  0  0  0  0
  1  2  1  0  0  0
  2  3  1  0  0  0
  2  5  1  0  0  0
  3  4  2  0  0  0
  3  6  1  0  0  0
  6  7  1  0  0  0
  7  8  1  0  0  0
  7 10  1  0  0  0
  8  9  1  0  0  0
  9 12  1  0  0  0
 10 11  2  0  0  0
 10 16  1  0  0  0
 12 13  2  0  0  0
 12 14  1  0  0  0
 12 15  1  0  0  0
 16 17  1  0  0  0
 17 18  1  0  0  0
 17 20  1  0  0  0
 18 19  2  0  0  0
 18 25  1  0  0  0
 20 21  1  0  0  0
 21 22  1  0  0  0
 22 23  2  0  0  0
 22 24  1  0  0  0
 25 26  1  0  0  0
 26 27  1  0  0  0
 26 29  1  0  0  0
 27 28  2  0  0  0
 27 34  1  0  0  0
 29 30  1  0  0  0
 30 31  1  0  0  0
 31 32  1  0  0  0
 31 33  2  0  0  0
 34 35  1  0  0  0
 35 36  1  0  0  0
 35 38  1  0  0  0
 36 37  1  0  0  0
 36 46  2  0  0  0
 38 39  1  0  0  0
 39 40  4  0  0  0
 39 41  4  0  0  0
 40 42  4  0  0  0
 41 43  4  0  0  0
 42 44  4  0  0  0
 43 44  4  0  0  0
 44 45  1  0  0  0
  1 47  1  0  0  0
  1 48  1  0  0  0
  1 49  1  0  0  0
  2 50  1  0  0  0
  5 51  1  0  0  0
  5 52  1  0  0  0
  5 53  1  0  0  0
  6 54  1  0  0  0
  7 55  1  0  0  0
  8 56  1  0  0  0
  8 57  1  0  0  0
 14 58  1  0  0  0
 15 59  1  0  0  0
 16 60  1  0  0  0
 17 61  1  0  0  0
 20 62  1  0  0  0
 20 63  1  0  0  0
 21 64  1  0  0  0
 21 65  1  0  0  0
 24 66  1  0  0  0
 24 67  1  0  0  0
 25 68  1  0  0  0
 26 69  1  0  0  0
 29 70  1  0  0  0
 29 71  1  0  0  0
 30 72  1  0  0  0
 30 73  1  0  0  0
 32 74  1  0  0  0
 34 75  1  0  0  0
 35 76  1  0  0  0
 37 77  1  0  0  0
 38 78  1  0  0  0
 38 79  1  0  0  0
 40 80  1  0  0  0
 41 81  1  0  0  0
 42 82  1  0  0  0
 43 83  1  0  0  0
 45 84  1  0  0  0
M  END
$$$$
