### 
### Created by X-TOOL on Mon Sep 10 21:12:54 2018
### 

@<TRIPOS>MOLECULE
2azm_ligand
   80    80     1     0     0
SMALL
GAST_HUCK


@<TRIPOS>ATOM
      1 N          38.9600   86.8870   98.7730 N.4       1 ALA         0.2377
      2 CA         40.1370   86.6910   97.8820 C.3       1 ALA         0.0621
      3 C          40.1350   85.3090   97.2150 C.2       1 ALA         0.2265
      4 O          39.5900   84.3310   97.7620 O.2       1 ALA        -0.3907
      5 CB         41.4270   86.9080   98.6520 C.3       1 ALA        -0.0040
      6 N          40.7430   85.2430   96.0340 N.am      1 SEP        -0.2586
      7 CA         40.8910   83.9940   95.2940 C.3       1 SEP         0.1587
      8 CB         41.5250   84.2450   93.9260 C.3       1 SEP         0.1184
      9 OG         40.6100   84.8830   93.0690 O.3       1 SEP        -0.2714
     10 C          41.7170   82.9620   96.0510 C.2       1 SEP         0.2065
     11 O          42.8060   83.2470   96.5450 O.2       1 SEP        -0.3943
     12 P          41.3810   85.6860   91.9300 P.3       1 SEP         0.2010
     13 O1P        42.3830   84.6970   91.1690 O.co2     1 SEP        -0.5537
     14 O2P        42.2750   86.9160   92.4750 O.co2     1 SEP        -0.5537
     15 O3P        40.2220   86.2500   90.9790 O.co2     1 SEP        -0.5537
     16 N          41.1720   81.7580   96.1080 N.am      1 GLN        -0.2635
     17 CA         41.7870   80.6420   96.7780 C.3       1 GLN         0.1330
     18 C          43.1350   80.2600   96.1660 C.2       1 GLN         0.2040
     19 O          43.2500   80.1080   94.9470 O.2       1 GLN        -0.3944
     20 CB         40.8460   79.4520   96.6880 C.3       1 GLN         0.0045
     21 CG         41.2700   78.2970   97.5500 C.3       1 GLN         0.0412
     22 CD         40.4070   78.1640   98.7660 C.2       1 GLN         0.1737
     23 OE1        39.1750   78.0460   98.6630 O.2       1 GLN        -0.3973
     24 NE2        41.0390   78.1740   99.9330 N.am      1 GLN        -0.3009
     25 N          44.1470   80.1200   97.0200 N.am      1 GLU        -0.2636
     26 CA         45.4390   79.5580   96.6210 C.3       1 GLU         0.1324
     27 C          45.4850   78.0850   96.9880 C.2       1 GLU         0.2036
     28 O          44.9250   77.6770   98.0000 O.2       1 GLU        -0.3944
     29 CB         46.5890   80.2860   97.2990 C.3       1 GLU        -0.0008
     30 CG         46.6910   81.7400   96.9320 C.3       1 GLU         0.0044
     31 CD         47.9170   82.4050   97.5300 C.2       1 GLU         0.0350
     32 OE1        49.0160   81.8010   97.4870 O.co2     1 GLU        -0.5690
     33 OE2        47.7780   83.5430   98.0330 O.co2     1 GLU        -0.5690
     34 N          46.1590   77.2880   96.1730 N.am      1 TYR        -0.2679
     35 CA         46.1900   75.8450   96.4000 C.3       1 TYR         0.1025
     36 C          47.5990   75.3020   96.6570 C.2       1 TYR         0.0619
     37 O          47.7560   74.2000   97.1930 O.co2     1 TYR        -0.5665
     38 CB         45.4800   75.1060   95.2550 C.3       1 TYR         0.0108
     39 CG         44.0030   75.4420   95.1690 C.ar      1 TYR        -0.0499
     40 CD1        43.5510   76.4840   94.3570 C.ar      1 TYR        -0.0686
     41 CD2        43.0600   74.7400   95.9210 C.ar      1 TYR        -0.0686
     42 CE1        42.1950   76.8050   94.2820 C.ar      1 TYR        -0.0398
     43 CE2        41.7080   75.0480   95.8550 C.ar      1 TYR        -0.0398
     44 CZ         41.2830   76.0740   95.0280 C.ar      1 TYR         0.0805
     45 OH         39.9470   76.3920   94.9550 O.3       1 TYR        -0.3376
     46 OXT        48.6110   75.9410   96.3630 O.co2     1 TYR        -0.5665
     47 H1         39.0021   87.8045   99.1883 H         1 ALA         0.2015
     48 H2         38.9687   86.1886   99.4998 H         1 ALA         0.2015
     49 H3         38.1125   86.8007   98.2341 H         1 ALA         0.2015
     50 H4         40.0839   87.4475   97.0852 H         1 ALA         0.1095
     51 H5         42.2848   86.7595   97.9796 H         1 ALA         0.0310
     52 H6         41.4836   86.1892   99.4827 H         1 ALA         0.0310
     53 H7         41.4476   87.9326   99.0516 H         1 ALA         0.0310
     54 H8         41.1135   86.0828   95.6373 H         1 SEP         0.1885
     55 H9         39.8854   83.5763   95.1380 H         1 SEP         0.0827
     56 H10        41.8250   83.2834   93.4840 H         1 SEP         0.0662
     57 H11        42.4116   84.8843   94.0496 H         1 SEP         0.0662
     58 H12        40.2878   81.6158   95.6630 H         1 GLN         0.1883
     59 H13        41.9434   80.9063   97.8343 H         1 GLN         0.0801
     60 H14        40.8097   79.1130   95.6422 H         1 GLN         0.0337
     61 H15        39.8429   79.7745   97.0040 H         1 GLN         0.0337
     62 H16        42.3113   78.4536   97.8680 H         1 GLN         0.0504
     63 H17        41.2016   77.3699   96.9619 H         1 GLN         0.0504
     64 H18        40.5199   78.0889  100.7835 H         1 GLN         0.1814
     65 H19        42.0343   78.2666   99.9618 H         1 GLN         0.1814
     66 H20        44.0200   80.4093   97.9688 H         1 GLU         0.1883
     67 H21        45.5485   79.6612   95.5314 H         1 GLU         0.0801
     68 H22        47.5287   79.7903   97.0140 H         1 GLU         0.0330
     69 H23        46.4513   80.2126   98.3879 H         1 GLU         0.0330
     70 H24        45.7936   82.2602   97.2981 H         1 GLU         0.0433
     71 H25        46.7427   81.8247   95.8365 H         1 GLU         0.0433
     72 H26        46.6515   77.6775   95.3947 H         1 TYR         0.1877
     73 H27        45.6103   75.6539   97.3151 H         1 TYR         0.0747
     74 H28        45.5858   74.0230   95.4159 H         1 TYR         0.0446
     75 H29        45.9601   75.3842   94.3052 H         1 TYR         0.0446
     76 H30        44.2660   77.0537   93.7745 H         1 TYR         0.0530
     77 H31        43.3902   73.9373   96.5704 H         1 TYR         0.0530
     78 H32        41.8584   77.6169   93.6475 H         1 TYR         0.0525
     79 H33        40.9909   74.4899   96.4460 H         1 TYR         0.0525
     80 H34        39.6359   76.6470   95.8156 H         1 TYR         0.2458
@<TRIPOS>BOND
     1    1    2 1  
     2    2    3 1  
     3    2    5 1  
     4    3    4 2  
     5    3    6 am 
     6    6    7 1  
     7    7    8 1  
     8    7   10 1  
     9    8    9 1  
    10    9   12 1  
    11   10   11 2  
    12   10   16 am 
    13   12   13 ar 
    14   12   14 ar 
    15   12   15 ar 
    16   16   17 1  
    17   17   18 1  
    18   17   20 1  
    19   18   19 2  
    20   18   25 am 
    21   20   21 1  
    22   21   22 1  
    23   22   23 2  
    24   22   24 am 
    25   25   26 1  
    26   26   27 1  
    27   26   29 1  
    28   27   28 2  
    29   27   34 am 
    30   29   30 1  
    31   30   31 1  
    32   31   32 ar 
    33   31   33 ar 
    34   34   35 1  
    35   35   36 1  
    36   35   38 1  
    37   36   37 ar 
    38   36   46 ar 
    39   38   39 1  
    40   39   40 ar 
    41   39   41 ar 
    42   40   42 ar 
    43   41   43 ar 
    44   42   44 ar 
    45   43   44 ar 
    46   44   45 1  
    47    1   47 1  
    48    1   48 1  
    49    1   49 1  
    50    2   50 1  
    51    5   51 1  
    52    5   52 1  
    53    5   53 1  
    54    6   54 1  
    55    7   55 1  
    56    8   56 1  
    57    8   57 1  
    58   16   58 1  
    59   17   59 1  
    60   20   60 1  
    61   20   61 1  
    62   21   62 1  
    63   21   63 1  
    64   24   64 1  
    65   24   65 1  
    66   25   66 1  
    67   26   67 1  
    68   29   68 1  
    69   29   69 1  
    70   30   70 1  
    71   30   71 1  
    72   34   72 1  
    73   35   73 1  
    74   38   74 1  
    75   38   75 1  
    76   40   76 1  
    77   41   77 1  
    78   42   78 1  
    79   43   79 1  
    80   45   80 1  
@<TRIPOS>SUBSTRUCTURE
     1 ALA         1

