5hwu_ligand
  -I-interpret- 

 44 45  0  0  0  0  0  0  0  0999 V2000
   18.4440    9.3050  -32.1140 O   0  0  0  0  0
   17.4090    9.0140  -31.5910 C   0  0  0  0  0
   16.3280    8.6880  -32.3570 C   0  0  0  0  0
   15.1370    8.3720  -31.7600 C   0  0  0  0  0
   17.2950    9.0170  -30.2740 N   0  0  0  0  0
   16.1000    8.7120  -29.6910 C   0  0  0  0  0
   15.9550    8.7030  -28.5110 O   0  0  0  0  0
   15.0260    8.3890  -30.4360 N   0  0  0  0  0
   13.8040    8.0400  -29.7230 C   0  0  0  0  0
   13.0770    9.0950  -29.3530 C   0  0  0  0  0
   11.5400    8.6450  -29.5570 C   0  0  0  0  0
   11.1420    7.8760  -28.4180 O   0  0  0  0  0
   12.8720    7.1200  -30.6320 O   0  0  0  0  0
   11.5910    7.9210  -30.7310 C   0  0  0  0  0
   11.7550    8.8630  -31.9120 C   0  0  0  0  0
   12.0950    8.1440  -33.0650 O   0  0  0  0  0
   11.3790    8.5810  -34.4860 P   0  0  0  0  0
   12.0540    7.8890  -35.6490 O   0  0  0  0  0
   11.4110   10.0640  -34.6730 O   0  0  0  0  0
    9.7450    8.1700  -34.5210 N   0  0  0  0  0
    9.0270    7.0540  -33.4730 P   0  0  0  0  0
    9.9150    5.9130  -33.0340 O   0  0  0  0  0
    8.5500    7.8080  -32.2510 O   0  0  0  0  0
    7.8240    6.4570  -34.4130 O   0  0  0  0  0
    6.2170    6.5500  -34.0740 P   0  0  0  0  0
    5.4600    5.7910  -35.1290 O   0  0  0  0  0
    5.8460    8.0090  -34.1200 O   0  0  0  0  0
    6.0710    5.9150  -32.7160 O   0  0  0  0  0
   16.4125    8.6791  -33.4437 H   0  0  0  0  0
   14.2763    8.1054  -32.3734 H   0  0  0  0  0
   18.1012    9.2476  -29.6932 H   0  0  0  0  0
   14.1382    7.5196  -28.8255 H   0  0  0  0  0
   13.3191    9.9771  -29.9458 H   0  0  0  0  0
   13.2784    9.3790  -28.3201 H   0  0  0  0  0
   10.8092    9.4503  -29.6309 H   0  0  0  0  0
   10.2286    7.5998  -28.5231 H   0  0  0  0  0
   10.6930    7.3183  -30.8669 H   0  0  0  0  0
   12.5493    9.5759  -31.6905 H   0  0  0  0  0
   10.8138    9.3854  -32.0834 H   0  0  0  0  0
   12.0256    6.9389  -35.5148 H   0  0  0  0  0
    9.1526    8.6223  -35.2173 H   0  0  0  0  0
    7.9851    8.5343  -32.5248 H   0  0  0  0  0
    6.3343    8.4837  -33.4433 H   0  0  0  0  0
    6.5659    6.4251  -32.0706 H   0  0  0  0  0
  1  2  2  0  0  0
  2  3  1  0  0  0
  2  5  1  0  0  0
  3  4  2  0  0  0
  4  8  1  0  0  0
  5  6  1  0  0  0
  6  7  2  0  0  0
  6  8  1  0  0  0
  8  9  1  0  0  0
  9 10  1  0  0  0
  9 13  1  0  0  0
 10 11  1  0  0  0
 11 12  1  0  0  0
 11 14  1  0  0  0
 13 14  1  0  0  0
 14 15  1  0  0  0
 15 16  1  0  0  0
 16 17  1  0  0  0
 17 18  1  0  0  0
 17 19  2  0  0  0
 17 20  1  0  0  0
 20 21  1  0  0  0
 21 22  2  0  0  0
 21 23  1  0  0  0
 21 24  1  0  0  0
 24 25  1  0  0  0
 25 26  2  0  0  0
 25 27  1  0  0  0
 25 28  1  0  0  0
  3 29  1  0  0  0
  4 30  1  0  0  0
  5 31  1  0  0  0
  9 32  1  0  0  0
 10 33  1  0  0  0
 10 34  1  0  0  0
 11 35  1  0  0  0
 12 36  1  0  0  0
 14 37  1  0  0  0
 15 38  1  0  0  0
 15 39  1  0  0  0
 18 40  1  0  0  0
 20 41  1  0  0  0
 23 42  1  0  0  0
 27 43  1  0  0  0
 28 44  1  0  0  0
M  END
$$$$
