3fsm_ligand
  -I-interpret- 

122121  0  0  0  0  0  0  0  0999 V2000
    4.4010   -8.8450   16.3700 C   0  0  0  0  0
    3.5210   -8.6950   17.2250 O   0  0  0  0  0
    4.1290   -9.5660   15.0670 C   0  0  0  0  0
    5.7070   -8.6900   16.6840 N   0  0  0  0  0
    6.2050   -8.0010   17.8940 C   0  0  0  0  0
    6.7980   -6.5730   17.7130 C   0  0  0  0  0
    7.0580   -5.8650   18.7030 O   0  0  0  0  0
    7.2730   -8.8240   18.5750 C   0  0  0  0  0
    8.3880   -9.0430   17.7050 O   0  0  0  0  0
    6.6870  -10.2050   19.0410 C   0  0  0  0  0
    6.9410   -6.1060   16.4880 N   0  0  0  0  0
    7.4620   -4.7880   16.2250 C   0  0  0  0  0
    6.4160   -3.8830   15.5340 C   0  0  0  0  0
    6.3110   -3.7880   14.3080 O   0  0  0  0  0
    8.8170   -4.8400   15.4450 C   0  0  0  0  0
    9.8140   -5.8370   16.0610 C   0  0  0  0  0
    9.4690   -3.4840   15.3830 C   0  0  0  0  0
   10.2030   -5.6140   17.4710 C   0  0  0  0  0
    5.5620   -3.2570   16.2990 N   0  0  0  0  0
    4.4390   -2.5650   15.6580 C   0  0  0  0  0
    4.6320   -1.0690   15.4890 C   0  0  0  0  0
    3.1100   -2.9340   16.3540 C   0  0  0  0  0
    2.9040   -4.4170   16.6390 C   0  0  0  0  0
    2.7780   -5.3130   15.3990 C   0  0  0  0  0
    1.7650   -4.6420   14.4980 C   0  0  0  0  0
    5.8920   -0.6900   14.8600 N   0  3  0  0  0
    5.8880    0.4950   13.9670 C   0  0  0  0  0
    4.8110    0.4090   12.8950 C   0  0  0  0  0
    4.5430   -0.5880   12.2030 O   0  0  0  0  0
    7.3060    0.7540   13.4480 C   0  0  0  0  0
    7.4940    1.9190   12.4660 C   0  0  0  0  0
    7.5800    1.3900   11.0320 C   0  0  0  0  0
    8.7240    0.4150   10.7910 C   0  0  0  0  0
    4.1960    1.5400   12.6730 N   0  0  0  0  0
    3.2220    1.6660   11.6010 C   0  0  0  0  0
    3.2490    3.0780   10.9890 C   0  0  0  0  0
    3.3200    4.1080   11.6650 O   0  0  0  0  0
    1.8250    1.2380   12.0590 C   0  0  0  0  0
    0.7300    1.4090   10.9830 C   0  0  0  0  0
    0.1080    2.7700   10.9340 C   0  0  0  0  0
    0.1570    3.5100   11.8990 O   0  0  0  0  0
   -0.5170    3.1000    9.8280 N   0  0  0  0  0
    3.2270    3.0900    9.6880 N   0  0  0  0  0
    3.3260    4.3070    8.9270 C   0  0  0  0  0
    2.0580    4.4170    8.1230 C   0  0  0  0  0
    1.7730    3.5250    7.2760 O   0  0  0  0  0
    4.5550    4.1760    8.0320 C   0  0  0  0  0
    5.8050    3.8230    8.8040 C   0  0  0  0  0
    7.0720    4.1940    8.0950 C   0  0  0  0  0
    6.9540    5.4420    7.3340 N   0  0  0  0  0
    7.9850    6.1100    6.8350 C   0  0  0  0  0
    7.7830    7.2270    6.1410 N   0  0  0  0  0
    9.2180    5.6860    7.0640 N   0  0  0  0  0
    1.3960    5.5850    8.0750 N   0  0  0  0  0
    3.8123  -10.5875   15.2777 H   0  0  0  0  0
    3.3415   -9.0450   14.5225 H   0  0  0  0  0
    5.0381   -9.5828   14.4659 H   0  0  0  0  0
    6.3979   -9.0758   16.0404 H   0  0  0  0  0
    5.2935   -7.8876   18.4809 H   0  0  0  0  0
    7.6171   -8.2668   19.4464 H   0  0  0  0  0
    8.7431   -8.1970   17.4226 H   0  0  0  0  0
    6.3605  -10.7724   18.1695 H   0  0  0  0  0
    7.4570  -10.7642   19.5726 H   0  0  0  0  0
    5.8384  -10.0333   19.7031 H   0  0  0  0  0
    6.6741   -6.6970   15.7006 H   0  0  0  0  0
    7.6792   -4.3299   17.1899 H   0  0  0  0  0
    8.5651   -5.1752   14.4389 H   0  0  0  0  0
   10.7310   -5.7379   15.4802 H   0  0  0  0  0
    9.3167   -6.8067   16.0394 H   0  0  0  0  0
    8.8040   -2.7854   14.8753 H   0  0  0  0  0
    9.6656   -3.1302   16.3951 H   0  0  0  0  0
   10.4077   -3.5584   14.8340 H   0  0  0  0  0
   10.6707   -4.6341   17.5669 H   0  0  0  0  0
    9.3158   -5.6580   18.1027 H   0  0  0  0  0
   10.9081   -6.3862   17.7785 H   0  0  0  0  0
    5.6730   -3.2497   17.3129 H   0  0  0  0  0
    4.3958   -2.9286   14.6313 H   0  0  0  0  0
    4.6293   -0.6318   16.4875 H   0  0  0  0  0
    3.8316   -0.7151   14.8393 H   0  0  0  0  0
    2.3119   -2.6362   15.6740 H   0  0  0  0  0
    3.1178   -2.4316   17.3213 H   0  0  0  0  0
    1.9628   -4.5023   17.1822 H   0  0  0  0  0
    3.7873   -4.7561   17.1802 H   0  0  0  0  0
    2.4582   -6.3190   15.6707 H   0  0  0  0  0
    3.7383   -5.4268   14.8960 H   0  0  0  0  0
    0.8129   -4.5593   15.0222 H   0  0  0  0  0
    2.1214   -3.6473   14.2302 H   0  0  0  0  0
    1.6333   -5.2376   13.5946 H   0  0  0  0  0
    6.1486   -1.4785   14.2660 H   0  0  0  0  0
    6.5194   -0.4510   15.6279 H   0  0  0  0  0
    5.6034    1.3800   14.5362 H   0  0  0  0  0
    7.5877   -0.1440   12.8981 H   0  0  0  0  0
    7.8997    1.0091   14.3258 H   0  0  0  0  0
    8.4168    2.4459   12.7087 H   0  0  0  0  0
    6.6435    2.5959   12.5471 H   0  0  0  0  0
    7.7490    2.2492   10.3830 H   0  0  0  0  0
    6.6531    0.8522   10.8326 H   0  0  0  0  0
    9.6717    0.9084   11.0067 H   0  0  0  0  0
    8.6062   -0.4499   11.4439 H   0  0  0  0  0
    8.7103    0.0908    9.7504 H   0  0  0  0  0
    4.4024    2.3474   13.2611 H   0  0  0  0  0
    3.5027    0.9780   10.8036 H   0  0  0  0  0
    1.5523    1.8740   12.9012 H   0  0  0  0  0
    1.8759    0.1767   12.3021 H   0  0  0  0  0
   -0.0660    0.7050   11.2257 H   0  0  0  0  0
    1.2061    1.2428   10.0167 H   0  0  0  0  0
   -0.9837    4.0041    9.7563 H   0  0  0  0  0
   -0.5360    2.4523    9.0402 H   0  0  0  0  0
    3.1363    2.2046    9.1897 H   0  0  0  0  0
    3.4359    5.2000    9.5423 H   0  0  0  0  0
    4.7211    5.1390    7.5492 H   0  0  0  0  0
    4.3651    3.3741    7.3186 H   0  0  0  0  0
    5.8109    2.7415    8.9400 H   0  0  0  0  0
    5.7792    4.3800    9.7406 H   0  0  0  0  0
    7.3065    3.3953    7.3913 H   0  0  0  0  0
    7.8468    4.3350    8.8486 H   0  0  0  0  0
    6.0195    5.8202    7.1787 H   0  0  0  0  0
    8.5784    7.7572    5.7851 H   0  0  0  0  0
    6.8327    7.5532    5.9649 H   0  0  0  0  0
    9.3733    4.8472    7.6232 H   0  0  0  0  0
    0.6800    5.7366    7.3645 H   0  0  0  0  0
    1.6094    6.3202    8.7490 H   0  0  0  0  0
  1  2  2  0  0  0
  1  3  1  0  0  0
  1  4  1  0  0  0
  4  5  1  0  0  0
  5  6  1  0  0  0
  5  8  1  0  0  0
  6  7  2  0  0  0
  6 11  1  0  0  0
  8  9  1  0  0  0
  8 10  1  0  0  0
 11 12  1  0  0  0
 12 13  1  0  0  0
 12 15  1  0  0  0
 13 14  2  0  0  0
 13 19  1  0  0  0
 15 16  1  0  0  0
 15 17  1  0  0  0
 16 18  1  0  0  0
 19 20  1  0  0  0
 20 21  1  0  0  0
 20 22  1  0  0  0
 21 26  1  0  0  0
 22 23  1  0  0  0
 23 24  1  0  0  0
 24 25  1  0  0  0
 26 27  1  0  0  0
 27 28  1  0  0  0
 27 30  1  0  0  0
 28 29  2  0  0  0
 28 34  1  0  0  0
 30 31  1  0  0  0
 31 32  1  0  0  0
 32 33  1  0  0  0
 34 35  1  0  0  0
 35 36  1  0  0  0
 35 38  1  0  0  0
 36 37  2  0  0  0
 36 43  1  0  0  0
 38 39  1  0  0  0
 39 40  1  0  0  0
 40 41  2  0  0  0
 40 42  1  0  0  0
 43 44  1  0  0  0
 44 45  1  0  0  0
 44 47  1  0  0  0
 45 46  2  0  0  0
 45 54  1  0  0  0
 47 48  1  0  0  0
 48 49  1  0  0  0
 49 50  1  0  0  0
 50 51  1  0  0  0
 51 52  1  0  0  0
 51 53  2  0  0  0
  3 55  1  0  0  0
  3 56  1  0  0  0
  3 57  1  0  0  0
  4 58  1  0  0  0
  5 59  1  0  0  0
  8 60  1  0  0  0
  9 61  1  0  0  0
 10 62  1  0  0  0
 10 63  1  0  0  0
 10 64  1  0  0  0
 11 65  1  0  0  0
 12 66  1  0  0  0
 15 67  1  0  0  0
 16 68  1  0  0  0
 16 69  1  0  0  0
 17 70  1  0  0  0
 17 71  1  0  0  0
 17 72  1  0  0  0
 18 73  1  0  0  0
 18 74  1  0  0  0
 18 75  1  0  0  0
 19 76  1  0  0  0
 20 77  1  0  0  0
 21 78  1  0  0  0
 21 79  1  0  0  0
 22 80  1  0  0  0
 22 81  1  0  0  0
 23 82  1  0  0  0
 23 83  1  0  0  0
 24 84  1  0  0  0
 24 85  1  0  0  0
 25 86  1  0  0  0
 25 87  1  0  0  0
 25 88  1  0  0  0
 26 89  1  0  0  0
 26 90  1  0  0  0
 27 91  1  0  0  0
 30 92  1  0  0  0
 30 93  1  0  0  0
 31 94  1  0  0  0
 31 95  1  0  0  0
 32 96  1  0  0  0
 32 97  1  0  0  0
 33 98  1  0  0  0
 33 99  1  0  0  0
 33100  1  0  0  0
 34101  1  0  0  0
 35102  1  0  0  0
 38103  1  0  0  0
 38104  1  0  0  0
 39105  1  0  0  0
 39106  1  0  0  0
 42107  1  0  0  0
 42108  1  0  0  0
 43109  1  0  0  0
 44110  1  0  0  0
 47111  1  0  0  0
 47112  1  0  0  0
 48113  1  0  0  0
 48114  1  0  0  0
 49115  1  0  0  0
 49116  1  0  0  0
 50117  1  0  0  0
 52118  1  0  0  0
 52119  1  0  0  0
 53120  1  0  0  0
 54121  1  0  0  0
 54122  1  0  0  0
M  END
$$$$
