### 
### Created by X-TOOL on Mon Sep 10 21:13:03 2018
### 

@<TRIPOS>MOLECULE
3fsm_ligand
  123   122     1     0     0
SMALL
GAST_HUCK


@<TRIPOS>ATOM
      1 C           4.4010   -8.8450   16.3700 C.2       1 2NC         0.1752
      2 O           3.5210   -8.6950   17.2250 O.2       1 2NC        -0.3972
      3 CH3         4.1290   -9.5660   15.0670 C.3       1 2NC         0.0258
      4 N           5.7070   -8.6900   16.6840 N.am      1 2NC        -0.2635
      5 CA          6.2050   -8.0010   17.8940 C.3       1 2NC         0.1564
      6 C1          6.7980   -6.5730   17.7130 C.2       1 2NC         0.2065
      7 O1          7.0580   -5.8650   18.7030 O.2       1 2NC        -0.3943
      8 CB          7.2730   -8.8240   18.5750 C.3       1 2NC         0.0924
      9 OG1         8.3880   -9.0430   17.7050 O.3       1 2NC        -0.3874
     10 CG2         6.6870  -10.2050   19.0410 C.3       1 2NC        -0.0346
     11 N1          6.9410   -6.1060   16.4880 N.am      1 2NC        -0.2634
     12 CA1         7.4620   -4.7880   16.2250 C.3       1 2NC         0.1334
     13 C2          6.4160   -3.8830   15.5340 C.2       1 2NC         0.2023
     14 O2          6.3110   -3.7880   14.3080 O.2       1 2NC        -0.3945
     15 CB1         8.8170   -4.8400   15.4450 C.3       1 2NC        -0.0037
     16 CG1         9.8140   -5.8370   16.0610 C.3       1 2NC        -0.0491
     17 CG21        9.4690   -3.4840   15.3830 C.3       1 2NC        -0.0582
     18 CD1        10.2030   -5.6140   17.4710 C.3       1 2NC        -0.0648
     19 N2          5.5620   -3.2570   16.2990 N.am      1 2NC        -0.2769
     20 CA2         4.4390   -2.5650   15.6580 C.3       1 2NC         0.0817
     21 C3          4.6320   -1.0690   15.4890 C.3       1 2NC        -0.0081
     22 CB2         3.1100   -2.9340   16.3540 C.3       1 2NC        -0.0249
     23 CG          2.9040   -4.4170   16.6390 C.3       1 2NC        -0.0510
     24 CD          2.7780   -5.3130   15.3990 C.3       1 2NC        -0.0558
     25 CE          1.7650   -4.6420   14.4980 C.3       1 2NC        -0.0653
     26 N3          5.8920   -0.6900   14.8600 N.4       1 2NC         0.2477
     27 CA3         5.8880    0.4950   13.9670 C.3       1 2NC         0.0668
     28 C4          4.8110    0.4090   12.8950 C.2       1 2NC         0.2268
     29 O3          4.5430   -0.5880   12.2030 O.2       1 2NC        -0.3907
     30 CB3         7.3060    0.7540   13.4480 C.3       1 2NC         0.0079
     31 CG3         7.4940    1.9190   12.4660 C.3       1 2NC        -0.0460
     32 CD2         7.5800    1.3900   11.0320 C.3       1 2NC        -0.0556
     33 CE1         8.7240    0.4150   10.7910 C.3       1 2NC        -0.0653
     34 N4          4.1960    1.5400   12.6730 N.am      1 2NC        -0.2609
     35 CA4         3.2220    1.6660   11.6010 C.3       1 2NC         0.1331
     36 C5          3.2490    3.0780   10.9890 C.2       1 2NC         0.2040
     37 O4          3.3200    4.1080   11.6650 O.2       1 2NC        -0.3944
     38 CB4         1.8250    1.2380   12.0590 C.3       1 2NC         0.0045
     39 CG4         0.7300    1.4090   10.9830 C.3       1 2NC         0.0412
     40 CD3         0.1080    2.7700   10.9340 C.2       1 2NC         0.1737
     41 OE1         0.1570    3.5100   11.8990 O.2       1 2NC        -0.3973
     42 NE2        -0.5170    3.1000    9.8280 N.am      1 2NC        -0.3009
     43 N5          3.2270    3.0900    9.6880 N.am      1 2NC        -0.2637
     44 CA5         3.3260    4.3070    8.9270 C.3       1 2NC         0.1307
     45 C6          2.0580    4.4170    8.1230 C.2       1 2NC         0.1992
     46 O5          1.7730    3.5250    7.2760 O.2       1 2NC        -0.3947
     47 CB5         4.5550    4.1760    8.0320 C.3       1 2NC        -0.0092
     48 CG5         5.8050    3.8230    8.8040 C.3       1 2NC        -0.0156
     49 CD4         7.0720    4.1940    8.0950 C.3       1 2NC         0.0627
     50 NE          6.9540    5.4420    7.3340 N.pl3     1 2NC        -0.2723
     51 CZ          7.9850    6.1100    6.8350 C.cat     1 2NC         0.2882
     52 NH1         7.7830    7.2270    6.1410 N.pl3     1 2NC        -0.2849
     53 NH2         9.2180    5.6860    7.0640 N.pl3     1 2NC        -0.2849
     54 N6          1.3960    5.5850    8.0750 N.am      1 2NC        -0.2990
     55 H           3.8123  -10.5875   15.2777 H         1 2NC         0.0467
     56 H           3.3415   -9.0450   14.5225 H         1 2NC         0.0467
     57 H           5.0381   -9.5828   14.4659 H         1 2NC         0.0467
     58 H           6.3979   -9.0758   16.0404 H         1 2NC         0.1883
     59 H           5.2935   -7.8876   18.4809 H         1 2NC         0.0826
     60 H           7.6171   -8.2668   19.4464 H         1 2NC         0.0639
     61 H           8.0931   -9.5106   16.9203 H         1 2NC         0.2101
     62 H           6.3605  -10.7724   18.1695 H         1 2NC         0.0257
     63 H           7.4570  -10.7642   19.5726 H         1 2NC         0.0257
     64 H           5.8384  -10.0333   19.7031 H         1 2NC         0.0257
     65 H           6.6741   -6.6970   15.7006 H         1 2NC         0.1883
     66 H           7.6792   -4.3299   17.1899 H         1 2NC         0.0802
     67 H           8.5651   -5.1752   14.4389 H         1 2NC         0.0345
     68 H          10.7310   -5.7379   15.4802 H         1 2NC         0.0267
     69 H           9.3167   -6.8067   16.0394 H         1 2NC         0.0267
     70 H           8.8040   -2.7854   14.8753 H         1 2NC         0.0235
     71 H           9.6656   -3.1302   16.3951 H         1 2NC         0.0235
     72 H          10.4077   -3.5584   14.8340 H         1 2NC         0.0235
     73 H          10.6707   -4.6341   17.5669 H         1 2NC         0.0230
     74 H           9.3158   -5.6580   18.1027 H         1 2NC         0.0230
     75 H          10.9081   -6.3862   17.7785 H         1 2NC         0.0230
     76 H           5.6730   -3.2497   17.3129 H         1 2NC         0.1857
     77 H           4.3958   -2.9286   14.6313 H         1 2NC         0.0609
     78 H           4.6293   -0.6318   16.4875 H         1 2NC         0.0837
     79 H           3.8316   -0.7151   14.8393 H         1 2NC         0.0837
     80 H           2.3119   -2.6362   15.6740 H         1 2NC         0.0289
     81 H           3.1178   -2.4316   17.3213 H         1 2NC         0.0289
     82 H           1.9628   -4.5023   17.1822 H         1 2NC         0.0266
     83 H           3.7873   -4.7561   17.1802 H         1 2NC         0.0266
     84 H           2.4582   -6.3190   15.6707 H         1 2NC         0.0263
     85 H           3.7383   -5.4268   14.8960 H         1 2NC         0.0263
     86 H           0.8129   -4.5593   15.0222 H         1 2NC         0.0230
     87 H           2.1214   -3.6473   14.2302 H         1 2NC         0.0230
     88 H           1.6333   -5.2376   13.5946 H         1 2NC         0.0230
     89 H           6.1486   -1.4785   14.2660 H         1 2NC         0.2036
     90 H           6.5194   -0.4510   15.6279 H         1 2NC         0.2036
     91 H           5.6034    1.3800   14.5362 H         1 2NC         0.1099
     92 H           7.5877   -0.1440   12.8981 H         1 2NC         0.0346
     93 H           7.8997    1.0091   14.3258 H         1 2NC         0.0346
     94 H           8.4168    2.4459   12.7087 H         1 2NC         0.0269
     95 H           6.6435    2.5959   12.5471 H         1 2NC         0.0269
     96 H           7.7490    2.2492   10.3830 H         1 2NC         0.0263
     97 H           6.6531    0.8522   10.8326 H         1 2NC         0.0263
     98 H           9.6717    0.9084   11.0067 H         1 2NC         0.0230
     99 H           8.6062   -0.4499   11.4439 H         1 2NC         0.0230
    100 H           8.7103    0.0908    9.7504 H         1 2NC         0.0230
    101 H           4.4024    2.3474   13.2611 H         1 2NC         0.1885
    102 H           3.5027    0.9780   10.8036 H         1 2NC         0.0801
    103 H           1.5523    1.8740   12.9012 H         1 2NC         0.0337
    104 H           1.8759    0.1767   12.3021 H         1 2NC         0.0337
    105 H          -0.0660    0.7050   11.2257 H         1 2NC         0.0504
    106 H           1.2061    1.2428   10.0167 H         1 2NC         0.0504
    107 H          -0.9837    4.0041    9.7563 H         1 2NC         0.1814
    108 H          -0.5360    2.4523    9.0402 H         1 2NC         0.1814
    109 H           3.1363    2.2046    9.1897 H         1 2NC         0.1883
    110 H           3.4359    5.2000    9.5423 H         1 2NC         0.0800
    111 H           4.7211    5.1390    7.5492 H         1 2NC         0.0313
    112 H           4.3651    3.3741    7.3186 H         1 2NC         0.0313
    113 H           5.8109    2.7415    8.9400 H         1 2NC         0.0301
    114 H           5.7792    4.3800    9.7406 H         1 2NC         0.0301
    115 H           7.3065    3.3953    7.3913 H         1 2NC         0.0689
    116 H           7.8468    4.3350    8.8486 H         1 2NC         0.0689
    117 H           6.0195    5.8202    7.1787 H         1 2NC         0.2642
    118 H           6.8342    7.5705    5.9923 H         1 2NC         0.2615
    119 H           8.5770    7.7399    5.7577 H         1 2NC         0.2615
    120 H           9.3733    4.8472    7.6232 H         1 2NC         0.2615
    121 H          10.0128    6.1981    6.6812 H         1 2NC         0.2615
    122 H           0.6800    5.7366    7.3645 H         1 2NC         0.1815
    123 H           1.6094    6.3202    8.7490 H         1 2NC         0.1815
@<TRIPOS>BOND
     1    1    2 2  
     2    1    3 1  
     3    1    4 am 
     4    4    5 1  
     5    5    6 1  
     6    5    8 1  
     7    6    7 2  
     8    6   11 am 
     9    8    9 1  
    10    8   10 1  
    11   11   12 1  
    12   12   13 1  
    13   12   15 1  
    14   13   14 2  
    15   13   19 am 
    16   15   16 1  
    17   15   17 1  
    18   16   18 1  
    19   19   20 1  
    20   20   21 1  
    21   20   22 1  
    22   21   26 1  
    23   22   23 1  
    24   23   24 1  
    25   24   25 1  
    26   26   27 1  
    27   27   28 1  
    28   27   30 1  
    29   28   29 2  
    30   28   34 am 
    31   30   31 1  
    32   31   32 1  
    33   32   33 1  
    34   34   35 1  
    35   35   36 1  
    36   35   38 1  
    37   36   37 2  
    38   36   43 am 
    39   38   39 1  
    40   39   40 1  
    41   40   41 2  
    42   40   42 am 
    43   43   44 1  
    44   44   45 1  
    45   44   47 1  
    46   45   46 2  
    47   45   54 am 
    48   47   48 1  
    49   48   49 1  
    50   49   50 1  
    51   50   51 ar 
    52   51   52 ar 
    53   51   53 ar 
    54    3   55 1  
    55    3   56 1  
    56    3   57 1  
    57    4   58 1  
    58    5   59 1  
    59    8   60 1  
    60    9   61 1  
    61   10   62 1  
    62   10   63 1  
    63   10   64 1  
    64   11   65 1  
    65   12   66 1  
    66   15   67 1  
    67   16   68 1  
    68   16   69 1  
    69   17   70 1  
    70   17   71 1  
    71   17   72 1  
    72   18   73 1  
    73   18   74 1  
    74   18   75 1  
    75   19   76 1  
    76   20   77 1  
    77   21   78 1  
    78   21   79 1  
    79   22   80 1  
    80   22   81 1  
    81   23   82 1  
    82   23   83 1  
    83   24   84 1  
    84   24   85 1  
    85   25   86 1  
    86   25   87 1  
    87   25   88 1  
    88   26   89 1  
    89   26   90 1  
    90   27   91 1  
    91   30   92 1  
    92   30   93 1  
    93   31   94 1  
    94   31   95 1  
    95   32   96 1  
    96   32   97 1  
    97   33   98 1  
    98   33   99 1  
    99   33  100 1  
   100   34  101 1  
   101   35  102 1  
   102   38  103 1  
   103   38  104 1  
   104   39  105 1  
   105   39  106 1  
   106   42  107 1  
   107   42  108 1  
   108   43  109 1  
   109   44  110 1  
   110   47  111 1  
   111   47  112 1  
   112   48  113 1  
   113   48  114 1  
   114   49  115 1  
   115   49  116 1  
   116   50  117 1  
   117   52  118 1  
   118   52  119 1  
   119   53  120 1  
   120   53  121 1  
   121   54  122 1  
   122   54  123 1  
@<TRIPOS>SUBSTRUCTURE
     1 2NC         1

