1xpc_ligand
  -I-interpret- 

 63 67  0  0  0  0  0  0  0  0999 V2000
   31.2360   -0.3230   28.9130 C   0  0  0  0  0
   31.3560   -1.7210   28.2890 C   0  0  0  0  0
   30.1370   -2.4730   28.5440 O   0  0  0  0  0
   28.9570   -1.9550   28.1010 C   0  0  0  0  0
   28.0570   -2.9720   27.7510 C   0  0  0  0  0
   26.8160   -2.6120   27.2910 C   0  0  0  0  0
   26.4850   -1.2490   27.1580 C   0  0  0  0  0
   25.2240   -1.0180   26.7530 O   0  0  0  0  0
   27.3860   -0.2500   27.5540 C   0  0  0  0  0
   28.6760   -0.5870   27.9840 C   0  0  0  0  0
   29.7200    0.4830   28.3560 S   0  0  0  0  0
   32.5450    0.3830   28.6300 C   0  0  0  0  0
   32.7400    1.2430   27.5380 C   0  0  0  0  0
   33.9970    1.8250   27.3600 C   0  0  0  0  0
   35.0610    1.5840   28.2530 C   0  0  0  0  0
   36.2770    2.1500   28.0980 O   0  0  0  0  0
   34.8610    0.7370   29.3560 C   0  0  0  0  0
   33.5910    0.1750   29.5280 C   0  0  0  0  0
   31.7050   -1.8730   26.8200 C   0  0  0  0  0
   32.6080   -2.8710   26.4350 C   0  0  0  0  0
   32.9890   -3.1360   25.1010 C   0  0  0  0  0
   32.4950   -2.3050   24.0900 C   0  0  0  0  0
   31.5950   -1.2900   24.4580 C   0  0  0  0  0
   31.1880   -1.0920   25.7670 C   0  0  0  0  0
   32.7880   -2.4670   22.7870 O   0  0  0  0  0
   33.2980   -3.7290   22.3210 C   0  0  0  0  0
   33.6970   -3.6680   20.8220 C   0  0  0  0  0
   34.6260   -4.8430   20.6060 C   0  0  0  0  0
   32.5710   -3.8810   19.8960 N   0  3  0  0  0
   32.7060   -3.1840   18.5880 C   0  0  0  0  0
   31.2640   -2.9080   18.1050 C   0  0  0  0  0
   30.3740   -3.4510   19.2220 C   0  0  0  0  0
   31.3250   -3.3590   20.4480 C   0  0  0  0  0
   31.1124   -0.3260   29.9960 H   0  0  0  0  0
   32.2460   -2.1015   28.7903 H   0  0  0  0  0
   28.3365   -4.0216   27.8422 H   0  0  0  0  0
   26.0872   -3.3790   27.0288 H   0  0  0  0  0
   25.0785   -0.0714   26.6874 H   0  0  0  0  0
   27.0805    0.7960   27.5270 H   0  0  0  0  0
   31.9268    1.4524   26.8430 H   0  0  0  0  0
   34.1599    2.4838   26.5070 H   0  0  0  0  0
   36.8564    1.8598   28.8063 H   0  0  0  0  0
   35.6694    0.5244   30.0556 H   0  0  0  0  0
   33.4119   -0.4521   30.4013 H   0  0  0  0  0
   33.0479   -3.4867   27.2196 H   0  0  0  0  0
   33.6522   -3.9682   24.8649 H   0  0  0  0  0
   31.2018   -0.6327   23.6825 H   0  0  0  0  0
   30.4536   -0.3171   25.9870 H   0  0  0  0  0
   32.5167   -4.4799   22.4384 H   0  0  0  0  0
   34.1856   -3.9771   22.9031 H   0  0  0  0  0
   34.1155   -2.6816   20.6223 H   0  0  0  0  0
   35.4954   -4.7413   21.2555 H   0  0  0  0  0
   34.1005   -5.7682   20.8424 H   0  0  0  0  0
   34.9488   -4.8628   19.5651 H   0  0  0  0  0
   32.5698   -4.8923   19.7628 H   0  0  0  0  0
   33.2543   -3.7933   17.8695 H   0  0  0  0  0
   33.2735   -2.2589   18.6891 H   0  0  0  0  0
   31.0556   -3.3868   17.1482 H   0  0  0  0  0
   31.0903   -1.8472   17.9243 H   0  0  0  0  0
   30.0018   -4.4579   19.0330 H   0  0  0  0  0
   29.4444   -2.8960   19.3481 H   0  0  0  0  0
   31.4174   -2.3506   20.8515 H   0  0  0  0  0
   30.9689   -3.9130   21.3166 H   0  0  0  0  0
  1  2  1  0  0  0
  1 11  1  0  0  0
  1 12  1  0  0  0
  2  3  1  0  0  0
  2 19  1  0  0  0
  3  4  1  0  0  0
  4  5  4  0  0  0
  4 10  4  0  0  0
  5  6  4  0  0  0
  6  7  4  0  0  0
  7  8  1  0  0  0
  7  9  4  0  0  0
  9 10  4  0  0  0
 10 11  1  0  0  0
 12 13  4  0  0  0
 12 18  4  0  0  0
 13 14  4  0  0  0
 14 15  4  0  0  0
 15 16  1  0  0  0
 15 17  4  0  0  0
 17 18  4  0  0  0
 19 20  4  0  0  0
 19 24  4  0  0  0
 20 21  4  0  0  0
 21 22  4  0  0  0
 22 23  4  0  0  0
 22 25  1  0  0  0
 23 24  4  0  0  0
 25 26  1  0  0  0
 26 27  1  0  0  0
 27 28  1  0  0  0
 27 29  1  0  0  0
 29 30  1  0  0  0
 29 33  1  0  0  0
 30 31  1  0  0  0
 31 32  1  0  0  0
 32 33  1  0  0  0
  1 34  1  0  0  0
  2 35  1  0  0  0
  5 36  1  0  0  0
  6 37  1  0  0  0
  8 38  1  0  0  0
  9 39  1  0  0  0
 13 40  1  0  0  0
 14 41  1  0  0  0
 16 42  1  0  0  0
 17 43  1  0  0  0
 18 44  1  0  0  0
 20 45  1  0  0  0
 21 46  1  0  0  0
 23 47  1  0  0  0
 24 48  1  0  0  0
 26 49  1  0  0  0
 26 50  1  0  0  0
 27 51  1  0  0  0
 28 52  1  0  0  0
 28 53  1  0  0  0
 28 54  1  0  0  0
 29 55  1  0  0  0
 30 56  1  0  0  0
 30 57  1  0  0  0
 31 58  1  0  0  0
 31 59  1  0  0  0
 32 60  1  0  0  0
 32 61  1  0  0  0
 33 62  1  0  0  0
 33 63  1  0  0  0
M  END
$$$$
