1xoe_ligand
  -I-interpret- 

 46 46  0  0  0  0  0  0  0  0999 V2000
   24.4360   16.8070   63.3160 C   0  0  0  0  0
   25.5780   17.8010   63.0090 C   0  0  0  0  0
   25.5590   18.7420   64.1490 N   0  3  0  0  0
   24.2280   18.6770   64.7690 C   0  0  0  0  0
   23.3860   17.6660   63.9960 C   0  0  0  0  0
   23.5960   20.0830   64.7770 C   0  0  0  0  0
   22.3710   20.1060   65.3070 O   0  0  0  0  0
   24.1570   21.0380   64.3430 O   0  0  0  0  0
   26.9240   16.2120   61.6420 N   0  0  0  0  0
   27.2550   14.8880   61.7710 C   0  0  0  0  0
   27.1250   14.0640   60.4930 C   0  0  0  0  0
   27.6210   14.3720   62.8090 O   0  0  0  0  0
   26.9800   17.1600   62.7770 C   0  0  0  0  0
   27.7110   18.4480   62.2950 C   0  0  0  0  0
   29.1930   18.1140   61.9780 C   0  0  0  0  0
   29.7600   19.1560   60.9850 C   0  0  0  0  0
   30.0360   18.1150   63.2680 C   0  0  0  0  0
   23.8350   16.1050   62.0820 C   0  0  0  0  0
   23.3450   16.6550   61.1310 O   0  0  0  0  0
   23.8390   14.7830   62.2630 O   0  0  0  0  0
   23.2850   13.9020   61.2750 C   0  0  0  0  0
   24.8113   15.9807   63.9198 H   0  0  0  0  0
   25.4060   18.2894   62.0498 H   0  0  0  0  0
   25.7518   19.6903   63.8266 H   0  0  0  0  0
   26.2768   18.4881   64.8277 H   0  0  0  0  0
   24.2911   18.3470   65.8059 H   0  0  0  0  0
   22.7170   17.0917   64.6369 H   0  0  0  0  0
   22.6993   18.1352   63.2914 H   0  0  0  0  0
   22.1285   19.2207   65.5882 H   0  0  0  0  0
   26.6278   16.5569   60.7289 H   0  0  0  0  0
   28.0943   13.6352   60.2385 H   0  0  0  0  0
   26.4022   13.2635   60.6503 H   0  0  0  0  0
   26.7860   14.7069   59.6806 H   0  0  0  0  0
   27.4055   16.6165   63.6206 H   0  0  0  0  0
   27.6687   19.2045   63.0786 H   0  0  0  0  0
   27.2240   18.8275   61.3967 H   0  0  0  0  0
   29.2393   17.1206   61.5318 H   0  0  0  0  0
   29.1780   19.1322   60.0637 H   0  0  0  0  0
   29.6994   20.1496   61.4290 H   0  0  0  0  0
   30.8007   18.9178   60.7652 H   0  0  0  0  0
   29.9864   19.1000   63.7321 H   0  0  0  0  0
   29.6440   17.3670   63.9572 H   0  0  0  0  0
   31.0717   17.8787   63.0239 H   0  0  0  0  0
   22.2303   14.1366   61.1314 H   0  0  0  0  0
   23.8189   14.0322   60.3337 H   0  0  0  0  0
   23.3865   12.8704   61.6121 H   0  0  0  0  0
  2  1  1  0  0  0
  1  5  1  0  0  0
  1 18  1  0  0  0
  2  3  1  0  0  0
 13  2  1  0  0  0
  3  4  1  0  0  0
  4  5  1  0  0  0
  4  6  1  0  0  0
  6  7  1  0  0  0
  6  8  2  0  0  0
  9 10  1  0  0  0
  9 13  1  0  0  0
 10 11  1  0  0  0
 10 12  2  0  0  0
 13 14  1  0  0  0
 14 15  1  0  0  0
 15 16  1  0  0  0
 15 17  1  0  0  0
 18 19  2  0  0  0
 18 20  1  0  0  0
 20 21  1  0  0  0
  1 22  1  0  0  0
  2 23  1  0  0  0
  3 24  1  0  0  0
  3 25  1  0  0  0
  4 26  1  0  0  0
  5 27  1  0  0  0
  5 28  1  0  0  0
  7 29  1  0  0  0
  9 30  1  0  0  0
 11 31  1  0  0  0
 11 32  1  0  0  0
 11 33  1  0  0  0
 13 34  1  0  0  0
 14 35  1  0  0  0
 14 36  1  0  0  0
 15 37  1  0  0  0
 16 38  1  0  0  0
 16 39  1  0  0  0
 16 40  1  0  0  0
 17 41  1  0  0  0
 17 42  1  0  0  0
 17 43  1  0  0  0
 21 44  1  0  0  0
 21 45  1  0  0  0
 21 46  1  0  0  0
M  END
$$$$
