4j2t_ligand
  -I-interpret- 

117119  0  0  0  0  0  0  0  0999 V2000
   -6.2250   -3.6310  -72.7630 C   0  0  0  0  0
   -5.4110   -4.7960  -72.3030 C   0  0  0  0  0
   -5.9090   -5.5210  -71.0950 C   0  0  0  0  0
   -5.0530   -5.4770  -69.8300 C   0  0  0  0  0
   -5.6400   -6.0320  -68.5540 C   0  0  0  0  0
   -5.5840   -5.0060  -67.4420 C   0  0  0  0  0
   -5.7820   -5.5410  -66.0360 C   0  0  0  0  0
   -7.2140   -5.5210  -65.5120 C   0  0  0  0  0
   -8.0820   -5.2840  -66.3370 O   0  0  0  0  0
   -7.3830   -5.1550  -64.1810 O   0  0  0  0  0
   -8.4550   -4.4380  -63.8040 C   0  0  0  0  0
   -8.8350   -4.6980  -62.3710 C   0  0  0  0  0
  -10.1520   -5.5710  -62.0290 C   0  0  0  0  0
   -9.7260   -6.6010  -62.8120 O   0  0  0  0  0
  -10.3980   -7.7450  -63.1840 C   0  0  0  0  0
  -11.5070   -7.6350  -63.6690 O   0  0  0  0  0
   -9.5310   -8.8700  -63.6830 C   0  0  0  0  0
  -11.4060   -5.1220  -62.6760 C   0  0  0  0  0
  -10.2320   -6.1720  -60.6570 C   0  0  0  0  0
  -10.2150   -5.2760  -59.4280 C   0  0  0  0  0
  -11.3620   -4.5580  -59.3330 O   0  0  0  0  0
  -12.4440   -4.9980  -58.5400 C   0  0  0  0  0
  -12.2030   -5.2470  -57.3760 O   0  0  0  0  0
  -13.6620   -4.1820  -58.7910 C   0  0  0  0  0
  -13.8080   -3.1840  -57.6720 C   0  0  0  0  0
  -15.1170   -2.4670  -57.6510 C   0  0  0  0  0
   -9.1110   -4.1670  -59.1940 C   0  0  0  0  0
   -7.9710   -4.9020  -58.8660 O   0  0  0  0  0
   -6.6210   -4.7540  -59.2480 C   0  0  0  0  0
   -6.1060   -5.7290  -59.7610 O   0  0  0  0  0
   -5.7210   -4.0710  -58.2500 C   0  0  0  0  0
   -4.8020   -2.9610  -58.7030 C   0  0  0  0  0
   -3.9140   -2.2650  -57.6960 C   0  0  0  0  0
   -9.3170   -3.2330  -58.0870 C   0  0  0  0  0
   -9.2040   -3.8160  -56.6880 C   0  0  0  0  0
  -10.5840   -2.6960  -58.1450 O   0  0  0  0  0
   -8.3970   -2.1020  -58.4130 C   0  0  0  0  0
   -8.9100   -0.8440  -58.5340 O   0  0  0  0  0
   -7.9180   -2.4170  -59.7170 O   0  0  0  0  0
   -8.9550   -3.1420  -60.2360 C   0  0  0  0  0
   -8.9540   -3.3120  -61.7980 C   0  0  0  0  0
   -8.1110   -2.2860  -62.5710 C   0  0  0  0  0
   -8.8050   -1.0510  -62.3710 C   0  0  0  0  0
   -8.2620   -2.9330  -63.9680 C   0  0  0  0  0
   -9.2730   -2.4810  -64.7170 O   0  0  0  0  0
   -8.9750   -2.2350  -66.0890 C   0  0  0  0  0
   -7.9720   -1.5900  -66.3580 O   0  0  0  0  0
  -10.1150   -2.3580  -67.2270 C   0  0  0  0  0
   -9.6330   -3.0820  -68.5630 C   0  0  0  0  0
  -11.5110   -2.9690  -66.7280 C   0  0  0  0  0
  -12.6200   -1.9880  -66.5190 C   0  0  0  0  0
   -7.2316   -3.9679  -73.0106 H   0  0  0  0  0
   -6.2747   -2.8874  -71.9676 H   0  0  0  0  0
   -5.7606   -3.1906  -73.6453 H   0  0  0  0  0
   -4.4344   -4.3943  -72.0330 H   0  0  0  0  0
   -5.4304   -5.5189  -73.1185 H   0  0  0  0  0
   -5.9467   -6.5716  -71.3828 H   0  0  0  0  0
   -6.8452   -5.0306  -70.8284 H   0  0  0  0  0
   -4.8841   -4.4183  -69.6330 H   0  0  0  0  0
   -4.1876   -6.1037  -70.0456 H   0  0  0  0  0
   -5.0621   -6.9061  -68.2537 H   0  0  0  0  0
   -6.6818   -6.2971  -68.7339 H   0  0  0  0  0
   -6.4036   -4.3109  -67.6242 H   0  0  0  0  0
   -4.5819   -4.5781  -67.4693 H   0  0  0  0  0
   -5.2045   -4.8931  -65.3766 H   0  0  0  0  0
   -5.4782   -6.5875  -66.0599 H   0  0  0  0  0
   -9.2503   -4.7692  -64.4717 H   0  0  0  0  0
   -8.0757   -5.3539  -61.9452 H   0  0  0  0  0
  -10.0265   -9.8216  -63.4908 H   0  0  0  0  0
   -9.3680   -8.7536  -64.7544 H   0  0  0  0  0
   -8.5729   -8.8464  -63.1638 H   0  0  0  0  0
  -11.6271   -4.1004  -62.3670 H   0  0  0  0  0
  -11.2876   -5.1579  -63.7590 H   0  0  0  0  0
  -12.2230   -5.7784  -62.3766 H   0  0  0  0  0
   -9.3247   -6.7697  -60.5694 H   0  0  0  0  0
  -11.2096   -6.6532  -60.6283 H   0  0  0  0  0
  -10.0194   -6.0650  -58.7018 H   0  0  0  0  0
  -12.6684   -6.0054  -58.8905 H   0  0  0  0  0
  -13.0075   -5.5348  -56.9383 H   0  0  0  0  0
  -14.5399   -4.8268  -58.8313 H   0  0  0  0  0
  -13.5710   -3.6613  -59.7443 H   0  0  0  0  0
  -13.0331   -2.4304  -57.8128 H   0  0  0  0  0
  -13.7326   -3.7390  -56.7369 H   0  0  0  0  0
  -15.2448   -1.9192  -58.5847 H   0  0  0  0  0
  -15.9244   -3.1907  -57.5394 H   0  0  0  0  0
  -15.1343   -1.7694  -56.8137 H   0  0  0  0  0
   -6.7220   -4.0335  -60.0597 H   0  0  0  0  0
   -5.1939   -5.5281  -59.9832 H   0  0  0  0  0
   -5.0505   -4.8572  -57.9031 H   0  0  0  0  0
   -6.4039   -3.5919  -57.5484 H   0  0  0  0  0
   -5.4713   -2.1805  -59.0649 H   0  0  0  0  0
   -4.1096   -3.4422  -59.3938 H   0  0  0  0  0
   -4.5323   -1.8024  -56.9267 H   0  0  0  0  0
   -3.2461   -2.9941  -57.2373 H   0  0  0  0  0
   -3.3258   -1.4986  -58.2007 H   0  0  0  0  0
   -9.9487   -4.6019  -56.5620 H   0  0  0  0  0
   -8.2066   -4.2331  -56.5491 H   0  0  0  0  0
   -9.3760   -3.0296  -55.9531 H   0  0  0  0  0
  -10.7055   -2.0858  -57.4139 H   0  0  0  0  0
   -7.6998   -2.0426  -57.5773 H   0  0  0  0  0
   -8.2025   -0.2299  -58.7437 H   0  0  0  0  0
   -9.9505   -2.7220  -60.3797 H   0  0  0  0  0
  -10.0006   -3.0695  -61.9819 H   0  0  0  0  0
   -7.0678   -2.0806  -62.3311 H   0  0  0  0  0
   -9.8167   -1.1359  -62.7677 H   0  0  0  0  0
   -8.8489   -0.8289  -61.3048 H   0  0  0  0  0
   -8.2763   -0.2506  -62.8887 H   0  0  0  0  0
   -7.3456   -2.6647  -64.4937 H   0  0  0  0  0
  -10.3042   -1.3128  -67.4715 H   0  0  0  0  0
   -8.8051   -2.5231  -68.9992 H   0  0  0  0  0
   -9.3055   -4.0947  -68.3281 H   0  0  0  0  0
  -10.4600   -3.1215  -69.2720 H   0  0  0  0  0
  -11.3163   -3.4219  -65.7559 H   0  0  0  0  0
  -11.8462   -3.6465  -67.5133 H   0  0  0  0  0
  -12.3216   -1.2594  -65.7652 H   0  0  0  0  0
  -12.8319   -1.4757  -67.4575 H   0  0  0  0  0
  -13.5121   -2.5163  -66.1825 H   0  0  0  0  0
  1  2  1  0  0  0
  2  3  1  0  0  0
  3  4  1  0  0  0
  4  5  1  0  0  0
  5  6  1  0  0  0
  6  7  1  0  0  0
  7  8  1  0  0  0
  8  9  2  0  0  0
  8 10  1  0  0  0
 10 11  1  0  0  0
 11 12  1  0  0  0
 11 44  1  0  0  0
 12 13  1  0  0  0
 12 41  1  0  0  0
 13 14  1  0  0  0
 13 18  1  0  0  0
 13 19  1  0  0  0
 14 15  1  0  0  0
 15 16  2  0  0  0
 15 17  1  0  0  0
 19 20  1  0  0  0
 20 21  1  0  0  0
 20 27  1  0  0  0
 21 22  1  0  0  0
 22 23  1  0  0  0
 22 24  1  0  0  0
 24 25  1  0  0  0
 25 26  1  0  0  0
 27 28  1  0  0  0
 27 34  1  0  0  0
 27 40  1  0  0  0
 28 29  1  0  0  0
 29 30  1  0  0  0
 29 31  1  0  0  0
 31 32  1  0  0  0
 32 33  1  0  0  0
 34 35  1  0  0  0
 34 36  1  0  0  0
 34 37  1  0  0  0
 37 38  1  0  0  0
 37 39  1  0  0  0
 39 40  1  0  0  0
 40 41  1  0  0  0
 41 42  1  0  0  0
 42 43  1  0  0  0
 42 44  1  0  0  0
 44 45  1  0  0  0
 45 46  1  0  0  0
 46 47  2  0  0  0
 46 48  1  0  0  0
 48 49  1  0  0  0
 48 50  1  0  0  0
 50 51  1  0  0  0
  1 52  1  0  0  0
  1 53  1  0  0  0
  1 54  1  0  0  0
  2 55  1  0  0  0
  2 56  1  0  0  0
  3 57  1  0  0  0
  3 58  1  0  0  0
  4 59  1  0  0  0
  4 60  1  0  0  0
  5 61  1  0  0  0
  5 62  1  0  0  0
  6 63  1  0  0  0
  6 64  1  0  0  0
  7 65  1  0  0  0
  7 66  1  0  0  0
 11 67  1  0  0  0
 12 68  1  0  0  0
 17 69  1  0  0  0
 17 70  1  0  0  0
 17 71  1  0  0  0
 18 72  1  0  0  0
 18 73  1  0  0  0
 18 74  1  0  0  0
 19 75  1  0  0  0
 19 76  1  0  0  0
 20 77  1  0  0  0
 22 78  1  0  0  0
 23 79  1  0  0  0
 24 80  1  0  0  0
 24 81  1  0  0  0
 25 82  1  0  0  0
 25 83  1  0  0  0
 26 84  1  0  0  0
 26 85  1  0  0  0
 26 86  1  0  0  0
 29 87  1  0  0  0
 30 88  1  0  0  0
 31 89  1  0  0  0
 31 90  1  0  0  0
 32 91  1  0  0  0
 32 92  1  0  0  0
 33 93  1  0  0  0
 33 94  1  0  0  0
 33 95  1  0  0  0
 35 96  1  0  0  0
 35 97  1  0  0  0
 35 98  1  0  0  0
 36 99  1  0  0  0
 37100  1  0  0  0
 38101  1  0  0  0
 40102  1  0  0  0
 41103  1  0  0  0
 42104  1  0  0  0
 43105  1  0  0  0
 43106  1  0  0  0
 43107  1  0  0  0
 44108  1  0  0  0
 48109  1  0  0  0
 49110  1  0  0  0
 49111  1  0  0  0
 49112  1  0  0  0
 50113  1  0  0  0
 50114  1  0  0  0
 51115  1  0  0  0
 51116  1  0  0  0
 51117  1  0  0  0
M  END
$$$$
