2rly_ligand
  -I-interpret- 

121126  0  0  0  0  0  0  0  0999 V2000
  -10.0560   11.5080    1.2330 N   0  3  0  0  0
   -9.1140   10.4110    1.4570 C   0  0  0  0  0
   -7.7180   10.9160    1.8060 C   0  0  0  0  0
   -7.0450   11.5450    0.9840 O   0  0  0  0  0
   -9.1030    9.6750    0.1180 C   0  0  0  0  0
  -10.4440    9.9360   -0.4680 C   0  0  0  0  0
  -10.8360   11.3180   -0.0080 C   0  0  0  0  0
   -7.3050   10.6600    3.0360 N   0  0  0  0  0
   -6.0070   11.1070    3.5120 C   0  0  0  0  0
   -5.0230    9.9430    3.4330 C   0  0  0  0  0
   -5.4320    8.7910    3.5850 O   0  0  0  0  0
   -6.1380   11.5840    4.9760 C   0  0  0  0  0
   -7.3910   12.2590    5.1310 O   0  0  0  0  0
   -5.0140   12.5350    5.3730 C   0  0  0  0  0
   -3.7260   10.2040    3.1970 N   0  0  0  0  0
   -2.7320    9.1380    3.1400 C   0  0  0  0  0
   -2.3240    8.6470    4.5290 C   0  0  0  0  0
   -2.3200    9.4120    5.4970 O   0  0  0  0  0
   -1.5640    9.8220    2.4230 C   0  0  0  0  0
   -1.6450   11.2330    2.8810 C   0  0  0  0  0
   -3.1190   11.5350    2.9520 C   0  0  0  0  0
   -1.9730    7.3640    4.6510 N   0  0  0  0  0
   -1.3600    6.8430    5.8520 C   0  0  0  0  0
    0.1100    7.2270    5.8700 C   0  0  0  0  0
    0.7090    7.3920    4.8030 O   0  0  0  0  0
   -1.5650    5.3280    5.7590 C   0  0  0  0  0
   -1.7950    5.0250    4.3140 C   0  0  0  0  0
   -2.0800    6.3310    3.6080 C   0  0  0  0  0
    0.7200    7.4280    7.0390 N   0  0  0  0  0
    2.1320    7.7530    7.0670 C   0  0  0  0  0
    2.9590    6.4990    6.8450 C   0  0  0  0  0
    2.5640    5.4000    7.2420 O   0  0  0  0  0
    2.3360    8.2920    8.4810 C   0  0  0  0  0
    1.2820    7.6250    9.3010 C   0  0  0  0  0
    0.1160    7.3690    8.3800 C   0  0  0  0  0
    4.1130    6.6700    6.2280 N   0  0  0  0  0
    4.9090    5.5340    5.8010 C   0  0  0  0  0
    5.6670    4.9220    6.9840 C   0  0  0  0  0
    6.0390    5.6270    7.9210 O   0  0  0  0  0
    5.8240    6.0200    4.6550 C   0  0  0  0  0
    7.1050    5.2450    4.3620 C   0  0  0  0  0
    6.8170    4.0060    3.5400 C   0  0  0  0  0
    8.0690    6.1500    3.6280 C   0  0  0  0  0
    5.8960    3.5960    6.9550 N   0  0  0  0  0
    6.6820    2.9170    7.9820 C   0  0  0  0  0
    8.1820    3.1150    7.8040 C   0  0  0  0  0
    8.6510    3.3700    6.7030 O   0  0  0  0  0
    6.3430    1.4280    7.8060 C   0  0  0  0  0
    5.4560    1.3090    6.6040 C   0  0  0  0  0
    5.2850    2.6620    5.9970 C   0  0  0  0  0
    8.9430    3.0180    8.9020 N   0  0  0  0  0
   10.3890    3.1130    8.8790 C   0  0  0  0  0
   11.0480    1.7420    8.7260 C   0  0  0  0  0
   11.5830    1.4490    7.6390 O   0  0  0  0  0
   10.7120    3.7350   10.2430 C   0  0  0  0  0
    9.5470    3.4090   11.1340 C   0  0  0  0  0
    8.4530    2.8230   10.2720 C   0  0  0  0  0
   11.0210    0.9550    9.6970 O   0  0  0  0  0
   -9.5244   12.3743    1.1477 H   0  0  0  0  0
  -10.7060   11.5375    2.0185 H   0  0  0  0  0
   -9.4067    9.7819    2.2976 H   0  0  0  0  0
   -8.9143    8.6086    0.2420 H   0  0  0  0  0
   -8.3006   10.0249   -0.5315 H   0  0  0  0  0
  -11.1694    9.1906   -0.1421 H   0  0  0  0  0
  -10.4186    9.8741   -1.5559 H   0  0  0  0  0
  -10.6212   12.0818   -0.7554 H   0  0  0  0  0
  -11.9093   11.4128    0.1566 H   0  0  0  0  0
   -7.9125   10.1360    3.6659 H   0  0  0  0  0
   -5.6461   11.9315    2.8971 H   0  0  0  0  0
   -6.0785   10.7074    5.6211 H   0  0  0  0  0
   -7.4814   12.5593    6.0384 H   0  0  0  0  0
   -4.0554   12.0275    5.2654 H   0  0  0  0  0
   -5.0367   13.4122    4.7264 H   0  0  0  0  0
   -5.1493   12.8427    6.4099 H   0  0  0  0  0
   -3.0963    8.2417    2.6379 H   0  0  0  0  0
   -1.6329    9.7328    1.3388 H   0  0  0  0  0
   -0.6045    9.3627    2.6609 H   0  0  0  0  0
   -1.1261   11.9090    2.2014 H   0  0  0  0  0
   -1.1566   11.3737    3.8453 H   0  0  0  0  0
   -3.3631   12.2582    3.7301 H   0  0  0  0  0
   -3.4955   12.0084    2.0452 H   0  0  0  0  0
   -1.7890    7.2368    6.7734 H   0  0  0  0  0
   -2.4117    5.0085    6.3666 H   0  0  0  0  0
   -0.6964    4.7904    6.1393 H   0  0  0  0  0
   -2.6364    4.3415    4.1998 H   0  0  0  0  0
   -0.9159    4.5458    3.8831 H   0  0  0  0  0
   -1.3792    6.5087    2.7923 H   0  0  0  0  0
   -3.0655    6.3300    3.1423 H   0  0  0  0  0
    2.4327    8.4609    6.2947 H   0  0  0  0  0
    2.2504    9.3780    8.5169 H   0  0  0  0  0
    3.3369    8.0778    8.8558 H   0  0  0  0  0
    0.9845    8.2551   10.1392 H   0  0  0  0  0
    1.6528    6.6929    9.7274 H   0  0  0  0  0
   -0.3715    6.4143    8.5776 H   0  0  0  0  0
   -0.6867    8.0949    8.5096 H   0  0  0  0  0
    4.4509    7.6155    6.0484 H   0  0  0  0  0
    4.2842    4.7241    5.4246 H   0  0  0  0  0
    6.1565    7.0124    4.9593 H   0  0  0  0  0
    5.2218    5.9242    3.7515 H   0  0  0  0  0
    7.5471    4.9202    5.3039 H   0  0  0  0  0
    6.1345    3.3576    4.0894 H   0  0  0  0  0
    6.3609    4.2972    2.5938 H   0  0  0  0  0
    7.7490    3.4747    3.3473 H   0  0  0  0  0
    7.6156    6.4799    2.6933 H   0  0  0  0  0
    8.2961    7.0166    4.2489 H   0  0  0  0  0
    8.9876    5.6035    3.4147 H   0  0  0  0  0
    6.4432    3.3120    8.9694 H   0  0  0  0  0
    5.8384    1.0438    8.6925 H   0  0  0  0  0
    7.2524    0.8429    7.6690 H   0  0  0  0  0
    4.4851    0.9110    6.8992 H   0  0  0  0  0
    5.9066    0.6325    5.8778 H   0  0  0  0  0
    5.7581    2.7252    5.0170 H   0  0  0  0  0
    4.2343    2.8946    5.8238 H   0  0  0  0  0
   10.7616    3.6955    8.0364 H   0  0  0  0  0
   10.8566    4.8122   10.1610 H   0  0  0  0  0
   11.6421    3.3364   10.6481 H   0  0  0  0  0
    9.1914    4.3093   11.6351 H   0  0  0  0  0
    9.8466    2.6949   11.9011 H   0  0  0  0  0
    8.2633    1.7739   10.4991 H   0  0  0  0  0
    7.4897    3.3046   10.4403 H   0  0  0  0  0
   10.5653    1.3713   10.4323 H   0  0  0  0  0
  1  2  1  0  0  0
  1  7  1  0  0  0
  2  3  1  0  0  0
  2  5  1  0  0  0
  3  4  2  0  0  0
  3  8  1  0  0  0
  5  6  1  0  0  0
  6  7  1  0  0  0
  8  9  1  0  0  0
  9 10  1  0  0  0
  9 12  1  0  0  0
 10 11  2  0  0  0
 10 15  1  0  0  0
 12 13  1  0  0  0
 12 14  1  0  0  0
 15 16  1  0  0  0
 15 21  1  0  0  0
 16 17  1  0  0  0
 16 19  1  0  0  0
 17 18  2  0  0  0
 17 22  1  0  0  0
 19 20  1  0  0  0
 20 21  1  0  0  0
 22 23  1  0  0  0
 22 28  1  0  0  0
 23 24  1  0  0  0
 23 26  1  0  0  0
 24 25  2  0  0  0
 24 29  1  0  0  0
 26 27  1  0  0  0
 27 28  1  0  0  0
 29 30  1  0  0  0
 29 35  1  0  0  0
 30 31  1  0  0  0
 30 33  1  0  0  0
 31 32  2  0  0  0
 31 36  1  0  0  0
 33 34  1  0  0  0
 34 35  1  0  0  0
 36 37  1  0  0  0
 37 38  1  0  0  0
 37 40  1  0  0  0
 38 39  2  0  0  0
 38 44  1  0  0  0
 40 41  1  0  0  0
 41 42  1  0  0  0
 41 43  1  0  0  0
 44 45  1  0  0  0
 44 50  1  0  0  0
 45 46  1  0  0  0
 45 48  1  0  0  0
 46 47  2  0  0  0
 46 51  1  0  0  0
 48 49  1  0  0  0
 49 50  1  0  0  0
 51 52  1  0  0  0
 51 57  1  0  0  0
 52 53  1  0  0  0
 52 55  1  0  0  0
 53 54  2  0  0  0
 53 58  1  0  0  0
 55 56  1  0  0  0
 56 57  1  0  0  0
  1 59  1  0  0  0
  1 60  1  0  0  0
  2 61  1  0  0  0
  5 62  1  0  0  0
  5 63  1  0  0  0
  6 64  1  0  0  0
  6 65  1  0  0  0
  7 66  1  0  0  0
  7 67  1  0  0  0
  8 68  1  0  0  0
  9 69  1  0  0  0
 12 70  1  0  0  0
 13 71  1  0  0  0
 14 72  1  0  0  0
 14 73  1  0  0  0
 14 74  1  0  0  0
 16 75  1  0  0  0
 19 76  1  0  0  0
 19 77  1  0  0  0
 20 78  1  0  0  0
 20 79  1  0  0  0
 21 80  1  0  0  0
 21 81  1  0  0  0
 23 82  1  0  0  0
 26 83  1  0  0  0
 26 84  1  0  0  0
 27 85  1  0  0  0
 27 86  1  0  0  0
 28 87  1  0  0  0
 28 88  1  0  0  0
 30 89  1  0  0  0
 33 90  1  0  0  0
 33 91  1  0  0  0
 34 92  1  0  0  0
 34 93  1  0  0  0
 35 94  1  0  0  0
 35 95  1  0  0  0
 36 96  1  0  0  0
 37 97  1  0  0  0
 40 98  1  0  0  0
 40 99  1  0  0  0
 41100  1  0  0  0
 42101  1  0  0  0
 42102  1  0  0  0
 42103  1  0  0  0
 43104  1  0  0  0
 43105  1  0  0  0
 43106  1  0  0  0
 45107  1  0  0  0
 48108  1  0  0  0
 48109  1  0  0  0
 49110  1  0  0  0
 49111  1  0  0  0
 50112  1  0  0  0
 50113  1  0  0  0
 52114  1  0  0  0
 55115  1  0  0  0
 55116  1  0  0  0
 56117  1  0  0  0
 56118  1  0  0  0
 57119  1  0  0  0
 57120  1  0  0  0
 58121  1  0  0  0
M  END
$$$$
