### 
### Created by X-TOOL on Fri Nov 18 12:10:28 2016
### 

@<TRIPOS>MOLECULE
1dub_ligand
   90    92     1     0     0
SMALL
GAST_HUCK


@<TRIPOS>ATOM
      1 AN1        57.4910  105.7980  182.3710 N.ar      1 CAA        -0.2698
      2 AC2        56.7250  105.8160  183.4260 C.ar      1 CAA         0.0533
      3 AN3        56.0510  106.8060  183.9620 N.ar      1 CAA        -0.2714
      4 AC4        56.2300  107.9470  183.2460 C.ar      1 CAA         0.1613
      5 AC5        56.9900  108.0800  182.1280 C.ar      1 CAA         0.1045
      6 AC6        57.6650  106.9200  181.6700 C.ar      1 CAA         0.1298
      7 AN6        58.4440  106.8910  180.6030 N.pl3     1 CAA        -0.3152
      8 AN7        56.9480  109.3670  181.6640 N.2       1 CAA        -0.2958
      9 AC8        56.1610  109.9940  182.5080 C.2       1 CAA         0.1123
     10 AN9        55.6800  109.1750  183.5050 N.pl3     1 CAA        -0.1919
     11 AC1        54.7890  109.4960  184.6410 C.3       1 CAA         0.2013
     12 AC2        55.5150  110.5250  185.5470 C.3       1 CAA         0.1432
     13 AO2        56.4540  109.8890  186.4700 O.3       1 CAA        -0.3832
     14 AC3        54.3430  111.1570  186.2880 C.3       1 CAA         0.1487
     15 AO3        53.7580  110.1900  187.1500 O.3       1 CAA        -0.2674
     16 AP3        53.7980  110.4310  188.6590 P.3       1 CAA         0.2013
     17 AO7        55.0160  109.7280  189.2650 O.co2     1 CAA        -0.5537
     18 AO8        53.8980  111.9330  188.9680 O.co2     1 CAA        -0.5537
     19 AO9        52.5190  109.8420  189.2500 O.co2     1 CAA        -0.5537
     20 AC4        53.4020  111.3340  185.1060 C.3       1 CAA         0.1235
     21 AO4        53.6190  110.2170  184.2260 O.3       1 CAA        -0.3360
     22 AC5        53.7080  112.6160  184.4030 C.3       1 CAA         0.1131
     23 AO5        55.0730  112.7900  184.2300 O.3       1 CAA        -0.2476
     24 AP1        55.7000  114.1300  184.5250 P.3       1 CAA         0.2972
     25 AO1        55.2040  114.5910  185.9110 O.co2     1 CAA        -0.6127
     26 AO2        57.2430  113.9700  184.5450 O.co2     1 CAA        -0.6127
     27 AO3        55.2600  115.1450  183.4480 O.3       1 CAA        -0.1319
     28 AP2        55.9900  116.4060  182.9150 P.3       1 CAA         0.2971
     29 AO4        54.9760  117.2640  182.1220 O.co2     1 CAA        -0.6127
     30 AO5        56.5600  117.2390  184.0850 O.co2     1 CAA        -0.6127
     31 AO6        57.1560  116.0090  181.9760 O.3       1 CAA        -0.2496
     32 PC11       58.0160  114.4120  180.2830 C.3       1 CAA         0.0367
     33 PC12       56.8890  115.3340  180.7350 C.3       1 CAA         0.0936
     34 PC13       59.1580  115.2540  179.7160 C.3       1 CAA        -0.0528
     35 PC14       57.4840  113.4780  179.1730 C.3       1 CAA        -0.0528
     36 PC10       58.4860  113.6180  181.5350 C.3       1 CAA         0.1510
     37 PO10       57.4920  112.6410  181.9620 O.3       1 CAA        -0.3708
     38 PC9        59.7190  112.7580  181.3550 C.2       1 CAA         0.2057
     39 PO9        60.8320  113.2380  181.2030 O.2       1 CAA        -0.3942
     40 PN8        59.4860  111.3670  181.3470 N.am      1 CAA        -0.2826
     41 PC7        60.5020  110.4350  181.1190 C.3       1 CAA         0.0477
     42 PC6        60.3060  109.7240  179.7950 C.3       1 CAA         0.0574
     43 PC5        61.5300  108.9570  179.3120 C.2       1 CAA         0.1779
     44 PO5        62.6640  109.1700  179.6930 O.2       1 CAA        -0.3970
     45 PN4        61.1540  107.9720  178.4140 N.am      1 CAA        -0.2860
     46 PC3        62.0320  107.0630  177.8190 C.3       1 CAA         0.0422
     47 PC2        62.6750  106.1990  178.8450 C.3       1 CAA         0.0337
     48 PS1        62.8650  104.3850  178.5860 S.3       1 CAA        -0.0457
     49 C1         62.2910  103.7670  177.0400 C.2       1 CAA         0.1822
     50 O1         61.8690  104.5480  176.1990 O.2       1 CAA        -0.3756
     51 C2         62.7220  102.3900  176.6700 C.3       1 CAA         0.1043
     52 C3         62.7730  101.8920  175.2780 C.2       1 CAA         0.1208
     53 O3         62.5320  102.5930  174.3500 O.2       1 CAA        -0.3884
     54 C4         63.1150  100.4880  174.8800 C.3       1 CAA         0.0118
     55 H1         56.6304  104.8662  183.9397 H         1 CAA         0.0996
     56 H2         58.5906  107.7468  180.0490 H         1 CAA         0.1820
     57 H3         58.9046  106.0125  180.3253 H         1 CAA         0.1820
     58 H4         55.9144  111.0517  182.4277 H         1 CAA         0.1349
     59 H5         54.5213  108.5787  185.1858 H         1 CAA         0.0996
     60 H6         56.0534  111.2711  184.9442 H         1 CAA         0.0680
     61 H7         55.9838  109.2834  187.0309 H         1 CAA         0.2101
     62 H8         54.5948  112.0891  186.8150 H         1 CAA         0.0704
     63 H9         52.3576  111.3450  185.4511 H         1 CAA         0.0654
     64 H10        53.3142  113.4527  184.9987 H         1 CAA         0.0648
     65 H11        53.2214  112.6072  183.4165 H         1 CAA         0.0648
     66 H12        56.7273  116.0926  179.9550 H         1 CAA         0.0628
     67 H13        55.9761  114.7325  180.8564 H         1 CAA         0.0628
     68 H14        59.9736  114.5926  179.3885 H         1 CAA         0.0238
     69 H15        59.5302  115.9379  180.4930 H         1 CAA         0.0238
     70 H16        58.7924  115.8376  178.8582 H         1 CAA         0.0238
     71 H17        56.6607  112.8669  179.5714 H         1 CAA         0.0238
     72 H18        58.2950  112.8201  178.8275 H         1 CAA         0.0238
     73 H19        57.1175  114.0821  178.3299 H         1 CAA         0.0238
     74 H20        58.6679  114.3481  182.3374 H         1 CAA         0.0844
     75 H21        56.6825  113.0885  182.1788 H         1 CAA         0.2133
     76 H22        58.5572  111.0346  181.5109 H         1 CAA         0.1853
     77 H23        60.4957  109.6917  181.9298 H         1 CAA         0.0545
     78 H24        61.4707  110.9559  181.1066 H         1 CAA         0.0545
     79 H25        60.0475  110.4756  179.0346 H         1 CAA         0.0522
     80 H26        59.4743  109.0126  179.9051 H         1 CAA         0.0522
     81 H27        60.1853  107.9069  178.1746 H         1 CAA         0.1851
     82 H28        62.8110  107.6175  177.2753 H         1 CAA         0.0529
     83 H29        61.4727  106.4302  177.1142 H         1 CAA         0.0529
     84 H30        62.0885  106.3219  179.7674 H         1 CAA         0.0424
     85 H31        63.6880  106.5993  178.9985 H         1 CAA         0.0424
     86 H32        62.0447  101.7096  177.2069 H         1 CAA         0.0730
     87 H33        63.7424  102.2790  177.0654 H         1 CAA         0.0730
     88 H34        63.0768  100.3979  173.7844 H         1 CAA         0.0460
     89 H35        62.3915   99.7926  175.3305 H         1 CAA         0.0460
     90 H36        64.1277  100.2432  175.2329 H         1 CAA         0.0460
@<TRIPOS>BOND
     1    1    2 ar 
     2    1    6 ar 
     3    2    3 ar 
     4    3    4 ar 
     5    4    5 ar 
     6    4   10 1  
     7    5    6 ar 
     8    5    8 1  
     9    6    7 1  
    10    8    9 2  
    11    9   10 1  
    12   10   11 1  
    13   11   12 1  
    14   11   21 1  
    15   12   13 1  
    16   12   14 1  
    17   14   15 1  
    18   14   20 1  
    19   15   16 1  
    20   16   17 ar 
    21   16   18 ar 
    22   16   19 ar 
    23   20   21 1  
    24   20   22 1  
    25   22   23 1  
    26   23   24 1  
    27   24   25 ar 
    28   24   26 ar 
    29   24   27 1  
    30   27   28 1  
    31   28   29 ar 
    32   28   30 ar 
    33   28   31 1  
    34   31   33 1  
    35   33   32 1  
    36   32   34 1  
    37   32   35 1  
    38   32   36 1  
    39   36   37 1  
    40   36   38 1  
    41   38   39 2  
    42   38   40 am 
    43   40   41 1  
    44   41   42 1  
    45   42   43 1  
    46   43   44 2  
    47   43   45 am 
    48   45   46 1  
    49   46   47 1  
    50   47   48 1  
    51   48   49 1  
    52   49   50 2  
    53   49   51 1  
    54   51   52 1  
    55   52   53 2  
    56   52   54 1  
    57    2   55 1  
    58    7   56 1  
    59    7   57 1  
    60    9   58 1  
    61   11   59 1  
    62   12   60 1  
    63   13   61 1  
    64   14   62 1  
    65   20   63 1  
    66   22   64 1  
    67   22   65 1  
    68   33   66 1  
    69   33   67 1  
    70   34   68 1  
    71   34   69 1  
    72   34   70 1  
    73   35   71 1  
    74   35   72 1  
    75   35   73 1  
    76   36   74 1  
    77   37   75 1  
    78   40   76 1  
    79   41   77 1  
    80   41   78 1  
    81   42   79 1  
    82   42   80 1  
    83   45   81 1  
    84   46   82 1  
    85   46   83 1  
    86   47   84 1  
    87   47   85 1  
    88   51   86 1  
    89   51   87 1  
    90   54   88 1  
    91   54   89 1  
    92   54   90 1  
@<TRIPOS>SUBSTRUCTURE
     1 CAA         1

