1dub_ligand
  -I-interpret- 

 94 96  0  0  0  0  0  0  0  0999 V2000
   57.4910  105.7980  182.3710 N   0  0  0  0  0
   56.7250  105.8160  183.4260 C   0  0  0  0  0
   56.0510  106.8060  183.9620 N   0  0  0  0  0
   56.2300  107.9470  183.2460 C   0  0  0  0  0
   56.9900  108.0800  182.1280 C   0  0  0  0  0
   57.6650  106.9200  181.6700 C   0  0  0  0  0
   58.4440  106.8910  180.6030 N   0  0  0  0  0
   56.9480  109.3670  181.6640 N   0  0  0  0  0
   56.1610  109.9940  182.5080 C   0  0  0  0  0
   55.6800  109.1750  183.5050 N   0  0  0  0  0
   54.7890  109.4960  184.6410 C   0  0  0  0  0
   55.5150  110.5250  185.5470 C   0  0  0  0  0
   56.4540  109.8890  186.4700 O   0  0  0  0  0
   54.3430  111.1570  186.2880 C   0  0  0  0  0
   53.7580  110.1900  187.1500 O   0  0  0  0  0
   53.7980  110.4310  188.6590 P   0  0  0  0  0
   55.0160  109.7280  189.2650 O   0  0  0  0  0
   53.8980  111.9330  188.9680 O   0  0  0  0  0
   52.5190  109.8420  189.2500 O   0  0  0  0  0
   53.4020  111.3340  185.1060 C   0  0  0  0  0
   53.6190  110.2170  184.2260 O   0  0  0  0  0
   53.7080  112.6160  184.4030 C   0  0  0  0  0
   55.0730  112.7900  184.2300 O   0  0  0  0  0
   55.7000  114.1300  184.5250 P   0  0  0  0  0
   55.2040  114.5910  185.9110 O   0  0  0  0  0
   57.2430  113.9700  184.5450 O   0  0  0  0  0
   55.2600  115.1450  183.4480 O   0  0  0  0  0
   55.9900  116.4060  182.9150 P   0  0  0  0  0
   54.9760  117.2640  182.1220 O   0  0  0  0  0
   56.5600  117.2390  184.0850 O   0  0  0  0  0
   57.1560  116.0090  181.9760 O   0  0  0  0  0
   58.0160  114.4120  180.2830 C   0  0  0  0  0
   56.8890  115.3340  180.7350 C   0  0  0  0  0
   59.1580  115.2540  179.7160 C   0  0  0  0  0
   57.4840  113.4780  179.1730 C   0  0  0  0  0
   58.4860  113.6180  181.5350 C   0  0  0  0  0
   57.4920  112.6410  181.9620 O   0  0  0  0  0
   59.7190  112.7580  181.3550 C   0  0  0  0  0
   60.8320  113.2380  181.2030 O   0  0  0  0  0
   59.4860  111.3670  181.3470 N   0  0  0  0  0
   60.5020  110.4350  181.1190 C   0  0  0  0  0
   60.3060  109.7240  179.7950 C   0  0  0  0  0
   61.5300  108.9570  179.3120 C   0  0  0  0  0
   62.6640  109.1700  179.6930 O   0  0  0  0  0
   61.1540  107.9720  178.4140 N   0  0  0  0  0
   62.0320  107.0630  177.8190 C   0  0  0  0  0
   62.6750  106.1990  178.8450 C   0  0  0  0  0
   62.8650  104.3850  178.5860 S   0  0  0  0  0
   62.2910  103.7670  177.0400 C   0  0  0  0  0
   61.8690  104.5480  176.1990 O   0  0  0  0  0
   62.7220  102.3900  176.6700 C   0  0  0  0  0
   62.7730  101.8920  175.2780 C   0  0  0  0  0
   62.5320  102.5930  174.3500 O   0  0  0  0  0
   63.1150  100.4880  174.8800 C   0  0  0  0  0
   56.6298  104.8609  183.9426 H   0  0  0  0  0
   58.9001  106.0211  180.3280 H   0  0  0  0  0
   58.5892  107.7385  180.0544 H   0  0  0  0  0
   55.9142  111.0527  182.4276 H   0  0  0  0  0
   54.5336  108.5478  185.1140 H   0  0  0  0  0
   56.1317  111.2335  184.9940 H   0  0  0  0  0
   56.8777  110.5619  187.0079 H   0  0  0  0  0
   54.5787  112.0406  186.8811 H   0  0  0  0  0
   55.8179  110.1007  188.8913 H   0  0  0  0  0
   54.7073  112.2834  188.5886 H   0  0  0  0  0
   52.3625  111.3710  185.4318 H   0  0  0  0  0
   53.3298  113.4397  185.0085 H   0  0  0  0  0
   53.2367  112.5911  183.4205 H   0  0  0  0  0
   57.5451  113.6831  183.6801 H   0  0  0  0  0
   54.6212  116.7475  181.3948 H   0  0  0  0  0
   56.7666  116.0988  179.9681 H   0  0  0  0  0
   56.0032  114.7166  180.8842 H   0  0  0  0  0
   58.7945  115.8318  178.8662 H   0  0  0  0  0
   59.5258  115.9312  180.4868 H   0  0  0  0  0
   59.9655  114.5975  179.3919 H   0  0  0  0  0
   56.6569  112.8855  179.5640 H   0  0  0  0  0
   57.1373  114.0772  178.3310 H   0  0  0  0  0
   58.2839  112.8148  178.8437 H   0  0  0  0  0
   58.6751  114.4291  182.2382 H   0  0  0  0  0
   57.8167  112.1724  182.7344 H   0  0  0  0  0
   58.5386  111.0280  181.5142 H   0  0  0  0  0
   60.4806  109.6943  181.9183 H   0  0  0  0  0
   61.4568  110.9601  181.0940 H   0  0  0  0  0
   60.0895  110.4880  179.0483 H   0  0  0  0  0
   59.5055  108.9976  179.9351 H   0  0  0  0  0
   60.1659  107.9056  178.1698 H   0  0  0  0  0
   62.8076  107.6181  177.2914 H   0  0  0  0  0
   61.4703  106.4317  177.1305 H   0  0  0  0  0
   62.0083  106.2724  179.7042 H   0  0  0  0  0
   63.7004  106.5658  178.8908 H   0  0  0  0  0
   61.9525  101.7650  177.1232 H   0  0  0  0  0
   63.7693  102.3743  176.9718 H   0  0  0  0  0
   62.2743  100.0490  174.3428 H   0  0  0  0  0
   63.9941  100.4983  174.2356 H   0  0  0  0  0
   63.3245   99.8993  175.7731 H   0  0  0  0  0
  1  2  4  0  0  0
  1  6  4  0  0  0
  2  3  4  0  0  0
  3  4  4  0  0  0
  4  5  4  0  0  0
  4 10  4  0  0  0
  5  6  4  0  0  0
  5  8  4  0  0  0
  6  7  1  0  0  0
  8  9  4  0  0  0
  9 10  4  0  0  0
 10 11  1  0  0  0
 11 12  1  0  0  0
 11 21  1  0  0  0
 12 13  1  0  0  0
 12 14  1  0  0  0
 14 15  1  0  0  0
 14 20  1  0  0  0
 15 16  1  0  0  0
 16 17  1  0  0  0
 16 18  1  0  0  0
 16 19  2  0  0  0
 20 21  1  0  0  0
 20 22  1  0  0  0
 22 23  1  0  0  0
 23 24  1  0  0  0
 24 25  2  0  0  0
 24 26  1  0  0  0
 24 27  1  0  0  0
 27 28  1  0  0  0
 28 29  1  0  0  0
 28 30  2  0  0  0
 28 31  1  0  0  0
 31 33  1  0  0  0
 33 32  1  0  0  0
 32 34  1  0  0  0
 32 35  1  0  0  0
 32 36  1  0  0  0
 36 37  1  0  0  0
 36 38  1  0  0  0
 38 39  2  0  0  0
 38 40  1  0  0  0
 40 41  1  0  0  0
 41 42  1  0  0  0
 42 43  1  0  0  0
 43 44  2  0  0  0
 43 45  1  0  0  0
 45 46  1  0  0  0
 46 47  1  0  0  0
 47 48  1  0  0  0
 48 49  1  0  0  0
 49 50  2  0  0  0
 49 51  1  0  0  0
 51 52  1  0  0  0
 52 53  2  0  0  0
 52 54  1  0  0  0
  2 55  1  0  0  0
  7 56  1  0  0  0
  7 57  1  0  0  0
  9 58  1  0  0  0
 11 59  1  0  0  0
 12 60  1  0  0  0
 13 61  1  0  0  0
 14 62  1  0  0  0
 17 63  1  0  0  0
 18 64  1  0  0  0
 20 65  1  0  0  0
 22 66  1  0  0  0
 22 67  1  0  0  0
 26 68  1  0  0  0
 29 69  1  0  0  0
 33 70  1  0  0  0
 33 71  1  0  0  0
 34 72  1  0  0  0
 34 73  1  0  0  0
 34 74  1  0  0  0
 35 75  1  0  0  0
 35 76  1  0  0  0
 35 77  1  0  0  0
 36 78  1  0  0  0
 37 79  1  0  0  0
 40 80  1  0  0  0
 41 81  1  0  0  0
 41 82  1  0  0  0
 42 83  1  0  0  0
 42 84  1  0  0  0
 45 85  1  0  0  0
 46 86  1  0  0  0
 46 87  1  0  0  0
 47 88  1  0  0  0
 47 89  1  0  0  0
 51 90  1  0  0  0
 51 91  1  0  0  0
 54 92  1  0  0  0
 54 93  1  0  0  0
 54 94  1  0  0  0
M  END
$$$$
