2z3h_ligand
  -I-interpret- 

 56 57  0  0  0  0  0  0  0  0999 V2000
   22.3430   32.4620  106.1530 O   0  0  0  0  0
   22.1350   33.6630  106.0430 C   0  0  0  0  0
   20.8110   34.3200  106.3880 C   0  0  0  0  0
   19.6000   33.5110  105.9650 C   0  0  0  0  0
   18.3650   34.3800  106.1790 C   0  0  0  0  0
   17.6890   34.7410  104.8590 C   0  0  0  0  0
   16.7790   35.8840  105.0450 N   0  0  0  0  0
   15.5020   35.7360  105.6580 C   0  0  0  0  0
   15.0380   34.5380  106.0180 N   0  0  0  0  0
   14.7450   36.8130  105.8930 N   0  0  0  0  0
   17.2370   37.2180  104.6300 C   0  0  0  0  0
   19.5210   32.3470  106.8220 N   0  3  0  0  0
   23.0500   34.5180  105.6150 N   0  0  0  0  0
   24.4140   34.1440  105.2410 C   0  0  0  0  0
   24.7990   34.5580  103.8200 C   0  0  0  0  0
   25.8490   35.2520  103.5750 C   0  0  0  0  0
   25.3420   34.9440  106.1670 C   0  0  0  0  0
   25.3650   34.4530  107.5860 C   0  0  0  0  0
   24.6820   35.0880  108.4120 O   0  0  0  0  0
   26.0700   33.4720  107.8920 O   0  0  0  0  0
   26.6920   34.8280  105.7190 O   0  0  0  0  0
   26.8710   35.1500  104.3580 C   0  0  0  0  0
   28.1290   34.9710  103.8950 N   0  0  0  0  0
   28.2760   33.6580  103.6480 C   0  0  0  0  0
   29.4590   33.1670  103.1400 C   0  0  0  0  0
   30.4470   34.0990  102.8880 C   0  0  0  0  0
   31.5770   33.6910  102.3200 O   0  0  0  0  0
   30.3040   35.4090  103.1950 N   0  0  0  0  0
   29.1210   35.8680  103.6780 C   0  0  0  0  0
   29.0190   37.1010  103.8850 O   0  0  0  0  0
   20.7703   35.2701  105.8554 H   0  0  0  0  0
   20.7713   34.4231  107.4724 H   0  0  0  0  0
   19.6679   33.2024  104.9218 H   0  0  0  0  0
   18.6766   35.3032  106.6676 H   0  0  0  0  0
   17.6535   33.8201  106.7860 H   0  0  0  0  0
   17.1152   33.8835  104.5074 H   0  0  0  0  0
   18.4535   35.0104  104.1303 H   0  0  0  0  0
   14.1234   34.4578  106.4625 H   0  0  0  0  0
   13.8336   36.7083  106.3388 H   0  0  0  0  0
   15.0790   37.7392  105.6264 H   0  0  0  0  0
   16.5404   37.6289  103.8992 H   0  0  0  0  0
   17.2807   37.8728  105.5003 H   0  0  0  0  0
   18.2283   37.1379  104.1839 H   0  0  0  0  0
   20.3465   31.7649  106.6798 H   0  0  0  0  0
   19.4780   32.6459  107.7963 H   0  0  0  0  0
   18.6831   31.8129  106.5916 H   0  0  0  0  0
   22.7874   35.5008  105.5411 H   0  0  0  0  0
   24.4931   33.0593  105.3141 H   0  0  0  0  0
   24.1613   34.2538  102.9900 H   0  0  0  0  0
   25.8787   35.9210  102.7150 H   0  0  0  0  0
   24.9512   35.9611  106.1363 H   0  0  0  0  0
   26.5080   33.1367  107.1063 H   0  0  0  0  0
   26.8250   36.2371  104.2938 H   0  0  0  0  0
   27.4513   32.9749  103.8515 H   0  0  0  0  0
   29.6067   32.1043  102.9480 H   0  0  0  0  0
   31.0850   36.0518  103.0636 H   0  0  0  0  0
  1  2  2  0  0  0
  2  3  1  0  0  0
  2 13  1  0  0  0
  3  4  1  0  0  0
  4  5  1  0  0  0
  4 12  1  0  0  0
  5  6  1  0  0  0
  6  7  1  0  0  0
  7  8  1  0  0  0
  7 11  1  0  0  0
  8  9  2  0  0  0
  8 10  1  0  0  0
 13 14  1  0  0  0
 14 15  1  0  0  0
 14 17  1  0  0  0
 15 16  2  0  0  0
 16 22  1  0  0  0
 17 18  1  0  0  0
 17 21  1  0  0  0
 18 19  2  0  0  0
 18 20  1  0  0  0
 21 22  1  0  0  0
 22 23  1  0  0  0
 23 24  1  0  0  0
 23 29  1  0  0  0
 24 25  2  0  0  0
 25 26  1  0  0  0
 26 27  2  0  0  0
 26 28  1  0  0  0
 28 29  1  0  0  0
 29 30  2  0  0  0
  3 31  1  0  0  0
  3 32  1  0  0  0
  4 33  1  0  0  0
  5 34  1  0  0  0
  5 35  1  0  0  0
  6 36  1  0  0  0
  6 37  1  0  0  0
  9 38  1  0  0  0
 10 39  1  0  0  0
 10 40  1  0  0  0
 11 41  1  0  0  0
 11 42  1  0  0  0
 11 43  1  0  0  0
 12 44  1  0  0  0
 12 45  1  0  0  0
 12 46  1  0  0  0
 13 47  1  0  0  0
 14 48  1  0  0  0
 15 49  1  0  0  0
 16 50  1  0  0  0
 17 51  1  0  0  0
 20 52  1  0  0  0
 22 53  1  0  0  0
 24 54  1  0  0  0
 25 55  1  0  0  0
 28 56  1  0  0  0
M  END
$$$$
