1t46_ligand
  -I-interpret- 

 70 74  0  0  0  0  0  0  0  0999 V2000
   32.6960   24.7000   47.5410 C   0  0  0  0  0
   31.8180   25.4090   46.7190 C   0  0  0  0  0
   30.6070   24.8220   46.3550 C   0  0  0  0  0
   30.2890   23.5400   46.7930 C   0  0  0  0  0
   31.1560   22.8770   47.5750 N   0  0  0  0  0
   32.3300   23.4240   47.9550 C   0  0  0  0  0
   29.6570   25.5420   45.4790 C   0  0  0  0  0
   29.9720   26.7830   44.9260 C   0  0  0  0  0
   29.0340   27.3880   44.0930 C   0  0  0  0  0
   27.8540   26.7890   43.8490 N   0  0  0  0  0
   27.5660   25.5940   44.4210 C   0  0  0  0  0
   28.4650   24.9750   45.2160 N   0  0  0  0  0
   26.4040   24.9540   44.2010 N   0  0  0  0  0
   25.3470   25.5110   43.5600 C   0  0  0  0  0
   24.2990   26.0650   44.2940 C   0  0  0  0  0
   23.2070   26.6100   43.6280 C   0  0  0  0  0
   23.1490   26.6030   42.2330 C   0  0  0  0  0
   24.1950   26.0540   41.4950 C   0  0  0  0  0
   25.2830   25.4900   42.1650 C   0  0  0  0  0
   24.0610   26.0500   40.0970 N   0  0  0  0  0
   24.9820   25.6240   39.2380 C   0  0  0  0  0
   24.6520   25.6310   37.7790 C   0  0  0  0  0
   25.4430   24.8950   36.8960 C   0  0  0  0  0
   25.1350   24.8970   35.5390 C   0  0  0  0  0
   24.0400   25.6290   35.0810 C   0  0  0  0  0
   23.2420   26.3570   35.9610 C   0  0  0  0  0
   23.5530   26.3490   37.3180 C   0  0  0  0  0
   23.7080   25.6150   33.6100 C   0  0  0  0  0
   23.6120   26.9460   33.0270 N   0  3  0  0  0
   24.7780   27.8090   33.1870 C   0  0  0  0  0
   24.4070   29.2250   32.7690 C   0  0  0  0  0
   23.8580   29.1530   31.4220 N   0  3  0  0  0
   23.8300   30.4370   30.7290 C   0  0  0  0  0
   22.6960   28.3020   31.1910 C   0  0  0  0  0
   22.9660   26.9000   31.7180 C   0  0  0  0  0
   26.0670   25.2150   39.5910 O   0  0  0  0  0
   24.3250   26.0840   45.8060 C   0  0  0  0  0
   33.6456   25.1363   47.8508 H   0  0  0  0  0
   32.0758   26.4078   46.3667 H   0  0  0  0  0
   29.3449   23.0784   46.5039 H   0  0  0  0  0
   33.0027   22.8558   48.5974 H   0  0  0  0  0
   30.9255   27.2659   45.1397 H   0  0  0  0  0
   29.2570   28.3522   43.6361 H   0  0  0  0  0
   26.3125   23.9947   44.5354 H   0  0  0  0  0
   22.3886   27.0468   44.2002 H   0  0  0  0  0
   22.2851   27.0272   41.7214 H   0  0  0  0  0
   26.0892   25.0294   41.5941 H   0  0  0  0  0
   23.1860   26.4026   39.7092 H   0  0  0  0  0
   26.2944   24.3237   37.2658 H   0  0  0  0  0
   25.7465   24.3293   34.8376 H   0  0  0  0  0
   22.3872   26.9242   35.5926 H   0  0  0  0  0
   22.9341   26.9066   38.0210 H   0  0  0  0  0
   22.7357   25.1355   33.4968 H   0  0  0  0  0
   24.5122   25.0882   33.0963 H   0  0  0  0  0
   22.9718   27.4826   33.6123 H   0  0  0  0  0
   25.5943   27.4436   32.5639 H   0  0  0  0  0
   25.0982   27.8051   34.2289 H   0  0  0  0  0
   25.2846   29.8712   32.7893 H   0  0  0  0  0
   23.6747   29.6466   33.4575 H   0  0  0  0  0
   24.5681   28.5933   30.9500 H   0  0  0  0  0
   23.2159   31.1393   31.2927 H   0  0  0  0  0
   24.8450   30.8256   30.6455 H   0  0  0  0  0
   23.4083   30.3018   29.7330 H   0  0  0  0  0
   22.4955   28.2508   30.1208 H   0  0  0  0  0
   21.8348   28.7214   31.7111 H   0  0  0  0  0
   22.0157   26.3751   31.8161 H   0  0  0  0  0
   23.6275   26.3864   31.0203 H   0  0  0  0  0
   24.3817   25.0617   46.1800 H   0  0  0  0  0
   25.1952   26.6455   46.1461 H   0  0  0  0  0
   23.4168   26.5584   46.1778 H   0  0  0  0  0
  1  2  4  0  0  0
  1  6  4  0  0  0
  2  3  4  0  0  0
  3  4  4  0  0  0
  3  7  1  0  0  0
  4  5  4  0  0  0
  5  6  4  0  0  0
  7  8  4  0  0  0
  7 12  4  0  0  0
  8  9  4  0  0  0
  9 10  4  0  0  0
 10 11  4  0  0  0
 11 12  4  0  0  0
 11 13  1  0  0  0
 13 14  1  0  0  0
 14 15  4  0  0  0
 14 19  4  0  0  0
 15 16  4  0  0  0
 15 37  1  0  0  0
 16 17  4  0  0  0
 17 18  4  0  0  0
 18 19  4  0  0  0
 18 20  1  0  0  0
 20 21  1  0  0  0
 21 22  1  0  0  0
 21 36  2  0  0  0
 22 23  4  0  0  0
 22 27  4  0  0  0
 23 24  4  0  0  0
 24 25  4  0  0  0
 25 26  4  0  0  0
 25 28  1  0  0  0
 26 27  4  0  0  0
 28 29  1  0  0  0
 29 30  1  0  0  0
 29 35  1  0  0  0
 30 31  1  0  0  0
 31 32  1  0  0  0
 32 33  1  0  0  0
 32 34  1  0  0  0
 34 35  1  0  0  0
  1 38  1  0  0  0
  2 39  1  0  0  0
  4 40  1  0  0  0
  6 41  1  0  0  0
  8 42  1  0  0  0
  9 43  1  0  0  0
 13 44  1  0  0  0
 16 45  1  0  0  0
 17 46  1  0  0  0
 19 47  1  0  0  0
 20 48  1  0  0  0
 23 49  1  0  0  0
 24 50  1  0  0  0
 26 51  1  0  0  0
 27 52  1  0  0  0
 28 53  1  0  0  0
 28 54  1  0  0  0
 29 55  1  0  0  0
 30 56  1  0  0  0
 30 57  1  0  0  0
 31 58  1  0  0  0
 31 59  1  0  0  0
 32 60  1  0  0  0
 33 61  1  0  0  0
 33 62  1  0  0  0
 33 63  1  0  0  0
 34 64  1  0  0  0
 34 65  1  0  0  0
 35 66  1  0  0  0
 35 67  1  0  0  0
 37 68  1  0  0  0
 37 69  1  0  0  0
 37 70  1  0  0  0
M  END
$$$$
