3kab_ligand
  -I-interpret- 

 21 22  0  0  0  0  0  0  0  0999 V2000
   33.2350   25.7730   24.7380 C   0  0  0  0  0
   33.7200   25.6370   26.0040 N   0  0  0  0  0
   34.2230   25.5250   23.7800 C   0  0  0  0  0
   35.0220   25.3000   25.9990 C   0  0  0  0  0
   31.8280   26.1410   24.4150 C   0  0  0  0  0
   35.3630   25.2220   24.5770 C   0  0  0  0  0
   35.9900   25.0410   26.9580 C   0  0  0  0  0
   31.0240   26.3420   25.3500 O   0  0  0  0  0
   36.6550   24.8900   24.1950 C   0  0  0  0  0
   31.4870   26.2380   23.2160 O   0  0  0  0  0
   37.2770   24.7100   26.5420 C   0  0  0  0  0
   37.6010   24.6370   25.1860 C   0  0  0  0  0
   38.3390   24.4270   27.5720 C   0  0  0  0  0
   34.1407   25.5560   22.6935 H   0  0  0  0  0
   35.7474   25.0956   28.0193 H   0  0  0  0  0
   36.9244   24.8284   23.1406 H   0  0  0  0  0
   32.2412   26.0471   22.6535 H   0  0  0  0  0
   38.6186   24.3758   24.8956 H   0  0  0  0  0
   38.4770   25.3066   28.2008 H   0  0  0  0  0
   38.0297   23.5829   28.1885 H   0  0  0  0  0
   39.2761   24.1874   27.0694 H   0  0  0  0  0
  1  2  4  0  0  0
  1  3  4  0  0  0
  1  5  1  0  0  0
  2  4  4  0  0  0
  3  6  4  0  0  0
  4  6  4  0  0  0
  4  7  4  0  0  0
  5  8  2  0  0  0
  5 10  1  0  0  0
  6  9  4  0  0  0
  7 11  4  0  0  0
  9 12  4  0  0  0
 11 12  4  0  0  0
 11 13  1  0  0  0
  3 14  1  0  0  0
  7 15  1  0  0  0
  9 16  1  0  0  0
 10 17  1  0  0  0
 12 18  1  0  0  0
 13 19  1  0  0  0
 13 20  1  0  0  0
 13 21  1  0  0  0
M  END
$$$$
