3s43_ligand
  -I-interpret- 

 70 72  0  0  0  0  0  0  0  0999 V2000
   12.6350   18.2260   19.7570 C   0  0  0  0  0
   14.6010   19.0590   20.8660 C   0  0  0  0  0
   14.7900   20.7470   18.3190 C   0  0  0  0  0
   13.9950   18.8340   19.4730 C   0  0  0  0  0
   15.2610   22.9200   17.1960 C   0  0  0  0  0
   15.6900   24.0290   18.1510 C   0  0  0  0  0
   14.4680   23.3860   15.9600 C   0  0  0  0  0
   14.0620   22.2520   15.0600 C   0  0  0  0  0
   12.7810   21.7330   15.0120 C   0  0  0  0  0
   15.0160   21.6200   14.2340 C   0  0  0  0  0
   12.4870   20.5960   14.2590 C   0  0  0  0  0
   14.7740   20.5230   13.4130 C   0  0  0  0  0
   13.4750   20.0120   13.4750 C   0  0  0  0  0
   16.7510   24.9870   17.5370 C   0  0  0  0  0
   18.9000   24.6650   18.6800 C   0  0  0  0  0
   18.6410   23.9570   20.0300 C   0  0  0  0  0
   19.4650   25.4270   15.4260 C   0  0  0  0  0
   18.7070   26.2940   14.6320 C   0  0  0  0  0
   19.2470   27.5290   14.2230 C   0  0  0  0  0
   20.5110   27.9530   14.6620 C   0  0  0  0  0
   21.2690   27.0370   15.4200 C   0  0  0  0  0
   20.6950   25.8680   15.8650 C   0  0  0  0  0
   18.8800   22.4520   19.8730 C   0  0  0  0  0
   19.6650   24.5510   21.0080 C   0  0  0  0  0
   13.5080   18.6350   21.8460 C   0  0  0  0  0
   14.4280   21.9640   17.9130 N   0  0  0  0  0
   18.0700   24.3890   17.5710 N   0  0  0  0  0
   21.1210   29.0360   14.1780 N   0  0  0  0  0
   13.7140   20.1220   18.9310 O   0  0  0  0  0
   15.8990   20.2770   18.2330 O   0  0  0  0  0
   14.5730   24.8820   18.4580 O   0  0  0  0  0
   17.6490   23.6920   15.1640 O   0  0  0  0  0
   19.7190   22.9040   16.3290 O   0  0  0  0  0
   12.3130   18.6930   21.0730 O   0  0  0  0  0
   18.7460   23.9790   16.1310 S   0  0  0  0  0
   12.6489   17.1377   19.6972 H   0  0  0  0  0
   11.8886   18.5221   19.0199 H   0  0  0  0  0
   14.8964   20.0976   21.0150 H   0  0  0  0  0
   15.5154   18.4826   21.0066 H   0  0  0  0  0
   14.6346   18.2402   18.8199 H   0  0  0  0  0
   16.1926   22.4881   16.8303 H   0  0  0  0  0
   16.0946   23.5106   19.0203 H   0  0  0  0  0
   15.1111   24.0522   15.3849 H   0  0  0  0  0
   13.5582   23.8715   16.3131 H   0  0  0  0  0
   11.9852   22.2221   15.5737 H   0  0  0  0  0
   16.0278   22.0255   14.2397 H   0  0  0  0  0
   11.4854   20.1669   14.2854 H   0  0  0  0  0
   15.5414   20.0938   12.7688 H   0  0  0  0  0
   13.2284   19.1264   12.8894 H   0  0  0  0  0
   16.7692   25.9085   18.1189 H   0  0  0  0  0
   16.4837   25.1867   16.4993 H   0  0  0  0  0
   19.8880   24.3201   18.3751 H   0  0  0  0  0
   18.7351   25.7220   18.8891 H   0  0  0  0  0
   17.6184   24.0992   20.3797 H   0  0  0  0  0
   17.6980   26.0138   14.3296 H   0  0  0  0  0
   18.6721   28.1678   13.5526 H   0  0  0  0  0
   22.3110   27.2551   15.6538 H   0  0  0  0  0
   21.2356   25.2657   16.5951 H   0  0  0  0  0
   18.2016   22.0545   19.1181 H   0  0  0  0  0
   19.9109   22.2794   19.5640 H   0  0  0  0  0
   18.6969   21.9550   20.8257 H   0  0  0  0  0
   20.6724   24.3539   20.6414 H   0  0  0  0  0
   19.5093   25.6270   21.0859 H   0  0  0  0  0
   19.5376   24.0922   21.9885 H   0  0  0  0  0
   13.4653   19.2809   22.7230 H   0  0  0  0  0
   13.6855   17.6423   22.2596 H   0  0  0  0  0
   13.4736   22.2545   18.1253 H   0  0  0  0  0
   20.6681   29.5967   13.4562 H   0  0  0  0  0
   22.0403   29.3035   14.5297 H   0  0  0  0  0
   13.8683   24.3576   18.8454 H   0  0  0  0  0
  4  1  1  0  0  0
  1 34  1  0  0  0
  4  2  1  0  0  0
  2 25  1  0  0  0
 26  3  1  0  0  0
  3 29  1  0  0  0
  3 30  2  0  0  0
 29  4  1  0  0  0
  6  5  1  0  0  0
  5  7  1  0  0  0
  5 26  1  0  0  0
 14  6  1  0  0  0
  6 31  1  0  0  0
  7  8  1  0  0  0
  8  9  4  0  0  0
  8 10  4  0  0  0
  9 11  4  0  0  0
 10 12  4  0  0  0
 11 13  4  0  0  0
 12 13  4  0  0  0
 27 14  1  0  0  0
 15 16  1  0  0  0
 27 15  1  0  0  0
 16 23  1  0  0  0
 16 24  1  0  0  0
 17 18  4  0  0  0
 17 22  4  0  0  0
 35 17  1  0  0  0
 18 19  4  0  0  0
 19 20  4  0  0  0
 21 20  4  0  0  0
 20 28  1  0  0  0
 22 21  4  0  0  0
 25 34  1  0  0  0
 27 35  1  0  0  0
 35 32  2  0  0  0
 35 33  2  0  0  0
  1 36  1  0  0  0
  1 37  1  0  0  0
  2 38  1  0  0  0
  2 39  1  0  0  0
  4 40  1  0  0  0
  5 41  1  0  0  0
  6 42  1  0  0  0
  7 43  1  0  0  0
  7 44  1  0  0  0
  9 45  1  0  0  0
 10 46  1  0  0  0
 11 47  1  0  0  0
 12 48  1  0  0  0
 13 49  1  0  0  0
 14 50  1  0  0  0
 14 51  1  0  0  0
 15 52  1  0  0  0
 15 53  1  0  0  0
 16 54  1  0  0  0
 18 55  1  0  0  0
 19 56  1  0  0  0
 21 57  1  0  0  0
 22 58  1  0  0  0
 23 59  1  0  0  0
 23 60  1  0  0  0
 23 61  1  0  0  0
 24 62  1  0  0  0
 24 63  1  0  0  0
 24 64  1  0  0  0
 25 65  1  0  0  0
 25 66  1  0  0  0
 26 67  1  0  0  0
 28 68  1  0  0  0
 28 69  1  0  0  0
 31 70  1  0  0  0
M  END
$$$$
