### 
### Created by X-TOOL on Mon Sep 10 21:12:55 2018
### 

@<TRIPOS>MOLECULE
2gvd_ligand
   59    63     1     0     0
SMALL
GAST_HUCK


@<TRIPOS>ATOM
      1 PG         57.8700   -6.0460   59.3860 P.3       1 128         0.1879
      2 O1G        57.9260   -5.5980   57.8520 O.co2     1 128        -0.6091
      3 O2G        56.4760   -5.5190   59.9590 O.co2     1 128        -0.6091
      4 O3G        58.9590   -5.3530   60.0530 O.co2     1 128        -0.6091
      5 PB         59.1730   -8.7830   59.1110 P.3       1 128         0.3553
      6 O1B        60.1970   -8.4080   59.6110 O.co2     1 128        -0.5652
      7 O2B        58.9550   -9.7740   59.3200 O.co2     1 128        -0.5652
      8 O3B        58.0730   -7.7060   59.4870 O.3       1 128        -0.1546
      9 PA         59.2740   -8.7980   55.9170 P.3       1 128         0.3266
     10 O1A        57.7160   -8.6870   55.6480 O.co2     1 128        -0.5692
     11 O2A        60.1140   -7.7380   55.2340 O.co2     1 128        -0.5692
     12 O3A        59.6900   -8.6190   57.4840 O.3       1 128        -0.1171
     13 N9         58.3210  -13.1510   52.5890 N.pl3     1 128        -0.1920
     14 C8         58.1930  -11.8130   52.3850 C.2       1 128         0.1123
     15 N7         57.4230  -11.4670   51.4000 N.2       1 128        -0.2958
     16 C5         56.9930  -12.6280   50.8990 C.ar      1 128         0.1045
     17 C6         56.1170  -12.8540   49.7760 C.ar      1 128         0.1298
     18 N6         55.6000  -11.7980   49.1140 N.pl3     1 128        -0.3152
     19 N1         55.7780  -14.1920   49.3930 N.ar      1 128        -0.2698
     20 C2         56.3370  -15.2260   50.1110 C.ar      1 128         0.0533
     21 N3         57.1720  -14.9820   51.1800 N.ar      1 128        -0.2714
     22 C4         57.5500  -13.6990   51.6000 C.ar      1 128         0.1613
     23 C1F        62.0960  -15.0030   54.8850 C.3       1 128         0.2110
     24 C2F        63.6080  -15.0670   54.5010 C.2       1 128         0.2069
     25 C3F        64.4150  -16.1640   54.8860 C.2       1 128         0.0587
     26 C4F        64.0340  -17.2900   55.6140 C.2       1 128         0.2783
     27 C5F        62.6690  -17.3270   56.0160 C.2       1 128         0.0740
     28 C6F        61.6400  -16.2620   55.7110 C.3       1 128         0.2630
     29 N2F        64.2810  -14.0260   53.7390 N.2       1 128         0.3015
     30 N4F        64.8310  -18.3180   55.9540 N.2       1 128         0.3272
     31 N6F        60.3100  -16.5890   56.2540 N.2       1 128         0.3140
     32 O2F        63.7440  -13.0360   53.3380 O.2       1 128         0.1726
     33 O3F        65.4680  -14.0950   53.4510 O.2       1 128         0.1726
     34 O4F        64.4570  -19.2960   56.5930 O.2       1 128         0.1744
     35 O5F        66.0020  -18.3470   55.6390 O.2       1 128         0.1744
     36 O6F        60.1290  -17.6470   56.8930 O.2       1 128         0.1908
     37 O7F        59.3300  -15.9370   56.1540 O.2       1 128         0.1908
     38 O5'        59.7200  -10.3860   55.6810 O.3       1 128        -0.2441
     39 C5'        58.9570  -11.4880   56.2450 C.3       1 128         0.1131
     40 C4'        59.6420  -12.9080   55.8760 C.3       1 128         0.1175
     41 O4'        58.7280  -13.4920   54.8650 O.3       1 128        -0.3365
     42 C3'        60.8850  -13.0000   55.1350 C.3       1 128         0.1010
     43 O3'        61.7880  -13.8740   55.8680 O.3       1 128        -0.4077
     44 C2'        60.6220  -13.6440   53.7020 C.3       1 128         0.1251
     45 O2'        61.3820  -14.8750   53.5240 O.3       1 128        -0.4054
     46 C1'        59.0980  -13.9520   53.6000 C.3       1 128         0.1996
     47 H1         58.7034  -11.0797   53.0077 H         1 128         0.1349
     48 H2         54.9734  -11.9502   48.3108 H         1 128         0.1820
     49 H3         55.8319  -10.8397   49.4119 H         1 128         0.1820
     50 H4         56.1163  -16.2495   49.8304 H         1 128         0.0996
     51 H5         65.4583  -16.1236   54.5765 H         1 128         0.1304
     52 H6         62.3393  -18.1921   56.5894 H         1 128         0.1572
     53 H7         61.8766  -15.7113   56.6334 H         1 128         0.0988
     54 H8         57.9349  -11.4642   55.8392 H         1 128         0.0648
     55 H9         58.9199  -11.3787   57.3389 H         1 128         0.0648
     56 H10        59.7186  -13.5082   56.7946 H         1 128         0.0650
     57 H11        61.3292  -12.0001   55.0213 H         1 128         0.0633
     58 H12        60.9111  -12.9272   52.9193 H         1 128         0.0661
     59 H13        58.9107  -15.0254   53.4493 H         1 128         0.0995
@<TRIPOS>BOND
     1    1    2 ar 
     2    1    3 ar 
     3    1    4 ar 
     4    8    1 1  
     5    5    6 ar 
     6    5    7 ar 
     7    5    8 1  
     8   12    5 1  
     9    9   10 ar 
    10    9   11 ar 
    11    9   12 1  
    12   38    9 1  
    13   13   14 1  
    14   13   22 1  
    15   46   13 1  
    16   14   15 2  
    17   16   15 1  
    18   16   17 ar 
    19   22   16 ar 
    20   17   18 1  
    21   17   19 ar 
    22   20   19 ar 
    23   21   20 ar 
    24   22   21 ar 
    25   23   24 1  
    26   23   28 1  
    27   43   23 1  
    28   23   45 1  
    29   24   25 2  
    30   24   29 1  
    31   25   26 1  
    32   27   26 2  
    33   26   30 1  
    34   28   27 1  
    35   28   31 1  
    36   29   32 2  
    37   29   33 2  
    38   30   34 2  
    39   30   35 2  
    40   31   36 2  
    41   31   37 2  
    42   39   38 1  
    43   40   39 1  
    44   40   41 1  
    45   42   40 1  
    46   41   46 1  
    47   42   43 1  
    48   42   44 1  
    49   44   45 1  
    50   44   46 1  
    51   14   47 1  
    52   18   48 1  
    53   18   49 1  
    54   20   50 1  
    55   25   51 1  
    56   27   52 1  
    57   28   53 1  
    58   39   54 1  
    59   39   55 1  
    60   40   56 1  
    61   42   57 1  
    62   44   58 1  
    63   46   59 1  
@<TRIPOS>SUBSTRUCTURE
     1 128         1

