2gvd_ligand
  -I-interpret- 

 63 67  0  0  0  0  0  0  0  0999 V2000
   57.8700   -6.0460   59.3860 P   0  0  0  0  0
   57.9260   -5.5980   57.8520 O   0  0  0  0  0
   56.4760   -5.5190   59.9590 O   0  0  0  0  0
   58.9590   -5.3530   60.0530 O   0  0  0  0  0
   59.1730   -8.7830   59.1110 P   0  0  0  0  0
   60.1970   -8.4080   59.6110 O   0  0  0  0  0
   58.9550   -9.7740   59.3200 O   0  0  0  0  0
   58.0730   -7.7060   59.4870 O   0  0  0  0  0
   59.2740   -8.7980   55.9170 P   0  0  0  0  0
   57.7160   -8.6870   55.6480 O   0  0  0  0  0
   60.1140   -7.7380   55.2340 O   0  0  0  0  0
   59.6900   -8.6190   57.4840 O   0  0  0  0  0
   58.3210  -13.1510   52.5890 N   0  0  0  0  0
   58.1930  -11.8130   52.3850 C   0  0  0  0  0
   57.4230  -11.4670   51.4000 N   0  0  0  0  0
   56.9930  -12.6280   50.8990 C   0  0  0  0  0
   56.1170  -12.8540   49.7760 C   0  0  0  0  0
   55.6000  -11.7980   49.1140 N   0  0  0  0  0
   55.7780  -14.1920   49.3930 N   0  0  0  0  0
   56.3370  -15.2260   50.1110 C   0  0  0  0  0
   57.1720  -14.9820   51.1800 N   0  0  0  0  0
   57.5500  -13.6990   51.6000 C   0  0  0  0  0
   62.0960  -15.0030   54.8850 C   0  0  0  0  0
   63.6080  -15.0670   54.5010 C   0  0  0  0  0
   64.4150  -16.1640   54.8860 C   0  0  0  0  0
   64.0340  -17.2900   55.6140 C   0  0  0  0  0
   62.6690  -17.3270   56.0160 C   0  0  0  0  0
   61.6400  -16.2620   55.7110 C   0  0  0  0  0
   64.2810  -14.0260   53.7390 N   0  0  0  0  0
   64.8310  -18.3180   55.9540 N   0  0  0  0  0
   60.3100  -16.5890   56.2540 N   0  0  0  0  0
   63.7440  -13.0360   53.3380 O   0  0  0  0  0
   65.4680  -14.0950   53.4510 O   0  0  0  0  0
   64.4570  -19.2960   56.5930 O   0  0  0  0  0
   66.0020  -18.3470   55.6390 O   0  0  0  0  0
   60.1290  -17.6470   56.8930 O   0  0  0  0  0
   59.3300  -15.9370   56.1540 O   0  0  0  0  0
   59.7200  -10.3860   55.6810 O   0  0  0  0  0
   58.9570  -11.4880   56.2450 C   0  0  0  0  0
   59.6420  -12.9080   55.8760 C   0  0  0  0  0
   58.7280  -13.4920   54.8650 O   0  0  0  0  0
   60.8850  -13.0000   55.1350 C   0  0  0  0  0
   61.7880  -13.8740   55.8680 O   0  0  0  0  0
   60.6220  -13.6440   53.7020 C   0  0  0  0  0
   61.3820  -14.8750   53.5240 O   0  0  0  0  0
   59.0980  -13.9520   53.6000 C   0  0  0  0  0
   57.2208   -6.0328   57.3669 H   0  0  0  0  0
   55.7565   -5.9769   59.5183 H   0  0  0  0  0
   60.3447   -7.4872   59.3831 H   0  0  0  0  0
   57.2608   -9.3918   56.1145 H   0  0  0  0  0
   58.7039  -11.0791   53.0082 H   0  0  0  0  0
   55.8297  -10.8490   49.4090 H   0  0  0  0  0
   54.9795  -11.9488   48.3186 H   0  0  0  0  0
   56.1151  -16.2552   49.8288 H   0  0  0  0  0
   65.4593  -16.1236   54.5762 H   0  0  0  0  0
   62.3390  -18.1929   56.5900 H   0  0  0  0  0
   61.1485  -15.3463   55.3823 H   0  0  0  0  0
   57.9486  -11.4657   55.8318 H   0  0  0  0  0
   58.9323  -11.3804   57.3294 H   0  0  0  0  0
   59.8280  -13.3363   56.8609 H   0  0  0  0  0
   61.3100  -12.0037   55.0131 H   0  0  0  0  0
   60.9400  -12.9483   52.9255 H   0  0  0  0  0
   58.9060  -14.9843   53.3074 H   0  0  0  0  0
  1  2  1  0  0  0
  1  3  1  0  0  0
  1  4  2  0  0  0
  8  1  1  0  0  0
  5  6  1  0  0  0
  5  7  2  0  0  0
  5  8  1  0  0  0
 12  5  1  0  0  0
  9 10  1  0  0  0
  9 11  2  0  0  0
  9 12  1  0  0  0
 38  9  1  0  0  0
 13 14  4  0  0  0
 13 22  4  0  0  0
 46 13  1  0  0  0
 14 15  4  0  0  0
 16 15  4  0  0  0
 16 17  4  0  0  0
 22 16  4  0  0  0
 17 18  1  0  0  0
 17 19  4  0  0  0
 20 19  4  0  0  0
 21 20  4  0  0  0
 22 21  4  0  0  0
 23 24  1  0  0  0
 23 28  1  0  0  0
 43 23  1  0  0  0
 23 45  1  0  0  0
 24 25  2  0  0  0
 24 29  1  0  0  0
 25 26  1  0  0  0
 27 26  2  0  0  0
 26 30  1  0  0  0
 28 27  1  0  0  0
 28 31  1  0  0  0
 29 32  2  0  0  0
 29 33  2  0  0  0
 30 34  2  0  0  0
 30 35  2  0  0  0
 31 36  2  0  0  0
 31 37  2  0  0  0
 39 38  1  0  0  0
 40 39  1  0  0  0
 40 41  1  0  0  0
 42 40  1  0  0  0
 41 46  1  0  0  0
 42 43  1  0  0  0
 42 44  1  0  0  0
 44 45  1  0  0  0
 44 46  1  0  0  0
  2 47  1  0  0  0
  3 48  1  0  0  0
  6 49  1  0  0  0
 10 50  1  0  0  0
 14 51  1  0  0  0
 18 52  1  0  0  0
 18 53  1  0  0  0
 20 54  1  0  0  0
 25 55  1  0  0  0
 27 56  1  0  0  0
 28 57  1  0  0  0
 39 58  1  0  0  0
 39 59  1  0  0  0
 40 60  1  0  0  0
 42 61  1  0  0  0
 44 62  1  0  0  0
 46 63  1  0  0  0
M  END
$$$$
