5zia_ligand
  -I-interpret- 

141141  0  0  0  0  0  0  0  0999 V2000
  -36.2120 -116.7190   76.5680 N   0  3  0  0  0
  -34.8040 -116.9360   76.2290 C   0  0  0  0  0
  -33.8780 -115.7960   76.6880 C   0  0  0  0  0
  -34.2330 -114.6240   76.5860 O   0  0  0  0  0
  -34.6500 -117.1220   74.7270 C   0  0  0  0  0
  -35.0040 -115.9250   74.0600 O   0  0  0  0  0
  -32.6790 -116.1480   77.1520 N   0  0  0  0  0
  -31.7800 -115.1470   77.7330 C   0  0  0  0  0
  -31.2950 -114.1300   76.7120 C   0  0  0  0  0
  -31.2990 -114.3600   75.5020 O   0  0  0  0  0
  -30.6040 -115.9830   78.2600 C   0  0  0  0  0
  -31.1100 -117.3700   78.3680 C   0  0  0  0  0
  -32.1200 -117.5050   77.2570 C   0  0  0  0  0
  -30.8640 -112.9840   77.2120 N   0  0  0  0  0
  -30.2080 -111.9380   76.4410 C   0  0  0  0  0
  -28.7990 -112.3030   76.0550 C   0  0  0  0  0
  -28.1560 -113.0530   76.7470 O   0  0  0  0  0
  -30.1140 -110.6810   77.2740 C   0  0  0  0  0
  -31.3580 -110.1360   77.5260 O   0  0  0  0  0
  -28.3410 -111.7380   74.9420 N   0  0  0  0  0
  -26.9860 -111.9290   74.4810 C   0  0  0  0  0
  -26.7480 -111.0920   73.2300 C   0  0  0  0  0
  -27.8120 -110.1560   73.0750 O   0  0  0  0  0
  -26.0610 -111.4810   75.5690 C   0  0  0  0  0
  -26.2870 -110.4240   76.1960 O   0  0  0  0  0
  -27.9300 -109.2660   71.7380 P   0  0  0  0  0
  -26.5870 -109.4360   71.0680 O   0  0  0  0  0
  -29.0840 -109.8870   70.9880 O   0  0  0  0  0
  -28.1980 -107.8720   72.2520 O   0  0  0  0  0
  -25.0210 -112.2680   75.8090 N   0  0  0  0  0
  -24.0780 -111.9990   76.8500 C   0  0  0  0  0
  -23.1240 -110.9280   76.4710 C   0  0  0  0  0
  -22.7130 -110.8170   75.3430 O   0  0  0  0  0
  -23.3360 -113.2550   77.1980 C   0  0  0  0  0
  -22.7840 -110.1140   77.4410 N   0  0  0  0  0
  -21.8700 -109.0150   77.1600 C   0  0  0  0  0
  -20.6120 -109.1390   78.0050 C   0  0  0  0  0
  -20.3330 -108.2810   78.8480 O   0  0  0  0  0
  -22.5490 -107.6580   77.3920 C   0  0  0  0  0
  -23.6470 -107.3190   76.3910 C   0  0  0  0  0
  -23.1330 -107.4880   74.9670 C   0  0  0  0  0
  -24.0450 -106.8750   73.9190 C   0  0  0  0  0
  -25.2580 -107.6900   73.7040 N   0  3  0  0  0
  -19.8410 -110.2000   77.7870 N   0  0  0  0  0
  -18.5710 -110.3500   78.4800 C   0  0  0  0  0
  -17.4180 -110.1910   77.5010 C   0  0  0  0  0
  -16.8500 -109.1010   77.3550 O   0  0  0  0  0
  -18.5100 -111.7000   79.2110 C   0  0  0  0  0
  -18.8130 -112.8010   78.3620 O   0  0  0  0  0
  -17.1330 -111.2060   76.7440 N   0  0  0  0  0
  -16.0680 -111.1320   75.7870 C   0  0  0  0  0
  -16.6700 -110.8220   74.4620 C   0  0  0  0  0
  -17.7870 -111.1900   74.1930 O   0  0  0  0  0
  -15.3220 -112.4430   75.6960 C   0  0  0  0  0
  -16.1830 -113.6430   75.9810 C   0  0  0  0  0
  -15.6470 -114.8960   75.3460 C   0  0  0  0  0
  -15.3500 -114.7010   73.9450 N   0  0  0  0  0
  -14.3770 -115.3280   73.3160 C   0  0  0  0  0
  -13.6140 -116.1920   73.9770 N   0  0  0  0  0
  -14.1700 -115.0890   72.0370 N   0  0  0  0  0
  -15.9090 -110.1210   73.6500 N   0  0  0  0  0
  -16.3740 -109.7230   72.3210 C   0  0  0  0  0
  -16.2770 -110.9040   71.3750 C   0  0  0  0  0
  -15.2850 -111.6300   71.4020 O   0  0  0  0  0
  -15.5480 -108.5510   71.7750 C   0  0  0  0  0
  -15.5180 -107.2730   72.5720 C   0  0  0  0  0
  -15.1330 -106.1150   71.7610 C   0  0  0  0  0
  -16.8110 -106.9940   73.2390 C   0  0  0  0  0
  -17.1910 -111.1310   70.5840 O   0  0  0  0  0
  -36.3026 -116.5958   77.5765 H   0  0  0  0  0
  -36.5506 -115.8838   76.0904 H   0  0  0  0  0
  -36.7601 -117.5269   76.2724 H   0  0  0  0  0
  -34.5009 -117.8351   76.7655 H   0  0  0  0  0
  -35.3032 -117.9284   74.3937 H   0  0  0  0  0
  -33.6138 -117.3707   74.4978 H   0  0  0  0  0
  -34.9055 -116.0466   73.1128 H   0  0  0  0  0
  -32.2790 -114.5556   78.5007 H   0  0  0  0  0
  -30.2552 -115.6125   79.2239 H   0  0  0  0  0
  -29.7458 -115.9255   77.5905 H   0  0  0  0  0
  -31.5553 -117.5625   79.3441 H   0  0  0  0  0
  -30.3070 -118.1012   78.2747 H   0  0  0  0  0
  -31.6776 -117.8532   76.3237 H   0  0  0  0  0
  -32.8786 -118.2596   77.4648 H   0  0  0  0  0
  -31.0011 -112.8214   78.2096 H   0  0  0  0  0
  -30.8056 -111.7971   75.5404 H   0  0  0  0  0
  -29.5253 -109.9483   76.7220 H   0  0  0  0  0
  -29.6533 -110.9369   78.2281 H   0  0  0  0  0
  -31.2568 -109.3419   78.0558 H   0  0  0  0  0
  -28.9687 -111.1491   74.3947 H   0  0  0  0  0
  -26.8105 -112.9775   74.2402 H   0  0  0  0  0
  -26.7085 -111.7449   72.3581 H   0  0  0  0  0
  -25.8037 -110.5561   73.3256 H   0  0  0  0  0
  -26.4919 -110.3436   70.7701 H   0  0  0  0  0
  -28.8372 -110.7673   70.6952 H   0  0  0  0  0
  -24.8886 -113.0966   75.2291 H   0  0  0  0  0
  -24.6322 -111.6473   77.7202 H   0  0  0  0  0
  -24.0437 -114.0113   77.5376 H   0  0  0  0  0
  -22.8078 -113.6194   76.3169 H   0  0  0  0  0
  -22.6191 -113.0440   77.9915 H   0  0  0  0  0
  -23.1552 -110.2487   78.3815 H   0  0  0  0  0
  -21.5868 -109.0711   76.1089 H   0  0  0  0  0
  -21.7778 -106.8946   77.2892 H   0  0  0  0  0
  -23.0170 -107.7003   78.3755 H   0  0  0  0  0
  -23.9559 -106.2840   76.5378 H   0  0  0  0  0
  -24.4912 -107.9906   76.5471 H   0  0  0  0  0
  -23.0726 -108.5573   74.7646 H   0  0  0  0  0
  -22.1710 -106.9796   74.9028 H   0  0  0  0  0
  -23.4976 -106.8201   72.9780 H   0  0  0  0  0
  -24.3519 -105.8885   74.2664 H   0  0  0  0  0
  -25.8429 -107.2467   72.9956 H   0  0  0  0  0
  -24.9885 -108.6221   73.3895 H   0  0  0  0  0
  -25.7773 -107.7620   74.5790 H   0  0  0  0  0
  -20.1433 -110.9164   77.1268 H   0  0  0  0  0
  -18.4830 -109.5664   79.2325 H   0  0  0  0  0
  -19.2512 -111.6807   80.0100 H   0  0  0  0  0
  -17.4934 -111.8336   79.5810 H   0  0  0  0  0
  -18.7608 -113.6163   78.8662 H   0  0  0  0  0
  -17.6733 -112.0668   76.8310 H   0  0  0  0  0
  -15.3600 -110.3621   76.0937 H   0  0  0  0  0
  -14.5300 -112.4223   76.4446 H   0  0  0  0  0
  -14.9520 -112.5397   74.6753 H   0  0  0  0  0
  -17.1739 -113.4530   75.5686 H   0  0  0  0  0
  -16.2046 -113.7942   77.0602 H   0  0  0  0  0
  -16.4046 -115.6750   75.4311 H   0  0  0  0  0
  -14.7248 -115.1724   75.8571 H   0  0  0  0  0
  -15.9234 -114.0440   73.4160 H   0  0  0  0  0
  -12.8585 -116.6784   73.4943 H   0  0  0  0  0
  -13.7838 -116.3688   74.9671 H   0  0  0  0  0
  -14.7612 -114.4223   71.5405 H   0  0  0  0  0
  -14.9740 -109.8488   73.9535 H   0  0  0  0  0
  -17.4117 -109.3993   72.4016 H   0  0  0  0  0
  -16.0133 -108.2878   70.8251 H   0  0  0  0  0
  -14.5176 -108.9062   71.7604 H   0  0  0  0  0
  -14.7567 -107.4305   73.3361 H   0  0  0  0  0
  -14.1374 -106.2772   71.3480 H   0  0  0  0  0
  -15.8485 -105.9879   70.9486 H   0  0  0  0  0
  -15.1277 -105.2215   72.3852 H   0  0  0  0  0
  -17.5946 -106.9043   72.4866 H   0  0  0  0  0
  -17.0509 -107.8108   73.9197 H   0  0  0  0  0
  -16.7355 -106.0623   73.7997 H   0  0  0  0  0
  -17.8808 -110.4728   70.6964 H   0  0  0  0  0
  1  2  1  0  0  0
  2  3  1  0  0  0
  2  5  1  0  0  0
  3  4  2  0  0  0
  3  7  1  0  0  0
  5  6  1  0  0  0
  7  8  1  0  0  0
  7 13  1  0  0  0
  8  9  1  0  0  0
  8 11  1  0  0  0
  9 10  2  0  0  0
  9 14  1  0  0  0
 11 12  1  0  0  0
 12 13  1  0  0  0
 14 15  1  0  0  0
 15 16  1  0  0  0
 15 18  1  0  0  0
 16 17  2  0  0  0
 16 20  1  0  0  0
 18 19  1  0  0  0
 20 21  1  0  0  0
 21 22  1  0  0  0
 21 24  1  0  0  0
 22 23  1  0  0  0
 23 26  1  0  0  0
 24 25  2  0  0  0
 24 30  1  0  0  0
 26 27  1  0  0  0
 26 28  1  0  0  0
 26 29  2  0  0  0
 30 31  1  0  0  0
 31 32  1  0  0  0
 31 34  1  0  0  0
 32 33  2  0  0  0
 32 35  1  0  0  0
 35 36  1  0  0  0
 36 37  1  0  0  0
 36 39  1  0  0  0
 37 38  2  0  0  0
 37 44  1  0  0  0
 39 40  1  0  0  0
 40 41  1  0  0  0
 41 42  1  0  0  0
 42 43  1  0  0  0
 44 45  1  0  0  0
 45 46  1  0  0  0
 45 48  1  0  0  0
 46 47  2  0  0  0
 46 50  1  0  0  0
 48 49  1  0  0  0
 50 51  1  0  0  0
 51 52  1  0  0  0
 51 54  1  0  0  0
 52 53  2  0  0  0
 52 61  1  0  0  0
 54 55  1  0  0  0
 55 56  1  0  0  0
 56 57  1  0  0  0
 57 58  1  0  0  0
 58 59  1  0  0  0
 58 60  2  0  0  0
 61 62  1  0  0  0
 62 63  1  0  0  0
 62 65  1  0  0  0
 63 64  2  0  0  0
 63 69  1  0  0  0
 65 66  1  0  0  0
 66 67  1  0  0  0
 66 68  1  0  0  0
  1 70  1  0  0  0
  1 71  1  0  0  0
  1 72  1  0  0  0
  2 73  1  0  0  0
  5 74  1  0  0  0
  5 75  1  0  0  0
  6 76  1  0  0  0
  8 77  1  0  0  0
 11 78  1  0  0  0
 11 79  1  0  0  0
 12 80  1  0  0  0
 12 81  1  0  0  0
 13 82  1  0  0  0
 13 83  1  0  0  0
 14 84  1  0  0  0
 15 85  1  0  0  0
 18 86  1  0  0  0
 18 87  1  0  0  0
 19 88  1  0  0  0
 20 89  1  0  0  0
 21 90  1  0  0  0
 22 91  1  0  0  0
 22 92  1  0  0  0
 27 93  1  0  0  0
 28 94  1  0  0  0
 30 95  1  0  0  0
 31 96  1  0  0  0
 34 97  1  0  0  0
 34 98  1  0  0  0
 34 99  1  0  0  0
 35100  1  0  0  0
 36101  1  0  0  0
 39102  1  0  0  0
 39103  1  0  0  0
 40104  1  0  0  0
 40105  1  0  0  0
 41106  1  0  0  0
 41107  1  0  0  0
 42108  1  0  0  0
 42109  1  0  0  0
 43110  1  0  0  0
 43111  1  0  0  0
 43112  1  0  0  0
 44113  1  0  0  0
 45114  1  0  0  0
 48115  1  0  0  0
 48116  1  0  0  0
 49117  1  0  0  0
 50118  1  0  0  0
 51119  1  0  0  0
 54120  1  0  0  0
 54121  1  0  0  0
 55122  1  0  0  0
 55123  1  0  0  0
 56124  1  0  0  0
 56125  1  0  0  0
 57126  1  0  0  0
 59127  1  0  0  0
 59128  1  0  0  0
 60129  1  0  0  0
 61130  1  0  0  0
 62131  1  0  0  0
 65132  1  0  0  0
 65133  1  0  0  0
 66134  1  0  0  0
 67135  1  0  0  0
 67136  1  0  0  0
 67137  1  0  0  0
 68138  1  0  0  0
 68139  1  0  0  0
 68140  1  0  0  0
 69141  1  0  0  0
M  END
$$$$
