### 
### Created by X-TOOL on Wed Jan  1 15:39:37 2020
### 

@<TRIPOS>MOLECULE
5zia_ligand
  139   139     1     0     0
SMALL
GAST_HUCK


@<TRIPOS>ATOM
      1 N         -36.2120 -116.7190   76.5680 N.4       1 SER         0.2396
      2 CA        -34.8040 -116.9360   76.2290 C.3       1 SER         0.0886
      3 C         -33.8780 -115.7960   76.6880 C.2       1 SER         0.2315
      4 O         -34.2330 -114.6240   76.5860 O.2       1 SER        -0.3904
      5 CB        -34.6500 -117.1220   74.7270 C.3       1 SER         0.1041
      6 OG        -35.0040 -115.9250   74.0600 O.3       1 SER        -0.3870
      7 N         -32.6790 -116.1480   77.1520 N.am      1 PRO        -0.2471
      8 CA        -31.7800 -115.1470   77.7330 C.3       1 PRO         0.1339
      9 C         -31.2950 -114.1300   76.7120 C.2       1 PRO         0.2042
     10 O         -31.2990 -114.3600   75.5020 O.2       1 PRO        -0.3944
     11 CB        -30.6040 -115.9830   78.2600 C.3       1 PRO        -0.0104
     12 CG        -31.1100 -117.3700   78.3680 C.3       1 PRO        -0.0281
     13 CD        -32.1200 -117.5050   77.2570 C.3       1 PRO         0.0371
     14 N         -30.8640 -112.9840   77.2120 N.am      1 SER        -0.2616
     15 CA        -30.2080 -111.9380   76.4410 C.3       1 SER         0.1539
     16 C         -28.7990 -112.3030   76.0550 C.2       1 SER         0.2063
     17 O         -28.1560 -113.0530   76.7470 O.2       1 SER        -0.3943
     18 CB        -30.1140 -110.6810   77.2740 C.3       1 SER         0.0843
     19 OG        -31.3580 -110.1360   77.5260 O.3       1 SER        -0.3903
     20 N         -28.3410 -111.7380   74.9420 N.am      1 SEP        -0.2612
     21 CA        -26.9860 -111.9290   74.4810 C.3       1 SEP         0.1586
     22 CB        -26.7480 -111.0920   73.2300 C.3       1 SEP         0.1184
     23 OG        -27.8120 -110.1560   73.0750 O.3       1 SEP        -0.2714
     24 C         -26.0610 -111.4810   75.5690 C.2       1 SEP         0.2065
     25 O         -26.2870 -110.4240   76.1960 O.2       1 SEP        -0.3943
     26 P         -27.9300 -109.2660   71.7380 P.3       1 SEP         0.2010
     27 O1P       -26.5870 -109.4360   71.0680 O.co2     1 SEP        -0.5537
     28 O2P       -29.0840 -109.8870   70.9880 O.co2     1 SEP        -0.5537
     29 O3P       -28.1980 -107.8720   72.2520 O.co2     1 SEP        -0.5537
     30 N         -25.0210 -112.2680   75.8090 N.am      1 ALA        -0.2639
     31 CA        -24.0780 -111.9990   76.8500 C.3       1 ALA         0.1282
     32 C         -23.1240 -110.9280   76.4710 C.2       1 ALA         0.2036
     33 O         -22.7130 -110.8170   75.3430 O.2       1 ALA        -0.3944
     34 CB        -23.3360 -113.2550   77.1980 C.3       1 ALA        -0.0244
     35 N         -22.7840 -110.1140   77.4410 N.am      1 LYS        -0.2637
     36 CA        -21.8700 -109.0150   77.1600 C.3       1 LYS         0.1310
     37 C         -20.6120 -109.1390   78.0050 C.2       1 LYS         0.2040
     38 O         -20.3330 -108.2810   78.8480 O.2       1 LYS        -0.3944
     39 CB        -22.5490 -107.6580   77.3920 C.3       1 LYS        -0.0122
     40 CG        -23.6470 -107.3190   76.3910 C.3       1 LYS        -0.0440
     41 CD        -23.1330 -107.4880   74.9670 C.3       1 LYS        -0.0124
     42 CE        -24.0450 -106.8750   73.9190 C.3       1 LYS        -0.0354
     43 NZ        -25.2580 -107.6900   73.7040 N.4       1 LYS         0.2185
     44 N         -19.8410 -110.2000   77.7870 N.am      1 SER        -0.2616
     45 CA        -18.5710 -110.3500   78.4800 C.3       1 SER         0.1539
     46 C         -17.4180 -110.1910   77.5010 C.2       1 SER         0.2062
     47 O         -16.8500 -109.1010   77.3550 O.2       1 SER        -0.3943
     48 CB        -18.5100 -111.7000   79.2110 C.3       1 SER         0.0843
     49 OG        -18.8130 -112.8010   78.3620 O.3       1 SER        -0.3903
     50 N         -17.1330 -111.2060   76.7440 N.am      1 ARG        -0.2637
     51 CA        -16.0680 -111.1320   75.7870 C.3       1 ARG         0.1310
     52 C         -16.6700 -110.8220   74.4620 C.2       1 ARG         0.2033
     53 O         -17.7870 -111.1900   74.1930 O.2       1 ARG        -0.3944
     54 CB        -15.3220 -112.4430   75.6960 C.3       1 ARG        -0.0092
     55 CG        -16.1830 -113.6430   75.9810 C.3       1 ARG        -0.0156
     56 CD        -15.6470 -114.8960   75.3460 C.3       1 ARG         0.0627
     57 NE        -15.3500 -114.7010   73.9450 N.pl3     1 ARG        -0.2723
     58 CZ        -14.3770 -115.3280   73.3160 C.cat     1 ARG         0.2882
     59 NH1       -13.6140 -116.1920   73.9770 N.pl3     1 ARG        -0.2849
     60 NH2       -14.1700 -115.0890   72.0370 N.pl3     1 ARG        -0.2849
     61 N         -15.9090 -110.1210   73.6500 N.am      1 LEU        -0.2695
     62 CA        -16.3740 -109.7230   72.3210 C.3       1 LEU         0.0946
     63 C         -16.2770 -110.9040   71.3750 C.2       1 LEU         0.0601
     64 O         -15.2850 -111.6300   71.4020 O.co2     1 LEU        -0.5666
     65 CB        -15.5480 -108.5510   71.7750 C.3       1 LEU        -0.0156
     66 CG        -15.5180 -107.2730   72.5720 C.3       1 LEU        -0.0431
     67 CD1       -15.1330 -106.1150   71.7610 C.3       1 LEU        -0.0625
     68 CD2       -16.8110 -106.9940   73.2390 C.3       1 LEU        -0.0625
     69 OXT       -17.1910 -111.1310   70.5840 O.co2     1 LEU        -0.5666
     70 H1        -36.7604 -117.4988   76.2405 H         1 SER         0.2016
     71 H2        -36.5367 -115.8719   76.1287 H         1 SER         0.2016
     72 H3        -36.3081 -116.6371   77.5681 H         1 SER         0.2016
     73 H4        -34.4784 -117.8587   76.7315 H         1 SER         0.1122
     74 H5        -35.3077 -117.9367   74.3900 H         1 SER         0.0640
     75 H6        -33.6049 -117.3746   74.4950 H         1 SER         0.0640
     76 H7        -34.4355 -115.2216   74.3509 H         1 SER         0.2099
     77 H8        -32.2808 -114.6160   78.5559 H         1 PRO         0.0802
     78 H9        -30.2837 -115.6145   79.2457 H         1 PRO         0.0313
     79 H10       -29.7576 -115.9378   77.5589 H         1 PRO         0.0313
     80 H11       -31.5870 -117.5324   79.3458 H         1 PRO         0.0287
     81 H12       -30.2907 -118.0918   78.2353 H         1 PRO         0.0287
     82 H13       -31.6355 -117.8070   76.3167 H         1 PRO         0.0524
     83 H14       -32.9002 -118.2350   77.5185 H         1 PRO         0.0524
     84 H15       -30.9984 -112.8246   78.1900 H         1 SER         0.1884
     85 H16       -30.7971 -111.7444   75.5325 H         1 SER         0.0823
     86 H17       -29.5045 -109.9414   76.7342 H         1 SER         0.0606
     87 H18       -29.6317 -110.9245   78.2322 H         1 SER         0.0606
     88 H19       -31.2579 -109.3501   78.0503 H         1 SER         0.2097
     89 H20       -28.9564 -111.1606   74.4054 H         1 SEP         0.1884
     90 H21       -26.8125 -112.9912   74.2538 H         1 SEP         0.0827
     91 H22       -26.7082 -111.7509   72.3501 H         1 SEP         0.0662
     92 H23       -25.7950 -110.5511   73.3265 H         1 SEP         0.0662
     93 H24       -24.8912 -113.0804   75.2405 H         1 ALA         0.1883
     94 H25       -24.6333 -111.6634   77.7382 H         1 ALA         0.0797
     95 H26       -22.6121 -113.0433   77.9988 H         1 ALA         0.0277
     96 H27       -22.8025 -113.6238   76.3096 H         1 ALA         0.0277
     97 H28       -24.0491 -114.0191   77.5410 H         1 ALA         0.0277
     98 H29       -23.1479 -110.2461   78.3630 H         1 LYS         0.1883
     99 H30       -21.5793 -109.0743   76.1008 H         1 LYS         0.0800
    100 H31       -21.7789 -106.8747   77.3349 H         1 LYS         0.0312
    101 H32       -22.9923 -107.6637   78.3987 H         1 LYS         0.0312
    102 H33       -23.9657 -106.2769   76.5407 H         1 LYS         0.0269
    103 H34       -24.5034 -107.9908   76.5500 H         1 LYS         0.0269
    104 H35       -23.0346 -108.5633   74.7573 H         1 LYS         0.0317
    105 H36       -22.1459 -107.0082   74.8935 H         1 LYS         0.0317
    106 H37       -23.4950 -106.7976   72.9695 H         1 LYS         0.0813
    107 H38       -24.3453 -105.8705   74.2518 H         1 LYS         0.0813
    108 H39       -25.8368 -107.2528   73.0041 H         1 LYS         0.1994
    109 H40       -25.7721 -107.7618   74.5681 H         1 LYS         0.1994
    110 H41       -24.9930 -108.6115   73.3931 H         1 LYS         0.1994
    111 H42       -20.1374 -110.9023   77.1398 H         1 SER         0.1884
    112 H43       -18.4923 -109.5520   79.2329 H         1 SER         0.0823
    113 H44       -19.2345 -111.6846   80.0386 H         1 SER         0.0606
    114 H45       -17.4956 -111.8359   79.6141 H         1 SER         0.0606
    115 H46       -18.7614 -113.6078   78.8610 H         1 SER         0.2097
    116 H47       -17.6627 -112.0499   76.8293 H         1 ARG         0.1883
    117 H48       -15.3674 -110.3351   76.0771 H         1 ARG         0.0800
    118 H49       -14.4969 -112.4256   76.4233 H         1 ARG         0.0313
    119 H50       -14.9129 -112.5413   74.6797 H         1 ARG         0.0313
    120 H51       -17.1937 -113.4535   75.5905 H         1 ARG         0.0301
    121 H52       -16.2324 -113.7919   77.0697 H         1 ARG         0.0301
    122 H53       -16.3977 -115.6941   75.4434 H         1 ARG         0.0689
    123 H54       -14.7254 -115.1937   75.8675 H         1 ARG         0.0689
    124 H55       -15.9290 -114.0375   73.4108 H         1 ARG         0.2642
    125 H56       -12.8521 -116.6844   73.4892 H         1 ARG         0.2615
    126 H57       -13.7844 -116.3693   74.9772 H         1 ARG         0.2615
    127 H58       -14.7681 -114.4171   71.5353 H         1 ARG         0.2615
    128 H59       -13.4101 -115.5741   71.5388 H         1 ARG         0.2615
    129 H60       -14.9923 -109.8541   73.9475 H         1 LEU         0.1875
    130 H61       -17.4256 -109.4087   72.3943 H         1 LEU         0.0726
    131 H62       -15.9467 -108.3060   70.7795 H         1 LEU         0.0308
    132 H63       -14.5094 -108.9002   71.6783 H         1 LEU         0.0308
    133 H64       -14.7573 -107.3993   73.3564 H         1 LEU         0.0297
    134 H65       -15.1272 -105.2125   72.3899 H         1 LEU         0.0232
    135 H66       -15.8544 -105.9856   70.9407 H         1 LEU         0.0232
    136 H67       -14.1283 -106.2774   71.3436 H         1 LEU         0.0232
    137 H68       -17.1035 -107.8613   73.8490 H         1 LEU         0.0232
    138 H69       -17.5825 -106.8038   72.4783 H         1 LEU         0.0232
    139 H70       -16.7071 -106.1097   73.8850 H         1 LEU         0.0232
@<TRIPOS>BOND
     1    1    2 1  
     2    2    3 1  
     3    2    5 1  
     4    3    4 2  
     5    3    7 am 
     6    5    6 1  
     7    7    8 1  
     8    7   13 1  
     9    8    9 1  
    10    8   11 1  
    11    9   10 2  
    12    9   14 am 
    13   11   12 1  
    14   12   13 1  
    15   14   15 1  
    16   15   16 1  
    17   15   18 1  
    18   16   17 2  
    19   16   20 am 
    20   18   19 1  
    21   20   21 1  
    22   21   22 1  
    23   21   24 1  
    24   22   23 1  
    25   23   26 1  
    26   24   25 2  
    27   24   30 am 
    28   26   27 ar 
    29   26   28 ar 
    30   26   29 ar 
    31   30   31 1  
    32   31   32 1  
    33   31   34 1  
    34   32   33 2  
    35   32   35 am 
    36   35   36 1  
    37   36   37 1  
    38   36   39 1  
    39   37   38 2  
    40   37   44 am 
    41   39   40 1  
    42   40   41 1  
    43   41   42 1  
    44   42   43 1  
    45   44   45 1  
    46   45   46 1  
    47   45   48 1  
    48   46   47 2  
    49   46   50 am 
    50   48   49 1  
    51   50   51 1  
    52   51   52 1  
    53   51   54 1  
    54   52   53 2  
    55   52   61 am 
    56   54   55 1  
    57   55   56 1  
    58   56   57 1  
    59   57   58 ar 
    60   58   59 ar 
    61   58   60 ar 
    62   61   62 1  
    63   62   63 1  
    64   62   65 1  
    65   63   64 ar 
    66   63   69 ar 
    67   65   66 1  
    68   66   67 1  
    69   66   68 1  
    70    1   70 1  
    71    1   71 1  
    72    1   72 1  
    73    2   73 1  
    74    5   74 1  
    75    5   75 1  
    76    6   76 1  
    77    8   77 1  
    78   11   78 1  
    79   11   79 1  
    80   12   80 1  
    81   12   81 1  
    82   13   82 1  
    83   13   83 1  
    84   14   84 1  
    85   15   85 1  
    86   18   86 1  
    87   18   87 1  
    88   19   88 1  
    89   20   89 1  
    90   21   90 1  
    91   22   91 1  
    92   22   92 1  
    93   30   93 1  
    94   31   94 1  
    95   34   95 1  
    96   34   96 1  
    97   34   97 1  
    98   35   98 1  
    99   36   99 1  
   100   39  100 1  
   101   39  101 1  
   102   40  102 1  
   103   40  103 1  
   104   41  104 1  
   105   41  105 1  
   106   42  106 1  
   107   42  107 1  
   108   43  108 1  
   109   43  109 1  
   110   43  110 1  
   111   44  111 1  
   112   45  112 1  
   113   48  113 1  
   114   48  114 1  
   115   49  115 1  
   116   50  116 1  
   117   51  117 1  
   118   54  118 1  
   119   54  119 1  
   120   55  120 1  
   121   55  121 1  
   122   56  122 1  
   123   56  123 1  
   124   57  124 1  
   125   59  125 1  
   126   59  126 1  
   127   60  127 1  
   128   60  128 1  
   129   61  129 1  
   130   62  130 1  
   131   65  131 1  
   132   65  132 1  
   133   66  133 1  
   134   67  134 1  
   135   67  135 1  
   136   67  136 1  
   137   68  137 1  
   138   68  138 1  
   139   68  139 1  
@<TRIPOS>SUBSTRUCTURE
     1 SER         1

