4c8r_ligand
  -I-interpret- 

 38 39  0  0  0  0  0  0  0  0999 V2000
  -31.5050   31.0030  -24.0530 C   0  0  0  0  0
  -30.9590   30.3780  -22.9720 C   0  0  0  0  0
  -30.0190   31.0190  -22.2200 C   0  0  0  0  0
  -29.6190   32.3030  -22.5560 C   0  0  0  0  0
  -30.1640   32.9270  -23.6400 N   0  0  0  0  0
  -31.1000   32.2850  -24.3960 C   0  0  0  0  0
  -31.7110   32.9710  -25.5990 C   0  0  0  0  0
  -33.4050   33.3780  -25.2920 S   0  0  0  0  0
  -33.1250   34.7150  -24.1560 C   0  0  0  0  0
  -34.0680   35.8740  -24.3840 C   0  0  0  0  0
  -33.6950   36.5380  -25.6940 C   0  0  0  0  0
  -34.5370   36.4580  -26.6290 O   0  0  0  0  0
  -32.5720   37.1140  -25.7500 O   0  0  0  0  0
  -35.4190   35.4290  -24.4270 N   0  0  0  0  0
  -36.0240   34.9640  -23.3160 C   0  0  0  0  0
  -35.3830   34.5970  -22.1870 O   0  0  0  0  0
  -37.4020   34.8750  -23.3570 C   0  0  0  0  0
  -38.0480   33.9480  -22.5960 N   0  0  0  0  0
  -39.4070   33.8650  -22.6300 C   0  0  0  0  0
  -40.1300   34.7300  -23.4320 C   0  0  0  0  0
  -39.4810   35.6640  -24.1890 C   0  0  0  0  0
  -38.1180   35.7440  -24.1540 C   0  0  0  0  0
  -37.4200   36.6970  -24.9220 O   0  0  0  0  0
  -32.2620   30.4943  -24.6499 H   0  0  0  0  0
  -31.2729   29.3679  -22.7090 H   0  0  0  0  0
  -29.5820   30.5214  -21.3543 H   0  0  0  0  0
  -28.8683   32.8146  -21.9536 H   0  0  0  0  0
  -31.6597   32.2963  -26.4536 H   0  0  0  0  0
  -31.1586   33.8889  -25.7999 H   0  0  0  0  0
  -32.1069   35.0751  -24.3042 H   0  0  0  0  0
  -33.2912   34.3393  -23.1464 H   0  0  0  0  0
  -33.9803   36.5834  -23.5611 H   0  0  0  0  0
  -32.1275   37.0291  -24.9034 H   0  0  0  0  0
  -35.9342   35.4622  -25.3067 H   0  0  0  0  0
  -39.9239   33.1187  -22.0267 H   0  0  0  0  0
  -41.2178   34.6663  -23.4599 H   0  0  0  0  0
  -40.0509   36.3452  -24.8208 H   0  0  0  0  0
  -38.0471   37.2258  -25.4207 H   0  0  0  0  0
  1  2  4  0  0  0
  1  6  4  0  0  0
  2  3  4  0  0  0
  3  4  4  0  0  0
  4  5  4  0  0  0
  5  6  4  0  0  0
  6  7  1  0  0  0
  7  8  1  0  0  0
  8  9  1  0  0  0
  9 10  1  0  0  0
 10 11  1  0  0  0
 10 14  1  0  0  0
 11 12  2  0  0  0
 11 13  1  0  0  0
 14 15  1  0  0  0
 15 16  2  0  0  0
 15 17  1  0  0  0
 17 18  4  0  0  0
 17 22  4  0  0  0
 18 19  4  0  0  0
 19 20  4  0  0  0
 20 21  4  0  0  0
 21 22  4  0  0  0
 22 23  1  0  0  0
  1 24  1  0  0  0
  2 25  1  0  0  0
  3 26  1  0  0  0
  4 27  1  0  0  0
  7 28  1  0  0  0
  7 29  1  0  0  0
  9 30  1  0  0  0
  9 31  1  0  0  0
 10 32  1  0  0  0
 13 33  1  0  0  0
 14 34  1  0  0  0
 19 35  1  0  0  0
 20 36  1  0  0  0
 21 37  1  0  0  0
 23 38  1  0  0  0
M  END
$$$$
