1bnv_ligand
  -I-interpret- 

 43 45  0  0  0  0  0  0  0  0999 V2000
   -5.4570    1.8790   15.8760 C   0  0  0  0  0
   -4.1420    4.6350   12.2540 C   0  0  0  0  0
   -3.4840    3.4720   13.0120 C   0  0  0  0  0
   -1.5470    3.0460   12.4460 C   0  0  0  0  0
   -2.6170    8.7210   11.8780 C   0  0  0  0  0
   -1.8960    9.1920   12.9630 C   0  0  0  0  0
   -1.9140    8.4830   14.1610 C   0  0  0  0  0
   -2.6460    7.2920   14.2810 C   0  0  0  0  0
   -0.6030   10.1410   15.2420 C   0  0  0  0  0
   -5.6080   -0.7560   16.4350 N   0  0  0  0  0
   -5.9320    0.5970   16.9390 S   0  0  0  0  0
   -5.3140    0.8520   18.1880 O   0  0  0  0  0
   -7.3140    0.7730   16.9140 O   0  0  0  0  0
   -6.1480    3.4410   16.0360 S   0  0  0  0  0
   -5.2150    3.9570   14.7200 C   0  0  0  0  0
   -4.3770    2.9900   14.1530 C   0  0  0  0  0
   -4.5440    1.8080   14.8390 C   0  0  0  0  0
   -4.1910    5.7360   13.2140 N   0  0  0  0  0
   -5.3450    5.5640   14.1550 S   0  0  0  0  0
   -6.6280    5.7420   13.4100 O   0  0  0  0  0
   -5.2660    6.4310   15.3640 O   0  0  0  0  0
   -2.1620    3.8540   13.4980 N   0  3  0  0  0
   -3.3910    6.8190   13.1810 C   0  0  0  0  0
   -3.3590    7.5480   11.9850 C   0  0  0  0  0
   -1.3110    8.8950   15.2380 O   0  0  0  0  0
   -5.1360    4.3701   11.8936 H   0  0  0  0  0
   -3.5783    4.9040   11.3607 H   0  0  0  0  0
   -3.3572    2.6408   12.3183 H   0  0  0  0  0
   -1.8572    2.0072   12.5593 H   0  0  0  0  0
   -1.8649    3.4173   11.4718 H   0  0  0  0  0
   -0.4620    3.1132   12.5255 H   0  0  0  0  0
   -2.6033    9.2709   10.9370 H   0  0  0  0  0
   -1.3180   10.1123   12.8793 H   0  0  0  0  0
   -2.6389    6.7359   15.2185 H   0  0  0  0  0
    0.1910   10.1087   14.4959 H   0  0  0  0  0
   -1.2934   10.9505   15.0049 H   0  0  0  0  0
   -0.1700   10.3082   16.2282 H   0  0  0  0  0
   -6.3565   -1.3833   16.1406 H   0  0  0  0  0
   -4.6362   -1.0613   16.3820 H   0  0  0  0  0
   -4.0038    0.8955   14.5869 H   0  0  0  0  0
   -1.9114    3.6991   14.4745 H   0  0  0  0  0
   -1.9176    4.8395   13.5950 H   0  0  0  0  0
   -3.9243    7.1909   11.1242 H   0  0  0  0  0
  1 17  4  0  0  0
  1 14  4  0  0  0
  1 11  1  0  0  0
 11 10  1  0  0  0
 11 13  2  0  0  0
 11 12  2  0  0  0
 14 15  4  0  0  0
 15 19  1  0  0  0
 15 16  4  0  0  0
 16 17  4  0  0  0
 16  3  1  0  0  0
  3 22  1  0  0  0
  3  2  1  0  0  0
  2 18  1  0  0  0
 18 19  1  0  0  0
 18 23  1  0  0  0
 23  8  4  0  0  0
 23 24  4  0  0  0
 24  5  4  0  0  0
  5  6  4  0  0  0
  6  7  4  0  0  0
  7 25  1  0  0  0
  7  8  4  0  0  0
 25  9  1  0  0  0
 19 21  2  0  0  0
 19 20  2  0  0  0
 22  4  1  0  0  0
  2 26  1  0  0  0
  2 27  1  0  0  0
  3 28  1  0  0  0
  4 29  1  0  0  0
  4 30  1  0  0  0
  4 31  1  0  0  0
  5 32  1  0  0  0
  6 33  1  0  0  0
  8 34  1  0  0  0
  9 35  1  0  0  0
  9 36  1  0  0  0
  9 37  1  0  0  0
 10 38  1  0  0  0
 10 39  1  0  0  0
 17 40  1  0  0  0
 22 41  1  0  0  0
 22 42  1  0  0  0
 24 43  1  0  0  0
M  END
$$$$
