2p0d_ligand
  -I-interpret- 

 39 39  0  0  0  0  0  0  0  0999 V2000
   -9.0730  -16.6550   -0.5780 C   0  0  0  0  0
   -8.7130  -16.6340   -2.0400 C   0  0  0  0  0
   -7.2130  -16.8260   -2.2070 C   0  0  0  0  0
   -6.8070  -18.1640   -1.5160 C   0  0  0  0  0
   -7.2310  -18.2050   -0.0530 C   0  0  0  0  0
   -8.7530  -17.9900    0.1300 C   0  0  0  0  0
  -10.4510  -16.3270   -0.5670 O   0  0  0  0  0
   -9.4580  -17.6610   -2.7340 O   0  0  0  0  0
   -6.9170  -16.9390   -3.6070 O   0  0  0  0  0
   -5.3610  -18.3370   -1.6240 O   0  0  0  0  0
   -6.8640  -19.4350    0.5490 O   0  0  0  0  0
   -8.9780  -17.7550    1.5090 O   0  0  0  0  0
  -10.9500  -14.8550   -0.1500 P   0  0  0  0  0
  -10.4100  -14.4330    1.1600 O   0  0  0  0  0
  -12.4770  -15.0820    0.0030 O   0  0  0  0  0
  -10.6150  -14.0910   -1.4030 O   0  0  0  0  0
   -4.6010  -19.1520   -2.7680 P   0  0  0  0  0
   -4.8830  -20.6170   -2.6710 O   0  0  0  0  0
   -5.0410  -18.6300   -4.1030 O   0  0  0  0  0
   -3.1610  -18.8100   -2.4500 O   0  0  0  0  0
   -6.2130  -19.5690    2.0030 P   0  0  0  0  0
   -6.1900  -21.0690    2.1610 O   0  0  0  0  0
   -7.0920  -18.8590    2.9830 O   0  0  0  0  0
   -4.8660  -18.9000    1.9170 O   0  0  0  0  0
   -8.4730  -15.9499   -0.0028 H   0  0  0  0  0
   -8.9760  -15.6688   -2.4728 H   0  0  0  0  0
   -6.6744  -15.9857   -1.7689 H   0  0  0  0  0
   -7.3236  -18.9790   -2.0229 H   0  0  0  0  0
   -6.7084  -17.3828    0.4359 H   0  0  0  0  0
   -9.3358  -18.8315   -0.2446 H   0  0  0  0  0
  -10.3982  -17.5121   -2.6096 H   0  0  0  0  0
   -7.1603  -16.1235   -4.0512 H   0  0  0  0  0
   -9.9159  -17.6168    1.6600 H   0  0  0  0  0
  -12.8445  -15.3571   -0.8401 H   0  0  0  0  0
  -11.0488  -14.5034   -2.1535 H   0  0  0  0  0
   -4.8555  -17.6895   -4.1545 H   0  0  0  0  0
   -3.0341  -17.8615   -2.5266 H   0  0  0  0  0
   -5.6073  -21.4503    1.5002 H   0  0  0  0  0
   -4.3169  -19.3689    1.2844 H   0  0  0  0  0
  1  2  1  0  0  0
  1  6  1  0  0  0
  1  7  1  0  0  0
  2  3  1  0  0  0
  2  8  1  0  0  0
  3  4  1  0  0  0
  3  9  1  0  0  0
  4  5  1  0  0  0
  4 10  1  0  0  0
  5  6  1  0  0  0
  5 11  1  0  0  0
  6 12  1  0  0  0
  7 13  1  0  0  0
 10 17  1  0  0  0
 11 21  1  0  0  0
 13 14  2  0  0  0
 13 15  1  0  0  0
 13 16  1  0  0  0
 17 18  2  0  0  0
 17 19  1  0  0  0
 17 20  1  0  0  0
 21 22  1  0  0  0
 21 23  2  0  0  0
 21 24  1  0  0  0
  1 25  1  0  0  0
  2 26  1  0  0  0
  3 27  1  0  0  0
  4 28  1  0  0  0
  5 29  1  0  0  0
  6 30  1  0  0  0
  8 31  1  0  0  0
  9 32  1  0  0  0
 12 33  1  0  0  0
 15 34  1  0  0  0
 16 35  1  0  0  0
 19 36  1  0  0  0
 20 37  1  0  0  0
 22 38  1  0  0  0
 24 39  1  0  0  0
M  END
$$$$
