### 
### Created by X-TOOL on Mon Sep 10 21:12:55 2018
### 

@<TRIPOS>MOLECULE
2p0d_ligand
   33    33     1     0     0
SMALL
GAST_HUCK


@<TRIPOS>ATOM
      1 C1         -9.0730  -16.6550   -0.5780 C.3       1 I3P         0.1460
      2 C2         -8.7130  -16.6340   -2.0400 C.3       1 I3P         0.1168
      3 C3         -7.2130  -16.8260   -2.2070 C.3       1 I3P         0.1172
      4 C4         -6.8070  -18.1640   -1.5160 C.3       1 I3P         0.1503
      5 C5         -7.2310  -18.2050   -0.0530 C.3       1 I3P         0.1506
      6 C6         -8.7530  -17.9900    0.1300 C.3       1 I3P         0.1215
      7 O1        -10.4510  -16.3270   -0.5670 O.3       1 I3P        -0.2676
      8 O2         -9.4580  -17.6610   -2.7340 O.3       1 I3P        -0.3861
      9 O3         -6.9170  -16.9390   -3.6070 O.3       1 I3P        -0.3861
     10 O4         -5.3610  -18.3370   -1.6240 O.3       1 I3P        -0.2672
     11 O5         -6.8640  -19.4350    0.5490 O.3       1 I3P        -0.2672
     12 O6         -8.9780  -17.7550    1.5090 O.3       1 I3P        -0.3858
     13 P1        -10.9500  -14.8550   -0.1500 P.3       1 I3P         0.2013
     14 O11       -10.4100  -14.4330    1.1600 O.co2     1 I3P        -0.5537
     15 O12       -12.4770  -15.0820    0.0030 O.co2     1 I3P        -0.5537
     16 O13       -10.6150  -14.0910   -1.4030 O.co2     1 I3P        -0.5537
     17 P4         -4.6010  -19.1520   -2.7680 P.3       1 I3P         0.2013
     18 O41        -4.8830  -20.6170   -2.6710 O.co2     1 I3P        -0.5537
     19 O42        -5.0410  -18.6300   -4.1030 O.co2     1 I3P        -0.5537
     20 O43        -3.1610  -18.8100   -2.4500 O.co2     1 I3P        -0.5537
     21 P5         -6.2130  -19.5690    2.0030 P.3       1 I3P         0.2013
     22 O51        -6.1900  -21.0690    2.1610 O.co2     1 I3P        -0.5537
     23 O52        -7.0920  -18.8590    2.9830 O.co2     1 I3P        -0.5537
     24 O53        -4.8660  -18.9000    1.9170 O.co2     1 I3P        -0.5537
     25 H1         -8.5091  -15.8671   -0.0572 H         1 I3P         0.0703
     26 H2         -8.9887  -15.6558   -2.4609 H         1 I3P         0.0650
     27 H3         -6.6656  -15.9808   -1.7643 H         1 I3P         0.0650
     28 H4         -7.3042  -18.9923   -2.0420 H         1 I3P         0.0706
     29 H5         -6.7058  -17.3922    0.4701 H         1 I3P         0.0706
     30 H6         -9.3470  -18.8313   -0.2565 H         1 I3P         0.0654
     31 H7        -10.3884  -17.5136   -2.6109 H         1 I3P         0.2100
     32 H8         -5.9874  -17.0979   -3.7212 H         1 I3P         0.2100
     33 H9         -8.6830  -18.5066    2.0094 H         1 I3P         0.2100
@<TRIPOS>BOND
     1    1    2 1  
     2    1    6 1  
     3    1    7 1  
     4    2    3 1  
     5    2    8 1  
     6    3    4 1  
     7    3    9 1  
     8    4    5 1  
     9    4   10 1  
    10    5    6 1  
    11    5   11 1  
    12    6   12 1  
    13    7   13 1  
    14   10   17 1  
    15   11   21 1  
    16   13   14 ar 
    17   13   15 ar 
    18   13   16 ar 
    19   17   18 ar 
    20   17   19 ar 
    21   17   20 ar 
    22   21   22 ar 
    23   21   23 ar 
    24   21   24 ar 
    25    1   25 1  
    26    2   26 1  
    27    3   27 1  
    28    4   28 1  
    29    5   29 1  
    30    6   30 1  
    31    8   31 1  
    32    9   32 1  
    33   12   33 1  
@<TRIPOS>SUBSTRUCTURE
     1 I3P         1

