6ftn_ligand
  -I-interpret- 

 49 52  0  0  0  0  0  0  0  0999 V2000
   -9.5860  -46.4830   25.1270 C   0  0  0  0  0
   -8.6000  -47.4030   23.1520 C   0  0  0  0  0
   -8.4810  -46.9810   24.4650 C   0  0  0  0  0
   -7.1930  -47.0250   25.1310 C   0  0  0  0  0
   -6.6910  -46.2360   26.1480 C   0  0  0  0  0
   -4.9240  -47.5150   25.8490 C   0  0  0  0  0
  -12.2490  -46.6530   22.7100 C   0  0  0  0  0
   -3.1750  -49.0980   25.2970 C   0  0  0  0  0
  -12.0800  -45.9190   24.9640 C   0  0  0  0  0
  -14.1930  -43.3110   22.5750 C   0  0  0  0  0
  -15.4710  -43.3410   23.3540 C   0  0  0  0  0
  -14.2800  -44.1190   23.8380 C   0  0  0  0  0
   -9.8750  -47.8100   21.0540 C   0  0  0  0  0
  -15.1730  -46.2750   24.6970 C   0  0  0  0  0
  -14.2610  -45.6020   23.6960 C   0  0  0  0  0
   -3.6530  -48.0320   26.0190 N   0  0  0  0  0
  -10.8740  -46.8430   23.1600 C   0  0  0  0  0
  -10.7820  -46.4190   24.4540 C   0  0  0  0  0
   -9.7970  -47.3480   22.4680 C   0  0  0  0  0
   -7.3760  -45.1340   26.8430 C   0  0  0  0  0
   -1.8270  -49.5090   25.7930 C   0  0  0  0  0
   -5.4100  -46.5190   26.5500 N   0  0  0  0  0
  -12.9160  -46.1260   23.7990 N   0  0  0  0  0
  -12.6520  -46.9010   21.5820 O   0  0  0  0  0
   -3.7190  -49.6680   24.3640 O   0  0  0  0  0
   -5.9910  -48.1650   24.6680 S   0  0  0  0  0
   -9.5108  -46.1478   26.1615 H   0  0  0  0  0
   -7.7188  -47.7916   22.6415 H   0  0  0  0  0
  -12.0538  -44.8882   25.3175 H   0  0  0  0  0
  -12.4322  -46.4262   25.8622 H   0  0  0  0  0
  -13.5305  -42.5737   22.1216 H   0  0  0  0  0
  -13.8619  -43.4400   21.5446 H   0  0  0  0  0
  -16.5338  -43.5025   23.1738 H   0  0  0  0  0
  -16.2027  -42.6370   23.7503 H   0  0  0  0  0
  -13.7381  -44.1643   24.7826 H   0  0  0  0  0
   -9.1960  -47.2170   20.4414 H   0  0  0  0  0
   -9.5909  -48.8610   21.0003 H   0  0  0  0  0
  -10.8950  -47.6890   20.6893 H   0  0  0  0  0
  -14.8500  -46.0236   25.7072 H   0  0  0  0  0
  -16.1955  -45.9296   24.5446 H   0  0  0  0  0
  -15.1286  -47.3552   24.5582 H   0  0  0  0  0
  -14.6384  -45.8285   22.6988 H   0  0  0  0  0
   -3.0418  -47.6016   26.7130 H   0  0  0  0  0
   -7.6465  -44.3633   26.1212 H   0  0  0  0  0
   -8.2766  -45.5143   27.3251 H   0  0  0  0  0
   -6.7104  -44.7112   27.5955 H   0  0  0  0  0
   -1.8647  -50.5460   26.1266 H   0  0  0  0  0
   -1.0995  -49.4114   24.9872 H   0  0  0  0  0
   -1.5369  -48.8684   26.6258 H   0  0  0  0  0
  1  3  4  0  0  0
 18  1  4  0  0  0
  3  2  4  0  0  0
  2 19  4  0  0  0
  3  4  1  0  0  0
  4  5  4  0  0  0
  4 26  4  0  0  0
  5 20  1  0  0  0
  5 22  4  0  0  0
  6 16  1  0  0  0
  6 22  4  0  0  0
 26  6  4  0  0  0
  7 17  1  0  0  0
 23  7  1  0  0  0
  7 24  2  0  0  0
 16  8  1  0  0  0
  8 21  1  0  0  0
  8 25  2  0  0  0
  9 18  1  0  0  0
 23  9  1  0  0  0
 11 10  1  0  0  0
 12 10  1  0  0  0
 12 11  1  0  0  0
 15 12  1  0  0  0
 19 13  1  0  0  0
 15 14  1  0  0  0
 15 23  1  0  0  0
 17 18  4  0  0  0
 17 19  4  0  0  0
  1 27  1  0  0  0
  2 28  1  0  0  0
  9 29  1  0  0  0
  9 30  1  0  0  0
 10 31  1  0  0  0
 10 32  1  0  0  0
 11 33  1  0  0  0
 11 34  1  0  0  0
 12 35  1  0  0  0
 13 36  1  0  0  0
 13 37  1  0  0  0
 13 38  1  0  0  0
 14 39  1  0  0  0
 14 40  1  0  0  0
 14 41  1  0  0  0
 15 42  1  0  0  0
 16 43  1  0  0  0
 20 44  1  0  0  0
 20 45  1  0  0  0
 20 46  1  0  0  0
 21 47  1  0  0  0
 21 48  1  0  0  0
 21 49  1  0  0  0
M  END
$$$$
