2giu_ligand
  -I-interpret- 

 39 41  0  0  0  0  0  0  0  0999 V2000
   22.9210    9.0370  115.3330 C   0  0  0  0  0
   22.4450    8.0850  116.4500 C   0  0  0  0  0
   20.9070    8.1950  116.5030 C   0  0  0  0  0
   20.3470    7.7940  115.1540 C   0  0  0  0  0
   19.2410    7.3180  115.1040 O   0  0  0  0  0
   21.1430    8.0220  113.9260 C   0  0  0  0  0
   20.4090    7.1960  112.5220 Br  0  0  0  0  0
   22.3490    8.6250  113.9990 C   0  0  0  0  0
   23.4070    8.7370  112.9720 C   0  0  0  0  0
   23.3580    8.6780  111.5750 C   0  0  0  0  0
   24.5470    8.8530  110.8570 C   0  0  0  0  0
   25.7740    9.0260  111.5250 C   0  0  0  0  0
   26.9270    9.1090  110.8390 O   0  0  0  0  0
   25.8120    9.0600  112.9240 C   0  0  0  0  0
   24.6150    8.9510  113.6350 C   0  0  0  0  0
   24.4460    9.0220  115.1340 C   0  0  0  0  0
   22.4130   10.4820  115.5210 C   0  0  0  0  0
   23.1370   11.2900  116.6040 C   0  0  0  0  0
   22.2290   12.2960  117.3190 C   0  0  0  0  0
   23.0160   12.8190  118.5400 C   0  0  0  0  0
   22.8867    8.3596  117.4079 H   0  0  0  0  0
   22.7536    7.0602  116.2437 H   0  0  0  0  0
   20.6160    9.2193  116.7360 H   0  0  0  0  0
   20.5144    7.5370  117.2782 H   0  0  0  0  0
   22.4154    8.4998  111.0574 H   0  0  0  0  0
   24.5224    8.8553  109.7673 H   0  0  0  0  0
   27.6558    9.2249  111.4531 H   0  0  0  0  0
   26.7605    9.1698  113.4498 H   0  0  0  0  0
   24.9222    8.1850  115.6447 H   0  0  0  0  0
   24.9286    9.8996  115.5642 H   0  0  0  0  0
   21.3695   10.4104  115.8278 H   0  0  0  0  0
   22.5829   10.9997  114.5770 H   0  0  0  0  0
   23.9334   11.8531  116.1175 H   0  0  0  0  0
   23.5013   10.5857  117.3519 H   0  0  0  0  0
   21.2980   11.8232  117.6318 H   0  0  0  0  0
   21.9584   13.1152  116.6528 H   0  0  0  0  0
   23.2621   11.9845  119.1966 H   0  0  0  0  0
   23.9340   13.2989  118.2006 H   0  0  0  0  0
   22.4056   13.5415  119.0817 H   0  0  0  0  0
  1  2  1  0  0  0
  1  8  1  0  0  0
  1 16  1  0  0  0
  1 17  1  0  0  0
  2  3  1  0  0  0
  3  4  1  0  0  0
  4  5  2  0  0  0
  4  6  1  0  0  0
  6  7  1  0  0  0
  6  8  2  0  0  0
  8  9  1  0  0  0
  9 10  4  0  0  0
  9 15  4  0  0  0
 10 11  4  0  0  0
 11 12  4  0  0  0
 12 13  1  0  0  0
 12 14  4  0  0  0
 14 15  4  0  0  0
 15 16  1  0  0  0
 17 18  1  0  0  0
 18 19  1  0  0  0
 19 20  1  0  0  0
  2 21  1  0  0  0
  2 22  1  0  0  0
  3 23  1  0  0  0
  3 24  1  0  0  0
 10 25  1  0  0  0
 11 26  1  0  0  0
 13 27  1  0  0  0
 14 28  1  0  0  0
 16 29  1  0  0  0
 16 30  1  0  0  0
 17 31  1  0  0  0
 17 32  1  0  0  0
 18 33  1  0  0  0
 18 34  1  0  0  0
 19 35  1  0  0  0
 19 36  1  0  0  0
 20 37  1  0  0  0
 20 38  1  0  0  0
 20 39  1  0  0  0
M  END
$$$$
