6mt5_ligand
  -I-interpret- 

164165  0  0  0  0  0  0  0  0999 V2000
   13.0830   97.0520  146.8370 N   0  3  0  0  0
   12.0380   96.5300  147.7170 C   0  0  0  0  0
   10.6450   96.8820  147.2000 C   0  0  0  0  0
   10.3750   98.0360  146.8530 O   0  0  0  0  0
   12.2120   97.0760  149.1380 C   0  0  0  0  0
   11.4380   96.3080  150.1810 C   0  0  0  0  0
   12.0340   95.2730  150.8840 C   0  0  0  0  0
   10.1130   96.6220  150.4560 C   0  0  0  0  0
   11.3260   94.5620  151.8370 C   0  0  0  0  0
    9.4010   95.9130  151.4130 C   0  0  0  0  0
   10.0060   94.8860  152.1030 C   0  0  0  0  0
    9.7740   95.8800  147.1390 N   0  0  0  0  0
    8.3750   96.0780  146.7460 C   0  0  0  0  0
    7.4270   95.8110  147.9160 C   0  0  0  0  0
    7.6730   94.9270  148.7410 O   0  0  0  0  0
    8.0020   95.1790  145.5610 C   0  0  0  0  0
    8.1080   93.6800  145.8260 C   0  0  0  0  0
    7.5160   92.8380  144.7090 C   0  0  0  0  0
    6.6870   93.3520  143.9300 O   0  0  0  0  0
    7.8860   91.6570  144.6020 O   0  0  0  0  0
    6.3390   96.5770  147.9680 N   0  0  0  0  0
    5.3250   96.4510  149.0190 C   0  0  0  0  0
    4.1190   95.6100  148.5860 C   0  0  0  0  0
    4.0190   95.1780  147.4360 O   0  0  0  0  0
    4.8190   97.8330  149.4550 C   0  0  0  0  0
    5.8360   98.6200  150.2650 C   0  0  0  0  0
    5.5800   99.8200  150.5070 O   0  0  0  0  0
    6.8760   98.0580  150.6640 O   0  0  0  0  0
    3.1980   95.3900  149.5220 N   0  0  0  0  0
    1.9180   94.7600  149.2080 C   0  0  0  0  0
    1.1560   95.5550  148.1580 C   0  0  0  0  0
    1.2990   96.7710  148.0780 O   0  0  0  0  0
    1.0420   94.6440  150.4600 C   0  0  0  0  0
    1.4220   93.6510  151.5500 C   0  0  0  0  0
    0.6510   93.9640  152.8270 C   0  0  0  0  0
    1.1370   92.2380  151.0790 C   0  0  0  0  0
    0.3530   94.8630  147.3540 N   0  0  0  0  0
   -0.6820   95.5310  146.5750 C   0  0  0  0  0
   -1.5610   96.2900  147.5520 C   0  0  0  0  0
   -1.8820   95.7800  148.6240 O   0  0  0  0  0
   -1.5200   94.5340  145.7740 C   0  0  0  0  0
   -0.8830   94.0370  144.4880 C   0  0  0  0  0
   -1.1760   94.9750  143.3270 C   0  0  0  0  0
   -2.6010   95.3010  143.2540 N   0  0  0  0  0
   -3.5050   94.5430  142.6440 C   0  0  0  0  0
   -3.1400   93.4130  142.0490 N   0  0  0  0  0
   -4.7790   94.9040  142.6390 N   0  0  0  0  0
   -1.9500   97.5040  147.1800 N   0  0  0  0  0
   -2.6950   98.3740  148.0810 C   0  0  0  0  0
   -4.1770   98.0190  148.1730 C   0  0  0  0  0
   -4.7780   98.1220  149.2440 O   0  0  0  0  0
   -2.5360   99.8300  147.6420 C   0  0  0  0  0
   -1.1270  100.3950  147.8170 C   0  0  0  0  0
   -1.0070  101.7180  147.1080 C   0  0  0  0  0
   -0.8300  100.5590  149.2950 C   0  0  0  0  0
   -4.7590   97.5950  147.0550 N   0  0  0  0  0
   -6.1910   97.3250  147.0020 C   0  0  0  0  0
   -6.5350   96.5340  145.7450 C   0  0  0  0  0
   -5.9800   96.7900  144.6800 O   0  0  0  0  0
   -6.9740   98.6380  147.0340 C   0  0  0  0  0
   -8.4850   98.5900  147.2550 C   0  0  0  0  0
   -8.8230   97.9300  148.5790 C   0  0  0  0  0
   -9.0650   99.9990  147.1960 C   0  0  0  0  0
   -7.4510   95.5800  145.8660 N   0  0  0  0  0
   -7.8760   94.8030  144.7100 C   0  0  0  0  0
   -8.6760   95.6540  143.7150 C   0  0  0  0  0
   -9.1900   96.7280  144.0660 O   0  0  0  0  0
   -8.7080   93.6050  145.1570 C   0  0  0  0  0
   -9.9120   94.0410  145.7700 O   0  0  0  0  0
   -8.7660   95.1560  142.4800 N   0  0  0  0  0
   -9.5220   95.7840  141.3880 C   0  0  0  0  0
  -10.9990   95.9420  141.7200 C   0  0  0  0  0
  -11.5410   95.1930  142.5360 O   0  0  0  0  0
   -9.4200   94.9580  140.1040 C   0  0  0  0  0
   -8.0870   95.0400  139.4100 C   0  0  0  0  0
   -7.1270   95.9560  139.8040 C   0  0  0  0  0
   -7.8090   94.2020  138.3420 C   0  0  0  0  0
   -5.9020   96.0220  139.1470 C   0  0  0  0  0
   -6.5900   94.2580  137.6830 C   0  0  0  0  0
   -5.6320   95.1670  138.0940 C   0  0  0  0  0
  -11.6890   96.7900  141.1430 O   0  0  0  0  0
   12.9519   96.6788  145.8968 H   0  0  0  0  0
   13.0266   98.0701  146.8109 H   0  0  0  0  0
   13.9968   96.7699  147.1917 H   0  0  0  0  0
   12.1348   95.4444  147.7318 H   0  0  0  0  0
   11.8378   98.0997  149.1422 H   0  0  0  0  0
   13.2691   96.9955  149.3912 H   0  0  0  0  0
   13.0741   95.0156  150.6836 H   0  0  0  0  0
    9.6276   97.4338  149.9143 H   0  0  0  0  0
   11.8071   93.7472  152.3781 H   0  0  0  0  0
    8.3617   96.1691  151.6189 H   0  0  0  0  0
    9.4477   94.3299  152.8561 H   0  0  0  0  0
   10.0900   94.9391  147.3741 H   0  0  0  0  0
    8.2694   97.1198  146.4433 H   0  0  0  0  0
    8.7065   95.4065  144.7610 H   0  0  0  0  0
    6.9567   95.3833  145.3294 H   0  0  0  0  0
    7.5505   93.4631  146.7372 H   0  0  0  0  0
    9.1660   93.4304  145.9057 H   0  0  0  0  0
    6.5372   94.2662  144.1817 H   0  0  0  0  0
    6.2052   97.2830  147.2441 H   0  0  0  0  0
    5.8175   95.9436  149.8485 H   0  0  0  0  0
    3.9443   97.6784  150.0868 H   0  0  0  0  0
    4.6049   98.4045  148.5519 H   0  0  0  0  0
    4.7365  100.0521  150.1117 H   0  0  0  0  0
    3.3913   95.6688  150.4839 H   0  0  0  0  0
    2.1402   93.7656  148.8208 H   0  0  0  0  0
    0.0771   94.2955  150.0918 H   0  0  0  0  0
    1.1118   95.6209  150.9385 H   0  0  0  0  0
    2.4877   93.7349  151.7631 H   0  0  0  0  0
    0.8940   94.9736  153.1584 H   0  0  0  0  0
   -0.4188   93.8922  152.6308 H   0  0  0  0  0
    0.9284   93.2493  153.6018 H   0  0  0  0  0
    0.0751   92.1386  150.8541 H   0  0  0  0  0
    1.7207   92.0307  150.1821 H   0  0  0  0  0
    1.4111   91.5326  151.8635 H   0  0  0  0  0
    0.4632   93.8515  147.2818 H   0  0  0  0  0
   -0.2214   96.2048  145.8525 H   0  0  0  0  0
   -2.4349   95.0533  145.4888 H   0  0  0  0  0
   -1.6596   93.6607  146.4111 H   0  0  0  0  0
   -1.2953   93.0556  144.2535 H   0  0  0  0  0
    0.1965   93.9895  144.6315 H   0  0  0  0  0
   -0.8848   94.4813  142.3998 H   0  0  0  0  0
   -0.6159   95.8980  143.4765 H   0  0  0  0  0
   -2.9190   96.1623  143.6984 H   0  0  0  0  0
   -3.8396   92.8285  141.5915 H   0  0  0  0  0
   -2.1601   93.1297  142.0496 H   0  0  0  0  0
   -5.0669   95.7650  143.1039 H   0  0  0  0  0
   -1.7222   97.8350  146.2425 H   0  0  0  0  0
   -2.2761   98.2294  149.0768 H   0  0  0  0  0
   -3.1987  100.4263  148.2692 H   0  0  0  0  0
   -2.7650   99.8687  146.5770 H   0  0  0  0  0
   -0.4041   99.7051  147.3817 H   0  0  0  0  0
   -1.2075  101.5789  146.0457 H   0  0  0  0  0
   -1.7285  102.4197  147.5264 H   0  0  0  0  0
    0.0015  102.1096  147.2405 H   0  0  0  0  0
   -1.5546  101.2434  149.7361 H   0  0  0  0  0
   -0.8977   99.5891  149.7877 H   0  0  0  0  0
    0.1750  100.9620  149.4198 H   0  0  0  0  0
   -4.1926   97.4559  146.2182 H   0  0  0  0  0
   -6.4680   96.7297  147.8720 H   0  0  0  0  0
   -6.8479   99.0659  146.0395 H   0  0  0  0  0
   -6.5803   99.1803  147.8937 H   0  0  0  0  0
   -8.9297   97.9902  146.4609 H   0  0  0  0  0
   -8.4368   96.9107  148.5845 H   0  0  0  0  0
   -8.3690   98.4963  149.3922 H   0  0  0  0  0
   -9.9052   97.9105  148.7080 H   0  0  0  0  0
   -8.6074  100.6117  147.9727 H   0  0  0  0  0
   -8.8583  100.4350  146.2186 H   0  0  0  0  0
  -10.1424   99.9539  147.3547 H   0  0  0  0  0
   -7.8619   95.3892  146.7799 H   0  0  0  0  0
   -6.9778   94.4519  144.2019 H   0  0  0  0  0
   -8.1335   93.0220  145.8769 H   0  0  0  0  0
   -8.9526   92.9972  144.2859 H   0  0  0  0  0
  -10.4242   93.2773  146.0456 H   0  0  0  0  0
   -8.2781   94.2825  142.2814 H   0  0  0  0  0
   -9.0778   96.7696  141.2484 H   0  0  0  0  0
  -10.1637   95.3530  139.4119 H   0  0  0  0  0
   -9.5691   93.9152  140.3841 H   0  0  0  0  0
   -7.3321   96.6307  140.6351 H   0  0  0  0  0
   -8.5622   93.4857  138.0138 H   0  0  0  0  0
   -5.1538   96.7490  139.4629 H   0  0  0  0  0
   -6.3881   93.5895  136.8460 H   0  0  0  0  0
   -4.6668   95.2094  137.5893 H   0  0  0  0  0
  -11.1366   97.2957  140.5424 H   0  0  0  0  0
  1  2  1  0  0  0
  2  3  1  0  0  0
  2  5  1  0  0  0
  3  4  2  0  0  0
  3 12  1  0  0  0
  5  6  1  0  0  0
  6  7  4  0  0  0
  6  8  4  0  0  0
  7  9  4  0  0  0
  8 10  4  0  0  0
  9 11  4  0  0  0
 10 11  4  0  0  0
 12 13  1  0  0  0
 13 14  1  0  0  0
 13 16  1  0  0  0
 14 15  2  0  0  0
 14 21  1  0  0  0
 16 17  1  0  0  0
 17 18  1  0  0  0
 18 19  1  0  0  0
 18 20  2  0  0  0
 21 22  1  0  0  0
 22 23  1  0  0  0
 22 25  1  0  0  0
 23 24  2  0  0  0
 23 29  1  0  0  0
 25 26  1  0  0  0
 26 27  1  0  0  0
 26 28  2  0  0  0
 29 30  1  0  0  0
 30 31  1  0  0  0
 30 33  1  0  0  0
 31 32  2  0  0  0
 31 37  1  0  0  0
 33 34  1  0  0  0
 34 35  1  0  0  0
 34 36  1  0  0  0
 37 38  1  0  0  0
 38 39  1  0  0  0
 38 41  1  0  0  0
 39 40  2  0  0  0
 39 48  1  0  0  0
 41 42  1  0  0  0
 42 43  1  0  0  0
 43 44  1  0  0  0
 44 45  1  0  0  0
 45 46  1  0  0  0
 45 47  2  0  0  0
 48 49  1  0  0  0
 49 50  1  0  0  0
 49 52  1  0  0  0
 50 51  2  0  0  0
 50 56  1  0  0  0
 52 53  1  0  0  0
 53 54  1  0  0  0
 53 55  1  0  0  0
 56 57  1  0  0  0
 57 58  1  0  0  0
 57 60  1  0  0  0
 58 59  2  0  0  0
 58 64  1  0  0  0
 60 61  1  0  0  0
 61 62  1  0  0  0
 61 63  1  0  0  0
 64 65  1  0  0  0
 65 66  1  0  0  0
 65 68  1  0  0  0
 66 67  2  0  0  0
 66 70  1  0  0  0
 68 69  1  0  0  0
 70 71  1  0  0  0
 71 72  1  0  0  0
 71 74  1  0  0  0
 72 73  2  0  0  0
 72 81  1  0  0  0
 74 75  1  0  0  0
 75 76  4  0  0  0
 75 77  4  0  0  0
 76 78  4  0  0  0
 77 79  4  0  0  0
 78 80  4  0  0  0
 79 80  4  0  0  0
  1 82  1  0  0  0
  1 83  1  0  0  0
  1 84  1  0  0  0
  2 85  1  0  0  0
  5 86  1  0  0  0
  5 87  1  0  0  0
  7 88  1  0  0  0
  8 89  1  0  0  0
  9 90  1  0  0  0
 10 91  1  0  0  0
 11 92  1  0  0  0
 12 93  1  0  0  0
 13 94  1  0  0  0
 16 95  1  0  0  0
 16 96  1  0  0  0
 17 97  1  0  0  0
 17 98  1  0  0  0
 19 99  1  0  0  0
 21100  1  0  0  0
 22101  1  0  0  0
 25102  1  0  0  0
 25103  1  0  0  0
 27104  1  0  0  0
 29105  1  0  0  0
 30106  1  0  0  0
 33107  1  0  0  0
 33108  1  0  0  0
 34109  1  0  0  0
 35110  1  0  0  0
 35111  1  0  0  0
 35112  1  0  0  0
 36113  1  0  0  0
 36114  1  0  0  0
 36115  1  0  0  0
 37116  1  0  0  0
 38117  1  0  0  0
 41118  1  0  0  0
 41119  1  0  0  0
 42120  1  0  0  0
 42121  1  0  0  0
 43122  1  0  0  0
 43123  1  0  0  0
 44124  1  0  0  0
 46125  1  0  0  0
 46126  1  0  0  0
 47127  1  0  0  0
 48128  1  0  0  0
 49129  1  0  0  0
 52130  1  0  0  0
 52131  1  0  0  0
 53132  1  0  0  0
 54133  1  0  0  0
 54134  1  0  0  0
 54135  1  0  0  0
 55136  1  0  0  0
 55137  1  0  0  0
 55138  1  0  0  0
 56139  1  0  0  0
 57140  1  0  0  0
 60141  1  0  0  0
 60142  1  0  0  0
 61143  1  0  0  0
 62144  1  0  0  0
 62145  1  0  0  0
 62146  1  0  0  0
 63147  1  0  0  0
 63148  1  0  0  0
 63149  1  0  0  0
 64150  1  0  0  0
 65151  1  0  0  0
 68152  1  0  0  0
 68153  1  0  0  0
 69154  1  0  0  0
 70155  1  0  0  0
 71156  1  0  0  0
 74157  1  0  0  0
 74158  1  0  0  0
 76159  1  0  0  0
 77160  1  0  0  0
 78161  1  0  0  0
 79162  1  0  0  0
 80163  1  0  0  0
 81164  1  0  0  0
M  END
$$$$
