### 
### Created by X-TOOL on Mon Aug  2 16:15:04 2021
### 

@<TRIPOS>MOLECULE
6mt5_ligand
  162   163     1     0     0
SMALL
GAST_HUCK


@<TRIPOS>ATOM
      1 N          13.0830   97.0520  146.8370 N.4       1 PHE         0.2394
      2 CA         12.0380   96.5300  147.7170 C.3       1 PHE         0.0744
      3 C          10.6450   96.8820  147.2000 C.2       1 PHE         0.2288
      4 O          10.3750   98.0360  146.8530 O.2       1 PHE        -0.3905
      5 CB         12.2120   97.0760  149.1380 C.3       1 PHE         0.0416
      6 CG         11.4380   96.3080  150.1810 C.ar      1 PHE        -0.0353
      7 CD1        12.0340   95.2730  150.8840 C.ar      1 PHE        -0.0600
      8 CD2        10.1130   96.6220  150.4560 C.ar      1 PHE        -0.0600
      9 CE1        11.3260   94.5620  151.8370 C.ar      1 PHE        -0.0686
     10 CE2         9.4010   95.9130  151.4130 C.ar      1 PHE        -0.0686
     11 CZ         10.0060   94.8860  152.1030 C.ar      1 PHE        -0.0687
     12 N           9.7740   95.8800  147.1390 N.am      1 PHE        -0.2608
     13 CA          8.3750   96.0780  146.7460 C.3       1 PHE         0.1326
     14 C           7.4270   95.8110  147.9160 C.2       1 PHE         0.2041
     15 O           7.6730   94.9270  148.7410 O.2       1 PHE        -0.3944
     16 CB          8.0020   95.1790  145.5610 C.3       1 PHE        -0.0008
     17 CG          8.1080   93.6800  145.8260 C.3       1 PHE         0.0044
     18 CD          7.5160   92.8380  144.7090 C.2       1 PHE         0.0350
     19 OE1         6.6870   93.3520  143.9300 O.co2     1 PHE        -0.5690
     20 OE2         7.8860   91.6570  144.6020 O.co2     1 PHE        -0.5690
     21 N           6.3390   96.5770  147.9680 N.am      1 PHE        -0.2622
     22 CA          5.3250   96.4510  149.0190 C.3       1 PHE         0.1423
     23 C           4.1190   95.6100  148.5860 C.2       1 PHE         0.2056
     24 O           4.0190   95.1780  147.4360 O.2       1 PHE        -0.3943
     25 CB          4.8190   97.8330  149.4550 C.3       1 PHE         0.0406
     26 CG          5.8360   98.6200  150.2650 C.2       1 PHE         0.0393
     27 OD1         5.5800   99.8200  150.5070 O.co2     1 PHE        -0.5688
     28 OD2         6.8760   98.0580  150.6640 O.co2     1 PHE        -0.5688
     29 N           3.1980   95.3900  149.5220 N.am      1 PHE        -0.2636
     30 CA          1.9180   94.7600  149.2080 C.3       1 PHE         0.1312
     31 C           1.1560   95.5550  148.1580 C.2       1 PHE         0.2039
     32 O           1.2990   96.7710  148.0780 O.2       1 PHE        -0.3944
     33 CB          1.0420   94.6440  150.4600 C.3       1 PHE        -0.0101
     34 CG          1.4220   93.6510  151.5500 C.3       1 PHE        -0.0425
     35 CD1         0.6510   93.9640  152.8270 C.3       1 PHE        -0.0625
     36 CD2         1.1370   92.2380  151.0790 C.3       1 PHE        -0.0625
     37 N           0.3530   94.8630  147.3540 N.am      1 PHE        -0.2637
     38 CA         -0.6820   95.5310  146.5750 C.3       1 PHE         0.1311
     39 C          -1.5610   96.2900  147.5520 C.2       1 PHE         0.2039
     40 O          -1.8820   95.7800  148.6240 O.2       1 PHE        -0.3944
     41 CB         -1.5200   94.5340  145.7740 C.3       1 PHE        -0.0092
     42 CG         -0.8830   94.0370  144.4880 C.3       1 PHE        -0.0156
     43 CD         -1.1760   94.9750  143.3270 C.3       1 PHE         0.0627
     44 NE         -2.6010   95.3010  143.2540 N.pl3     1 PHE        -0.2723
     45 CZ         -3.5050   94.5430  142.6440 C.cat     1 PHE         0.2882
     46 NH1        -3.1400   93.4130  142.0490 N.pl3     1 PHE        -0.2849
     47 NH2        -4.7790   94.9040  142.6390 N.pl3     1 PHE        -0.2849
     48 N          -1.9500   97.5040  147.1800 N.am      1 PHE        -0.2637
     49 CA         -2.6950   98.3740  148.0810 C.3       1 PHE         0.1312
     50 C          -4.1770   98.0190  148.1730 C.2       1 PHE         0.2039
     51 O          -4.7780   98.1220  149.2440 O.2       1 PHE        -0.3944
     52 CB         -2.5360   99.8300  147.6420 C.3       1 PHE        -0.0101
     53 CG         -1.1270  100.3950  147.8170 C.3       1 PHE        -0.0425
     54 CD1        -1.0070  101.7180  147.1080 C.3       1 PHE        -0.0625
     55 CD2        -0.8300  100.5590  149.2950 C.3       1 PHE        -0.0625
     56 N          -4.7590   97.5950  147.0550 N.am      1 PHE        -0.2637
     57 CA         -6.1910   97.3250  147.0020 C.3       1 PHE         0.1312
     58 C          -6.5350   96.5340  145.7450 C.2       1 PHE         0.2040
     59 O          -5.9800   96.7900  144.6800 O.2       1 PHE        -0.3944
     60 CB         -6.9740   98.6380  147.0340 C.3       1 PHE        -0.0101
     61 CG         -8.4850   98.5900  147.2550 C.3       1 PHE        -0.0425
     62 CD1        -8.8230   97.9300  148.5790 C.3       1 PHE        -0.0625
     63 CD2        -9.0650   99.9990  147.1960 C.3       1 PHE        -0.0625
     64 N          -7.4510   95.5800  145.8660 N.am      1 PHE        -0.2616
     65 CA         -7.8760   94.8030  144.7100 C.3       1 PHE         0.1539
     66 C          -8.6760   95.6540  143.7150 C.2       1 PHE         0.2058
     67 O          -9.1900   96.7280  144.0660 O.2       1 PHE        -0.3943
     68 CB         -8.7080   93.6050  145.1570 C.3       1 PHE         0.0843
     69 OG         -9.9120   94.0410  145.7700 O.3       1 PHE        -0.3903
     70 N          -8.7660   95.1560  142.4800 N.am      1 PHE        -0.2676
     71 CA         -9.5220   95.7840  141.3880 C.3       1 PHE         0.1039
     72 C         -10.9990   95.9420  141.7200 C.2       1 PHE         0.0621
     73 O         -11.5410   95.1930  142.5360 O.co2     1 PHE        -0.5664
     74 CB         -9.4200   94.9580  140.1040 C.3       1 PHE         0.0159
     75 CG         -8.0870   95.0400  139.4100 C.ar      1 PHE        -0.0392
     76 CD1        -7.1270   95.9560  139.8040 C.ar      1 PHE        -0.0602
     77 CD2        -7.8090   94.2020  138.3420 C.ar      1 PHE        -0.0602
     78 CE1        -5.9020   96.0220  139.1470 C.ar      1 PHE        -0.0686
     79 CE2        -6.5900   94.2580  137.6830 C.ar      1 PHE        -0.0686
     80 CZ         -5.6320   95.1670  138.0940 C.ar      1 PHE        -0.0687
     81 OXT       -11.6890   96.7900  141.1430 O.co2     1 PHE        -0.5664
     82 H1         13.9877   96.8032  147.2054 H         1 PHE         0.2017
     83 H2         13.0066   98.0556  146.7832 H         1 PHE         0.2017
     84 H3         12.9750   96.6569  145.9160 H         1 PHE         0.2017
     85 H4         12.1301   95.4343  147.7485 H         1 PHE         0.1122
     86 H5         11.8712   98.1218  149.1526 H         1 PHE         0.0507
     87 H6         13.2801   97.0348  149.3977 H         1 PHE         0.0507
     88 H7         13.0683   95.0170  150.6847 H         1 PHE         0.0557
     89 H8          9.6302   97.4294  149.9173 H         1 PHE         0.0557
     90 H9         11.8044   93.7517  152.3752 H         1 PHE         0.0599
     91 H10         8.3674   96.1677  151.6178 H         1 PHE         0.0599
     92 H11         9.4507   94.3330  152.8520 H         1 PHE         0.0559
     93 H12        10.0838   94.9576  147.3694 H         1 PHE         0.1885
     94 H13         8.2538   97.1264  146.4360 H         1 PHE         0.0801
     95 H14         8.6710   95.4248  144.7231 H         1 PHE         0.0330
     96 H15         6.9627   95.4021  145.2781 H         1 PHE         0.0330
     97 H16         7.5735   93.4501  146.7595 H         1 PHE         0.0433
     98 H17         9.1704   93.4177  145.9376 H         1 PHE         0.0433
     99 H18         6.2078   97.2692  147.2583 H         1 PHE         0.1884
    100 H19         5.7957   95.9593  149.8831 H         1 PHE         0.0819
    101 H20         3.9157   97.6963  150.0677 H         1 PHE         0.0478
    102 H21         4.5670   98.4122  148.5544 H         1 PHE         0.0478
    103 H22         3.3876   95.6633  150.4651 H         1 PHE         0.1883
    104 H23         2.1151   93.7512  148.8163 H         1 PHE         0.0800
    105 H24         0.0312   94.3747  150.1198 H         1 PHE         0.0315
    106 H25         1.0184   95.6393  150.9277 H         1 PHE         0.0315
    107 H26         2.4984   93.7433  151.7567 H         1 PHE         0.0298
    108 H27         0.9301   93.2433  153.6098 H         1 PHE         0.0232
    109 H28        -0.4289   93.8918  152.6304 H         1 PHE         0.0232
    110 H29         0.8954   94.9827  153.1625 H         1 PHE         0.0232
    111 H30         1.7040   92.0372  150.1580 H         1 PHE         0.0232
    112 H31         0.0610   92.1283  150.8784 H         1 PHE         0.0232
    113 H32         1.4393   91.5235  151.8588 H         1 PHE         0.0232
    114 H33         0.4610   93.8714  147.2832 H         1 PHE         0.1883
    115 H34        -0.2114   96.2380  145.8760 H         1 PHE         0.0800
    116 H35        -2.4721   95.0205  145.5157 H         1 PHE         0.0313
    117 H36        -1.7158   93.6620  146.4153 H         1 PHE         0.0313
    118 H37        -1.2827   93.0397  144.2524 H         1 PHE         0.0301
    119 H38         0.2059   93.9716  144.6296 H         1 PHE         0.0301
    120 H39        -0.8709   94.4896  142.3882 H         1 PHE         0.0689
    121 H40        -0.6024   95.9037  143.4630 H         1 PHE         0.0689
    122 H41        -2.9221   96.1707  143.7028 H         1 PHE         0.2642
    123 H42        -3.8447   92.8285  141.5772 H         1 PHE         0.2615
    124 H43        -2.1522   93.1212  142.0594 H         1 PHE         0.2615
    125 H44        -5.0681   95.7792  143.0988 H         1 PHE         0.2615
    126 H45        -5.4809   94.3096  142.1754 H         1 PHE         0.2615
    127 H46        -1.7267   97.8285  146.2609 H         1 PHE         0.1883
    128 H47        -2.2618   98.2651  149.0862 H         1 PHE         0.0800
    129 H48        -3.2288  100.4452  148.2350 H         1 PHE         0.0315
    130 H49        -2.8038   99.8990  146.5774 H         1 PHE         0.0315
    131 H50        -0.4017   99.6917  147.3820 H         1 PHE         0.0298
    132 H51         0.0105  102.1143  147.2410 H         1 PHE         0.0232
    133 H52        -1.7347  102.4272  147.5294 H         1 PHE         0.0232
    134 H53        -1.2090  101.5790  146.0357 H         1 PHE         0.0232
    135 H54        -0.9218   99.5849  149.7977 H         1 PHE         0.0232
    136 H55        -1.5457  101.2682  149.7363 H         1 PHE         0.0232
    137 H56         0.1929  100.9427  149.4231 H         1 PHE         0.0232
    138 H57        -4.2037   97.4587  146.2346 H         1 PHE         0.1883
    139 H58        -6.4699   96.7264  147.8817 H         1 PHE         0.0800
    140 H59        -6.8044   99.1389  146.0695 H         1 PHE         0.0315
    141 H60        -6.5483   99.2484  147.8441 H         1 PHE         0.0315
    142 H61        -8.9349   97.9935  146.4477 H         1 PHE         0.0298
    143 H62        -9.9149   97.9098  148.7104 H         1 PHE         0.0232
    144 H63        -8.3654   98.5006  149.4006 H         1 PHE         0.0232
    145 H64        -8.4338   96.9012  148.5858 H         1 PHE         0.0232
    146 H65        -8.8099  100.4603  146.2305 H         1 PHE         0.0232
    147 H66        -8.6446  100.6031  148.0135 H         1 PHE         0.0232
    148 H67       -10.1588   99.9500  147.3013 H         1 PHE         0.0232
    149 H68        -7.8538   95.3929  146.7620 H         1 PHE         0.1884
    150 H69        -6.9763   94.4312  144.1979 H         1 PHE         0.0823
    151 H70        -8.1287   93.0100  145.8783 H         1 PHE         0.0606
    152 H71        -8.9508   92.9851  144.2814 H         1 PHE         0.0606
    153 H72       -10.4189   93.2852  146.0427 H         1 PHE         0.2097
    154 H73        -8.2877   94.2997  142.2853 H         1 PHE         0.1877
    155 H74        -9.0933   96.7806  141.2066 H         1 PHE         0.0749
    156 H75       -10.1925   95.3125  139.4058 H         1 PHE         0.0467
    157 H76        -9.6104   93.9047  140.3576 H         1 PHE         0.0467
    158 H77        -7.3309   96.6270  140.6306 H         1 PHE         0.0557
    159 H78        -8.5580   93.4896  138.0156 H         1 PHE         0.0557
    160 H79        -5.1579   96.7450  139.4612 H         1 PHE         0.0599
    161 H80        -6.3892   93.5932  136.8506 H         1 PHE         0.0599
    162 H81        -4.6721   95.2092  137.5921 H         1 PHE         0.0559
@<TRIPOS>BOND
     1    1    2 1  
     2    2    3 1  
     3    2    5 1  
     4    3    4 2  
     5    3   12 am 
     6    5    6 1  
     7    6    7 ar 
     8    6    8 ar 
     9    7    9 ar 
    10    8   10 ar 
    11    9   11 ar 
    12   10   11 ar 
    13   12   13 1  
    14   13   14 1  
    15   13   16 1  
    16   14   15 2  
    17   14   21 am 
    18   16   17 1  
    19   17   18 1  
    20   18   19 ar 
    21   18   20 ar 
    22   21   22 1  
    23   22   23 1  
    24   22   25 1  
    25   23   24 2  
    26   23   29 am 
    27   25   26 1  
    28   26   27 ar 
    29   26   28 ar 
    30   29   30 1  
    31   30   31 1  
    32   30   33 1  
    33   31   32 2  
    34   31   37 am 
    35   33   34 1  
    36   34   35 1  
    37   34   36 1  
    38   37   38 1  
    39   38   39 1  
    40   38   41 1  
    41   39   40 2  
    42   39   48 am 
    43   41   42 1  
    44   42   43 1  
    45   43   44 1  
    46   44   45 ar 
    47   45   46 ar 
    48   45   47 ar 
    49   48   49 1  
    50   49   50 1  
    51   49   52 1  
    52   50   51 2  
    53   50   56 am 
    54   52   53 1  
    55   53   54 1  
    56   53   55 1  
    57   56   57 1  
    58   57   58 1  
    59   57   60 1  
    60   58   59 2  
    61   58   64 am 
    62   60   61 1  
    63   61   62 1  
    64   61   63 1  
    65   64   65 1  
    66   65   66 1  
    67   65   68 1  
    68   66   67 2  
    69   66   70 am 
    70   68   69 1  
    71   70   71 1  
    72   71   72 1  
    73   71   74 1  
    74   72   73 ar 
    75   72   81 ar 
    76   74   75 1  
    77   75   76 ar 
    78   75   77 ar 
    79   76   78 ar 
    80   77   79 ar 
    81   78   80 ar 
    82   79   80 ar 
    83    1   82 1  
    84    1   83 1  
    85    1   84 1  
    86    2   85 1  
    87    5   86 1  
    88    5   87 1  
    89    7   88 1  
    90    8   89 1  
    91    9   90 1  
    92   10   91 1  
    93   11   92 1  
    94   12   93 1  
    95   13   94 1  
    96   16   95 1  
    97   16   96 1  
    98   17   97 1  
    99   17   98 1  
   100   21   99 1  
   101   22  100 1  
   102   25  101 1  
   103   25  102 1  
   104   29  103 1  
   105   30  104 1  
   106   33  105 1  
   107   33  106 1  
   108   34  107 1  
   109   35  108 1  
   110   35  109 1  
   111   35  110 1  
   112   36  111 1  
   113   36  112 1  
   114   36  113 1  
   115   37  114 1  
   116   38  115 1  
   117   41  116 1  
   118   41  117 1  
   119   42  118 1  
   120   42  119 1  
   121   43  120 1  
   122   43  121 1  
   123   44  122 1  
   124   46  123 1  
   125   46  124 1  
   126   47  125 1  
   127   47  126 1  
   128   48  127 1  
   129   49  128 1  
   130   52  129 1  
   131   52  130 1  
   132   53  131 1  
   133   54  132 1  
   134   54  133 1  
   135   54  134 1  
   136   55  135 1  
   137   55  136 1  
   138   55  137 1  
   139   56  138 1  
   140   57  139 1  
   141   60  140 1  
   142   60  141 1  
   143   61  142 1  
   144   62  143 1  
   145   62  144 1  
   146   62  145 1  
   147   63  146 1  
   148   63  147 1  
   149   63  148 1  
   150   64  149 1  
   151   65  150 1  
   152   68  151 1  
   153   68  152 1  
   154   69  153 1  
   155   70  154 1  
   156   71  155 1  
   157   74  156 1  
   158   74  157 1  
   159   76  158 1  
   160   77  159 1  
   161   78  160 1  
   162   79  161 1  
   163   80  162 1  
@<TRIPOS>SUBSTRUCTURE
     1 PHE         1

