5x9o_ligand
  -I-interpret- 

 30 32  0  0  0  0  0  0  0  0999 V2000
  -38.6960    6.7150   -9.5120 C   0  0  0  0  0
  -39.9470    8.6330  -14.5440 C   0  0  0  0  0
  -36.8500    8.2580   -9.4280 C   0  0  0  0  0
  -40.9780    6.7120  -15.5180 C   0  0  0  0  0
  -40.8510    8.0650  -15.4150 C   0  0  0  0  0
  -38.0690    7.9500  -11.4900 C   0  0  0  0  0
  -42.4650    7.6190  -16.9740 C   0  0  0  0  0
  -40.2200    5.8440  -14.7730 C   0  0  0  0  0
  -39.3100    6.4020  -13.9030 C   0  0  0  0  0
  -38.8850    7.0310  -10.8390 C   0  0  0  0  0
  -39.1720    7.7780  -13.7770 C   0  0  0  0  0
  -37.6780    7.3360   -8.8260 C   0  0  0  0  0
  -37.0580    8.5520  -10.7560 C   0  0  0  0  0
  -41.9570    6.4380  -16.4660 N   0  0  0  0  0
  -41.7670    8.6320  -16.3110 N   0  0  0  0  0
  -38.2320    8.2860  -12.8610 N   0  0  0  0  0
  -37.4530    7.0170   -7.4450 N   0  0  0  0  0
  -38.4280    6.8070   -6.7060 O   0  0  0  0  0
  -43.3430    7.7100  -17.8250 O   0  0  0  0  0
  -36.2620    6.9600   -7.1320 O   0  0  0  0  0
  -35.9790    9.6980  -11.4490 Cl  0  0  0  0  0
  -39.3393    5.9883   -9.0158 H   0  0  0  0  0
  -39.8453    9.7151  -14.4614 H   0  0  0  0  0
  -36.0508    8.7421   -8.8668 H   0  0  0  0  0
  -40.3329    4.7638  -14.8655 H   0  0  0  0  0
  -38.6825    5.7473  -13.2983 H   0  0  0  0  0
  -39.6922    6.5501  -11.3915 H   0  0  0  0  0
  -42.2562    5.5038  -16.7454 H   0  0  0  0  0
  -41.9036    9.6322  -16.4571 H   0  0  0  0  0
  -37.5854    8.9843  -13.2280 H   0  0  0  0  0
 10  1  4  0  0  0
  1 12  4  0  0  0
  2  5  4  0  0  0
 11  2  4  0  0  0
  3 12  4  0  0  0
 13  3  4  0  0  0
  5  4  4  0  0  0
  8  4  4  0  0  0
  4 14  1  0  0  0
  5 15  1  0  0  0
  6 10  4  0  0  0
  6 13  4  0  0  0
 16  6  1  0  0  0
 14  7  1  0  0  0
 15  7  1  0  0  0
  7 19  2  0  0  0
  9  8  4  0  0  0
 11  9  4  0  0  0
 11 16  1  0  0  0
 12 17  1  0  0  0
 13 21  1  0  0  0
 17 18  2  0  0  0
 17 20  2  0  0  0
  1 22  1  0  0  0
  2 23  1  0  0  0
  3 24  1  0  0  0
  8 25  1  0  0  0
  9 26  1  0  0  0
 10 27  1  0  0  0
 14 28  1  0  0  0
 15 29  1  0  0  0
 16 30  1  0  0  0
M  END
$$$$
