4xtz_ligand
  -I-interpret- 

 65 69  0  0  0  0  0  0  0  0999 V2000
   -2.2120  -10.0300   13.8170 C   0  0  0  0  0
   -0.9930   -9.2980   13.5280 N   0  0  0  0  0
   -0.0610   -9.5090   14.4540 C   0  0  0  0  0
    1.0300   -8.9580   14.4970 O   0  0  0  0  0
   -0.4860  -10.3920   15.3460 N   0  0  0  0  0
   -1.8880  -10.6900   15.1590 C   0  0  0  0  0
   -2.6460  -10.0480   16.3100 C   0  0  0  0  0
   -3.4360   -8.6370   15.6290 S   0  0  0  0  0
   -3.4110   -9.0950   13.9320 C   0  0  0  0  0
   -3.3010   -7.8960   12.9990 C   0  0  0  0  0
   -3.5850   -8.3520   11.5720 C   0  0  0  0  0
   -3.9010   -7.1860   10.6430 C   0  0  0  0  0
   -4.1890   -7.6800    9.2280 C   0  0  0  0  0
   -4.5930   -6.5120    8.3600 C   0  0  0  0  0
   -5.6950   -6.0010    8.4820 O   0  0  0  0  0
   -3.6870   -6.0750    7.4900 N   0  0  0  0  0
   -4.0830   -4.9680    6.4030 S   0  0  0  0  0
   -5.2660   -5.3800    5.7000 O   0  0  0  0  0
   -3.0050   -4.7910    5.4710 O   0  0  0  0  0
   -4.3600   -3.6520    7.1450 O   0  0  0  0  0
   -3.2960   -2.8760    7.6950 C   0  0  0  0  0
   -3.7290   -1.4160    7.7380 C   0  0  0  0  0
   -4.8720   -1.2110    8.5820 O   0  0  0  0  0
   -2.6540   -0.4780    8.2600 C   0  0  0  0  0
   -1.7840   -0.0730    7.2020 O   0  0  0  0  0
   -3.4750    0.6850    8.7800 C   0  0  0  0  0
   -2.8140    1.4350    9.7180 F   0  0  0  0  0
   -4.7590    0.0330    9.2900 C   0  0  0  0  0
   -4.7870   -0.2340   10.7560 N   0  0  0  0  0
   -3.7520   -0.3340   11.6080 C   0  0  0  0  0
   -4.2160   -0.5960   12.8510 N   0  0  0  0  0
   -5.5610   -0.6690   12.7670 C   0  0  0  0  0
   -5.9080   -0.4460   11.4480 C   0  0  0  0  0
   -7.2120   -0.4640   11.0840 N   0  0  0  0  0
   -8.1600   -0.7040   11.9970 C   0  0  0  0  0
   -7.8520   -0.9220   13.2820 N   0  0  0  0  0
   -6.5650   -0.9130   13.6940 C   0  0  0  0  0
   -6.2620   -1.1380   14.9950 N   0  0  0  0  0
   -2.4868  -10.7404   13.0374 H   0  0  0  0  0
   -0.8661   -8.6956   12.7148 H   0  0  0  0  0
    0.0999  -10.8073   16.0703 H   0  0  0  0  0
   -2.1474  -11.7487   15.1496 H   0  0  0  0  0
   -1.9752   -9.7740   17.1243 H   0  0  0  0  0
   -3.3695  -10.7382   16.7439 H   0  0  0  0  0
   -4.3413   -9.5737   13.6263 H   0  0  0  0  0
   -2.2976   -7.4744   13.0580 H   0  0  0  0  0
   -4.0227   -7.1337   13.2925 H   0  0  0  0  0
   -4.4531   -9.0108   11.5944 H   0  0  0  0  0
   -2.6939   -8.8531   11.1939 H   0  0  0  0  0
   -3.0399   -6.5184   10.6128 H   0  0  0  0  0
   -4.7824   -6.6668   11.0193 H   0  0  0  0  0
   -4.9983   -8.4096    9.2554 H   0  0  0  0  0
   -3.2938   -8.1462    8.8165 H   0  0  0  0  0
   -2.7372   -6.4461    7.5153 H   0  0  0  0  0
   -2.4039   -2.9799    7.0774 H   0  0  0  0  0
   -3.0657   -3.2240    8.7019 H   0  0  0  0  0
   -3.9546   -1.1876    6.6964 H   0  0  0  0  0
   -2.0024   -0.9191    9.0143 H   0  0  0  0  0
   -1.1125    0.5182    7.5500 H   0  0  0  0  0
   -3.6848    1.4252    8.0079 H   0  0  0  0  0
   -5.5858    0.7216    9.1156 H   0  0  0  0  0
   -2.7018   -0.2214   11.3388 H   0  0  0  0  0
   -9.2053   -0.7225   11.6885 H   0  0  0  0  0
   -5.2890   -1.1291   15.3010 H   0  0  0  0  0
   -7.0068   -1.3164   15.6687 H   0  0  0  0  0
  1  2  1  0  0  0
  1  6  1  0  0  0
  1  9  1  0  0  0
  2  3  1  0  0  0
  3  4  2  0  0  0
  3  5  1  0  0  0
  5  6  1  0  0  0
  6  7  1  0  0  0
  7  8  1  0  0  0
  8  9  1  0  0  0
  9 10  1  0  0  0
 10 11  1  0  0  0
 11 12  1  0  0  0
 12 13  1  0  0  0
 13 14  1  0  0  0
 14 15  2  0  0  0
 14 16  1  0  0  0
 16 17  1  0  0  0
 17 18  2  0  0  0
 17 19  2  0  0  0
 17 20  1  0  0  0
 20 21  1  0  0  0
 21 22  1  0  0  0
 22 23  1  0  0  0
 22 24  1  0  0  0
 23 28  1  0  0  0
 24 25  1  0  0  0
 24 26  1  0  0  0
 26 27  1  0  0  0
 26 28  1  0  0  0
 28 29  1  0  0  0
 29 30  4  0  0  0
 29 33  4  0  0  0
 30 31  4  0  0  0
 31 32  4  0  0  0
 32 33  4  0  0  0
 32 37  4  0  0  0
 33 34  4  0  0  0
 34 35  4  0  0  0
 35 36  4  0  0  0
 36 37  4  0  0  0
 37 38  1  0  0  0
  1 39  1  0  0  0
  2 40  1  0  0  0
  5 41  1  0  0  0
  6 42  1  0  0  0
  7 43  1  0  0  0
  7 44  1  0  0  0
  9 45  1  0  0  0
 10 46  1  0  0  0
 10 47  1  0  0  0
 11 48  1  0  0  0
 11 49  1  0  0  0
 12 50  1  0  0  0
 12 51  1  0  0  0
 13 52  1  0  0  0
 13 53  1  0  0  0
 16 54  1  0  0  0
 21 55  1  0  0  0
 21 56  1  0  0  0
 22 57  1  0  0  0
 24 58  1  0  0  0
 25 59  1  0  0  0
 26 60  1  0  0  0
 28 61  1  0  0  0
 30 62  1  0  0  0
 35 63  1  0  0  0
 38 64  1  0  0  0
 38 65  1  0  0  0
M  END
$$$$
