4whs_ligand
  -I-interpret- 

 14 14  0  0  0  0  0  0  0  0999 V2000
  -16.9280  -51.4010  -33.5190 C   0  0  0  0  0
  -18.3050  -51.2620  -33.6640 C   0  0  0  0  0
  -18.8190  -50.5950  -34.7730 C   0  0  0  0  0
  -17.9520  -50.0650  -35.7380 C   0  0  0  0  0
  -16.5800  -50.2230  -35.6020 C   0  0  0  0  0
  -16.0690  -50.8770  -34.4880 C   0  0  0  0  0
  -16.4650  -52.0460  -32.4110 O   0  0  0  0  0
  -19.1550  -51.7760  -32.7250 O   0  0  0  0  0
  -18.4460  -49.4270  -36.8130 F   0  0  0  0  0
  -19.8970  -50.4850  -34.8907 H   0  0  0  0  0
  -15.9061  -49.8356  -36.3661 H   0  0  0  0  0
  -14.9906  -50.9820  -34.3692 H   0  0  0  0  0
  -15.5057  -52.0723  -32.4349 H   0  0  0  0  0
  -20.0617  -51.5912  -32.9804 H   0  0  0  0  0
  1  2  4  0  0  0
  1  6  4  0  0  0
  1  7  1  0  0  0
  2  3  4  0  0  0
  2  8  1  0  0  0
  3  4  4  0  0  0
  4  5  4  0  0  0
  4  9  1  0  0  0
  5  6  4  0  0  0
  3 10  1  0  0  0
  5 11  1  0  0  0
  6 12  1  0  0  0
  7 13  1  0  0  0
  8 14  1  0  0  0
M  END
$$$$
