3juq_ligand
  -I-interpret- 

 33 34  0  0  0  0  0  0  0  0999 V2000
   45.9040   -4.2940   93.0270 O   0  0  0  0  0
   43.9650   -4.1030   91.9600 O   0  0  0  0  0
   47.9650    0.5310   93.7850 Br  0  0  0  0  0
   45.0680    0.4840   93.5450 C   0  0  0  0  0
   43.8470   -0.1200   93.3260 C   0  0  0  0  0
   46.1610   -1.5770   93.1810 C   0  0  0  0  0
   38.7380   -1.6830   92.0470 C   0  0  0  0  0
   38.8590   -0.7320   90.8700 C   0  0  0  0  0
   40.0970   -2.2580   92.4420 C   0  0  0  0  0
   41.2900   -0.4540   91.2570 C   0  0  0  0  0
   39.9780    0.1590   91.1160 N   0  3  0  0  0
   42.5360   -2.0140   92.7670 N   0  0  0  0  0
   44.9330   -3.6270   92.6050 C   0  0  0  0  0
   46.2350   -0.2560   93.4970 C   0  0  0  0  0
   43.7470   -1.4550   92.9830 C   0  0  0  0  0
   44.9280   -2.1820   92.9270 C   0  0  0  0  0
   41.2850   -1.2470   92.5690 C   0  0  0  0  0
   43.3474   -3.3997   91.7465 H   0  0  0  0  0
   45.1130    1.5522   93.7574 H   0  0  0  0  0
   42.9370    0.4716   93.4262 H   0  0  0  0  0
   47.0740   -2.1699   93.1254 H   0  0  0  0  0
   38.0841   -2.5066   91.7604 H   0  0  0  0  0
   38.3353   -1.1320   92.8969 H   0  0  0  0  0
   37.9403   -0.1560   90.7592 H   0  0  0  0  0
   39.0243   -1.2943   89.9509 H   0  0  0  0  0
   40.3741   -2.9445   91.6420 H   0  0  0  0  0
   39.9623   -2.6859   93.4354 H   0  0  0  0  0
   42.0688    0.3085   91.2737 H   0  0  0  0  0
   41.4977   -1.1119   90.4131 H   0  0  0  0  0
   39.7837    0.6108   92.0096 H   0  0  0  0  0
   40.0390    0.7631   90.2964 H   0  0  0  0  0
   42.4798   -3.0321   92.7384 H   0  0  0  0  0
   41.1912   -0.5660   93.4149 H   0  0  0  0  0
 13  1  2  0  0  0
 13  2  1  0  0  0
 14  3  1  0  0  0
  4  5  4  0  0  0
 14  4  4  0  0  0
  5 15  4  0  0  0
  6 14  4  0  0  0
 16  6  4  0  0  0
  7  8  1  0  0  0
  9  7  1  0  0  0
 11  8  1  0  0  0
 17  9  1  0  0  0
 10 11  1  0  0  0
 17 10  1  0  0  0
 15 12  1  0  0  0
 12 17  1  0  0  0
 13 16  1  0  0  0
 15 16  4  0  0  0
  2 18  1  0  0  0
  4 19  1  0  0  0
  5 20  1  0  0  0
  6 21  1  0  0  0
  7 22  1  0  0  0
  7 23  1  0  0  0
  8 24  1  0  0  0
  8 25  1  0  0  0
  9 26  1  0  0  0
  9 27  1  0  0  0
 10 28  1  0  0  0
 10 29  1  0  0  0
 11 30  1  0  0  0
 11 31  1  0  0  0
 12 32  1  0  0  0
 17 33  1  0  0  0
M  END
$$$$
