6q8c_ligand
  -I-interpret- 

 54 55  0  0  0  0  0  0  0  0999 V2000
   -0.6560   -3.8380  -28.9090 N   0  3  0  0  0
   -1.6800   -2.8210  -28.7550 C   0  0  0  0  0
   -2.8860   -3.5090  -28.1240 C   0  0  0  0  0
   -3.9110   -2.9140  -27.8660 O   0  0  0  0  0
   -2.1200   -2.1850  -30.0700 C   0  0  0  0  0
   -1.1990   -1.1550  -30.6950 C   0  0  0  0  0
   -1.1520    0.1320  -29.9040 C   0  0  0  0  0
   -1.6120   -0.9020  -32.1170 C   0  0  0  0  0
   -8.2480   -6.1290  -29.6870 C   0  0  0  0  0
  -10.0700   -6.9000  -28.2840 C   0  0  0  0  0
   -7.8490   -4.7320  -29.2700 C   0  0  0  0  0
   -6.7920   -4.4050  -30.3020 C   0  0  0  0  0
   -9.5510   -8.0660  -26.1930 C   0  0  0  0  0
   -6.1050   -5.7450  -30.5070 C   0  0  0  0  0
   -8.1800   -8.0420  -26.5630 C   0  0  0  0  0
   -4.8290   -5.9590  -29.7450 C   0  0  0  0  0
   -7.8160   -7.4600  -27.7090 C   0  0  0  0  0
   -8.7220   -6.8800  -28.5550 N   0  0  0  0  0
  -10.4080   -7.4800  -27.0970 N   0  0  0  0  0
   -2.8310   -4.8510  -27.8410 N   0  0  0  0  0
   -3.3750   -7.1560  -27.4540 O   0  0  0  0  0
  -10.9080   -6.4900  -29.0620 O   0  0  0  0  0
   -8.9680   -3.8870  -29.3770 O   0  0  0  0  0
   -4.5380   -5.4480  -26.1420 O   0  0  0  0  0
   -7.3990   -3.9600  -31.4960 O   0  0  0  0  0
  -10.0040   -8.5810  -25.1690 O   0  0  0  0  0
   -7.0680   -6.7460  -30.1380 O   0  0  0  0  0
   -5.1370   -5.7950  -28.3570 O   0  0  0  0  0
   -3.9350   -5.8720  -27.3410 S   0  0  0  0  0
   -0.4135   -4.2160  -27.9932 H   0  0  0  0  0
   -1.0092   -4.5869  -29.5047 H   0  0  0  0  0
    0.1718   -3.4232  -29.3370 H   0  0  0  0  0
   -1.2700   -2.0147  -28.1468 H   0  0  0  0  0
   -3.0433   -1.6522  -29.8427 H   0  0  0  0  0
   -2.1730   -3.0037  -30.7876 H   0  0  0  0  0
   -0.1872   -1.5601  -30.6818 H   0  0  0  0  0
   -0.4325    0.8116  -30.3607 H   0  0  0  0  0
   -2.1397    0.5931  -29.9037 H   0  0  0  0  0
   -0.8501   -0.0838  -28.8791 H   0  0  0  0  0
   -2.6026   -0.4475  -32.1309 H   0  0  0  0  0
   -0.8954   -0.2290  -32.5879 H   0  0  0  0  0
   -1.6366   -1.8466  -32.6604 H   0  0  0  0  0
   -9.0344   -6.0918  -30.4409 H   0  0  0  0  0
   -7.4914   -4.6258  -28.2458 H   0  0  0  0  0
   -6.1071   -3.6128  -29.9996 H   0  0  0  0  0
   -5.7894   -5.7945  -31.5491 H   0  0  0  0  0
   -7.4294   -8.4957  -25.9158 H   0  0  0  0  0
   -4.0686   -5.2436  -30.0581 H   0  0  0  0  0
   -4.4286   -6.9547  -29.9358 H   0  0  0  0  0
   -6.7603   -7.4466  -27.9798 H   0  0  0  0  0
  -11.3986   -7.4796  -26.8537 H   0  0  0  0  0
   -1.9101   -5.2677  -27.9777 H   0  0  0  0  0
   -8.7220   -2.9972  -29.1136 H   0  0  0  0  0
   -6.7192   -3.7558  -32.1424 H   0  0  0  0  0
  2  1  1  0  0  0
  3  2  1  0  0  0
  2  5  1  0  0  0
  3  4  2  0  0  0
 20  3  1  0  0  0
  5  6  1  0  0  0
  6  7  1  0  0  0
  6  8  1  0  0  0
  9 11  1  0  0  0
  9 18  1  0  0  0
 27  9  1  0  0  0
 18 10  1  0  0  0
 10 19  1  0  0  0
 10 22  2  0  0  0
 12 11  1  0  0  0
 11 23  1  0  0  0
 14 12  1  0  0  0
 12 25  1  0  0  0
 15 13  1  0  0  0
 19 13  1  0  0  0
 13 26  2  0  0  0
 16 14  1  0  0  0
 14 27  1  0  0  0
 17 15  2  0  0  0
 28 16  1  0  0  0
 18 17  1  0  0  0
 29 20  1  0  0  0
 29 21  2  0  0  0
 29 24  2  0  0  0
 28 29  1  0  0  0
  1 30  1  0  0  0
  1 31  1  0  0  0
  1 32  1  0  0  0
  2 33  1  0  0  0
  5 34  1  0  0  0
  5 35  1  0  0  0
  6 36  1  0  0  0
  7 37  1  0  0  0
  7 38  1  0  0  0
  7 39  1  0  0  0
  8 40  1  0  0  0
  8 41  1  0  0  0
  8 42  1  0  0  0
  9 43  1  0  0  0
 11 44  1  0  0  0
 12 45  1  0  0  0
 14 46  1  0  0  0
 15 47  1  0  0  0
 16 48  1  0  0  0
 16 49  1  0  0  0
 17 50  1  0  0  0
 19 51  1  0  0  0
 20 52  1  0  0  0
 23 53  1  0  0  0
 25 54  1  0  0  0
M  END
$$$$
