### 
### Created by X-TOOL on Mon Sep 10 21:12:55 2018
### 

@<TRIPOS>MOLECULE
2qcm_ligand
   36    37     1     0     0
SMALL
GAST_HUCK


@<TRIPOS>ATOM
      1 O2         15.2590   10.7090   38.9130 O.2       1 JW5        -0.3819
      2 C2         15.5750   10.2460   37.7900 C.2       1 JW5         0.3320
      3 N3         16.8910    9.9770   37.5880 N.am      1 JW5        -0.1897
      4 C4         17.3280    9.4630   36.4090 C.2       1 JW5         0.1691
      5 O4         18.5790    9.2320   36.2390 O.2       1 JW5        -0.4214
      6 C5         16.4040    9.2210   35.4240 C.2       1 JW5         0.0006
      7 C6         15.0430    9.5150   35.6400 C.2       1 JW5         0.1007
      8 C7         14.1920    9.5190   34.3960 C.3       1 JW5         0.1131
      9 O7         13.7420   10.8970   34.1670 O.3       1 JW5        -0.3743
     10 N1         14.6580   10.0320   36.8330 N.am      1 JW5        -0.1507
     11 C1'        13.2350   10.3560   37.0710 C.3       1 JW5         0.2061
     12 O4'        13.0990   11.7820   37.3680 O.3       1 JW5        -0.3366
     13 C2'        12.5510    9.6100   38.2170 C.3       1 JW5         0.1384
     14 O2'        11.9540    8.3790   37.7670 O.3       1 JW5        -0.3837
     15 C3'        11.4990   10.5890   38.6820 C.3       1 JW5         0.1148
     16 O3'        10.2720   10.4520   37.9310 O.3       1 JW5        -0.3864
     17 C4'        12.1590   11.9410   38.4380 C.3       1 JW5         0.1181
     18 C5'        12.8750   12.4720   39.6790 C.3       1 JW5         0.1071
     19 O5'        11.9090   12.7420   40.6690 O.3       1 JW5        -0.2734
     20 P          12.2380   13.4220   42.0980 P.3       1 JW5         0.2008
     21 O1P        10.9660   13.2580   42.8590 O.co2     1 JW5        -0.5537
     22 O3P        12.5760   14.8690   41.7820 O.co2     1 JW5        -0.5537
     23 O2P        13.4140   12.6790   42.6710 O.co2     1 JW5        -0.5537
     24 H1         17.5485   10.1603   38.3188 H         1 JW5         0.2251
     25 H2         16.7237    8.8002   34.4718 H         1 JW5         0.0112
     26 H3         13.3227    8.8594   34.5347 H         1 JW5         0.0818
     27 H4         14.7834    9.1705   33.5365 H         1 JW5         0.0818
     28 H5         13.2359   11.1921   34.9148 H         1 JW5         0.2139
     29 H6         12.6887   10.1250   36.1446 H         1 JW5         0.0993
     30 H7         13.2668    9.3914   39.0231 H         1 JW5         0.0676
     31 H8         12.6272    7.8167   37.4021 H         1 JW5         0.2101
     32 H9         11.2823   10.4487   39.7513 H         1 JW5         0.0648
     33 H10         9.6352   11.0811   38.2494 H         1 JW5         0.2100
     34 H11        11.3869   12.6666   38.1426 H         1 JW5         0.0650
     35 H12        13.4178   13.3953   39.4281 H         1 JW5         0.0639
     36 H13        13.5854   11.7181   40.0491 H         1 JW5         0.0639
@<TRIPOS>BOND
     1    1    2 2  
     2    2    3 am 
     3    2   10 am 
     4    3    4 am 
     5    4    5 2  
     6    4    6 1  
     7    6    7 2  
     8    7    8 1  
     9    7   10 1  
    10    8    9 1  
    11   10   11 1  
    12   11   12 1  
    13   11   13 1  
    14   12   17 1  
    15   13   14 1  
    16   13   15 1  
    17   15   16 1  
    18   15   17 1  
    19   17   18 1  
    20   18   19 1  
    21   19   20 1  
    22   20   21 ar 
    23   20   22 ar 
    24   20   23 ar 
    25    3   24 1  
    26    6   25 1  
    27    8   26 1  
    28    8   27 1  
    29    9   28 1  
    30   11   29 1  
    31   13   30 1  
    32   14   31 1  
    33   15   32 1  
    34   16   33 1  
    35   17   34 1  
    36   18   35 1  
    37   18   36 1  
@<TRIPOS>SUBSTRUCTURE
     1 JW5         1

