2qcm_ligand
  -I-interpret- 

 38 39  0  0  0  0  0  0  0  0999 V2000
   15.2590   10.7090   38.9130 O   0  0  0  0  0
   15.5750   10.2460   37.7900 C   0  0  0  0  0
   16.8910    9.9770   37.5880 N   0  0  0  0  0
   17.3280    9.4630   36.4090 C   0  0  0  0  0
   18.5790    9.2320   36.2390 O   0  0  0  0  0
   16.4040    9.2210   35.4240 C   0  0  0  0  0
   15.0430    9.5150   35.6400 C   0  0  0  0  0
   14.1920    9.5190   34.3960 C   0  0  0  0  0
   13.7420   10.8970   34.1670 O   0  0  0  0  0
   14.6580   10.0320   36.8330 N   0  0  0  0  0
   13.2350   10.3560   37.0710 C   0  0  0  0  0
   13.0990   11.7820   37.3680 O   0  0  0  0  0
   12.5510    9.6100   38.2170 C   0  0  0  0  0
   11.9540    8.3790   37.7670 O   0  0  0  0  0
   11.4990   10.5890   38.6820 C   0  0  0  0  0
   10.2720   10.4520   37.9310 O   0  0  0  0  0
   12.1590   11.9410   38.4380 C   0  0  0  0  0
   12.8750   12.4720   39.6790 C   0  0  0  0  0
   11.9090   12.7420   40.6690 O   0  0  0  0  0
   12.2380   13.4220   42.0980 P   0  0  0  0  0
   10.9660   13.2580   42.8590 O   0  0  0  0  0
   12.5760   14.8690   41.7820 O   0  0  0  0  0
   13.4140   12.6790   42.6710 O   0  0  0  0  0
   17.5617   10.1639   38.3334 H   0  0  0  0  0
   16.7239    8.7998   34.4709 H   0  0  0  0  0
   13.3356    8.8563   34.5204 H   0  0  0  0  0
   14.7672    9.1612   33.5421 H   0  0  0  0  0
   13.1962   10.9272   33.3778 H   0  0  0  0  0
   12.7436   10.0443   36.1493 H   0  0  0  0  0
   13.2444    9.3160   39.0049 H   0  0  0  0  0
   11.5348    7.9378   38.5094 H   0  0  0  0  0
   11.2042   10.4375   39.7204 H   0  0  0  0  0
    9.6286   11.0877   38.2527 H   0  0  0  0  0
   11.3866   12.6676   38.1859 H   0  0  0  0  0
   13.4215   13.3825   39.4332 H   0  0  0  0  0
   13.5864   11.7315   40.0444 H   0  0  0  0  0
   13.4018   14.9043   41.2937 H   0  0  0  0  0
   14.1877   12.8369   42.1251 H   0  0  0  0  0
  1  2  2  0  0  0
  2  3  1  0  0  0
  2 10  1  0  0  0
  3  4  1  0  0  0
  4  5  2  0  0  0
  4  6  1  0  0  0
  6  7  2  0  0  0
  7  8  1  0  0  0
  7 10  1  0  0  0
  8  9  1  0  0  0
 10 11  1  0  0  0
 11 12  1  0  0  0
 11 13  1  0  0  0
 12 17  1  0  0  0
 13 14  1  0  0  0
 13 15  1  0  0  0
 15 16  1  0  0  0
 15 17  1  0  0  0
 17 18  1  0  0  0
 18 19  1  0  0  0
 19 20  1  0  0  0
 20 21  2  0  0  0
 20 22  1  0  0  0
 20 23  1  0  0  0
  3 24  1  0  0  0
  6 25  1  0  0  0
  8 26  1  0  0  0
  8 27  1  0  0  0
  9 28  1  0  0  0
 11 29  1  0  0  0
 13 30  1  0  0  0
 14 31  1  0  0  0
 15 32  1  0  0  0
 16 33  1  0  0  0
 17 34  1  0  0  0
 18 35  1  0  0  0
 18 36  1  0  0  0
 22 37  1  0  0  0
 23 38  1  0  0  0
M  END
$$$$
