3avh_ligand
  -I-interpret- 

133133  0  0  0  0  0  0  0  0999 V2000
  -16.1130   38.7360   15.2920 N   0  0  0  0  0
  -16.2980   38.0950   16.6170 C   0  0  0  0  0
  -15.1770   38.4460   17.6020 C   0  0  0  0  0
  -15.0600   37.8620   18.6870 O   0  0  0  0  0
  -16.4470   36.5450   16.4560 C   0  0  0  0  0
  -14.3490   39.4010   17.2120 N   0  0  0  0  0
  -13.0830   39.7240   17.9000 C   0  0  0  0  0
  -12.1940   38.4780   18.1530 C   0  0  0  0  0
  -11.7080   38.2770   19.2510 O   0  0  0  0  0
  -13.3390   40.5910   19.1740 C   0  0  0  0  0
  -13.9200   42.0240   18.8540 C   0  0  0  0  0
  -14.2830   42.8620   20.1060 C   0  0  0  0  0
  -15.1220   44.0340   19.7910 N   0  0  0  0  0
  -15.9120   44.6780   20.6620 C   0  0  0  0  0
  -16.0000   44.2910   21.9290 N   0  0  0  0  0
  -16.6360   45.7130   20.2690 N   0  0  0  0  0
  -12.0060   37.6520   17.1220 N   0  0  0  0  0
  -11.0710   36.5040   17.1470 C   0  0  0  0  0
  -10.2110   36.5620   15.9300 C   0  0  0  0  0
  -10.6420   37.0950   14.8940 O   0  0  0  0  0
  -11.8670   35.1770   17.0070 C   0  0  0  0  0
  -12.9010   34.9210   18.0910 C   0  0  0  0  0
  -12.2610   34.7910   19.4750 C   0  0  0  0  0
  -13.4020   34.5220   20.4460 C   0  0  0  0  0
  -12.9510   34.5800   21.8390 N   0  3  0  0  0
   -9.0530   35.9190   15.9640 N   0  0  0  0  0
   -8.1030   35.9730   14.8050 C   0  0  0  0  0
   -8.7250   35.3830   13.5300 C   0  0  0  0  0
   -8.4380   35.8450   12.3870 O   0  0  0  0  0
   -6.7850   35.1780   15.1460 C   0  0  0  0  0
   -5.6060   35.6900   14.3400 C   0  0  0  0  0
   -6.9050   33.7530   14.8100 C   0  0  0  0  0
   -4.8790   36.7240   15.0870 C   0  0  0  0  0
   -9.5660   34.3570   13.7350 N   0  0  0  0  0
  -10.2280   33.6790   12.6150 C   0  0  0  0  0
  -11.6100   34.2460   12.4080 C   0  0  0  0  0
  -12.3330   33.7490   11.5510 O   0  0  0  0  0
  -10.3210   32.1310   12.7870 C   0  0  0  0  0
  -10.8930   31.7180   14.1390 C   0  0  0  0  0
  -11.0730   30.4940   14.3250 O   0  0  0  0  0
  -11.1780   32.5910   15.0170 O   0  0  0  0  0
  -11.9860   35.2400   13.2120 N   0  0  0  0  0
  -13.2670   35.8940   13.0000 C   0  0  0  0  0
  -13.1880   37.2840   13.6230 C   0  0  0  0  0
  -13.4600   37.5200   14.8160 O   0  0  0  0  0
  -14.4660   35.0600   13.4630 C   0  0  0  0  0
  -15.8240   35.6990   13.0500 C   0  0  0  0  0
  -15.8890   36.8190   12.5300 O   0  0  0  0  0
  -16.8990   34.9720   13.2920 N   0  0  0  0  0
  -12.6910   38.1940   12.7890 N   0  0  0  0  0
  -12.3050   39.5130   13.3080 C   0  0  0  0  0
  -13.5370   40.2440   13.8440 C   0  0  0  0  0
  -13.4200   40.9860   14.8410 O   0  0  0  0  0
  -11.5710   40.2930   12.2170 C   0  0  0  0  0
  -10.1050   39.8690   12.0170 C   0  0  0  0  0
   -9.5460   40.9420   11.0930 C   0  0  0  0  0
   -9.2420   39.8180   13.3710 C   0  0  0  0  0
  -14.6860   40.0020   13.1940 N   0  0  0  0  0
  -16.0150   40.5000   13.6380 C   0  0  0  0  0
  -16.3170   40.0440   15.0620 C   0  0  0  0  0
  -16.7220   40.8580   15.9220 O   0  0  0  0  0
  -17.1190   39.9390   12.7280 C   0  0  0  0  0
  -17.2650   40.7170   11.4380 C   0  0  0  0  0
  -16.7490   41.8500   11.3650 O   0  0  0  0  0
  -17.8970   40.1940   10.4890 O   0  0  0  0  0
  -15.8142   38.1509   14.5118 H   0  0  0  0  0
  -17.2182   38.4931   17.0446 H   0  0  0  0  0
  -15.5119   36.1283   16.0817 H   0  0  0  0  0
  -16.6824   36.1015   17.4235 H   0  0  0  0  0
  -17.2500   36.3298   15.7511 H   0  0  0  0  0
  -14.5998   39.9465   16.3874 H   0  0  0  0  0
  -12.4913   40.3404   17.2232 H   0  0  0  0  0
  -12.3804   40.7302   19.6738 H   0  0  0  0  0
  -14.0752   40.0676   19.7841 H   0  0  0  0  0
  -14.8408   41.8770   18.2896 H   0  0  0  0  0
  -13.1449   42.5707   18.3169 H   0  0  0  0  0
  -13.3533   43.2266   20.5428 H   0  0  0  0  0
  -14.8482   42.2209   20.7825 H   0  0  0  0  0
  -15.0992   44.3826   18.8327 H   0  0  0  0  0
  -16.6149   44.7888   22.5728 H   0  0  0  0  0
  -15.4527   43.4959   22.2586 H   0  0  0  0  0
  -16.5951   46.0251   19.2988 H   0  0  0  0  0
  -12.5368   37.8211   16.2676 H   0  0  0  0  0
  -10.5008   36.5441   18.0751 H   0  0  0  0  0
  -11.1391   34.3684   17.0735 H   0  0  0  0  0
  -12.4118   35.2383   16.0649 H   0  0  0  0  0
  -13.4103   33.9849   17.8618 H   0  0  0  0  0
  -13.5892   35.7661   18.1119 H   0  0  0  0  0
  -11.7204   35.6982   19.7451 H   0  0  0  0  0
  -11.5287   33.9839   19.4954 H   0  0  0  0  0
  -13.7908   33.5224   20.2516 H   0  0  0  0  0
  -14.1657   35.2858   20.2995 H   0  0  0  0  0
  -13.7400   34.3954   22.4585 H   0  0  0  0  0
  -12.2269   33.8777   21.9902 H   0  0  0  0  0
  -12.5733   35.5071   22.0345 H   0  0  0  0  0
   -8.8036   35.3783   16.7922 H   0  0  0  0  0
   -7.8731   37.0230   14.6240 H   0  0  0  0  0
   -6.6309   35.3186   16.2159 H   0  0  0  0  0
   -5.9750   36.1206   13.4091 H   0  0  0  0  0
   -4.9297   34.8596   14.1372 H   0  0  0  0  0
   -7.7261   33.3151   15.3776 H   0  0  0  0  0
   -7.1024   33.6479   13.7432 H   0  0  0  0  0
   -5.9752   33.2423   15.0608 H   0  0  0  0  0
   -5.5500   37.5562   15.2997 H   0  0  0  0  0
   -4.5115   36.3035   16.0231 H   0  0  0  0  0
   -4.0376   37.0772   14.4908 H   0  0  0  0  0
   -9.7483   34.0426   14.6881 H   0  0  0  0  0
   -9.6044   33.8620   11.7399 H   0  0  0  0  0
   -9.3114   31.7266   12.7148 H   0  0  0  0  0
  -10.9867   31.7492   12.0130 H   0  0  0  0  0
  -10.9657   33.4642   14.6792 H   0  0  0  0  0
  -11.3774   35.5408   13.9732 H   0  0  0  0  0
  -13.4546   35.9974   11.9313 H   0  0  0  0  0
  -14.4370   35.0006   14.5510 H   0  0  0  0  0
  -14.3971   34.0787   12.9936 H   0  0  0  0  0
  -17.8224   35.3303   13.0485 H   0  0  0  0  0
  -16.8062   34.0520   13.7225 H   0  0  0  0  0
  -12.5791   37.9777   11.7985 H   0  0  0  0  0
  -11.6167   39.4074   14.1465 H   0  0  0  0  0
  -11.5648   41.3403   12.5189 H   0  0  0  0  0
  -12.0921   40.1020   11.2789 H   0  0  0  0  0
  -10.0535   38.8532   11.6252 H   0  0  0  0  0
  -10.1082   40.9444   10.1592 H   0  0  0  0  0
   -9.6342   41.9160   11.5742 H   0  0  0  0  0
   -8.4968   40.7311   10.8863 H   0  0  0  0  0
   -9.2293   40.8067   13.8297 H   0  0  0  0  0
   -9.6909   39.1023   14.0597 H   0  0  0  0  0
   -8.2223   39.5106   13.1391 H   0  0  0  0  0
  -14.6451   39.4417   12.3426 H   0  0  0  0  0
  -15.9903   41.5887   13.5914 H   0  0  0  0  0
  -18.0636   40.0061   13.2678 H   0  0  0  0  0
  -16.8523   38.9136   12.4718 H   0  0  0  0  0
  -18.2088   39.3255   10.7538 H   0  0  0  0  0
  1  2  1  0  0  0
  1 60  1  0  0  0
  2  3  1  0  0  0
  2  5  1  0  0  0
  3  4  2  0  0  0
  3  6  1  0  0  0
  6  7  1  0  0  0
  7  8  1  0  0  0
  7 10  1  0  0  0
  8  9  2  0  0  0
  8 17  1  0  0  0
 10 11  1  0  0  0
 11 12  1  0  0  0
 12 13  1  0  0  0
 13 14  1  0  0  0
 14 15  1  0  0  0
 14 16  2  0  0  0
 17 18  1  0  0  0
 18 19  1  0  0  0
 18 21  1  0  0  0
 19 20  2  0  0  0
 19 26  1  0  0  0
 21 22  1  0  0  0
 22 23  1  0  0  0
 23 24  1  0  0  0
 24 25  1  0  0  0
 26 27  1  0  0  0
 27 28  1  0  0  0
 27 30  1  0  0  0
 28 29  2  0  0  0
 28 34  1  0  0  0
 30 31  1  0  0  0
 30 32  1  0  0  0
 31 33  1  0  0  0
 34 35  1  0  0  0
 35 36  1  0  0  0
 35 38  1  0  0  0
 36 37  2  0  0  0
 36 42  1  0  0  0
 38 39  1  0  0  0
 39 40  2  0  0  0
 39 41  1  0  0  0
 42 43  1  0  0  0
 43 44  1  0  0  0
 43 46  1  0  0  0
 44 45  2  0  0  0
 44 50  1  0  0  0
 46 47  1  0  0  0
 47 48  2  0  0  0
 47 49  1  0  0  0
 50 51  1  0  0  0
 51 52  1  0  0  0
 51 54  1  0  0  0
 52 53  2  0  0  0
 52 58  1  0  0  0
 54 55  1  0  0  0
 55 56  1  0  0  0
 55 57  1  0  0  0
 58 59  1  0  0  0
 59 60  1  0  0  0
 59 62  1  0  0  0
 60 61  2  0  0  0
 62 63  1  0  0  0
 63 64  2  0  0  0
 63 65  1  0  0  0
  1 66  1  0  0  0
  2 67  1  0  0  0
  5 68  1  0  0  0
  5 69  1  0  0  0
  5 70  1  0  0  0
  6 71  1  0  0  0
  7 72  1  0  0  0
 10 73  1  0  0  0
 10 74  1  0  0  0
 11 75  1  0  0  0
 11 76  1  0  0  0
 12 77  1  0  0  0
 12 78  1  0  0  0
 13 79  1  0  0  0
 15 80  1  0  0  0
 15 81  1  0  0  0
 16 82  1  0  0  0
 17 83  1  0  0  0
 18 84  1  0  0  0
 21 85  1  0  0  0
 21 86  1  0  0  0
 22 87  1  0  0  0
 22 88  1  0  0  0
 23 89  1  0  0  0
 23 90  1  0  0  0
 24 91  1  0  0  0
 24 92  1  0  0  0
 25 93  1  0  0  0
 25 94  1  0  0  0
 25 95  1  0  0  0
 26 96  1  0  0  0
 27 97  1  0  0  0
 30 98  1  0  0  0
 31 99  1  0  0  0
 31100  1  0  0  0
 32101  1  0  0  0
 32102  1  0  0  0
 32103  1  0  0  0
 33104  1  0  0  0
 33105  1  0  0  0
 33106  1  0  0  0
 34107  1  0  0  0
 35108  1  0  0  0
 38109  1  0  0  0
 38110  1  0  0  0
 41111  1  0  0  0
 42112  1  0  0  0
 43113  1  0  0  0
 46114  1  0  0  0
 46115  1  0  0  0
 49116  1  0  0  0
 49117  1  0  0  0
 50118  1  0  0  0
 51119  1  0  0  0
 54120  1  0  0  0
 54121  1  0  0  0
 55122  1  0  0  0
 56123  1  0  0  0
 56124  1  0  0  0
 56125  1  0  0  0
 57126  1  0  0  0
 57127  1  0  0  0
 57128  1  0  0  0
 58129  1  0  0  0
 59130  1  0  0  0
 62131  1  0  0  0
 62132  1  0  0  0
 65133  1  0  0  0
M  END
$$$$
