1w4p_ligand
  -I-interpret- 

 33 34  0  0  0  0  0  0  0  0999 V2000
   36.5800   -2.2380   12.2000 N   0  0  0  0  0
   35.3910   -2.3580   11.4360 C   0  0  0  0  0
   34.7510   -3.5840   11.5860 N   0  0  0  0  0
   35.1590   -4.6690   12.3960 C   0  0  0  0  0
   36.3730   -4.4580   13.1370 C   0  0  0  0  0
   37.0280   -3.2780   13.0180 C   0  0  0  0  0
   34.9440   -1.4770   10.6980 O   0  0  0  0  0
   34.4870   -5.6900   12.4210 O   0  0  0  0  0
   37.5040   -1.1350   12.2520 C   0  0  0  0  0
   37.3060   -0.1840   13.5540 C   0  0  0  0  0
   38.3580    0.9850   13.1620 C   0  0  0  0  0
   39.5670    0.2220   12.6020 C   0  0  0  0  0
   38.0600    1.9500   12.5300 O   0  0  0  0  0
   38.8610   -0.7360   11.8130 O   0  0  0  0  0
   40.6790    0.0750   13.6260 C   0  0  0  0  0
   40.1430   -1.1760   14.2560 O   0  0  0  0  0
   37.4770    3.1040   13.3640 P   0  0  0  0  0
   37.4390    4.5680   12.8650 O   0  0  0  0  0
   35.9130    3.1080   13.5100 O   0  0  0  0  0
   37.7140    3.7810   15.0500 O   0  0  0  0  0
   33.8917   -3.7149   11.0523 H   0  0  0  0  0
   36.7627   -5.2402   13.7885 H   0  0  0  0  0
   37.9467   -3.1335   13.5866 H   0  0  0  0  0
   37.1720   -1.3281   11.2319 H   0  0  0  0  0
   37.4872   -0.6681   14.5136 H   0  0  0  0  0
   36.2844    0.1521   13.7316 H   0  0  0  0  0
   38.5145    1.5566   14.0768 H   0  0  0  0  0
   40.3329    0.5993   11.9244 H   0  0  0  0  0
   40.8484    0.9231   14.2895 H   0  0  0  0  0
   41.6972    0.0307   13.2396 H   0  0  0  0  0
   40.7288   -1.4524   14.9646 H   0  0  0  0  0
   35.6206    2.2520   13.8314 H   0  0  0  0  0
   37.7833    3.0576   15.6773 H   0  0  0  0  0
  1  2  1  0  0  0
  1  6  1  0  0  0
  1  9  1  0  0  0
  2  3  1  0  0  0
  2  7  2  0  0  0
  3  4  1  0  0  0
  4  5  1  0  0  0
  4  8  2  0  0  0
  5  6  2  0  0  0
  9 10  1  0  0  0
  9 14  1  0  0  0
 10 11  1  0  0  0
 11 12  1  0  0  0
 11 13  1  0  0  0
 12 14  1  0  0  0
 12 15  1  0  0  0
 13 17  1  0  0  0
 15 16  1  0  0  0
 17 18  2  0  0  0
 17 19  1  0  0  0
 17 20  1  0  0  0
  3 21  1  0  0  0
  5 22  1  0  0  0
  6 23  1  0  0  0
  9 24  1  0  0  0
 10 25  1  0  0  0
 10 26  1  0  0  0
 11 27  1  0  0  0
 12 28  1  0  0  0
 15 29  1  0  0  0
 15 30  1  0  0  0
 16 31  1  0  0  0
 19 32  1  0  0  0
 20 33  1  0  0  0
M  END
$$$$
