3c6t_ligand
  -I-interpret- 

 47 49  0  0  0  0  0  0  0  0999 V2000
    6.2340    9.4580   14.2650 C   0  0  0  0  0
    6.3280    8.7510   13.0590 C   0  0  0  0  0
    6.4130    7.3610   13.0520 C   0  0  0  0  0
    6.3990    6.6920   14.2760 C   0  0  0  0  0
    6.3170    7.3860   15.4740 C   0  0  0  0  0
    6.2190    8.7650   15.4450 C   0  0  0  0  0
    9.9950   12.2880   16.9740 C   0  0  0  0  0
   10.9710   12.5940   16.0720 C   0  0  0  0  0
   10.5600   13.1130   14.8700 C   0  0  0  0  0
    9.1920   13.3360   14.5580 C   0  0  0  0  0
    8.2000   13.0060   15.4970 C   0  0  0  0  0
    8.6370   12.4690   16.7100 C   0  0  0  0  0
   10.0390   12.2380   21.6910 C   0  0  0  0  0
   10.1410   11.6540   20.4450 C   0  0  0  0  0
   10.3240   12.4390   19.3250 C   0  0  0  0  0
   10.4050   13.8170   19.4310 C   0  0  0  0  0
   10.2850   14.3610   20.7000 C   0  0  0  0  0
   10.1150   13.6020   21.8460 C   0  0  0  0  0
    9.8220   11.2850   23.1110 Cl  0  0  0  0  0
   10.4450   11.7650   18.1410 O   0  0  0  0  0
   11.8680   13.5280   13.7970 Cl  0  0  0  0  0
    6.8090   13.1030   15.4510 O   0  0  0  0  0
    6.0950   13.2010   14.2260 C   0  0  0  0  0
    6.1700   11.8500   13.5410 C   0  0  0  0  0
    6.1530   10.8470   14.4690 N   0  0  0  0  0
    6.2930   11.6990   12.3450 O   0  0  0  0  0
    6.5530    4.9200   14.3850 S   0  0  0  0  0
    5.5580    4.3390   13.1250 N   0  0  0  0  0
    7.9730    4.7950   14.0350 O   0  0  0  0  0
    6.0560    4.5260   15.6950 O   0  0  0  0  0
    6.0810    9.6770   16.9120 Cl  0  0  0  0  0
   10.3490   15.7150   20.9000 C   0  0  0  0  0
   10.6440   16.7840   21.0680 N   0  0  0  0  0
    6.3347    9.2956   12.1148 H   0  0  0  0  0
    6.4885    6.8101   12.1145 H   0  0  0  0  0
    6.3296    6.8523   16.4243 H   0  0  0  0  0
   12.0259   12.4342   16.2949 H   0  0  0  0  0
    8.9130   13.7614   13.5940 H   0  0  0  0  0
    7.9032   12.1860   17.4647 H   0  0  0  0  0
   10.0769   10.5705   20.3452 H   0  0  0  0  0
   10.5566   14.4468   18.5544 H   0  0  0  0  0
   10.0444   14.0666   22.8295 H   0  0  0  0  0
    6.5319   13.9729   13.5924 H   0  0  0  0  0
    5.0567   13.4752   14.4124 H   0  0  0  0  0
    6.0704   11.1462   15.4406 H   0  0  0  0  0
    5.9784    3.9693   12.2724 H   0  0  0  0  0
    4.5432    4.3616   13.2249 H   0  0  0  0  0
  1  2  4  0  0  0
  1  6  4  0  0  0
 25  1  1  0  0  0
  2  3  4  0  0  0
  3  4  4  0  0  0
  5  4  4  0  0  0
  4 27  1  0  0  0
  6  5  4  0  0  0
  6 31  1  0  0  0
  7  8  4  0  0  0
 12  7  4  0  0  0
  7 20  1  0  0  0
  9  8  4  0  0  0
 10  9  4  0  0  0
  9 21  1  0  0  0
 11 10  4  0  0  0
 11 12  4  0  0  0
 22 11  1  0  0  0
 14 13  4  0  0  0
 13 18  4  0  0  0
 13 19  1  0  0  0
 15 14  4  0  0  0
 15 16  4  0  0  0
 20 15  1  0  0  0
 16 17  4  0  0  0
 17 18  4  0  0  0
 17 32  1  0  0  0
 23 22  1  0  0  0
 24 23  1  0  0  0
 24 25  1  0  0  0
 24 26  2  0  0  0
 27 28  1  0  0  0
 27 29  2  0  0  0
 27 30  2  0  0  0
 32 33  3  0  0  0
  2 34  1  0  0  0
  3 35  1  0  0  0
  5 36  1  0  0  0
  8 37  1  0  0  0
 10 38  1  0  0  0
 12 39  1  0  0  0
 14 40  1  0  0  0
 16 41  1  0  0  0
 18 42  1  0  0  0
 23 43  1  0  0  0
 23 44  1  0  0  0
 25 45  1  0  0  0
 28 46  1  0  0  0
 28 47  1  0  0  0
M  END
$$$$
