### 
### Created by X-TOOL on Mon Sep 10 21:12:56 2018
### 

@<TRIPOS>MOLECULE
2uvm_ligand
   28    28     1     0     0
SMALL
GAST_HUCK


@<TRIPOS>ATOM
      1 OAE        12.5660    7.7940   13.1920 O.co2     1 GVF        -0.6672
      2 PAH        12.7030    8.4780   14.6410 P.3       1 GVF         0.1274
      3 OAG        13.8580    7.6460   15.3930 O.co2     1 GVF        -0.6672
      4 OAI        11.4170    8.4320   15.3710 O.co2     1 GVF        -0.6672
      5 OAM        13.2120    9.9850   14.3780 O.3       1 GVF        -0.1912
      6 CAL        14.2580   10.4060   15.1400 C.ar      1 GVF         0.3475
      7 CAP        14.0830   10.8990   16.4350 C.ar      1 GVF         0.3475
      8 OAQ        12.9350   10.6600   17.1290 O.3       1 GVF        -0.1912
      9 PAT        11.6730   11.5580   16.6820 P.3       1 GVF         0.1274
     10 OAS        12.1490   12.5800   15.5330 O.co2     1 GVF        -0.6672
     11 OAY        10.6600   10.5060   16.0030 O.co2     1 GVF        -0.6672
     12 OAU        11.0240   12.2430   17.8200 O.co2     1 GVF        -0.6672
     13 CAO        15.1320   11.5510   17.0780 C.ar      1 GVF         0.3463
     14 OAR        14.9060   12.2560   18.2230 O.3       1 GVF        -0.1103
     15 PAW        14.7850   11.4020   19.5850 P.3       1 GVF         0.1891
     16 OAV        13.2230   11.2560   19.9350 O.co2     1 GVF        -0.6552
     17 OAZ        15.3020    9.9110   19.2670 O.co2     1 GVF        -0.6552
     18 OAX        15.5170   12.0560   20.6920 O.co2     1 GVF        -0.6552
     19 CAN        16.3640   11.6710   16.4430 C.ar      1 GVF         0.1342
     20 CAJ        16.5520   11.1620   15.1580 C.ar      1 GVF         0.1342
     21 CAK        15.4940   10.5340   14.5100 C.ar      1 GVF         0.3463
     22 OAF        15.5530   10.0930   13.2240 O.3       1 GVF        -0.1103
     23 PAC        16.9930    9.7090   12.6140 P.3       1 GVF         0.1891
     24 OAB        17.8560   11.0640   12.5190 O.co2     1 GVF        -0.6552
     25 OAA        16.6350    9.2520   11.1140 O.co2     1 GVF        -0.6552
     26 OAD        17.6850    8.6350   13.3590 O.co2     1 GVF        -0.6552
     27 H          17.1893   12.1669   16.9539 H         1 GVF         0.1241
     28 H          17.5201   11.2557   14.6659 H         1 GVF         0.1241
@<TRIPOS>BOND
     1    1    2 ar 
     2    2    3 ar 
     3    2    4 ar 
     4    2    5 1  
     5    5    6 1  
     6    6    7 ar 
     7    6   21 ar 
     8    7    8 1  
     9    7   13 ar 
    10    8    9 1  
    11    9   10 ar 
    12    9   11 ar 
    13    9   12 ar 
    14   13   14 1  
    15   13   19 ar 
    16   14   15 1  
    17   15   16 ar 
    18   15   17 ar 
    19   15   18 ar 
    20   19   20 ar 
    21   20   21 ar 
    22   21   22 1  
    23   22   23 1  
    24   23   24 ar 
    25   23   25 ar 
    26   23   26 ar 
    27   19   27 1  
    28   20   28 1  
@<TRIPOS>SUBSTRUCTURE
     1 GVF         1

