### 
### Created by X-TOOL on Mon Aug  2 16:14:30 2021
### 

@<TRIPOS>MOLECULE
6jdi_ligand
   44    46     1     0     0
SMALL
GAST_HUCK


@<TRIPOS>ATOM
      1 PG        -26.9200  -12.9490   -2.8640 P.3       1 AGS         0.2197
      2 S1G       -27.0510  -11.0800   -3.3980 S.3       1 AGS        -0.0461
      3 O2G       -27.0270  -13.0720   -1.3170 O.co2     1 AGS        -0.6077
      4 O3G       -25.5470  -13.5180   -3.3190 O.co2     1 AGS        -0.6077
      5 PB        -28.6890  -15.1040   -3.2300 P.3       1 AGS         0.3347
      6 O1B       -28.6850  -15.8830   -4.4770 O.co2     1 AGS        -0.6076
      7 O2B       -27.9350  -15.8010   -2.0910 O.co2     1 AGS        -0.6076
      8 O3B       -28.0800  -13.6910   -3.5970 O.3       1 AGS        -0.1434
      9 PA        -31.0200  -15.1430   -1.4880 P.3       1 AGS         0.2978
     10 O1A       -31.0150  -16.6110   -1.2860 O.co2     1 AGS        -0.6127
     11 O2A       -30.5610  -14.3210   -0.2820 O.co2     1 AGS        -0.6127
     12 O3A       -30.2020  -14.7550   -2.7990 O.3       1 AGS        -0.1263
     13 O5'       -32.5190  -14.7100   -1.8980 O.3       1 AGS        -0.2476
     14 C5'       -32.9700  -13.3150   -1.8960 C.3       1 AGS         0.1128
     15 C4'       -34.3320  -13.2180   -1.2390 C.3       1 AGS         0.1189
     16 O4'       -35.3260  -13.8730   -2.0600 O.3       1 AGS        -0.3364
     17 C3'       -34.4460  -13.8600    0.1390 C.3       1 AGS         0.1149
     18 O3'       -35.3110  -13.0860    0.9630 O.3       1 AGS        -0.3864
     19 C2'       -34.9970  -15.2580   -0.1760 C.3       1 AGS         0.1385
     20 O2'       -35.7930  -15.7720    0.8830 O.3       1 AGS        -0.3836
     21 C1'       -35.8810  -14.9890   -1.3910 C.3       1 AGS         0.2010
     22 N9        -36.0050  -16.0790   -2.3560 N.pl3     1 AGS        -0.1919
     23 C8        -35.1660  -16.3400   -3.4090 C.2       1 AGS         0.1123
     24 N7        -35.5430  -17.3480   -4.1600 N.2       1 AGS        -0.2958
     25 C5        -36.7190  -17.7760   -3.5650 C.ar      1 AGS         0.1045
     26 C6        -37.6230  -18.8120   -3.8830 C.ar      1 AGS         0.1298
     27 N6        -37.4670  -19.6410   -4.9160 N.pl3     1 AGS        -0.3152
     28 N1        -38.7030  -18.9680   -3.0900 N.ar      1 AGS        -0.2698
     29 C2        -38.8680  -18.1390   -2.0590 C.ar      1 AGS         0.0533
     30 N3        -38.0890  -17.1300   -1.6640 N.ar      1 AGS        -0.2714
     31 C4        -37.0250  -17.0000   -2.4620 C.ar      1 AGS         0.1613
     32 H1        -26.9805  -11.0127   -4.4013 H         1 AGS         0.1255
     33 H2        -33.0374  -12.9513   -2.9319 H         1 AGS         0.0648
     34 H3        -32.2501  -12.6990   -1.3371 H         1 AGS         0.0648
     35 H4        -34.5792  -12.1503   -1.1451 H         1 AGS         0.0651
     36 H5        -33.4614  -13.9363    0.6235 H         1 AGS         0.0648
     37 H6        -34.9588  -12.2084    1.0534 H         1 AGS         0.2100
     38 H7        -34.1855  -15.9631   -0.4088 H         1 AGS         0.0676
     39 H8        -36.5293  -15.1912    1.0349 H         1 AGS         0.2101
     40 H9        -36.8905  -14.7422   -1.0304 H         1 AGS         0.0996
     41 H10       -34.2648  -15.7608   -3.6050 H         1 AGS         0.1349
     42 H11       -38.1639  -20.3781   -5.0946 H         1 AGS         0.1820
     43 H12       -36.6496  -19.5442   -5.5352 H         1 AGS         0.1820
     44 H13       -39.7557  -18.3075   -1.4601 H         1 AGS         0.0996
@<TRIPOS>BOND
     1    1    2 1  
     2    1    3 ar 
     3    1    4 ar 
     4    8    1 1  
     5    5    6 ar 
     6    5    7 ar 
     7    5    8 1  
     8   12    5 1  
     9    9   10 ar 
    10    9   11 ar 
    11    9   12 1  
    12    9   13 1  
    13   13   14 1  
    14   14   15 1  
    15   15   16 1  
    16   15   17 1  
    17   16   21 1  
    18   17   18 1  
    19   17   19 1  
    20   19   20 1  
    21   19   21 1  
    22   21   22 1  
    23   22   23 1  
    24   22   31 1  
    25   23   24 2  
    26   24   25 1  
    27   25   26 ar 
    28   25   31 ar 
    29   26   27 1  
    30   26   28 ar 
    31   28   29 ar 
    32   29   30 ar 
    33   30   31 ar 
    34    2   32 1  
    35   14   33 1  
    36   14   34 1  
    37   15   35 1  
    38   17   36 1  
    39   18   37 1  
    40   19   38 1  
    41   20   39 1  
    42   21   40 1  
    43   23   41 1  
    44   27   42 1  
    45   27   43 1  
    46   29   44 1  
@<TRIPOS>SUBSTRUCTURE
     1 AGS         1

