6jdi_ligand
  -I-interpret- 

 47 49  0  0  0  0  0  0  0  0999 V2000
  -26.9200  -12.9490   -2.8640 P   0  0  0  0  0
  -27.0510  -11.0800   -3.3980 S   0  0  0  0  0
  -27.0270  -13.0720   -1.3170 O   0  0  0  0  0
  -25.5470  -13.5180   -3.3190 O   0  0  0  0  0
  -28.6890  -15.1040   -3.2300 P   0  0  0  0  0
  -28.6850  -15.8830   -4.4770 O   0  0  0  0  0
  -27.9350  -15.8010   -2.0910 O   0  0  0  0  0
  -28.0800  -13.6910   -3.5970 O   0  0  0  0  0
  -31.0200  -15.1430   -1.4880 P   0  0  0  0  0
  -31.0150  -16.6110   -1.2860 O   0  0  0  0  0
  -30.5610  -14.3210   -0.2820 O   0  0  0  0  0
  -30.2020  -14.7550   -2.7990 O   0  0  0  0  0
  -32.5190  -14.7100   -1.8980 O   0  0  0  0  0
  -32.9700  -13.3150   -1.8960 C   0  0  0  0  0
  -34.3320  -13.2180   -1.2390 C   0  0  0  0  0
  -35.3260  -13.8730   -2.0600 O   0  0  0  0  0
  -34.4460  -13.8600    0.1390 C   0  0  0  0  0
  -35.3110  -13.0860    0.9630 O   0  0  0  0  0
  -34.9970  -15.2580   -0.1760 C   0  0  0  0  0
  -35.7930  -15.7720    0.8830 O   0  0  0  0  0
  -35.8810  -14.9890   -1.3910 C   0  0  0  0  0
  -36.0050  -16.0790   -2.3560 N   0  0  0  0  0
  -35.1660  -16.3400   -3.4090 C   0  0  0  0  0
  -35.5430  -17.3480   -4.1600 N   0  0  0  0  0
  -36.7190  -17.7760   -3.5650 C   0  0  0  0  0
  -37.6230  -18.8120   -3.8830 C   0  0  0  0  0
  -37.4670  -19.6410   -4.9160 N   0  0  0  0  0
  -38.7030  -18.9680   -3.0900 N   0  0  0  0  0
  -38.8680  -18.1390   -2.0590 C   0  0  0  0  0
  -38.0890  -17.1300   -1.6640 N   0  0  0  0  0
  -37.0250  -17.0000   -2.4620 C   0  0  0  0  0
  -28.2252  -10.5909   -3.0097 H   0  0  0  0  0
  -27.8728  -12.7225   -1.0271 H   0  0  0  0  0
  -27.9682  -15.2523   -1.3039 H   0  0  0  0  0
  -30.5958  -13.3869   -0.5009 H   0  0  0  0  0
  -33.0385  -12.9565   -2.9231 H   0  0  0  0  0
  -32.2571  -12.7061   -1.3400 H   0  0  0  0  0
  -34.4883  -12.1450   -1.1276 H   0  0  0  0  0
  -33.5104  -13.9170    0.6953 H   0  0  0  0  0
  -35.3780  -13.4959    1.8285 H   0  0  0  0  0
  -34.2067  -15.9922   -0.3324 H   0  0  0  0  0
  -36.1158  -16.6442    0.6449 H   0  0  0  0  0
  -36.8898  -14.8373   -1.0070 H   0  0  0  0  0
  -34.2640  -15.7603   -3.6052 H   0  0  0  0  0
  -36.6575  -19.5451   -5.5291 H   0  0  0  0  0
  -38.1572  -20.3709   -5.0929 H   0  0  0  0  0
  -39.7606  -18.3084   -1.4568 H   0  0  0  0  0
  1  2  1  0  0  0
  1  3  1  0  0  0
  1  4  2  0  0  0
  8  1  1  0  0  0
  5  6  2  0  0  0
  5  7  1  0  0  0
  5  8  1  0  0  0
 12  5  1  0  0  0
  9 10  2  0  0  0
  9 11  1  0  0  0
  9 12  1  0  0  0
  9 13  1  0  0  0
 13 14  1  0  0  0
 14 15  1  0  0  0
 15 16  1  0  0  0
 15 17  1  0  0  0
 16 21  1  0  0  0
 17 18  1  0  0  0
 17 19  1  0  0  0
 19 20  1  0  0  0
 19 21  1  0  0  0
 21 22  1  0  0  0
 22 23  4  0  0  0
 22 31  4  0  0  0
 23 24  4  0  0  0
 24 25  4  0  0  0
 25 26  4  0  0  0
 25 31  4  0  0  0
 26 27  1  0  0  0
 26 28  4  0  0  0
 28 29  4  0  0  0
 29 30  4  0  0  0
 30 31  4  0  0  0
  2 32  1  0  0  0
  3 33  1  0  0  0
  7 34  1  0  0  0
 11 35  1  0  0  0
 14 36  1  0  0  0
 14 37  1  0  0  0
 15 38  1  0  0  0
 17 39  1  0  0  0
 18 40  1  0  0  0
 19 41  1  0  0  0
 20 42  1  0  0  0
 21 43  1  0  0  0
 23 44  1  0  0  0
 27 45  1  0  0  0
 27 46  1  0  0  0
 29 47  1  0  0  0
M  END
$$$$
