1hrn_ligand
  -I-interpret- 

 85 87  0  0  0  0  0  0  0  0999 V2000
   37.2660   60.5560   45.4540 C   0  0  0  0  0
   38.0350   59.4050   46.1530 C   0  0  0  0  0
   37.2880   58.9560   47.4240 C   0  0  0  0  0
   37.8250   57.5240   47.8780 C   0  0  0  0  0
   38.5940   57.4120   48.9840 C   0  0  0  0  0
   39.0220   56.1740   49.4070 C   0  0  0  0  0
   38.6480   55.0620   48.7560 C   0  0  0  0  0
   37.8760   55.1620   47.6640 C   0  0  0  0  0
   37.4370   56.3670   47.2250 C   0  0  0  0  0
   37.0550   61.5190   46.4760 O   0  0  0  0  0
   39.2980   59.9210   46.5790 O   0  0  0  0  0
   36.0200   60.9110   42.6980 C   0  0  0  0  0
   37.1200   61.8600   43.1630 C   0  0  0  0  0
   38.0270   61.2020   44.2660 C   0  0  0  0  0
   37.0240   62.8800   40.7610 C   0  0  0  0  0
   37.7670   63.8800   39.9700 C   0  0  0  0  0
   36.7350   64.3200   40.9160 C   0  0  0  0  0
   37.9350   62.3300   41.8910 C   0  0  0  0  0
   36.2790   59.8820   42.1120 O   0  0  0  0  0
   32.7120   61.3470   41.5830 C   0  0  0  0  0
   33.6300   60.4170   42.5220 C   0  0  0  0  0
   32.7450   59.9440   43.7480 C   0  0  0  0  0
   33.4850   58.9200   44.6630 C   0  0  0  0  0
   32.6170   58.5890   45.9230 C   0  0  0  0  0
   33.3850   57.5170   46.7800 C   0  0  0  0  0
   33.5630   56.1970   45.9630 C   0  0  0  0  0
   34.4440   56.5230   44.7310 C   0  0  0  0  0
   33.6900   57.5680   43.8820 C   0  0  0  0  0
   34.7450   61.2400   43.0080 N   0  0  0  0  0
   32.5050   62.6400   42.1880 O   0  0  0  0  0
   33.3300   61.5620   40.1730 C   0  0  0  0  0
   32.4600   62.5550   39.3510 C   0  0  0  0  0
   33.1100   62.8460   37.9900 C   0  0  0  0  0
   32.0620   63.4880   37.0740 C   0  0  0  0  0
   34.3270   63.7670   38.1090 C   0  0  0  0  0
   33.5700   60.3000   39.5330 O   0  0  0  0  0
   36.3482   60.1701   45.0104 H   0  0  0  0  0
   38.1349   58.5689   45.4609 H   0  0  0  0  0
   36.2200   58.8942   47.2152 H   0  0  0  0  0
   37.4608   59.6786   48.2216 H   0  0  0  0  0
   38.8760   58.3046   49.5425 H   0  0  0  0  0
   39.6710   56.0963   50.2793 H   0  0  0  0  0
   38.9696   54.0834   49.1125 H   0  0  0  0  0
   37.5969   54.2594   47.1204 H   0  0  0  0  0
   36.7787   56.4247   46.3581 H   0  0  0  0  0
   36.5840   61.1110   47.2063 H   0  0  0  0  0
   39.7977   60.2134   45.8132 H   0  0  0  0  0
   36.6832   62.7358   43.6428 H   0  0  0  0  0
   38.6376   62.0018   44.6851 H   0  0  0  0  0
   38.5798   60.3999   43.7770 H   0  0  0  0  0
   36.4162   61.9980   40.5593 H   0  0  0  0  0
   38.0482   64.0529   38.9312 H   0  0  0  0  0
   38.8012   64.1189   39.7219 H   0  0  0  0  0
   36.6211   65.0478   41.7194 H   0  0  0  0  0
   35.8690   64.9818   40.9296 H   0  0  0  0  0
   38.4680   61.4643   41.4979 H   0  0  0  0  0
   38.6032   63.1333   42.2013 H   0  0  0  0  0
   31.7634   60.8215   41.4727 H   0  0  0  0  0
   34.0120   59.5496   41.9836 H   0  0  0  0  0
   31.8549   59.4563   43.3505 H   0  0  0  0  0
   32.5091   60.8218   44.3496 H   0  0  0  0  0
   34.4384   59.3587   44.9575 H   0  0  0  0  0
   31.6460   58.1993   45.6176 H   0  0  0  0  0
   32.4514   59.4912   46.5118 H   0  0  0  0  0
   32.8104   57.3033   47.6812 H   0  0  0  0  0
   34.3678   57.9085   47.0427 H   0  0  0  0  0
   32.5935   55.8128   45.6459 H   0  0  0  0  0
   34.0368   55.4311   46.5770 H   0  0  0  0  0
   34.6302   55.6215   44.1473 H   0  0  0  0  0
   35.4102   56.9158   45.0476 H   0  0  0  0  0
   34.2808   57.7745   42.9896 H   0  0  0  0  0
   32.7085   57.1638   43.6342 H   0  0  0  0  0
   34.5574   62.0625   43.5813 H   0  0  0  0  0
   31.9560   63.1773   41.6122 H   0  0  0  0  0
   34.3098   62.0323   40.2566 H   0  0  0  0  0
   32.3705   63.4888   39.9061 H   0  0  0  0  0
   31.4785   62.1107   39.1855 H   0  0  0  0  0
   33.4641   61.9026   37.5743 H   0  0  0  0  0
   31.2241   62.8026   36.9465 H   0  0  0  0  0
   31.7087   64.4163   37.5230 H   0  0  0  0  0
   32.5106   63.7000   36.1035 H   0  0  0  0  0
   34.0205   64.7173   38.5462 H   0  0  0  0  0
   35.0758   63.2970   38.7465 H   0  0  0  0  0
   34.7482   63.9402   37.1187 H   0  0  0  0  0
   34.1114   59.7505   40.1045 H   0  0  0  0  0
  1 10  1  0  0  0
  1  2  1  0  0  0
  2 11  1  0  0  0
  2  3  1  0  0  0
  3  4  1  0  0  0
  4  9  4  0  0  0
  4  5  4  0  0  0
  5  6  4  0  0  0
  6  7  4  0  0  0
  8  7  4  0  0  0
  9  8  4  0  0  0
 12 19  2  0  0  0
 12 13  1  0  0  0
 13 18  1  0  0  0
 13 14  1  0  0  0
 18 15  1  0  0  0
 15 17  1  0  0  0
 15 16  1  0  0  0
 16 17  1  0  0  0
 20 30  1  0  0  0
 21 20  1  0  0  0
 29 21  1  0  0  0
 21 22  1  0  0  0
 22 23  1  0  0  0
 23 28  1  0  0  0
 23 24  1  0  0  0
 24 25  1  0  0  0
 25 26  1  0  0  0
 27 26  1  0  0  0
 28 27  1  0  0  0
 31 36  1  0  0  0
 31 32  1  0  0  0
 32 33  1  0  0  0
 33 35  1  0  0  0
 33 34  1  0  0  0
 14  1  1  0  0  0
 20 31  1  0  0  0
 29 12  1  0  0  0
  1 37  1  0  0  0
  2 38  1  0  0  0
  3 39  1  0  0  0
  3 40  1  0  0  0
  5 41  1  0  0  0
  6 42  1  0  0  0
  7 43  1  0  0  0
  8 44  1  0  0  0
  9 45  1  0  0  0
 10 46  1  0  0  0
 11 47  1  0  0  0
 13 48  1  0  0  0
 14 49  1  0  0  0
 14 50  1  0  0  0
 15 51  1  0  0  0
 16 52  1  0  0  0
 16 53  1  0  0  0
 17 54  1  0  0  0
 17 55  1  0  0  0
 18 56  1  0  0  0
 18 57  1  0  0  0
 20 58  1  0  0  0
 21 59  1  0  0  0
 22 60  1  0  0  0
 22 61  1  0  0  0
 23 62  1  0  0  0
 24 63  1  0  0  0
 24 64  1  0  0  0
 25 65  1  0  0  0
 25 66  1  0  0  0
 26 67  1  0  0  0
 26 68  1  0  0  0
 27 69  1  0  0  0
 27 70  1  0  0  0
 28 71  1  0  0  0
 28 72  1  0  0  0
 29 73  1  0  0  0
 30 74  1  0  0  0
 31 75  1  0  0  0
 32 76  1  0  0  0
 32 77  1  0  0  0
 33 78  1  0  0  0
 34 79  1  0  0  0
 34 80  1  0  0  0
 34 81  1  0  0  0
 35 82  1  0  0  0
 35 83  1  0  0  0
 35 84  1  0  0  0
 36 85  1  0  0  0
M  END
$$$$
