4nrm_ligand
  -I-interpret- 

 21 20  0  0  0  0  0  0  0  0999 V2000
   10.0980   23.9640   17.0020 C   0  0  0  0  0
   10.9010   22.7940   16.4910 C   0  0  0  0  0
   10.8070   21.7340   17.5740 C   0  0  0  0  0
    9.4700   21.0960   17.8410 C   0  0  0  0  0
   12.0490   21.2730   18.3350 C   0  0  0  0  0
   13.1300   20.5580   17.5480 C   0  0  0  0  0
    8.8790   23.9840   16.7420 O   0  0  0  0  0
   10.6670   24.8520   17.6770 O   0  0  0  0  0
    8.8850   21.5600   18.8390 O   0  0  0  0  0
    8.9820   20.2070   17.1040 O   0  0  0  0  0
   13.3220   20.8380   16.3430 O   0  0  0  0  0
   13.8120   19.7060   18.1580 O   0  0  0  0  0
   11.0450   20.7860   16.5200 O   0  0  0  0  0
   11.9359   23.0747   16.2954 H   0  0  0  0  0
   10.5139   22.4287   15.5398 H   0  0  0  0  0
   11.6916   20.5480   19.0663 H   0  0  0  0  0
   12.5154   22.1831   18.7124 H   0  0  0  0  0
   11.6006   24.6429   17.7566 H   0  0  0  0  0
    9.6009   20.0017   16.3994 H   0  0  0  0  0
   12.6961   21.5122   16.0686 H   0  0  0  0  0
   10.3566   20.8680   15.8559 H   0  0  0  0  0
  1  2  1  0  0  0
  1  7  2  0  0  0
  1  8  1  0  0  0
  2  3  1  0  0  0
  3  4  1  0  0  0
  3  5  1  0  0  0
  3 13  1  0  0  0
  4  9  2  0  0  0
  4 10  1  0  0  0
  5  6  1  0  0  0
  6 11  1  0  0  0
  6 12  2  0  0  0
  2 14  1  0  0  0
  2 15  1  0  0  0
  5 16  1  0  0  0
  5 17  1  0  0  0
  8 18  1  0  0  0
 10 19  1  0  0  0
 11 20  1  0  0  0
 13 21  1  0  0  0
M  END
$$$$
