5yf1_ligand
  -I-interpret- 

 30 30  0  0  0  0  0  0  0  0999 V2000
  -39.6090   45.2200   -5.2090 C   0  0  0  0  0
  -40.1360   46.4980   -5.3450 C   0  0  0  0  0
  -38.3650   46.3720   -6.5640 C   0  0  0  0  0
  -41.3760   47.0710   -4.6700 C   0  0  0  0  0
  -42.6650   46.2360   -4.5450 C   0  0  0  0  0
  -43.4290   45.8630   -5.8390 C   0  0  0  0  0
  -43.4170   44.9440   -2.6380 C   0  0  0  0  0
  -43.3110   43.7780   -1.6420 C   0  0  0  0  0
  -44.1290   43.9030   -0.3550 C   0  0  0  0  0
  -39.3480   47.1800   -6.1800 N   0  0  0  0  0
  -38.5240   45.1890   -5.9850 N   0  0  0  0  0
  -42.4300   45.0910   -3.6860 N   0  0  0  0  0
  -44.2970   42.5880    0.2330 N   0  3  0  0  0
  -44.0440   44.7660   -5.9130 O   0  0  0  0  0
  -43.5070   46.6520   -6.8230 O   0  0  0  0  0
  -44.3030   45.7440   -2.5990 O   0  0  0  0  0
  -40.0011   44.4094   -4.5948 H   0  0  0  0  0
  -37.5573   46.6387   -7.2457 H   0  0  0  0  0
  -41.6624   47.9076   -5.3072 H   0  0  0  0  0
  -41.0648   47.2349   -3.6383 H   0  0  0  0  0
  -43.3763   46.9238   -4.0877 H   0  0  0  0  0
  -42.2664   43.7389   -1.3331 H   0  0  0  0  0
  -43.6977   42.9012   -2.1615 H   0  0  0  0  0
  -45.1060   44.3294   -0.5825 H   0  0  0  0  0
  -43.6085   44.5540    0.3474 H   0  0  0  0  0
  -41.6450   44.4514   -3.8088 H   0  0  0  0  0
  -44.8421   42.6678    1.0914 H   0  0  0  0  0
  -44.7855   41.9820   -0.4262 H   0  0  0  0  0
  -43.3812   42.1925    0.4459 H   0  0  0  0  0
  -42.9970   47.4440   -6.6379 H   0  0  0  0  0
  2  1  4  0  0  0
  1 11  4  0  0  0
  4  2  1  0  0  0
  2 10  4  0  0  0
 10  3  4  0  0  0
  3 11  4  0  0  0
  5  4  1  0  0  0
  5  6  1  0  0  0
 12  5  1  0  0  0
  6 14  2  0  0  0
  6 15  1  0  0  0
  7  8  1  0  0  0
  7 12  1  0  0  0
  7 16  2  0  0  0
  8  9  1  0  0  0
  9 13  1  0  0  0
  1 17  1  0  0  0
  3 18  1  0  0  0
  4 19  1  0  0  0
  4 20  1  0  0  0
  5 21  1  0  0  0
  8 22  1  0  0  0
  8 23  1  0  0  0
  9 24  1  0  0  0
  9 25  1  0  0  0
 12 26  1  0  0  0
 13 27  1  0  0  0
 13 28  1  0  0  0
 13 29  1  0  0  0
 15 30  1  0  0  0
M  END
$$$$
