6gjn_ligand
  -I-interpret- 

 61 64  0  0  0  0  0  0  0  0999 V2000
    0.8560   17.2910   -6.0060 O   0  0  0  0  0
    0.0180   18.0120   -5.5560 C   0  0  0  0  0
   -0.3270   19.0650   -6.2520 N   0  0  0  0  0
   -1.2380   20.0660   -5.8130 C   0  0  0  0  0
   -2.4980   20.2780   -6.6380 C   0  0  0  0  0
   -3.2870   19.2030   -6.9640 C   0  0  0  0  0
   -4.4460   19.3800   -7.6660 C   0  0  0  0  0
   -4.8690   20.6220   -8.0360 C   0  0  0  0  0
   -6.0110   20.7540   -8.7070 N   0  0  0  0  0
   -4.0950   21.7190   -7.7350 C   0  0  0  0  0
   -2.9310   21.5340   -7.0150 C   0  0  0  0  0
    0.1780   19.3450   -7.5890 C   0  0  0  0  0
    1.6900   19.4340   -7.6000 C   0  0  0  0  0
    2.4760   18.7880   -8.4690 N   0  0  0  0  0
    3.8150   19.0690   -8.2590 N   0  0  0  0  0
    3.7610   19.9340   -7.2100 N   0  0  0  0  0
    4.9640   20.5280   -6.5960 C   0  0  0  0  0
    2.4650   20.1590   -6.7710 N   0  0  0  0  0
   -0.5040   17.7730   -4.4450 N   0  0  0  0  0
   -0.1900   16.5900   -3.6420 C   0  0  0  0  0
   -0.8040   15.4060   -4.3620 C   0  0  0  0  0
   -1.9100   15.5230   -4.8030 O   0  0  0  0  0
   -0.1380   14.2330   -4.4900 N   0  0  0  0  0
   -0.8010   13.0370   -4.9680 C   0  0  0  0  0
    0.2770   11.9720   -5.0200 C   0  0  0  0  0
    1.5910   12.7040   -5.0280 C   0  0  0  0  0
    1.2950   13.9650   -4.2650 C   0  0  0  0  0
    1.6050   13.7380   -2.8380 C   0  0  0  0  0
    2.8970   13.7640   -2.3990 C   0  0  0  0  0
    4.3240   14.0400   -3.5740 Br  0  0  0  0  0
    0.6070   13.4790   -1.9340 C   0  0  0  0  0
    0.9210   13.3040   -0.6020 C   0  0  0  0  0
    2.2290   13.3510   -0.1770 C   0  0  0  0  0
    3.2120   13.6060   -1.0800 C   0  0  0  0  0
   -0.6896   21.0064   -5.8674 H   0  0  0  0  0
   -1.5812   19.7404   -4.8310 H   0  0  0  0  0
   -2.9866   18.2001   -6.6605 H   0  0  0  0  0
   -5.0447   18.5100   -7.9357 H   0  0  0  0  0
   -6.5633   19.9290   -8.9410 H   0  0  0  0  0
   -6.3338   21.6801   -8.9871 H   0  0  0  0  0
   -4.3949   22.7156   -8.0588 H   0  0  0  0  0
   -2.3370   22.4044   -6.7363 H   0  0  0  0  0
   -0.2279   20.3011   -7.9196 H   0  0  0  0  0
   -0.1263   18.5344   -8.2512 H   0  0  0  0  0
    5.6041   19.7338   -6.2118 H   0  0  0  0  0
    5.5069   21.1032   -7.3460 H   0  0  0  0  0
    4.6666   21.1843   -5.7781 H   0  0  0  0  0
   -1.1851   18.4381   -4.0787 H   0  0  0  0  0
   -0.5922   16.6849   -2.6334 H   0  0  0  0  0
    0.8876   16.4657   -3.5349 H   0  0  0  0  0
   -1.2549   13.1950   -5.9463 H   0  0  0  0  0
   -1.6209   12.7447   -4.3120 H   0  0  0  0  0
    0.1698   11.3477   -5.9071 H   0  0  0  0  0
    0.2069   11.3002   -4.1645 H   0  0  0  0  0
    1.9530   12.9015   -6.0370 H   0  0  0  0  0
    2.3958   12.1227   -4.5781 H   0  0  0  0  0
    1.8902   14.8195   -4.5870 H   0  0  0  0  0
   -0.4290   13.4117   -2.2660 H   0  0  0  0  0
    0.1249   13.1267    0.1211 H   0  0  0  0  0
    2.4738   13.1855    0.8722 H   0  0  0  0  0
    4.2486   13.6841   -0.7523 H   0  0  0  0  0
  1  2  2  0  0  0
  2  3  1  0  0  0
  2 19  1  0  0  0
  3  4  1  0  0  0
  3 12  1  0  0  0
  4  5  1  0  0  0
  5  6  4  0  0  0
  5 11  4  0  0  0
  6  7  4  0  0  0
  7  8  4  0  0  0
  8  9  1  0  0  0
  8 10  4  0  0  0
 10 11  4  0  0  0
 12 13  1  0  0  0
 13 14  4  0  0  0
 13 18  4  0  0  0
 14 15  4  0  0  0
 15 16  4  0  0  0
 16 17  1  0  0  0
 16 18  4  0  0  0
 19 20  1  0  0  0
 20 21  1  0  0  0
 21 22  2  0  0  0
 21 23  1  0  0  0
 23 24  1  0  0  0
 23 27  1  0  0  0
 24 25  1  0  0  0
 25 26  1  0  0  0
 26 27  1  0  0  0
 27 28  1  0  0  0
 28 29  4  0  0  0
 28 31  4  0  0  0
 29 30  1  0  0  0
 29 34  4  0  0  0
 31 32  4  0  0  0
 32 33  4  0  0  0
 33 34  4  0  0  0
  4 35  1  0  0  0
  4 36  1  0  0  0
  6 37  1  0  0  0
  7 38  1  0  0  0
  9 39  1  0  0  0
  9 40  1  0  0  0
 10 41  1  0  0  0
 11 42  1  0  0  0
 12 43  1  0  0  0
 12 44  1  0  0  0
 17 45  1  0  0  0
 17 46  1  0  0  0
 17 47  1  0  0  0
 19 48  1  0  0  0
 20 49  1  0  0  0
 20 50  1  0  0  0
 24 51  1  0  0  0
 24 52  1  0  0  0
 25 53  1  0  0  0
 25 54  1  0  0  0
 26 55  1  0  0  0
 26 56  1  0  0  0
 27 57  1  0  0  0
 31 58  1  0  0  0
 32 59  1  0  0  0
 33 60  1  0  0  0
 34 61  1  0  0  0
M  END
$$$$
