5t28_ligand
  -I-interpret- 

 50 55  0  0  0  0  0  0  0  0999 V2000
   14.0970   -2.0150   18.9580 C   0  0  0  0  0
   13.1480   -1.8800   19.9440 C   0  0  0  0  0
   15.3110   -2.5930   19.2620 C   0  0  0  0  0
   15.5750   -3.0320   20.5420 C   0  0  0  0  0
   10.3790  -11.0440   22.7630 C   0  0  0  0  0
   11.0670   -8.2780   22.6950 C   0  0  0  0  0
    9.7560   -4.4130   26.0110 C   0  0  0  0  0
   14.6420   -2.9160   21.5570 C   0  0  0  0  0
    9.9570  -10.1630   23.7440 C   0  0  0  0  0
   10.2970   -8.8230   23.7000 C   0  0  0  0  0
   10.7940   -4.9270   25.2690 C   0  0  0  0  0
    9.7430   -6.9430   25.2570 C   0  0  0  0  0
    8.6920   -6.4130   25.9950 C   0  0  0  0  0
   15.9070   -4.4840   23.1840 C   0  0  0  0  0
   16.2210   -3.0880   23.6120 C   0  0  0  0  0
   14.9000   -3.3870   22.9480 C   0  0  0  0  0
   13.5450   -1.0280   24.7090 C   0  0  0  0  0
    8.7000   -5.1370   26.3890 N   0  0  0  0  0
   10.8050   -6.2080   24.8820 N   0  0  0  0  0
   12.8780   -4.4900   24.0050 N   0  0  0  0  0
    9.7110   -8.2880   24.8190 N   0  0  0  0  0
   11.1550  -10.5070   21.7580 C   0  0  0  0  0
   11.4870   -9.1720   21.7310 C   0  0  0  0  0
   13.4320   -2.3320   21.2160 C   0  0  0  0  0
   11.8830   -4.0700   24.8550 C   0  0  0  0  0
   13.6350   -3.4240   23.8480 C   0  0  0  0  0
    9.2000  -10.4090   24.8550 N   0  0  0  0  0
   11.9880   -2.7870   25.2270 N   0  0  0  0  0
    9.0690   -9.2560   25.4950 N   0  0  0  0  0
   13.0990   -2.4030   24.5840 N   0  0  0  0  0
    7.5790   -7.1590   26.3700 N   0  0  0  0  0
   13.8912   -1.6682   17.9454 H   0  0  0  0  0
   12.1839   -1.4218   19.7233 H   0  0  0  0  0
   16.0674   -2.7037   18.4850 H   0  0  0  0  0
   16.5436   -3.4820   20.7599 H   0  0  0  0  0
   10.1131  -12.1009   22.7840 H   0  0  0  0  0
   11.3251   -7.2195   22.6639 H   0  0  0  0  0
    9.7977   -3.3641   26.3045 H   0  0  0  0  0
   15.9327   -5.4899   23.6031 H   0  0  0  0  0
   16.3801   -5.2900   22.6231 H   0  0  0  0  0
   17.0364   -2.3707   23.5185 H   0  0  0  0  0
   16.5893   -2.5704   24.4977 H   0  0  0  0  0
   14.5584   -1.0111   25.1102 H   0  0  0  0  0
   13.5332   -0.5530   23.7280 H   0  0  0  0  0
   12.8773   -0.4906   25.3824 H   0  0  0  0  0
   11.5158  -11.1585   20.9621 H   0  0  0  0  0
   12.1079   -8.8050   20.9138 H   0  0  0  0  0
   12.6702   -2.2250   21.9882 H   0  0  0  0  0
    7.5095   -8.1409   26.1026 H   0  0  0  0  0
    6.8326   -6.7240   26.9123 H   0  0  0  0  0
  2  1  4  0  0  0
  3  1  4  0  0  0
 24  2  4  0  0  0
  4  3  4  0  0  0
  8  4  4  0  0  0
  9  5  4  0  0  0
  5 22  4  0  0  0
 10  6  4  0  0  0
  6 23  4  0  0  0
 11  7  4  0  0  0
  7 18  4  0  0  0
 16  8  1  0  0  0
  8 24  4  0  0  0
 10  9  4  0  0  0
  9 27  4  0  0  0
 21 10  4  0  0  0
 11 19  4  0  0  0
 25 11  1  0  0  0
 12 13  4  0  0  0
 19 12  4  0  0  0
 12 21  1  0  0  0
 18 13  4  0  0  0
 13 31  1  0  0  0
 15 14  1  0  0  0
 16 14  1  0  0  0
 16 15  1  0  0  0
 26 16  1  0  0  0
 30 17  1  0  0  0
 20 25  4  0  0  0
 26 20  4  0  0  0
 21 29  4  0  0  0
 23 22  4  0  0  0
 25 28  4  0  0  0
 26 30  4  0  0  0
 27 29  4  0  0  0
 28 30  4  0  0  0
  1 32  1  0  0  0
  2 33  1  0  0  0
  3 34  1  0  0  0
  4 35  1  0  0  0
  5 36  1  0  0  0
  6 37  1  0  0  0
  7 38  1  0  0  0
 14 39  1  0  0  0
 14 40  1  0  0  0
 15 41  1  0  0  0
 15 42  1  0  0  0
 17 43  1  0  0  0
 17 44  1  0  0  0
 17 45  1  0  0  0
 22 46  1  0  0  0
 23 47  1  0  0  0
 24 48  1  0  0  0
 31 49  1  0  0  0
 31 50  1  0  0  0
M  END
$$$$
