3s2v_ligand
  -I-interpret- 

 40 42  0  0  0  0  0  0  0  0999 V2000
   42.3890   59.2540    8.0070 C   0  0  0  0  0
   42.0550   57.1190    6.8080 N   0  3  0  0  0
   41.2530   59.0160    8.4520 O   0  0  0  0  0
   42.9780   58.2580    6.9990 C   0  0  0  0  0
   43.2260   58.9220    5.6380 C   0  0  0  0  0
   49.2140   54.5490    5.6060 O   0  0  0  0  0
   45.6840   55.3510    2.2250 O   0  0  0  0  0
   45.7480   57.9680    5.9500 O   0  0  0  0  0
   51.1850   55.4950    5.8470 O   0  0  0  0  0
   49.3650   58.9680    3.5080 C   0  0  0  0  0
   48.2230   58.2580    3.5250 C   0  0  0  0  0
   43.0890   56.1230    1.6610 C   0  0  0  0  0
   41.9130   57.7600    3.1870 C   0  0  0  0  0
   47.1520   56.1000    4.3000 C   0  0  0  0  0
   41.6040   56.8810    1.7860 S   0  0  0  0  0
   50.5260   58.0440    4.3270 S   0  0  0  0  0
   50.0100   55.4980    5.4290 C   0  0  0  0  0
   48.2940   57.0670    4.1570 C   0  0  0  0  0
   49.5520   56.7730    4.6840 C   0  0  0  0  0
   45.1180   56.1440    2.9750 C   0  0  0  0  0
   45.1640   57.5290    4.9580 C   0  0  0  0  0
   43.8180   56.5420    2.6980 C   0  0  0  0  0
   43.1630   57.4660    3.5650 C   0  0  0  0  0
   45.7970   56.6320    4.0790 N   0  0  0  0  0
   43.8560   57.9590    4.6880 N   0  0  0  0  0
   43.1330   60.1830    8.3970 O   0  0  0  0  0
   41.8820   56.6687    7.7067 H   0  0  0  0  0
   41.1742   57.4579    6.4210 H   0  0  0  0  0
   42.4742   56.4474    6.1649 H   0  0  0  0  0
   43.9284   57.9085    7.4024 H   0  0  0  0  0
   43.8968   59.7699    5.7767 H   0  0  0  0  0
   42.2712   59.2492    5.2265 H   0  0  0  0  0
   48.3690   54.7622    5.2033 H   0  0  0  0  0
   49.5149   59.9481    3.0551 H   0  0  0  0  0
   47.3048   58.6186    3.0613 H   0  0  0  0  0
   43.4008   55.4239    0.8850 H   0  0  0  0  0
   41.2259   58.4397    3.6910 H   0  0  0  0  0
   47.1748   55.7624    5.3362 H   0  0  0  0  0
   47.3043   55.3425    3.5311 H   0  0  0  0  0
   43.9560   60.1611    7.9033 H   0  0  0  0  0
  1  3  2  0  0  0
  4  1  1  0  0  0
  1 26  1  0  0  0
  4  2  1  0  0  0
  5  4  1  0  0  0
 25  5  1  0  0  0
 17  6  1  0  0  0
 20  7  2  0  0  0
 21  8  2  0  0  0
 17  9  2  0  0  0
 11 10  4  0  0  0
 16 10  4  0  0  0
 18 11  4  0  0  0
 12 15  4  0  0  0
 22 12  4  0  0  0
 15 13  4  0  0  0
 13 23  4  0  0  0
 14 18  1  0  0  0
 24 14  1  0  0  0
 19 16  4  0  0  0
 19 17  1  0  0  0
 18 19  4  0  0  0
 20 22  1  0  0  0
 24 20  1  0  0  0
 21 24  1  0  0  0
 21 25  1  0  0  0
 22 23  4  0  0  0
 23 25  1  0  0  0
  2 27  1  0  0  0
  2 28  1  0  0  0
  2 29  1  0  0  0
  4 30  1  0  0  0
  5 31  1  0  0  0
  5 32  1  0  0  0
  6 33  1  0  0  0
 10 34  1  0  0  0
 11 35  1  0  0  0
 12 36  1  0  0  0
 13 37  1  0  0  0
 14 38  1  0  0  0
 14 39  1  0  0  0
 26 40  1  0  0  0
M  END
$$$$
