3eb1_ligand
  -I-interpret- 

 52 54  0  0  0  0  0  0  0  0999 V2000
   45.7950   12.1820    2.5370 C   0  0  0  0  0
   45.9480   14.6770    2.4470 C   0  0  0  0  0
   47.5190   15.6020    4.2050 C   0  0  0  0  0
   48.3580   16.5460    4.6460 C   0  0  0  0  0
   49.3320   10.5080   -1.7620 C   0  0  0  0  0
   45.6650   10.4560   -3.5510 C   0  0  0  0  0
   47.0600   11.8680   -1.7400 N   0  0  0  0  0
   47.9190   17.9470    4.6180 O   0  0  0  0  0
   45.9150   10.8880    1.9000 C   0  0  0  0  0
   50.0300   10.3850   -0.4630 C   0  0  0  0  0
   45.3730   10.4520   -5.0080 C   0  0  0  0  0
   44.7160   14.9850    2.8530 O   0  0  0  0  0
   47.2810   14.6120    4.8970 O   0  0  0  0  0
   49.4750   16.2240    5.0680 O   0  0  0  0  0
   46.3250   10.7710    0.5060 C   0  0  0  0  0
   50.7470    9.1410   -0.1130 C   0  0  0  0  0
   45.0670    9.1890   -5.7110 C   0  0  0  0  0
   46.6270   11.9700   -0.2760 C   0  0  0  0  0
   50.7810    8.0080   -1.0460 C   0  0  0  0  0
   45.0480    7.9240   -4.9730 C   0  0  0  0  0
   46.5010   13.2990    0.3830 C   0  0  0  0  0
   50.0990    8.1100   -2.3370 C   0  0  0  0  0
   45.3350    7.9210   -3.5350 C   0  0  0  0  0
   46.0780   13.4110    1.8110 C   0  0  0  0  0
   49.3750    9.3550   -2.6990 C   0  0  0  0  0
   45.6420    9.1770   -2.8200 C   0  0  0  0  0
   46.8660   15.8140    2.7950 C   0  0  0  0  0
   48.5580   11.8510   -2.1390 C   0  0  0  0  0
   45.9870   11.8400   -2.8210 C   0  0  0  0  0
   45.4866   12.2371    3.5810 H   0  0  0  0  0
   46.8834   14.2630    2.0706 H   0  0  0  0  0
   47.0297   17.9954    4.2596 H   0  0  0  0  0
   45.6953    9.9864    2.4718 H   0  0  0  0  0
   50.0152   11.2175    0.2404 H   0  0  0  0  0
   45.3847   11.3898   -5.5634 H   0  0  0  0  0
   44.7240   15.8508    3.2677 H   0  0  0  0  0
   46.4068    9.7868    0.0447 H   0  0  0  0  0
   51.2559    9.0639    0.8478 H   0  0  0  0  0
   44.8551    9.1987   -6.7802 H   0  0  0  0  0
   51.3120    7.0945   -0.7783 H   0  0  0  0  0
   44.8220    6.9910   -5.4893 H   0  0  0  0  0
   46.7206   14.2032   -0.1848 H   0  0  0  0  0
   50.1225    7.2716   -3.0332 H   0  0  0  0  0
   45.3217    6.9794   -2.9861 H   0  0  0  0  0
   48.8696    9.4240   -3.6623 H   0  0  0  0  0
   45.8517    9.1573   -1.7505 H   0  0  0  0  0
   46.2861   16.7367    2.8146 H   0  0  0  0  0
   47.6581   15.8636    2.0479 H   0  0  0  0  0
   48.5988   11.9472   -3.2240 H   0  0  0  0  0
   49.0416   12.6605   -1.5921 H   0  0  0  0  0
   45.0635   12.1106   -2.3091 H   0  0  0  0  0
   46.3624   12.4937   -3.6083 H   0  0  0  0  0
  9  1  4  0  0  0
  1 24  4  0  0  0
  2 12  1  0  0  0
 24  2  1  0  0  0
  2 27  1  0  0  0
  3  4  1  0  0  0
  3 13  2  0  0  0
 27  3  1  0  0  0
  4  8  1  0  0  0
  4 14  2  0  0  0
  5 10  4  0  0  0
  5 25  4  0  0  0
 28  5  1  0  0  0
  6 11  4  0  0  0
  6 26  4  0  0  0
 29  6  1  0  0  0
 18  7  1  0  0  0
  7 28  1  0  0  0
  7 29  1  0  0  0
 15  9  4  0  0  0
 10 16  4  0  0  0
 11 17  4  0  0  0
 15 18  4  0  0  0
 16 19  4  0  0  0
 17 20  4  0  0  0
 18 21  4  0  0  0
 19 22  4  0  0  0
 20 23  4  0  0  0
 21 24  4  0  0  0
 22 25  4  0  0  0
 23 26  4  0  0  0
  1 30  1  0  0  0
  2 31  1  0  0  0
  8 32  1  0  0  0
  9 33  1  0  0  0
 10 34  1  0  0  0
 11 35  1  0  0  0
 12 36  1  0  0  0
 15 37  1  0  0  0
 16 38  1  0  0  0
 17 39  1  0  0  0
 19 40  1  0  0  0
 20 41  1  0  0  0
 21 42  1  0  0  0
 22 43  1  0  0  0
 23 44  1  0  0  0
 25 45  1  0  0  0
 26 46  1  0  0  0
 27 47  1  0  0  0
 27 48  1  0  0  0
 28 49  1  0  0  0
 28 50  1  0  0  0
 29 51  1  0  0  0
 29 52  1  0  0  0
M  END
$$$$
