### 
### Created by X-TOOL on Mon Sep 10 21:13:33 2018
### 

@<TRIPOS>MOLECULE
5w6r_ligand
  218   224     1     0     0
SMALL
GAST_HUCK


@<TRIPOS>ATOM
      1 C          19.5870  -12.4150   56.4980 C.2       1 ACE         0.1751
      2 O          20.5860  -13.1140   56.3390 O.2       1 ACE        -0.3972
      3 CH3        18.2340  -12.8310   55.9180 C.3       1 ACE         0.0258
      4 C          20.6920  -10.8930   59.3230 C.2       1 PH8         0.2039
      5 N          19.5810  -11.2590   57.1760 N.am      1 PH8        -0.2658
      6 O          19.6290  -11.2190   59.8500 O.2       1 PH8        -0.3944
      7 CA         20.7930  -10.7120   57.8050 C.3       1 PH8         0.1310
      8 CB         20.9270   -9.2250   57.4620 C.3       1 PH8        -0.0106
      9 CG         20.3160   -6.2520   57.5860 C.ar      1 PH8        -0.0430
     10 CI         19.5690   -8.5330   57.6100 C.3       1 PH8        -0.0390
     11 CJ         19.7340   -7.2270   58.3920 C.3       1 PH8        -0.0189
     12 CZ         21.4810   -4.3000   55.9790 C.ar      1 PH8        -0.0687
     13 CD1        21.4400   -5.5640   58.0290 C.ar      1 PH8        -0.0603
     14 CD2        19.7740   -5.9600   56.3390 C.ar      1 PH8        -0.0603
     15 CE1        22.0230   -4.5900   57.2260 C.ar      1 PH8        -0.0686
     16 CE2        20.3560   -4.9850   55.5370 C.ar      1 PH8        -0.0686
     17 N          21.8310  -10.6790   60.0010 N.am      1 ORN        -0.2637
     18 CA         21.9000  -10.8110   61.4650 C.3       1 ORN         0.1312
     19 CB         23.0840  -11.6920   61.8690 C.3       1 ORN        -0.0076
     20 CG         22.9200  -13.1100   61.3460 C.3       1 ORN        -0.0070
     21 CD         21.8750  -13.8510   62.1640 C.3       1 ORN         0.0069
     22 NE         22.3910  -14.3020   63.4840 N.4       1 ORN         0.4478
     23 C          22.0810   -9.5600   62.0420 C.2       1 ORN         0.2039
     24 O          22.7350   -8.6870   61.4720 O.2       1 ORN        -0.3944
     25 N          21.5090   -9.3000   63.2910 N.am      1 LEU        -0.2637
     26 CA         21.7070   -8.0010   63.9660 C.3       1 LEU         0.1312
     27 C          22.6770   -8.2090   64.9410 C.2       1 LEU         0.2039
     28 O          22.3530   -8.5400   66.0810 O.2       1 LEU        -0.3944
     29 CB         20.4130   -7.5390   64.6350 C.3       1 LEU        -0.0101
     30 CG         19.7580   -6.4020   63.8440 C.3       1 LEU        -0.0425
     31 CD1        19.6960   -6.7460   62.3550 C.3       1 LEU        -0.0625
     32 CD2        18.3360   -6.2050   64.3650 C.3       1 LEU        -0.0625
     33 N          24.0380   -8.0770   64.6360 N.am      1 GLU        -0.2636
     34 CA         25.0310   -8.3470   65.7060 C.3       1 GLU         0.1325
     35 C          25.2930   -7.1920   66.4320 C.2       1 GLU         0.2041
     36 O          26.2660   -6.4870   66.1710 O.2       1 GLU        -0.3944
     37 CB         26.3370   -8.8980   65.1270 C.3       1 GLU        -0.0008
     38 CG         26.1450   -9.2150   63.6410 C.3       1 GLU         0.0044
     39 CD         26.4630  -10.6890   63.3780 C.2       1 GLU         0.0350
     40 OE1        27.2180  -10.9420   62.4140 O.co2     1 GLU        -0.5690
     41 OE2        25.9420  -11.5300   64.1440 O.co2     1 GLU        -0.5690
     42 N          24.4170   -6.8270   67.4600 N.am      1 TYR        -0.2621
     43 CA         24.6420   -5.6030   68.2600 C.3       1 TYR         0.1390
     44 C          25.2830   -5.9540   69.4440 C.2       1 TYR         0.2059
     45 O          25.9910   -5.1460   70.0410 O.2       1 TYR        -0.3942
     46 CB         23.3120   -4.9030   68.5540 C.3       1 TYR         0.0163
     47 CG         22.7730   -4.3940   67.3700 C.ar      1 TYR        -0.0493
     48 CD1        23.6070   -3.9430   66.3510 C.ar      1 TYR        -0.0685
     49 CD2        21.3930   -4.3330   67.2040 C.ar      1 TYR        -0.0685
     50 CE1        23.0680   -3.4370   65.1730 C.ar      1 TYR        -0.0398
     51 CE2        20.8520   -3.8260   66.0260 C.ar      1 TYR        -0.0398
     52 CZ         21.6890   -3.3780   65.0090 C.ar      1 TYR         0.0805
     53 OH         21.1620   -2.8820   63.8560 O.3       1 TYR        -0.3376
     54 N          25.1390   -7.2580   69.9340 N.am      1 PHE        -0.2618
     55 CA         25.7930   -7.7120   71.1840 C.3       1 PHE         0.1404
     56 C          26.3840   -8.9520   70.9260 C.2       1 PHE         0.2060
     57 O          25.9380   -9.6820   70.0430 O.2       1 PHE        -0.3942
     58 CB         24.7840   -7.7720   72.3370 C.3       1 PHE         0.0214
     59 CG         24.1530   -6.5320   72.4460 C.ar      1 PHE        -0.0386
     60 CD1        24.8540   -5.4300   72.9240 C.ar      1 PHE        -0.0601
     61 CD2        22.8220   -6.3890   72.0690 C.ar      1 PHE        -0.0601
     62 CE1        24.2290   -4.1920   73.0270 C.ar      1 PHE        -0.0686
     63 CE2        22.1970   -5.1510   72.1730 C.ar      1 PHE        -0.0686
     64 CZ         22.8980   -4.0510   72.6520 C.ar      1 PHE        -0.0687
     65 N          27.5130   -9.3630   71.6530 N.am      1 GLU        -0.2635
     66 CA         28.2350  -10.6340   71.3560 C.3       1 GLU         0.1325
     67 C          27.6530  -11.8000   71.8500 C.2       1 GLU         0.2041
     68 O          27.8470  -12.8690   71.2740 O.2       1 GLU        -0.3944
     69 CB         29.6670  -10.5580   71.9020 C.3       1 GLU        -0.0008
     70 CG         30.6070  -10.0120   70.8250 C.3       1 GLU         0.0044
     71 CD         31.2250  -11.1710   70.0330 C.2       1 GLU         0.0350
     72 OE1        32.3680  -10.9860   69.5610 O.co2     1 GLU        -0.5690
     73 OE2        30.5460  -12.2150   69.9130 O.co2     1 GLU        -0.5690
     74 N          26.8630  -11.7910   72.9990 N.am      1 TRP        -0.2627
     75 CA         26.3030  -13.0630   73.5230 C.3       1 TRP         0.1352
     76 C          25.2340  -13.5320   72.7570 C.2       1 TRP         0.2052
     77 O          24.9590  -14.7310   72.7810 O.2       1 TRP        -0.3942
     78 CB         25.8980  -12.9110   74.9950 C.3       1 TRP         0.0042
     79 CG         25.1810  -11.5810   75.2110 C.2       1 TRP        -0.0418
     80 CD1        25.7820  -10.4230   75.4550 C.2       1 TRP         0.0167
     81 CD2        23.8650  -11.4210   75.1910 C.ar      1 TRP        -0.0214
     82 NE1        24.8160   -9.5180   75.5830 N.pl3     1 TRP        -0.2890
     83 CE2        23.6380  -10.1260   75.4230 C.ar      1 TRP         0.0603
     84 CE3        22.8670  -12.2810   74.9910 C.ar      1 TRP        -0.0747
     85 CZ2        22.3960   -9.6500   75.4630 C.ar      1 TRP        -0.0443
     86 CZ3        21.5510  -11.8410   75.0210 C.ar      1 TRP        -0.0792
     87 CH2        21.3130  -10.4960   75.2620 C.ar      1 TRP        -0.0768
     88 N          24.4860  -12.6380   71.9640 N.am      1 LEU        -0.2636
     89 CA         23.3330  -13.0210   71.0920 C.3       1 LEU         0.1312
     90 C          23.5330  -14.2130   70.3960 C.2       1 LEU         0.2040
     91 O          24.6500  -14.5220   69.9800 O.2       1 LEU        -0.3944
     92 CB         23.0770  -11.9450   70.0310 C.3       1 LEU        -0.0101
     93 CG         22.8000  -10.5860   70.6760 C.3       1 LEU        -0.0425
     94 CD1        22.6530   -9.5320   69.5770 C.3       1 LEU        -0.0625
     95 CD2        21.5010  -10.6550   71.4800 C.3       1 LEU        -0.0625
     96 N          22.4490  -15.0650   70.1320 N.am      1 SER        -0.2616
     97 CA         22.7030  -16.2950   69.3510 C.3       1 SER         0.1538
     98 C          22.4740  -15.9840   68.0180 C.2       1 SER         0.2040
     99 O          22.3820  -14.8100   67.6660 O.2       1 SER        -0.3945
    100 CB         21.7800  -17.4420   69.7670 C.3       1 SER         0.0843
    101 OG         20.4160  -17.0280   69.6330 O.3       1 SER        -0.3903
    102 NDV        22.3630  -16.9850   67.0460 N.am      1 9WV        -0.2824
    103 CB         22.0970  -16.5740   65.6450 C.3       1 9WV         0.0650
    104 CA         23.3240  -16.0360   64.8930 C.3       1 9WV         0.1677
    105 N          23.9180  -14.9000   65.6220 N.am      1 9WV        -0.2712
    106 CEG        25.1950  -14.8770   66.0460 C.2       1 9WV         0.1817
    107 OEK        25.6950  -13.9340   66.6590 O.2       1 9WV        -0.3969
    108 CEH        26.0350  -16.1140   65.7150 C.3       1 9WV         0.0771
    109 CEI        27.5060  -15.8240   66.0370 C.3       1 9WV        -0.0184
    110 NEJ        28.3900  -16.2330   64.9350 N.4       1 9WV         0.2202
    111 C          22.8800  -15.6110   63.6450 C.3       1 9WV         0.3001
    112 O          22.8760  -16.3820   62.6860 O.3       1 9WV        -0.3202
    113 OXT        22.4840  -14.4570   63.4810 O.3       1 9WV        -0.2310
    114 H1         17.4778  -12.0735   56.1717 H         1 ACE         0.0467
    115 H2         17.9366  -13.8019   56.3410 H         1 ACE         0.0467
    116 H3         18.3146  -12.9167   54.8243 H         1 ACE         0.0467
    117 H4         18.7234  -10.7510   57.2571 H         1 PH8         0.1882
    118 H5         21.6755  -11.2515   57.4307 H         1 PH8         0.0800
    119 H6         21.2791   -9.1198   56.4252 H         1 PH8         0.0314
    120 H7         21.6515   -8.7568   58.1446 H         1 PH8         0.0314
    121 H8         18.8779   -9.1969   58.1500 H         1 PH8         0.0289
    122 H9         19.1612   -8.3121   56.6126 H         1 PH8         0.0289
    123 H10        18.7465   -6.8780   58.7282 H         1 PH8         0.0426
    124 H11        20.3768   -7.4063   59.2664 H         1 PH8         0.0426
    125 H12        21.9353   -3.5408   55.3527 H         1 PH8         0.0559
    126 H13        21.8625   -5.7873   59.0020 H         1 PH8         0.0557
    127 H14        18.8965   -6.4934   55.9919 H         1 PH8         0.0557
    128 H15        22.9007   -4.0564   57.5725 H         1 PH8         0.0599
    129 H16        19.9315   -4.7589   54.5655 H         1 PH8         0.0599
    130 H17        22.6557  -10.4227   59.4969 H         1 ORN         0.1883
    131 H18        20.9648  -11.2582   61.8330 H         1 ORN         0.0800
    132 H19        23.1517  -11.7204   62.9665 H         1 ORN         0.0314
    133 H20        24.0083  -11.2621   61.4556 H         1 ORN         0.0314
    134 H21        23.8818  -13.6386   61.4200 H         1 ORN         0.0319
    135 H22        22.6008  -13.0751   60.2939 H         1 ORN         0.0319
    136 H23        21.5442  -14.7329   61.5959 H         1 ORN         0.0827
    137 H24        21.0192  -13.1805   62.3315 H         1 ORN         0.0827
    138 H25        22.3282  -13.5942   64.1990 H         1 ORN         0.2461
    139 H26        20.9564  -10.0054   63.7350 H         1 LEU         0.1883
    140 H27        22.0421   -7.2428   63.2429 H         1 LEU         0.0800
    141 H28        20.6406   -7.1848   65.6512 H         1 LEU         0.0315
    142 H29        19.7145   -8.3870   64.6901 H         1 LEU         0.0315
    143 H30        20.3378   -5.4774   63.9820 H         1 LEU         0.0298
    144 H31        19.2231   -5.9179   61.8068 H         1 LEU         0.0232
    145 H32        19.1051   -7.6632   62.2148 H         1 LEU         0.0232
    146 H33        20.7151   -6.9043   61.9725 H         1 LEU         0.0232
    147 H34        18.3691   -5.9569   65.4362 H         1 LEU         0.0232
    148 H35        17.7610   -7.1316   64.2208 H         1 LEU         0.0232
    149 H36        17.8537   -5.3846   63.8134 H         1 LEU         0.0232
    150 H37        24.3335   -7.8074   63.7195 H         1 GLU         0.1883
    151 H38        24.6074   -9.1002   66.3867 H         1 GLU         0.0801
    152 H39        26.6174   -9.8161   65.6641 H         1 GLU         0.0330
    153 H40        27.1337   -8.1483   65.2417 H         1 GLU         0.0330
    154 H41        26.8193   -8.5841   63.0433 H         1 GLU         0.0433
    155 H42        25.1025   -9.0102   63.3560 H         1 GLU         0.0433
    156 H43        23.6244   -7.4039   67.6576 H         1 TYR         0.1885
    157 H44        25.2858   -4.9149   67.6925 H         1 TYR         0.0821
    158 H45        23.4820   -4.0784   69.2618 H         1 TYR         0.0453
    159 H46        22.6088   -5.6252   68.9944 H         1 TYR         0.0453
    160 H47        24.6829   -3.9864   66.4763 H         1 TYR         0.0530
    161 H48        20.7375   -4.6812   67.9940 H         1 TYR         0.0530
    162 H49        23.7233   -3.0887   64.3828 H         1 TYR         0.0525
    163 H50        19.7762   -3.7801   65.9007 H         1 TYR         0.0525
    164 H51        20.6210   -2.1270   64.0555 H         1 TYR         0.2458
    165 H52        24.5748   -7.9059   69.4222 H         1 PHE         0.1885
    166 H53        26.5814   -6.9953   71.4573 H         1 PHE         0.0823
    167 H54        25.3083   -8.0040   73.2757 H         1 PHE         0.0474
    168 H55        24.0351   -8.5514   72.1330 H         1 PHE         0.0474
    169 H56        25.8920   -5.5366   73.2175 H         1 PHE         0.0557
    170 H57        22.2710   -7.2437   71.6936 H         1 PHE         0.0557
    171 H58        24.7802   -3.3364   73.4000 H         1 PHE         0.0599
    172 H59        21.1591   -5.0438   71.8793 H         1 PHE         0.0599
    173 H60        22.4089   -3.0870   72.7329 H         1 PHE         0.0559
    174 H61        27.8449   -8.7826   72.3967 H         1 GLU         0.1883
    175 H62        28.2810  -10.7287   70.2611 H         1 GLU         0.0801
    176 H63        29.9980  -11.5641   72.1989 H         1 GLU         0.0330
    177 H64        29.6888   -9.8917   72.7769 H         1 GLU         0.0330
    178 H65        31.4082   -9.4286   71.3022 H         1 GLU         0.0433
    179 H66        30.0397   -9.3644   70.1403 H         1 GLU         0.0433
    180 H67        26.6737  -10.9292   73.4696 H         1 TRP         0.1884
    181 H68        27.1001  -13.8193   73.4716 H         1 TRP         0.0815
    182 H69        26.7992  -12.9442   75.6249 H         1 TRP         0.0397
    183 H70        25.2253  -13.7356   75.2736 H         1 TRP         0.0397
    184 H71        26.8540  -10.2485   75.5346 H         1 TRP         0.0795
    185 H72        24.9536   -8.5152   75.7738 H         1 TRP         0.2216
    186 H73        23.0834  -13.3267   74.8044 H         1 TRP         0.0540
    187 H74        22.2286   -8.5961   75.6535 H         1 TRP         0.0541
    188 H75        20.7304  -12.5307   74.8602 H         1 TRP         0.0510
    189 H76        20.2998  -10.1119   75.2929 H         1 TRP         0.0530
    190 H77        24.7467  -11.6728   71.9863 H         1 LEU         0.1883
    191 H78        22.4434  -13.1260   71.7304 H         1 LEU         0.0800
    192 H79        22.2070  -12.2384   69.4252 H         1 LEU         0.0315
    193 H80        23.9628  -11.8611   69.3842 H         1 LEU         0.0315
    194 H81        23.6330  -10.3156   71.3416 H         1 LEU         0.0298
    195 H82        22.4535   -8.5514   70.0338 H         1 LEU         0.0232
    196 H83        21.8173   -9.8054   68.9161 H         1 LEU         0.0232
    197 H84        23.5825   -9.4812   68.9910 H         1 LEU         0.0232
    198 H85        21.6000  -11.4115   72.2724 H         1 LEU         0.0232
    199 H86        20.6708  -10.9296   70.8126 H         1 LEU         0.0232
    200 H87        21.2978   -9.6736   71.9334 H         1 LEU         0.0232
    201 H88        21.5309  -14.8464   70.4627 H         1 SER         0.1884
    202 H89        23.7483  -16.6079   69.4905 H         1 SER         0.0823
    203 H90        21.9801  -17.7126   70.8143 H         1 SER         0.0606
    204 H91        21.9639  -18.3135   69.1215 H         1 SER         0.0606
    205 H92        19.8431  -17.7405   69.8914 H         1 SER         0.2097
    206 H93        22.4602  -17.9502   67.2888 H         1 9WV         0.1852
    207 H94        21.3299  -15.7858   65.6583 H         1 9WV         0.0547
    208 H95        21.7151  -17.4482   65.0975 H         1 9WV         0.0547
    209 H96        24.0748  -16.8317   64.7783 H         1 9WV         0.0695
    210 H97        23.3416  -14.1050   65.8112 H         1 9WV         0.1859
    211 H98        25.9324  -16.3535   64.6463 H         1 9WV         0.0556
    212 H99        25.6876  -16.9667   66.3168 H         1 9WV         0.0556
    213 H100       27.7886  -16.3761   66.9455 H         1 9WV         0.0839
    214 H101       27.6277  -14.7447   66.2110 H         1 9WV         0.0839
    215 H102       29.3467  -16.0291   65.1784 H         1 9WV         0.1996
    216 H103       28.1409  -15.7276   64.0992 H         1 9WV         0.1996
    217 H104       28.2883  -17.2226   64.7722 H         1 9WV         0.1996
    218 H105       23.4309  -16.0331   61.9983 H         1 9WV         0.2185
@<TRIPOS>BOND
     1    1    2 2  
     2    1    3 1  
     3    5    1 am 
     4    4    6 2  
     5    7    4 1  
     6    4   17 am 
     7    7    5 1  
     8    8    7 1  
     9   10    8 1  
    10    9   11 1  
    11   13    9 ar 
    12    9   14 ar 
    13   11   10 1  
    14   15   12 ar 
    15   12   16 ar 
    16   13   15 ar 
    17   14   16 ar 
    18   17   18 1  
    19   18   19 1  
    20   18   23 1  
    21   19   20 1  
    22   20   21 1  
    23   21   22 1  
    24   22  111 1  
    25   22  113 1  
    26   23   24 2  
    27   23   25 am 
    28   25   26 1  
    29   26   27 1  
    30   26   29 1  
    31   27   28 2  
    32   27   33 am 
    33   29   30 1  
    34   30   31 1  
    35   30   32 1  
    36   33   34 1  
    37   34   35 1  
    38   34   37 1  
    39   35   36 2  
    40   35   42 am 
    41   37   38 1  
    42   38   39 1  
    43   39   40 ar 
    44   39   41 ar 
    45   42   43 1  
    46   43   44 1  
    47   43   46 1  
    48   44   45 2  
    49   44   54 am 
    50   46   47 1  
    51   47   48 ar 
    52   47   49 ar 
    53   48   50 ar 
    54   49   51 ar 
    55   50   52 ar 
    56   51   52 ar 
    57   52   53 1  
    58   54   55 1  
    59   55   56 1  
    60   55   58 1  
    61   56   57 2  
    62   56   65 am 
    63   58   59 1  
    64   59   60 ar 
    65   59   61 ar 
    66   60   62 ar 
    67   61   63 ar 
    68   62   64 ar 
    69   63   64 ar 
    70   65   66 1  
    71   66   67 1  
    72   66   69 1  
    73   67   68 2  
    74   67   74 am 
    75   69   70 1  
    76   70   71 1  
    77   71   72 ar 
    78   71   73 ar 
    79   74   75 1  
    80   75   76 1  
    81   75   78 1  
    82   76   77 2  
    83   76   88 am 
    84   78   79 1  
    85   79   80 2  
    86   79   81 1  
    87   80   82 1  
    88   81   83 ar 
    89   81   84 ar 
    90   82   83 1  
    91   83   85 ar 
    92   84   86 ar 
    93   85   87 ar 
    94   86   87 ar 
    95   88   89 1  
    96   89   90 1  
    97   89   92 1  
    98   90   91 2  
    99   90   96 am 
   100   92   93 1  
   101   93   94 1  
   102   93   95 1  
   103   96   97 1  
   104   97   98 1  
   105   97  100 1  
   106   98   99 2  
   107   98  102 am 
   108  100  101 1  
   109  102  103 1  
   110  103  104 1  
   111  104  105 1  
   112  104  111 1  
   113  105  106 am 
   114  106  107 2  
   115  106  108 1  
   116  108  109 1  
   117  109  110 1  
   118  111  112 1  
   119  111  113 1  
   120    3  114 1  
   121    3  115 1  
   122    3  116 1  
   123    5  117 1  
   124    7  118 1  
   125    8  119 1  
   126    8  120 1  
   127   10  121 1  
   128   10  122 1  
   129   11  123 1  
   130   11  124 1  
   131   12  125 1  
   132   13  126 1  
   133   14  127 1  
   134   15  128 1  
   135   16  129 1  
   136   17  130 1  
   137   18  131 1  
   138   19  132 1  
   139   19  133 1  
   140   20  134 1  
   141   20  135 1  
   142   21  136 1  
   143   21  137 1  
   144   22  138 1  
   145   25  139 1  
   146   26  140 1  
   147   29  141 1  
   148   29  142 1  
   149   30  143 1  
   150   31  144 1  
   151   31  145 1  
   152   31  146 1  
   153   32  147 1  
   154   32  148 1  
   155   32  149 1  
   156   33  150 1  
   157   34  151 1  
   158   37  152 1  
   159   37  153 1  
   160   38  154 1  
   161   38  155 1  
   162   42  156 1  
   163   43  157 1  
   164   46  158 1  
   165   46  159 1  
   166   48  160 1  
   167   49  161 1  
   168   50  162 1  
   169   51  163 1  
   170   53  164 1  
   171   54  165 1  
   172   55  166 1  
   173   58  167 1  
   174   58  168 1  
   175   60  169 1  
   176   61  170 1  
   177   62  171 1  
   178   63  172 1  
   179   64  173 1  
   180   65  174 1  
   181   66  175 1  
   182   69  176 1  
   183   69  177 1  
   184   70  178 1  
   185   70  179 1  
   186   74  180 1  
   187   75  181 1  
   188   78  182 1  
   189   78  183 1  
   190   80  184 1  
   191   82  185 1  
   192   84  186 1  
   193   85  187 1  
   194   86  188 1  
   195   87  189 1  
   196   88  190 1  
   197   89  191 1  
   198   92  192 1  
   199   92  193 1  
   200   93  194 1  
   201   94  195 1  
   202   94  196 1  
   203   94  197 1  
   204   95  198 1  
   205   95  199 1  
   206   95  200 1  
   207   96  201 1  
   208   97  202 1  
   209  100  203 1  
   210  100  204 1  
   211  101  205 1  
   212  102  206 1  
   213  103  207 1  
   214  103  208 1  
   215  104  209 1  
   216  105  210 1  
   217  108  211 1  
   218  108  212 1  
   219  109  213 1  
   220  109  214 1  
   221  110  215 1  
   222  110  216 1  
   223  110  217 1  
   224  112  218 1  
@<TRIPOS>SUBSTRUCTURE
     1 ACE         1

