5w6r_ligand
  -I-interpret- 

219225  0  0  0  0  0  0  0  0999 V2000
   19.5870  -12.4150   56.4980 C   0  0  0  0  0
   20.5860  -13.1140   56.3390 O   0  0  0  0  0
   18.2340  -12.8310   55.9180 C   0  0  0  0  0
   20.6920  -10.8930   59.3230 C   0  0  0  0  0
   19.5810  -11.2590   57.1760 N   0  0  0  0  0
   19.6290  -11.2190   59.8500 O   0  0  0  0  0
   20.7930  -10.7120   57.8050 C   0  0  0  0  0
   20.9270   -9.2250   57.4620 C   0  0  0  0  0
   20.3160   -6.2520   57.5860 C   0  0  0  0  0
   19.5690   -8.5330   57.6100 C   0  0  0  0  0
   19.7340   -7.2270   58.3920 C   0  0  0  0  0
   21.4810   -4.3000   55.9790 C   0  0  0  0  0
   21.4400   -5.5640   58.0290 C   0  0  0  0  0
   19.7740   -5.9600   56.3390 C   0  0  0  0  0
   22.0230   -4.5900   57.2260 C   0  0  0  0  0
   20.3560   -4.9850   55.5370 C   0  0  0  0  0
   21.8310  -10.6790   60.0010 N   0  0  0  0  0
   21.9000  -10.8110   61.4650 C   0  0  0  0  0
   23.0840  -11.6920   61.8690 C   0  0  0  0  0
   22.9200  -13.1100   61.3460 C   0  0  0  0  0
   21.8750  -13.8510   62.1640 C   0  0  0  0  0
   22.3910  -14.3020   63.4840 N   0  3  0  0  0
   22.0810   -9.5600   62.0420 C   0  0  0  0  0
   22.7350   -8.6870   61.4720 O   0  0  0  0  0
   21.5090   -9.3000   63.2910 N   0  0  0  0  0
   21.7070   -8.0010   63.9660 C   0  0  0  0  0
   22.6770   -8.2090   64.9410 C   0  0  0  0  0
   22.3530   -8.5400   66.0810 O   0  0  0  0  0
   20.4130   -7.5390   64.6350 C   0  0  0  0  0
   19.7580   -6.4020   63.8440 C   0  0  0  0  0
   19.6960   -6.7460   62.3550 C   0  0  0  0  0
   18.3360   -6.2050   64.3650 C   0  0  0  0  0
   24.0380   -8.0770   64.6360 N   0  0  0  0  0
   25.0310   -8.3470   65.7060 C   0  0  0  0  0
   25.2930   -7.1920   66.4320 C   0  0  0  0  0
   26.2660   -6.4870   66.1710 O   0  0  0  0  0
   26.3370   -8.8980   65.1270 C   0  0  0  0  0
   26.1450   -9.2150   63.6410 C   0  0  0  0  0
   26.4630  -10.6890   63.3780 C   0  0  0  0  0
   27.2180  -10.9420   62.4140 O   0  0  0  0  0
   25.9420  -11.5300   64.1440 O   0  0  0  0  0
   24.4170   -6.8270   67.4600 N   0  0  0  0  0
   24.6420   -5.6030   68.2600 C   0  0  0  0  0
   25.2830   -5.9540   69.4440 C   0  0  0  0  0
   25.9910   -5.1460   70.0410 O   0  0  0  0  0
   23.3120   -4.9030   68.5540 C   0  0  0  0  0
   22.7730   -4.3940   67.3700 C   0  0  0  0  0
   23.6070   -3.9430   66.3510 C   0  0  0  0  0
   21.3930   -4.3330   67.2040 C   0  0  0  0  0
   23.0680   -3.4370   65.1730 C   0  0  0  0  0
   20.8520   -3.8260   66.0260 C   0  0  0  0  0
   21.6890   -3.3780   65.0090 C   0  0  0  0  0
   21.1620   -2.8820   63.8560 O   0  0  0  0  0
   25.1390   -7.2580   69.9340 N   0  0  0  0  0
   25.7930   -7.7120   71.1840 C   0  0  0  0  0
   26.3840   -8.9520   70.9260 C   0  0  0  0  0
   25.9380   -9.6820   70.0430 O   0  0  0  0  0
   24.7840   -7.7720   72.3370 C   0  0  0  0  0
   24.1530   -6.5320   72.4460 C   0  0  0  0  0
   24.8540   -5.4300   72.9240 C   0  0  0  0  0
   22.8220   -6.3890   72.0690 C   0  0  0  0  0
   24.2290   -4.1920   73.0270 C   0  0  0  0  0
   22.1970   -5.1510   72.1730 C   0  0  0  0  0
   22.8980   -4.0510   72.6520 C   0  0  0  0  0
   27.5130   -9.3630   71.6530 N   0  0  0  0  0
   28.2350  -10.6340   71.3560 C   0  0  0  0  0
   27.6530  -11.8000   71.8500 C   0  0  0  0  0
   27.8470  -12.8690   71.2740 O   0  0  0  0  0
   29.6670  -10.5580   71.9020 C   0  0  0  0  0
   30.6070  -10.0120   70.8250 C   0  0  0  0  0
   31.2250  -11.1710   70.0330 C   0  0  0  0  0
   32.3680  -10.9860   69.5610 O   0  0  0  0  0
   30.5460  -12.2150   69.9130 O   0  0  0  0  0
   26.8630  -11.7910   72.9990 N   0  0  0  0  0
   26.3030  -13.0630   73.5230 C   0  0  0  0  0
   25.2340  -13.5320   72.7570 C   0  0  0  0  0
   24.9590  -14.7310   72.7810 O   0  0  0  0  0
   25.8980  -12.9110   74.9950 C   0  0  0  0  0
   25.1810  -11.5810   75.2110 C   0  0  0  0  0
   25.7820  -10.4230   75.4550 C   0  0  0  0  0
   23.8650  -11.4210   75.1910 C   0  0  0  0  0
   24.8160   -9.5180   75.5830 N   0  0  0  0  0
   23.6380  -10.1260   75.4230 C   0  0  0  0  0
   22.8670  -12.2810   74.9910 C   0  0  0  0  0
   22.3960   -9.6500   75.4630 C   0  0  0  0  0
   21.5510  -11.8410   75.0210 C   0  0  0  0  0
   21.3130  -10.4960   75.2620 C   0  0  0  0  0
   24.4860  -12.6380   71.9640 N   0  0  0  0  0
   23.3330  -13.0210   71.0920 C   0  0  0  0  0
   23.5330  -14.2130   70.3960 C   0  0  0  0  0
   24.6500  -14.5220   69.9800 O   0  0  0  0  0
   23.0770  -11.9450   70.0310 C   0  0  0  0  0
   22.8000  -10.5860   70.6760 C   0  0  0  0  0
   22.6530   -9.5320   69.5770 C   0  0  0  0  0
   21.5010  -10.6550   71.4800 C   0  0  0  0  0
   22.4490  -15.0650   70.1320 N   0  0  0  0  0
   22.7030  -16.2950   69.3510 C   0  0  0  0  0
   22.4740  -15.9840   68.0180 C   0  0  0  0  0
   22.3820  -14.8100   67.6660 O   0  0  0  0  0
   21.7800  -17.4420   69.7670 C   0  0  0  0  0
   20.4160  -17.0280   69.6330 O   0  0  0  0  0
   22.3630  -16.9850   67.0460 N   0  0  0  0  0
   22.0970  -16.5740   65.6450 C   0  0  0  0  0
   23.3240  -16.0360   64.8930 C   0  0  0  0  0
   23.9180  -14.9000   65.6220 N   0  0  0  0  0
   25.1950  -14.8770   66.0460 C   0  0  0  0  0
   25.6950  -13.9340   66.6590 O   0  0  0  0  0
   26.0350  -16.1140   65.7150 C   0  0  0  0  0
   27.5060  -15.8240   66.0370 C   0  0  0  0  0
   28.3900  -16.2330   64.9350 N   0  3  0  0  0
   22.8800  -15.6110   63.6450 C   0  0  0  0  0
   22.8760  -16.3820   62.6860 O   0  0  0  0  0
   22.4840  -14.4570   63.4810 O   0  0  0  0  0
   18.3152  -12.9156   54.8343 H   0  0  0  0  0
   17.9405  -13.7931   56.3378 H   0  0  0  0  0
   17.4856  -12.0797   56.1700 H   0  0  0  0  0
   18.7063  -10.7409   57.2587 H   0  0  0  0  0
   21.6720  -11.2386   57.4333 H   0  0  0  0  0
   21.2731   -9.1225   56.4335 H   0  0  0  0  0
   21.6429   -8.7620   58.1411 H   0  0  0  0  0
   18.8863   -9.1909   58.1477 H   0  0  0  0  0
   19.1676   -8.3122   56.6209 H   0  0  0  0  0
   18.7532   -6.8807   58.7178 H   0  0  0  0  0
   20.3767   -7.4068   59.2538 H   0  0  0  0  0
   21.9379   -3.5366   55.3492 H   0  0  0  0  0
   21.8649   -5.7885   59.0074 H   0  0  0  0  0
   18.8916   -6.4964   55.9900 H   0  0  0  0  0
   22.9055   -4.0535   57.5744 H   0  0  0  0  0
   19.9292   -4.7577   54.5602 H   0  0  0  0  0
   22.6722  -10.4176   59.4868 H   0  0  0  0  0
   20.9684  -11.2612   61.8080 H   0  0  0  0  0
   23.1355  -11.7270   62.9572 H   0  0  0  0  0
   23.9935  -11.2679   61.4436 H   0  0  0  0  0
   23.8731  -13.6329   61.4253 H   0  0  0  0  0
   22.5987  -13.0724   60.3051 H   0  0  0  0  0
   21.5765  -14.7359   61.6019 H   0  0  0  0  0
   21.0459  -13.1670   62.3453 H   0  0  0  0  0
   22.0923  -13.4409   63.9419 H   0  0  0  0  0
   20.9454  -10.0195   63.7438 H   0  0  0  0  0
   22.0052   -7.2365   63.2486 H   0  0  0  0  0
   20.6480   -7.1771   65.6359 H   0  0  0  0  0
   19.7210   -8.3803   64.6740 H   0  0  0  0  0
   20.3476   -5.4939   63.9698 H   0  0  0  0  0
   20.7064   -6.9026   61.9772 H   0  0  0  0  0
   19.1103   -7.6549   62.2175 H   0  0  0  0  0
   19.2273   -5.9247   61.8129 H   0  0  0  0  0
   17.7700   -7.1267   64.2301 H   0  0  0  0  0
   18.3706   -5.9501   65.4242 H   0  0  0  0  0
   17.8561   -5.3981   63.8112 H   0  0  0  0  0
   24.3394   -7.8020   63.7012 H   0  0  0  0  0
   24.6024   -9.0986   66.3689 H   0  0  0  0  0
   26.6143   -9.8080   65.6591 H   0  0  0  0  0
   27.1261   -8.1546   65.2403 H   0  0  0  0  0
   26.8161   -8.5913   63.0505 H   0  0  0  0  0
   25.1108   -9.0147   63.3612 H   0  0  0  0  0
   25.4073  -11.0761   64.7995 H   0  0  0  0  0
   23.6086   -7.4154   67.6616 H   0  0  0  0  0
   25.2671   -4.9080   67.6993 H   0  0  0  0  0
   23.4825   -4.0845   69.2533 H   0  0  0  0  0
   22.6154   -5.6204   68.9878 H   0  0  0  0  0
   24.6888   -3.9866   66.4770 H   0  0  0  0  0
   20.7339   -4.6831   67.9984 H   0  0  0  0  0
   23.7269   -3.0867   64.3785 H   0  0  0  0  0
   19.7703   -3.7799   65.9000 H   0  0  0  0  0
   20.2037   -2.9117   63.9048 H   0  0  0  0  0
   24.5635   -7.9188   69.4120 H   0  0  0  0  0
   26.5625   -7.0068   71.4980 H   0  0  0  0  0
   25.2998   -8.0075   73.2679 H   0  0  0  0  0
   24.0438   -8.5476   72.1406 H   0  0  0  0  0
   25.8978   -5.5372   73.2192 H   0  0  0  0  0
   22.2679   -7.2484   71.6915 H   0  0  0  0  0
   24.7832   -3.3316   73.4021 H   0  0  0  0  0
   21.1533   -5.0432   71.8777 H   0  0  0  0  0
   22.4062   -3.0817   72.7333 H   0  0  0  0  0
   27.8515   -8.7710   72.4115 H   0  0  0  0  0
   28.1972  -10.7116   70.2694 H   0  0  0  0  0
   29.9944  -11.5563   72.1923 H   0  0  0  0  0
   29.6872   -9.8946   72.7667 H   0  0  0  0  0
   31.4022   -9.4376   71.3002 H   0  0  0  0  0
   30.0421   -9.3738   70.1455 H   0  0  0  0  0
   29.7068  -12.1034   70.3656 H   0  0  0  0  0
   26.6699  -10.9120   73.4791 H   0  0  0  0  0
   27.0919  -13.8119   73.4529 H   0  0  0  0  0
   26.7936  -12.9379   75.6156 H   0  0  0  0  0
   25.2267  -13.7259   75.2659 H   0  0  0  0  0
   26.8550  -10.2484   75.5347 H   0  0  0  0  0
   23.0846  -13.3324   74.8034 H   0  0  0  0  0
   22.2277   -8.5903   75.6546 H   0  0  0  0  0
   20.7258  -12.5346   74.8593 H   0  0  0  0  0
   20.2942  -10.1098   75.2931 H   0  0  0  0  0
   24.7519  -11.6535   71.9868 H   0  0  0  0  0
   22.4924  -13.1374   71.7761 H   0  0  0  0  0
   22.2054  -12.2355   69.4444 H   0  0  0  0  0
   23.9639  -11.8577   69.4034 H   0  0  0  0  0
   23.6244  -10.3222   71.3385 H   0  0  0  0  0
   23.5746   -9.4827   68.9971 H   0  0  0  0  0
   21.8247   -9.8041   68.9228 H   0  0  0  0  0
   22.4554   -8.5609   70.0308 H   0  0  0  0  0
   20.6773  -10.9159   70.8155 H   0  0  0  0  0
   21.5963  -11.4130   72.2575 H   0  0  0  0  0
   21.3068   -9.6852   71.9381 H   0  0  0  0  0
   21.5126  -14.8421   70.4693 H   0  0  0  0  0
   23.7261  -16.6280   69.5257 H   0  0  0  0  0
   21.9784  -17.7105   70.8046 H   0  0  0  0  0
   21.9624  -18.3058   69.1278 H   0  0  0  0  0
   19.8371  -17.7479   69.8941 H   0  0  0  0  0
   22.4622  -17.9695   67.2937 H   0  0  0  0  0
   21.3674  -15.7651   65.6836 H   0  0  0  0  0
   21.7607  -17.4627   65.1109 H   0  0  0  0  0
   24.0863  -16.8096   64.8006 H   0  0  0  0  0
   23.3301  -14.0891   65.8150 H   0  0  0  0  0
   25.9322  -16.3541   64.6567 H   0  0  0  0  0
   25.6901  -16.9605   66.3088 H   0  0  0  0  0
   27.7819  -16.3877   66.9282 H   0  0  0  0  0
   27.6205  -14.7511   66.1914 H   0  0  0  0  0
   29.3577  -16.0262   65.1824 H   0  0  0  0  0
   28.2862  -17.2344   64.7712 H   0  0  0  0  0
   28.1370  -15.7210   64.0899 H   0  0  0  0  0
   23.2384  -17.2289   62.9562 H   0  0  0  0  0
  1  2  2  0  0  0
  1  3  1  0  0  0
  5  1  1  0  0  0
  4  6  2  0  0  0
  7  4  1  0  0  0
  4 17  1  0  0  0
  7  5  1  0  0  0
  8  7  1  0  0  0
 10  8  1  0  0  0
  9 11  1  0  0  0
 13  9  4  0  0  0
  9 14  4  0  0  0
 11 10  1  0  0  0
 15 12  4  0  0  0
 12 16  4  0  0  0
 13 15  4  0  0  0
 14 16  4  0  0  0
 17 18  1  0  0  0
 18 19  1  0  0  0
 18 23  1  0  0  0
 19 20  1  0  0  0
 20 21  1  0  0  0
 21 22  1  0  0  0
 22111  1  0  0  0
 22113  1  0  0  0
 23 24  2  0  0  0
 23 25  1  0  0  0
 25 26  1  0  0  0
 26 27  1  0  0  0
 26 29  1  0  0  0
 27 28  2  0  0  0
 27 33  1  0  0  0
 29 30  1  0  0  0
 30 31  1  0  0  0
 30 32  1  0  0  0
 33 34  1  0  0  0
 34 35  1  0  0  0
 34 37  1  0  0  0
 35 36  2  0  0  0
 35 42  1  0  0  0
 37 38  1  0  0  0
 38 39  1  0  0  0
 39 40  2  0  0  0
 39 41  1  0  0  0
 42 43  1  0  0  0
 43 44  1  0  0  0
 43 46  1  0  0  0
 44 45  2  0  0  0
 44 54  1  0  0  0
 46 47  1  0  0  0
 47 48  4  0  0  0
 47 49  4  0  0  0
 48 50  4  0  0  0
 49 51  4  0  0  0
 50 52  4  0  0  0
 51 52  4  0  0  0
 52 53  1  0  0  0
 54 55  1  0  0  0
 55 56  1  0  0  0
 55 58  1  0  0  0
 56 57  2  0  0  0
 56 65  1  0  0  0
 58 59  1  0  0  0
 59 60  4  0  0  0
 59 61  4  0  0  0
 60 62  4  0  0  0
 61 63  4  0  0  0
 62 64  4  0  0  0
 63 64  4  0  0  0
 65 66  1  0  0  0
 66 67  1  0  0  0
 66 69  1  0  0  0
 67 68  2  0  0  0
 67 74  1  0  0  0
 69 70  1  0  0  0
 70 71  1  0  0  0
 71 72  2  0  0  0
 71 73  1  0  0  0
 74 75  1  0  0  0
 75 76  1  0  0  0
 75 78  1  0  0  0
 76 77  2  0  0  0
 76 88  1  0  0  0
 78 79  1  0  0  0
 79 80  4  0  0  0
 79 81  4  0  0  0
 80 82  4  0  0  0
 81 83  4  0  0  0
 81 84  4  0  0  0
 82 83  4  0  0  0
 83 85  4  0  0  0
 84 86  4  0  0  0
 85 87  4  0  0  0
 86 87  4  0  0  0
 88 89  1  0  0  0
 89 90  1  0  0  0
 89 92  1  0  0  0
 90 91  2  0  0  0
 90 96  1  0  0  0
 92 93  1  0  0  0
 93 94  1  0  0  0
 93 95  1  0  0  0
 96 97  1  0  0  0
 97 98  1  0  0  0
 97100  1  0  0  0
 98 99  2  0  0  0
 98102  1  0  0  0
100101  1  0  0  0
102103  1  0  0  0
103104  1  0  0  0
104105  1  0  0  0
104111  1  0  0  0
105106  1  0  0  0
106107  2  0  0  0
106108  1  0  0  0
108109  1  0  0  0
109110  1  0  0  0
111112  1  0  0  0
111113  1  0  0  0
  3114  1  0  0  0
  3115  1  0  0  0
  3116  1  0  0  0
  5117  1  0  0  0
  7118  1  0  0  0
  8119  1  0  0  0
  8120  1  0  0  0
 10121  1  0  0  0
 10122  1  0  0  0
 11123  1  0  0  0
 11124  1  0  0  0
 12125  1  0  0  0
 13126  1  0  0  0
 14127  1  0  0  0
 15128  1  0  0  0
 16129  1  0  0  0
 17130  1  0  0  0
 18131  1  0  0  0
 19132  1  0  0  0
 19133  1  0  0  0
 20134  1  0  0  0
 20135  1  0  0  0
 21136  1  0  0  0
 21137  1  0  0  0
 22138  1  0  0  0
 25139  1  0  0  0
 26140  1  0  0  0
 29141  1  0  0  0
 29142  1  0  0  0
 30143  1  0  0  0
 31144  1  0  0  0
 31145  1  0  0  0
 31146  1  0  0  0
 32147  1  0  0  0
 32148  1  0  0  0
 32149  1  0  0  0
 33150  1  0  0  0
 34151  1  0  0  0
 37152  1  0  0  0
 37153  1  0  0  0
 38154  1  0  0  0
 38155  1  0  0  0
 41156  1  0  0  0
 42157  1  0  0  0
 43158  1  0  0  0
 46159  1  0  0  0
 46160  1  0  0  0
 48161  1  0  0  0
 49162  1  0  0  0
 50163  1  0  0  0
 51164  1  0  0  0
 53165  1  0  0  0
 54166  1  0  0  0
 55167  1  0  0  0
 58168  1  0  0  0
 58169  1  0  0  0
 60170  1  0  0  0
 61171  1  0  0  0
 62172  1  0  0  0
 63173  1  0  0  0
 64174  1  0  0  0
 65175  1  0  0  0
 66176  1  0  0  0
 69177  1  0  0  0
 69178  1  0  0  0
 70179  1  0  0  0
 70180  1  0  0  0
 73181  1  0  0  0
 74182  1  0  0  0
 75183  1  0  0  0
 78184  1  0  0  0
 78185  1  0  0  0
 80186  1  0  0  0
 84187  1  0  0  0
 85188  1  0  0  0
 86189  1  0  0  0
 87190  1  0  0  0
 88191  1  0  0  0
 89192  1  0  0  0
 92193  1  0  0  0
 92194  1  0  0  0
 93195  1  0  0  0
 94196  1  0  0  0
 94197  1  0  0  0
 94198  1  0  0  0
 95199  1  0  0  0
 95200  1  0  0  0
 95201  1  0  0  0
 96202  1  0  0  0
 97203  1  0  0  0
100204  1  0  0  0
100205  1  0  0  0
101206  1  0  0  0
102207  1  0  0  0
103208  1  0  0  0
103209  1  0  0  0
104210  1  0  0  0
105211  1  0  0  0
108212  1  0  0  0
108213  1  0  0  0
109214  1  0  0  0
109215  1  0  0  0
110216  1  0  0  0
110217  1  0  0  0
110218  1  0  0  0
112219  1  0  0  0
M  END
$$$$
