### 
### Created by X-TOOL on Mon Sep 10 21:13:13 2018
### 

@<TRIPOS>MOLECULE
4gw1_ligand
  205   206     1     0     0
SMALL
GAST_HUCK


@<TRIPOS>ATOM
      1 N          15.2700    9.6650   30.6650 N.4       1 CYS         0.2385
      2 CA         16.0680    8.4770   30.3960 C.3       1 CYS         0.0749
      3 C          15.3250    7.5270   29.4650 C.2       1 CYS         0.2275
      4 O          15.2860    7.7390   28.2550 O.2       1 CYS        -0.3907
      5 CB         16.4240    7.7670   31.7030 C.3       1 CYS         0.0643
      6 SG         17.2890    8.8070   32.9060 S.3       1 CYS        -0.0848
      7 N          14.7350    6.4800   30.0320 N.am      1 GLN        -0.2608
      8 CA         13.9930    5.5070   29.2400 C.3       1 GLN         0.1331
      9 C          12.4890    5.6780   29.4090 C.2       1 GLN         0.2042
     10 O          12.0290    6.5050   30.1960 O.2       1 GLN        -0.3944
     11 CB         14.3970    4.0780   29.6130 C.3       1 GLN         0.0045
     12 CG         15.7930    3.6780   29.1530 C.3       1 GLN         0.0412
     13 CD         16.1000    2.2110   29.4040 C.2       1 GLN         0.1737
     14 OE1        17.0440    1.6560   28.8390 O.2       1 GLN        -0.3973
     15 NE2        15.3030    1.5740   30.2550 N.am      1 GLN        -0.3009
     16 N          11.7340    4.8770   28.6670 N.am      1 PHE        -0.2619
     17 CA         10.2790    4.9110   28.7130 C.3       1 PHE         0.1404
     18 C           9.7580    4.1800   29.9450 C.2       1 PHE         0.2060
     19 O          10.2010    3.0740   30.2560 O.2       1 PHE        -0.3942
     20 CB          9.7050    4.2870   27.4400 C.3       1 PHE         0.0214
     21 CG          8.2090    4.1670   27.4440 C.ar      1 PHE        -0.0386
     22 CD1         7.4120    5.2730   27.2110 C.ar      1 PHE        -0.0601
     23 CD2         7.5990    2.9460   27.6710 C.ar      1 PHE        -0.0601
     24 CE1         6.0340    5.1640   27.2110 C.ar      1 PHE        -0.0686
     25 CE2         6.2190    2.8320   27.6730 C.ar      1 PHE        -0.0686
     26 CZ          5.4380    3.9410   27.4420 C.ar      1 PHE        -0.0687
     27 N           8.8150    4.8060   30.6430 N.am      1 ASP        -0.2620
     28 CA          8.2500    4.2290   31.8580 C.3       1 ASP         0.1423
     29 C           6.8970    3.5780   31.5830 C.2       1 ASP         0.2056
     30 O           5.9530    4.2440   31.1610 O.2       1 ASP        -0.3943
     31 CB          8.1150    5.2990   32.9440 C.3       1 ASP         0.0406
     32 CG          7.5870    4.7420   34.2540 C.2       1 ASP         0.0393
     33 OD1         7.7840    3.5370   34.5180 O.co2     1 ASP        -0.5688
     34 OD2         6.9770    5.5130   35.0240 O.co2     1 ASP        -0.5688
     35 N           6.8120    2.2770   31.8340 N.am      1 LEU        -0.2636
     36 CA          5.5990    1.5100   31.5650 C.3       1 LEU         0.1312
     37 C           4.4420    1.8920   32.4860 C.2       1 LEU         0.2040
     38 O           3.2760    1.6950   32.1460 O.2       1 LEU        -0.3944
     39 CB          5.8870    0.0120   31.6860 C.3       1 LEU        -0.0101
     40 CG          6.8600   -0.5680   30.6580 C.3       1 LEU        -0.0425
     41 CD1         7.2960   -1.9650   31.0600 C.3       1 LEU        -0.0625
     42 CD2         6.2220   -0.5810   29.2780 C.3       1 LEU        -0.0625
     43 N           4.7700    2.4380   33.6540 N.am      1 SER        -0.2616
     44 CA          3.7590    2.7980   34.6430 C.3       1 SER         0.1539
     45 C           2.9920    4.0600   34.2530 C.2       1 SER         0.2063
     46 O           1.7740    4.1350   34.4180 O.2       1 SER        -0.3943
     47 CB          4.4020    2.9900   36.0200 C.3       1 SER         0.0843
     48 OG          5.0870    1.8220   36.4330 O.3       1 SER        -0.3903
     49 N           3.7120    5.0490   33.7330 N.am      1 THR        -0.2613
     50 CA          3.1240    6.3520   33.4410 C.3       1 THR         0.1565
     51 C           2.9710    6.6060   31.9460 C.2       1 THR         0.2065
     52 O           2.3720    7.6020   31.5370 O.2       1 THR        -0.3943
     53 CB          3.9800    7.4850   34.0280 C.3       1 THR         0.0924
     54 OG1         5.2680    7.4880   33.3970 O.3       1 THR        -0.3874
     55 CG2         4.1550    7.2970   35.5220 C.3       1 THR        -0.0346
     56 N           3.5180    5.6990   31.1410 N.am      1 ARG        -0.2636
     57 CA          3.5810    5.8670   29.6900 C.3       1 ARG         0.1311
     58 C           4.2990    7.1600   29.3120 C.2       1 ARG         0.2039
     59 O           3.9520    7.8120   28.3280 O.2       1 ARG        -0.3944
     60 CB          2.1880    5.8110   29.0530 C.3       1 ARG        -0.0092
     61 CG          1.4240    4.5350   29.3600 C.3       1 ARG        -0.0156
     62 CD          0.2580    4.3360   28.4050 C.3       1 ARG         0.0627
     63 NE         -0.4510    3.0870   28.6690 N.pl3     1 ARG        -0.2723
     64 CZ         -1.4540    2.6260   27.9290 C.cat     1 ARG         0.2882
     65 NH1        -1.8690    3.3090   26.8700 N.pl3     1 ARG        -0.2849
     66 NH2        -2.0400    1.4800   28.2480 N.pl3     1 ARG        -0.2849
     67 N           5.3050    7.5160   30.1030 N.am      1 ARG        -0.2637
     68 CA          6.0670    8.7390   29.8830 C.3       1 ARG         0.1311
     69 C           7.5630    8.4630   29.9520 C.2       1 ARG         0.2039
     70 O           7.9940    7.4870   30.5620 O.2       1 ARG        -0.3944
     71 CB          5.6880    9.7970   30.9210 C.3       1 ARG        -0.0092
     72 CG          4.2610   10.3040   30.8130 C.3       1 ARG        -0.0156
     73 CD          4.0240   11.0100   29.4850 C.3       1 ARG         0.0627
     74 NE          5.0530   12.0060   29.1970 N.pl3     1 ARG        -0.2723
     75 CZ          5.0980   13.2200   29.7380 C.cat     1 ARG         0.2882
     76 NH1         4.1720   13.5980   30.6100 N.pl3     1 ARG        -0.2849
     77 NH2         6.0740   14.0570   29.4110 N.pl3     1 ARG        -0.2849
     78 N           8.3550    9.3270   29.3220 N.am      1 LEU        -0.2637
     79 CA          9.8060    9.2050   29.3870 C.3       1 LEU         0.1312
     80 C          10.3070    9.7220   30.7260 C.2       1 LEU         0.2039
     81 O           9.8500   10.7550   31.2120 O.2       1 LEU        -0.3944
     82 CB         10.4650    9.9810   28.2470 C.3       1 LEU        -0.0101
     83 CG         10.1040    9.5190   26.8360 C.3       1 LEU        -0.0425
     84 CD1        10.7430   10.4260   25.7950 C.3       1 LEU        -0.0625
     85 CD2        10.5270    8.0750   26.6280 C.3       1 LEU        -0.0625
     86 N          11.2490    8.9960   31.3250 N.am      1 LYS        -0.2637
     87 CA         11.7830    9.3750   32.6270 C.3       1 LYS         0.1309
     88 C          12.7590   10.5420   32.5410 C.2       1 LYS         0.2034
     89 O          13.0710   11.0330   31.4550 O.2       1 LYS        -0.3944
     90 CB         12.4690    8.1860   33.3060 C.3       1 LYS        -0.0122
     91 CG         11.5340    7.0530   33.7030 C.3       1 LYS        -0.0440
     92 CD         12.2870    5.9830   34.4800 C.3       1 LYS        -0.0124
     93 CE         11.3550    4.8930   34.9860 C.3       1 LYS        -0.0354
     94 NZ         12.0530    3.8580   35.8080 N.4       1 LYS         0.2185
     95 N          13.2390   10.9690   33.7070 N.am      1 CYS        -0.2687
     96 CA         14.1850   12.0760   33.8240 C.3       1 CYS         0.1041
     97 C          13.6730   13.3610   33.1740 C.2       1 CYS         0.0609
     98 O          13.9809   14.4873   33.6476 O.co2     1 CYS        -0.5666
     99 CB         15.5520   11.6920   33.2520 C.3       1 CYS         0.0388
    100 SG         16.2480   10.1910   33.9660 S.3       1 CYS        -0.0887
    101 O          12.9357   13.2935   32.1545 O.co2     1 CYS        -0.5666
    102 H1         15.7788   10.2790   31.2816 H         1 CYS         0.2015
    103 H2         14.4020    9.3952   31.1008 H         1 CYS         0.2015
    104 H3         15.0768   10.1432   29.7990 H         1 CYS         0.2015
    105 H4         17.0004    8.7890   29.9029 H         1 CYS         0.1107
    106 H5         17.0687    6.9084   31.4638 H         1 CYS         0.0466
    107 H6         15.4923    7.4086   32.1649 H         1 CYS         0.0466
    108 H7         14.8014    6.3571   31.0222 H         1 GLN         0.1885
    109 H8         14.2407    5.6713   28.1809 H         1 GLN         0.0801
    110 H9         13.6734    3.3860   29.1576 H         1 GLN         0.0337
    111 H10        14.3555    3.9835   30.7081 H         1 GLN         0.0337
    112 H11        16.5298    4.2886   29.6954 H         1 GLN         0.0504
    113 H12        15.8769    3.8746   28.0740 H         1 GLN         0.0504
    114 H13        15.4586    0.6072   30.4577 H         1 GLN         0.1814
    115 H14        14.5475    2.0614   30.6929 H         1 GLN         0.1814
    116 H15        12.1811    4.2260   28.0536 H         1 PHE         0.1885
    117 H16         9.9545    5.9606   28.7676 H         1 PHE         0.0823
    118 H17        10.1330    3.2804   27.3240 H         1 PHE         0.0474
    119 H18        10.0002    4.9118   26.5842 H         1 PHE         0.0474
    120 H19         7.8732    6.2364   27.0263 H         1 PHE         0.0557
    121 H20         8.2089    2.0678   27.8495 H         1 PHE         0.0557
    122 H21         5.4213    6.0396   27.0295 H         1 PHE         0.0599
    123 H22         5.7544    1.8699   27.8564 H         1 PHE         0.0599
    124 H23         4.3575    3.8542   27.4415 H         1 PHE         0.0559
    125 H24         8.4846    5.6953   30.3269 H         1 ASP         0.1884
    126 H25         8.9381    3.4514   32.2212 H         1 ASP         0.0819
    127 H26         7.4229    6.0763   32.5879 H         1 ASP         0.0478
    128 H27         9.1047    5.7439   33.1244 H         1 ASP         0.0478
    129 H28         7.6054    1.8066   32.2203 H         1 LEU         0.1883
    130 H29         5.2902    1.7212   30.5306 H         1 LEU         0.0800
    131 H30         4.9317   -0.5238   31.5851 H         1 LEU         0.0315
    132 H31         6.3059   -0.1706   32.6866 H         1 LEU         0.0315
    133 H32         7.7515    0.0754   30.6223 H         1 LEU         0.0298
    134 H33         7.9939   -2.3619   30.3081 H         1 LEU         0.0232
    135 H34         6.4146   -2.6200   31.1240 H         1 LEU         0.0232
    136 H35         7.7955   -1.9257   32.0392 H         1 LEU         0.0232
    137 H36         5.9139    0.4396   29.0069 H         1 LEU         0.0232
    138 H37         5.3410   -1.2396   29.2875 H         1 LEU         0.0232
    139 H38         6.9495   -0.9523   28.5412 H         1 LEU         0.0232
    140 H39         5.7341    2.6061   33.8596 H         1 SER         0.1884
    141 H40         3.0395    1.9685   34.7083 H         1 SER         0.0823
    142 H41         3.6161    3.2232   36.7535 H         1 SER         0.0606
    143 H42         5.1158    3.8254   35.9693 H         1 SER         0.0606
    144 H43         4.4743    1.0977   36.4826 H         1 SER         0.2097
    145 H44         4.6806    4.8962   33.5371 H         1 THR         0.1884
    146 H45         2.1267    6.3841   33.9040 H         1 THR         0.0826
    147 H46         3.4807    8.4472   33.8415 H         1 THR         0.0639
    148 H47         5.6968    6.6544   33.5510 H         1 THR         0.2101
    149 H48         4.7693    8.1156   35.9251 H         1 THR         0.0257
    150 H49         4.6534    6.3355   35.7147 H         1 THR         0.0257
    151 H50         3.1694    7.3035   36.0103 H         1 THR         0.0257
    152 H51         3.9017    4.8685   31.5448 H         1 ARG         0.1883
    153 H52         4.1665    5.0287   29.2845 H         1 ARG         0.0800
    154 H53         2.3021    5.8928   27.9620 H         1 ARG         0.0313
    155 H54         1.6019    6.6641   29.4254 H         1 ARG         0.0313
    156 H55         1.0375    4.5892   30.3884 H         1 ARG         0.0301
    157 H56         2.1087    3.6788   29.2702 H         1 ARG         0.0301
    158 H57         0.6411    4.3170   27.3741 H         1 ARG         0.0689
    159 H58        -0.4439    5.1751   28.5200 H         1 ARG         0.0689
    160 H59        -0.1546    2.5272   29.4812 H         1 ARG         0.2642
    161 H60        -2.6465    2.9498   26.2979 H         1 ARG         0.2615
    162 H61        -1.4136    4.1984   26.6200 H         1 ARG         0.2615
    163 H62        -1.7189    0.9487   29.0699 H         1 ARG         0.2615
    164 H63        -2.8163    1.1212   27.6739 H         1 ARG         0.2615
    165 H64         5.5472    6.9265   30.8736 H         1 ARG         0.1883
    166 H65         5.8265    9.1251   28.8815 H         1 ARG         0.0800
    167 H66         6.3668   10.6542   30.8012 H         1 ARG         0.0313
    168 H67         5.8222    9.3600   31.9215 H         1 ARG         0.0313
    169 H68         4.0686   11.0106   31.6338 H         1 ARG         0.0301
    170 H69         3.5707    9.4514   30.8937 H         1 ARG         0.0301
    171 H70         3.0457   11.5117   29.5204 H         1 ARG         0.0689
    172 H71         4.0225   10.2598   28.6805 H         1 ARG         0.0689
    173 H72         5.7944   11.7505   28.5292 H         1 ARG         0.2642
    174 H73         4.2106   14.5392   31.0267 H         1 ARG         0.2615
    175 H74         3.4146   12.9502   30.8702 H         1 ARG         0.2615
    176 H75         6.7951   13.7682   28.7346 H         1 ARG         0.2615
    177 H76         6.1106   14.9956   29.8335 H         1 ARG         0.2615
    178 H77         7.9477   10.0728   28.7949 H         1 LEU         0.1883
    179 H78        10.0757    8.1428   29.2924 H         1 LEU         0.0800
    180 H79        11.5552    9.8918   28.3633 H         1 LEU         0.0315
    181 H80        10.1712   11.0367   28.3425 H         1 LEU         0.0315
    182 H81         9.0117    9.5788   26.7210 H         1 LEU         0.0298
    183 H82        10.4712   10.0767   24.7880 H         1 LEU         0.0232
    184 H83        11.8368   10.4011   25.9088 H         1 LEU         0.0232
    185 H84        10.3830   11.4559   25.9354 H         1 LEU         0.0232
    186 H85        10.0529    7.4405   27.3913 H         1 LEU         0.0232
    187 H86        11.6208    7.9972   26.7144 H         1 LEU         0.0232
    188 H87        10.2135    7.7415   25.6278 H         1 LEU         0.0232
    189 H88        11.5968    8.1748   30.8726 H         1 LYS         0.1883
    190 H89        10.9362    9.6880   33.2554 H         1 LYS         0.0800
    191 H90        12.9685    8.5522   34.2151 H         1 LYS         0.0312
    192 H91        13.2208    7.7822   32.6119 H         1 LYS         0.0312
    193 H92        11.1037    6.6048   32.7953 H         1 LYS         0.0269
    194 H93        10.7260    7.4549   34.3320 H         1 LYS         0.0269
    195 H94        12.7863    6.4525   35.3404 H         1 LYS         0.0317
    196 H95        13.0416    5.5288   33.8210 H         1 LYS         0.0317
    197 H96        10.8925    4.3980   34.1194 H         1 LYS         0.0813
    198 H97        10.5726    5.3599   35.6023 H         1 LYS         0.0813
    199 H98        11.3867    3.1659   36.1132 H         1 LYS         0.1994
    200 H99        12.4749    4.2958   36.6120 H         1 LYS         0.1994
    201 H100       12.7680    3.4143   35.2531 H         1 LYS         0.1994
    202 H101       12.9376   10.5100   34.5427 H         1 CYS         0.1876
    203 H102       14.3170   12.2809   34.8967 H         1 CYS         0.0734
    204 H103       16.2508   12.5206   33.4393 H         1 CYS         0.0425
    205 H104       15.4437   11.5415   32.1677 H         1 CYS         0.0425
@<TRIPOS>BOND
     1    1    2 1  
     2    2    3 1  
     3    2    5 1  
     4    3    4 2  
     5    3    7 am 
     6    5    6 1  
     7    6  100 1  
     8    7    8 1  
     9    8    9 1  
    10    8   11 1  
    11    9   10 2  
    12    9   16 am 
    13   11   12 1  
    14   12   13 1  
    15   13   14 2  
    16   13   15 am 
    17   16   17 1  
    18   17   18 1  
    19   17   20 1  
    20   18   19 2  
    21   18   27 am 
    22   20   21 1  
    23   21   22 ar 
    24   21   23 ar 
    25   22   24 ar 
    26   23   25 ar 
    27   24   26 ar 
    28   25   26 ar 
    29   27   28 1  
    30   28   29 1  
    31   28   31 1  
    32   29   30 2  
    33   29   35 am 
    34   31   32 1  
    35   32   33 ar 
    36   32   34 ar 
    37   35   36 1  
    38   36   37 1  
    39   36   39 1  
    40   37   38 2  
    41   37   43 am 
    42   39   40 1  
    43   40   41 1  
    44   40   42 1  
    45   43   44 1  
    46   44   45 1  
    47   44   47 1  
    48   45   46 2  
    49   45   49 am 
    50   47   48 1  
    51   49   50 1  
    52   50   51 1  
    53   50   53 1  
    54   51   52 2  
    55   51   56 am 
    56   53   54 1  
    57   53   55 1  
    58   56   57 1  
    59   57   58 1  
    60   57   60 1  
    61   58   59 2  
    62   58   67 am 
    63   60   61 1  
    64   61   62 1  
    65   62   63 1  
    66   63   64 ar 
    67   64   65 ar 
    68   64   66 ar 
    69   67   68 1  
    70   68   69 1  
    71   68   71 1  
    72   69   70 2  
    73   69   78 am 
    74   71   72 1  
    75   72   73 1  
    76   73   74 1  
    77   74   75 ar 
    78   75   76 ar 
    79   75   77 ar 
    80   78   79 1  
    81   79   80 1  
    82   79   82 1  
    83   80   81 2  
    84   80   86 am 
    85   82   83 1  
    86   83   84 1  
    87   83   85 1  
    88   86   87 1  
    89   87   88 1  
    90   87   90 1  
    91   88   89 2  
    92   88   95 am 
    93   90   91 1  
    94   91   92 1  
    95   92   93 1  
    96   93   94 1  
    97   95   96 1  
    98   96   97 1  
    99   96   99 1  
   100   97   98 ar 
   101   99  100 1  
   102   97  101 ar 
   103    1  102 1  
   104    1  103 1  
   105    1  104 1  
   106    2  105 1  
   107    5  106 1  
   108    5  107 1  
   109    7  108 1  
   110    8  109 1  
   111   11  110 1  
   112   11  111 1  
   113   12  112 1  
   114   12  113 1  
   115   15  114 1  
   116   15  115 1  
   117   16  116 1  
   118   17  117 1  
   119   20  118 1  
   120   20  119 1  
   121   22  120 1  
   122   23  121 1  
   123   24  122 1  
   124   25  123 1  
   125   26  124 1  
   126   27  125 1  
   127   28  126 1  
   128   31  127 1  
   129   31  128 1  
   130   35  129 1  
   131   36  130 1  
   132   39  131 1  
   133   39  132 1  
   134   40  133 1  
   135   41  134 1  
   136   41  135 1  
   137   41  136 1  
   138   42  137 1  
   139   42  138 1  
   140   42  139 1  
   141   43  140 1  
   142   44  141 1  
   143   47  142 1  
   144   47  143 1  
   145   48  144 1  
   146   49  145 1  
   147   50  146 1  
   148   53  147 1  
   149   54  148 1  
   150   55  149 1  
   151   55  150 1  
   152   55  151 1  
   153   56  152 1  
   154   57  153 1  
   155   60  154 1  
   156   60  155 1  
   157   61  156 1  
   158   61  157 1  
   159   62  158 1  
   160   62  159 1  
   161   63  160 1  
   162   65  161 1  
   163   65  162 1  
   164   66  163 1  
   165   66  164 1  
   166   67  165 1  
   167   68  166 1  
   168   71  167 1  
   169   71  168 1  
   170   72  169 1  
   171   72  170 1  
   172   73  171 1  
   173   73  172 1  
   174   74  173 1  
   175   76  174 1  
   176   76  175 1  
   177   77  176 1  
   178   77  177 1  
   179   78  178 1  
   180   79  179 1  
   181   82  180 1  
   182   82  181 1  
   183   83  182 1  
   184   84  183 1  
   185   84  184 1  
   186   84  185 1  
   187   85  186 1  
   188   85  187 1  
   189   85  188 1  
   190   86  189 1  
   191   87  190 1  
   192   90  191 1  
   193   90  192 1  
   194   91  193 1  
   195   91  194 1  
   196   92  195 1  
   197   92  196 1  
   198   93  197 1  
   199   93  198 1  
   200   94  199 1  
   201   94  200 1  
   202   94  201 1  
   203   95  202 1  
   204   96  203 1  
   205   99  204 1  
   206   99  205 1  
@<TRIPOS>SUBSTRUCTURE
     1 CYS         1

