4gw1_ligand
  -I-interpret- 

205206  0  0  0  0  0  0  0  0999 V2000
   15.2700    9.6650   30.6650 N   0  3  0  0  0
   16.0680    8.4770   30.3960 C   0  0  0  0  0
   15.3250    7.5270   29.4650 C   0  0  0  0  0
   15.2860    7.7390   28.2550 O   0  0  0  0  0
   16.4240    7.7670   31.7030 C   0  0  0  0  0
   17.2890    8.8070   32.9060 S   0  0  0  0  0
   14.7350    6.4800   30.0320 N   0  0  0  0  0
   13.9930    5.5070   29.2400 C   0  0  0  0  0
   12.4890    5.6780   29.4090 C   0  0  0  0  0
   12.0290    6.5050   30.1960 O   0  0  0  0  0
   14.3970    4.0780   29.6130 C   0  0  0  0  0
   15.7930    3.6780   29.1530 C   0  0  0  0  0
   16.1000    2.2110   29.4040 C   0  0  0  0  0
   17.0440    1.6560   28.8390 O   0  0  0  0  0
   15.3030    1.5740   30.2550 N   0  0  0  0  0
   11.7340    4.8770   28.6670 N   0  0  0  0  0
   10.2790    4.9110   28.7130 C   0  0  0  0  0
    9.7580    4.1800   29.9450 C   0  0  0  0  0
   10.2010    3.0740   30.2560 O   0  0  0  0  0
    9.7050    4.2870   27.4400 C   0  0  0  0  0
    8.2090    4.1670   27.4440 C   0  0  0  0  0
    7.4120    5.2730   27.2110 C   0  0  0  0  0
    7.5990    2.9460   27.6710 C   0  0  0  0  0
    6.0340    5.1640   27.2110 C   0  0  0  0  0
    6.2190    2.8320   27.6730 C   0  0  0  0  0
    5.4380    3.9410   27.4420 C   0  0  0  0  0
    8.8150    4.8060   30.6430 N   0  0  0  0  0
    8.2500    4.2290   31.8580 C   0  0  0  0  0
    6.8970    3.5780   31.5830 C   0  0  0  0  0
    5.9530    4.2440   31.1610 O   0  0  0  0  0
    8.1150    5.2990   32.9440 C   0  0  0  0  0
    7.5870    4.7420   34.2540 C   0  0  0  0  0
    7.7840    3.5370   34.5180 O   0  0  0  0  0
    6.9770    5.5130   35.0240 O   0  0  0  0  0
    6.8120    2.2770   31.8340 N   0  0  0  0  0
    5.5990    1.5100   31.5650 C   0  0  0  0  0
    4.4420    1.8920   32.4860 C   0  0  0  0  0
    3.2760    1.6950   32.1460 O   0  0  0  0  0
    5.8870    0.0120   31.6860 C   0  0  0  0  0
    6.8600   -0.5680   30.6580 C   0  0  0  0  0
    7.2960   -1.9650   31.0600 C   0  0  0  0  0
    6.2220   -0.5810   29.2780 C   0  0  0  0  0
    4.7700    2.4380   33.6540 N   0  0  0  0  0
    3.7590    2.7980   34.6430 C   0  0  0  0  0
    2.9920    4.0600   34.2530 C   0  0  0  0  0
    1.7740    4.1350   34.4180 O   0  0  0  0  0
    4.4020    2.9900   36.0200 C   0  0  0  0  0
    5.0870    1.8220   36.4330 O   0  0  0  0  0
    3.7120    5.0490   33.7330 N   0  0  0  0  0
    3.1240    6.3520   33.4410 C   0  0  0  0  0
    2.9710    6.6060   31.9460 C   0  0  0  0  0
    2.3720    7.6020   31.5370 O   0  0  0  0  0
    3.9800    7.4850   34.0280 C   0  0  0  0  0
    5.2680    7.4880   33.3970 O   0  0  0  0  0
    4.1550    7.2970   35.5220 C   0  0  0  0  0
    3.5180    5.6990   31.1410 N   0  0  0  0  0
    3.5810    5.8670   29.6900 C   0  0  0  0  0
    4.2990    7.1600   29.3120 C   0  0  0  0  0
    3.9520    7.8120   28.3280 O   0  0  0  0  0
    2.1880    5.8110   29.0530 C   0  0  0  0  0
    1.4240    4.5350   29.3600 C   0  0  0  0  0
    0.2580    4.3360   28.4050 C   0  0  0  0  0
   -0.4510    3.0870   28.6690 N   0  0  0  0  0
   -1.4540    2.6260   27.9290 C   0  0  0  0  0
   -1.8690    3.3090   26.8700 N   0  0  0  0  0
   -2.0400    1.4800   28.2480 N   0  0  0  0  0
    5.3050    7.5160   30.1030 N   0  0  0  0  0
    6.0670    8.7390   29.8830 C   0  0  0  0  0
    7.5630    8.4630   29.9520 C   0  0  0  0  0
    7.9940    7.4870   30.5620 O   0  0  0  0  0
    5.6880    9.7970   30.9210 C   0  0  0  0  0
    4.2610   10.3040   30.8130 C   0  0  0  0  0
    4.0240   11.0100   29.4850 C   0  0  0  0  0
    5.0530   12.0060   29.1970 N   0  0  0  0  0
    5.0980   13.2200   29.7380 C   0  0  0  0  0
    4.1720   13.5980   30.6100 N   0  0  0  0  0
    6.0740   14.0570   29.4110 N   0  0  0  0  0
    8.3550    9.3270   29.3220 N   0  0  0  0  0
    9.8060    9.2050   29.3870 C   0  0  0  0  0
   10.3070    9.7220   30.7260 C   0  0  0  0  0
    9.8500   10.7550   31.2120 O   0  0  0  0  0
   10.4650    9.9810   28.2470 C   0  0  0  0  0
   10.1040    9.5190   26.8360 C   0  0  0  0  0
   10.7430   10.4260   25.7950 C   0  0  0  0  0
   10.5270    8.0750   26.6280 C   0  0  0  0  0
   11.2490    8.9960   31.3250 N   0  0  0  0  0
   11.7830    9.3750   32.6270 C   0  0  0  0  0
   12.7590   10.5420   32.5410 C   0  0  0  0  0
   13.0710   11.0330   31.4550 O   0  0  0  0  0
   12.4690    8.1860   33.3060 C   0  0  0  0  0
   11.5340    7.0530   33.7030 C   0  0  0  0  0
   12.2870    5.9830   34.4800 C   0  0  0  0  0
   11.3550    4.8930   34.9860 C   0  0  0  0  0
   12.0530    3.8580   35.8080 N   0  3  0  0  0
   13.2390   10.9690   33.7070 N   0  0  0  0  0
   14.1850   12.0760   33.8240 C   0  0  0  0  0
   13.6730   13.3610   33.1740 C   0  0  0  0  0
   13.9809   14.4873   33.6476 O   0  0  0  0  0
   15.5520   11.6920   33.2520 C   0  0  0  0  0
   16.2480   10.1910   33.9660 S   0  0  0  0  0
   12.9357   13.2935   32.1545 O   0  0  0  0  0
   15.0414   10.1261   29.7844 H   0  0  0  0  0
   14.4098    9.3945   31.1419 H   0  0  0  0  0
   15.8018   10.3035   31.2565 H   0  0  0  0  0
   16.9895    8.7891   29.9045 H   0  0  0  0  0
   17.0943    6.9458   31.4491 H   0  0  0  0  0
   15.4866    7.4559   32.1641 H   0  0  0  0  0
   14.8027    6.3547   31.0420 H   0  0  0  0  0
   14.2429    5.6858   28.1942 H   0  0  0  0  0
   13.6934    3.4076   29.1194 H   0  0  0  0  0
   14.3893    4.0173   30.7013 H   0  0  0  0  0
   16.5125    4.2704   29.7183 H   0  0  0  0  0
   15.8522    3.8516   28.0786 H   0  0  0  0  0
   15.4619    0.5879   30.4619 H   0  0  0  0  0
   14.5323    2.0710   30.7014 H   0  0  0  0  0
   12.1901    4.2130   28.0413 H   0  0  0  0  0
    9.9570    5.9504   28.7765 H   0  0  0  0  0
   10.1113    3.2786   27.3611 H   0  0  0  0  0
    9.9762    4.9378   26.6087 H   0  0  0  0  0
    7.8758    6.2418   27.0252 H   0  0  0  0  0
    8.2123    2.0630   27.8505 H   0  0  0  0  0
    5.4179    6.0444   27.0285 H   0  0  0  0  0
    5.7518    1.8646   27.8574 H   0  0  0  0  0
    4.3515    3.8538   27.4415 H   0  0  0  0  0
    8.4780    5.7131   30.3206 H   0  0  0  0  0
    8.9311    3.4542   32.2099 H   0  0  0  0  0
    7.4068    6.0479   32.5894 H   0  0  0  0  0
    9.1061    5.7120   33.1315 H   0  0  0  0  0
    8.2686    3.1278   33.7974 H   0  0  0  0  0
    7.6213    1.7972   32.2280 H   0  0  0  0  0
    5.2918    1.7492   30.5469 H   0  0  0  0  0
    4.9359   -0.4966   31.5287 H   0  0  0  0  0
    6.3500   -0.1332   32.6621 H   0  0  0  0  0
    7.7460    0.0660   30.6243 H   0  0  0  0  0
    7.7907   -1.9247   32.0304 H   0  0  0  0  0
    6.4218   -2.6130   31.1231 H   0  0  0  0  0
    7.9875   -2.3571   30.3142 H   0  0  0  0  0
    5.3207   -1.1936   29.3016 H   0  0  0  0  0
    5.9631    0.4377   28.9892 H   0  0  0  0  0
    6.9264   -0.9964   28.5574 H   0  0  0  0  0
    5.7534    2.6094   33.8637 H   0  0  0  0  0
    3.0460    1.9745   34.6828 H   0  0  0  0  0
    3.6161    3.2064   36.7436 H   0  0  0  0  0
    5.1180    3.8095   35.9582 H   0  0  0  0  0
    5.4789    1.9707   37.2966 H   0  0  0  0  0
    4.7000    4.8931   33.5332 H   0  0  0  0  0
    2.1352    6.3394   33.8996 H   0  0  0  0  0
    3.4758    8.4343   33.8473 H   0  0  0  0  0
    5.8016    8.1963   33.7647 H   0  0  0  0  0
    3.1777    7.3036   36.0047 H   0  0  0  0  0
    4.6489    6.3440   35.7116 H   0  0  0  0  0
    4.7638    8.1087   35.9202 H   0  0  0  0  0
    3.9094    4.8519   31.5529 H   0  0  0  0  0
    4.1592    5.0318   29.2947 H   0  0  0  0  0
    2.3229    5.8569   27.9723 H   0  0  0  0  0
    1.6109    6.6412   29.4603 H   0  0  0  0  0
    1.0301    4.6054   30.3739 H   0  0  0  0  0
    2.1056    3.6914   29.2512 H   0  0  0  0  0
    0.6497    4.2997   27.3884 H   0  0  0  0  0
   -0.4405    5.1619   28.5398 H   0  0  0  0  0
   -0.1575    2.5326   29.4733 H   0  0  0  0  0
   -2.6378    2.9525   26.3024 H   0  0  0  0  0
   -1.4192    4.1906   26.6234 H   0  0  0  0  0
   -1.7209    0.9529   29.0609 H   0  0  0  0  0
    5.5520    6.9147   30.8890 H   0  0  0  0  0
    5.8259    9.1129   28.8879 H   0  0  0  0  0
    6.3433   10.6526   30.7576 H   0  0  0  0  0
    5.7872    9.3312   31.9015 H   0  0  0  0  0
    4.0830   11.0144   31.6203 H   0  0  0  0  0
    3.5841    9.4522   30.8789 H   0  0  0  0  0
    3.0632   11.5218   29.5402 H   0  0  0  0  0
    4.0473   10.2604   28.6940 H   0  0  0  0  0
    5.7872   11.7530   28.5357 H   0  0  0  0  0
    4.2125   14.5285   31.0257 H   0  0  0  0  0
    3.4197   12.9580   30.8646 H   0  0  0  0  0
    6.7904   13.7695   28.7443 H   0  0  0  0  0
    7.9395   10.0877   28.7843 H   0  0  0  0  0
   10.0712    8.1527   29.2850 H   0  0  0  0  0
   11.5397    9.8344   28.3544 H   0  0  0  0  0
   10.1178   11.0106   28.3331 H   0  0  0  0  0
    9.0221    9.5793   26.7176 H   0  0  0  0  0
   10.3855   11.4461   25.9353 H   0  0  0  0  0
   11.8267   10.4005   25.9089 H   0  0  0  0  0
   10.4729   10.0789   24.7977 H   0  0  0  0  0
   11.6050    7.9901   26.7654 H   0  0  0  0  0
   10.0161    7.4402   27.3519 H   0  0  0  0  0
   10.2624    7.7621   25.6180 H   0  0  0  0  0
   11.6037    8.1583   30.8636 H   0  0  0  0  0
   10.9299    9.6947   33.2254 H   0  0  0  0  0
   12.9191    8.5621   34.2247 H   0  0  0  0  0
   13.1769    7.7752   32.5862 H   0  0  0  0  0
   11.1179    6.6062   32.8000 H   0  0  0  0  0
   10.7410    7.4547   34.3338 H   0  0  0  0  0
   12.7624    6.4544   35.3402 H   0  0  0  0  0
   13.0189    5.5264   33.8137 H   0  0  0  0  0
   10.9285    4.3926   34.1166 H   0  0  0  0  0
   10.6045    5.3669   35.6186 H   0  0  0  0  0
   11.3779    3.1583   36.1163 H   0  0  0  0  0
   12.7763    3.4098   35.2455 H   0  0  0  0  0
   12.4795    4.3022   36.6212 H   0  0  0  0  0
   12.9315   10.5008   34.5595 H   0  0  0  0  0
   14.2936   12.2794   34.8893 H   0  0  0  0  0
   14.5426   14.3670   34.4168 H   0  0  0  0  0
   16.2388   12.5073   33.4793 H   0  0  0  0  0
   15.4176   11.5112   32.1855 H   0  0  0  0  0
  1  2  1  0  0  0
  2  3  1  0  0  0
  2  5  1  0  0  0
  3  4  2  0  0  0
  3  7  1  0  0  0
  5  6  1  0  0  0
  6100  1  0  0  0
  7  8  1  0  0  0
  8  9  1  0  0  0
  8 11  1  0  0  0
  9 10  2  0  0  0
  9 16  1  0  0  0
 11 12  1  0  0  0
 12 13  1  0  0  0
 13 14  2  0  0  0
 13 15  1  0  0  0
 16 17  1  0  0  0
 17 18  1  0  0  0
 17 20  1  0  0  0
 18 19  2  0  0  0
 18 27  1  0  0  0
 20 21  1  0  0  0
 21 22  4  0  0  0
 21 23  4  0  0  0
 22 24  4  0  0  0
 23 25  4  0  0  0
 24 26  4  0  0  0
 25 26  4  0  0  0
 27 28  1  0  0  0
 28 29  1  0  0  0
 28 31  1  0  0  0
 29 30  2  0  0  0
 29 35  1  0  0  0
 31 32  1  0  0  0
 32 33  1  0  0  0
 32 34  2  0  0  0
 35 36  1  0  0  0
 36 37  1  0  0  0
 36 39  1  0  0  0
 37 38  2  0  0  0
 37 43  1  0  0  0
 39 40  1  0  0  0
 40 41  1  0  0  0
 40 42  1  0  0  0
 43 44  1  0  0  0
 44 45  1  0  0  0
 44 47  1  0  0  0
 45 46  2  0  0  0
 45 49  1  0  0  0
 47 48  1  0  0  0
 49 50  1  0  0  0
 50 51  1  0  0  0
 50 53  1  0  0  0
 51 52  2  0  0  0
 51 56  1  0  0  0
 53 54  1  0  0  0
 53 55  1  0  0  0
 56 57  1  0  0  0
 57 58  1  0  0  0
 57 60  1  0  0  0
 58 59  2  0  0  0
 58 67  1  0  0  0
 60 61  1  0  0  0
 61 62  1  0  0  0
 62 63  1  0  0  0
 63 64  1  0  0  0
 64 65  1  0  0  0
 64 66  2  0  0  0
 67 68  1  0  0  0
 68 69  1  0  0  0
 68 71  1  0  0  0
 69 70  2  0  0  0
 69 78  1  0  0  0
 71 72  1  0  0  0
 72 73  1  0  0  0
 73 74  1  0  0  0
 74 75  1  0  0  0
 75 76  1  0  0  0
 75 77  2  0  0  0
 78 79  1  0  0  0
 79 80  1  0  0  0
 79 82  1  0  0  0
 80 81  2  0  0  0
 80 86  1  0  0  0
 82 83  1  0  0  0
 83 84  1  0  0  0
 83 85  1  0  0  0
 86 87  1  0  0  0
 87 88  1  0  0  0
 87 90  1  0  0  0
 88 89  2  0  0  0
 88 95  1  0  0  0
 90 91  1  0  0  0
 91 92  1  0  0  0
 92 93  1  0  0  0
 93 94  1  0  0  0
 95 96  1  0  0  0
 96 97  1  0  0  0
 96 99  1  0  0  0
 97 98  1  0  0  0
 99100  1  0  0  0
 97101  2  0  0  0
  1102  1  0  0  0
  1103  1  0  0  0
  1104  1  0  0  0
  2105  1  0  0  0
  5106  1  0  0  0
  5107  1  0  0  0
  7108  1  0  0  0
  8109  1  0  0  0
 11110  1  0  0  0
 11111  1  0  0  0
 12112  1  0  0  0
 12113  1  0  0  0
 15114  1  0  0  0
 15115  1  0  0  0
 16116  1  0  0  0
 17117  1  0  0  0
 20118  1  0  0  0
 20119  1  0  0  0
 22120  1  0  0  0
 23121  1  0  0  0
 24122  1  0  0  0
 25123  1  0  0  0
 26124  1  0  0  0
 27125  1  0  0  0
 28126  1  0  0  0
 31127  1  0  0  0
 31128  1  0  0  0
 33129  1  0  0  0
 35130  1  0  0  0
 36131  1  0  0  0
 39132  1  0  0  0
 39133  1  0  0  0
 40134  1  0  0  0
 41135  1  0  0  0
 41136  1  0  0  0
 41137  1  0  0  0
 42138  1  0  0  0
 42139  1  0  0  0
 42140  1  0  0  0
 43141  1  0  0  0
 44142  1  0  0  0
 47143  1  0  0  0
 47144  1  0  0  0
 48145  1  0  0  0
 49146  1  0  0  0
 50147  1  0  0  0
 53148  1  0  0  0
 54149  1  0  0  0
 55150  1  0  0  0
 55151  1  0  0  0
 55152  1  0  0  0
 56153  1  0  0  0
 57154  1  0  0  0
 60155  1  0  0  0
 60156  1  0  0  0
 61157  1  0  0  0
 61158  1  0  0  0
 62159  1  0  0  0
 62160  1  0  0  0
 63161  1  0  0  0
 65162  1  0  0  0
 65163  1  0  0  0
 66164  1  0  0  0
 67165  1  0  0  0
 68166  1  0  0  0
 71167  1  0  0  0
 71168  1  0  0  0
 72169  1  0  0  0
 72170  1  0  0  0
 73171  1  0  0  0
 73172  1  0  0  0
 74173  1  0  0  0
 76174  1  0  0  0
 76175  1  0  0  0
 77176  1  0  0  0
 78177  1  0  0  0
 79178  1  0  0  0
 82179  1  0  0  0
 82180  1  0  0  0
 83181  1  0  0  0
 84182  1  0  0  0
 84183  1  0  0  0
 84184  1  0  0  0
 85185  1  0  0  0
 85186  1  0  0  0
 85187  1  0  0  0
 86188  1  0  0  0
 87189  1  0  0  0
 90190  1  0  0  0
 90191  1  0  0  0
 91192  1  0  0  0
 91193  1  0  0  0
 92194  1  0  0  0
 92195  1  0  0  0
 93196  1  0  0  0
 93197  1  0  0  0
 94198  1  0  0  0
 94199  1  0  0  0
 94200  1  0  0  0
 95201  1  0  0  0
 96202  1  0  0  0
 98203  1  0  0  0
 99204  1  0  0  0
 99205  1  0  0  0
M  END
$$$$
