### 
### Created by X-TOOL on Mon Sep 10 21:12:54 2018
### 

@<TRIPOS>MOLECULE
2gfa_ligand
  124   123     1     0     0
SMALL
GAST_HUCK


@<TRIPOS>ATOM
      1 N          27.9830   22.6390  -19.1800 N.4       1 ALA         0.2377
      2 CA         27.9030   22.0700  -20.5660 C.3       1 ALA         0.0621
      3 C          27.9580   20.5470  -20.5290 C.2       1 ALA         0.2264
      4 O          27.4880   19.8790  -21.4490 O.2       1 ALA        -0.3907
      5 CB         29.0420   22.6120  -21.4220 C.3       1 ALA        -0.0040
      6 N          28.5490   20.0060  -19.4680 N.am      1 ARG        -0.2610
      7 CA         28.6540   18.5590  -19.2920 C.3       1 ARG         0.1312
      8 C          28.8910   17.7680  -20.5820 C.2       1 ARG         0.2040
      9 O          28.0050   17.0550  -21.0620 O.2       1 ARG        -0.3944
     10 CB         27.3970   18.0310  -18.5970 C.3       1 ARG        -0.0092
     11 CG         27.2540   18.4790  -17.1560 C.3       1 ARG        -0.0156
     12 CD         25.8040   18.7490  -16.8020 C.3       1 ARG         0.0627
     13 NE         25.6210   18.9320  -15.3690 N.pl3     1 ARG        -0.2723
     14 CZ         24.5560   19.5050  -14.8180 C.cat     1 ARG         0.2882
     15 NH1        23.5700   19.9600  -15.5810 N.pl3     1 ARG        -0.2849
     16 NH2        24.4720   19.6180  -13.4980 N.pl3     1 ARG        -0.2849
     17 N          30.0890   17.9050  -21.1370 N.am      1 THR        -0.2613
     18 CA         30.4690   17.1830  -22.3450 C.3       1 THR         0.1565
     19 C          31.7800   16.4630  -22.0470 C.2       1 THR         0.2065
     20 O          32.6280   16.9660  -21.2980 O.2       1 THR        -0.3943
     21 CB         30.6480   18.1260  -23.5610 C.3       1 THR         0.0924
     22 OG1        31.6010   19.1450  -23.2500 O.3       1 THR        -0.3874
     23 CG2        29.3110   18.7740  -23.9400 C.3       1 THR        -0.0346
     24 N          31.9400   15.2910  -22.6470 N.am      1 M3L        -0.2637
     25 CA         33.1140   14.4590  -22.4270 C.3       1 M3L         0.1310
     26 CB         32.6450   13.1630  -21.7560 C.3       1 M3L        -0.0122
     27 CG         33.6890   12.1130  -21.5290 C.3       1 M3L        -0.0440
     28 CD         33.0370   10.7320  -21.3520 C.3       1 M3L        -0.0123
     29 CE         32.0920   10.6960  -20.1620 C.3       1 M3L        -0.0309
     30 NZ         31.8280    9.3200  -19.5400 N.4       1 M3L         0.2369
     31 C          33.8040   14.1530  -23.7550 C.2       1 M3L         0.2039
     32 O          33.1850   14.2640  -24.8110 O.2       1 M3L        -0.3944
     33 CM1        31.2280    8.4410  -20.6040 C.3       1 M3L        -0.0418
     34 CM2        33.0320    8.6050  -19.0350 C.3       1 M3L        -0.0418
     35 CM3        30.8760    9.5650  -18.4230 C.3       1 M3L        -0.0418
     36 N          35.0790   13.7750  -23.7030 N.am      1 GLN        -0.2636
     37 CA         35.8250   13.4340  -24.9150 C.3       1 GLN         0.1330
     38 C          37.2290   12.9200  -24.6160 C.2       1 GLN         0.2041
     39 O          37.7760   13.1400  -23.5290 O.2       1 GLN        -0.3944
     40 CB         35.9310   14.6360  -25.8680 C.3       1 GLN         0.0045
     41 CG         36.8570   15.7560  -25.3920 C.3       1 GLN         0.0412
     42 CD         36.1800   16.6990  -24.4120 C.2       1 GLN         0.1737
     43 OE1        35.1060   17.2290  -24.6940 O.2       1 GLN        -0.3973
     44 NE2        36.8080   16.9190  -23.2590 N.am      1 GLN        -0.3009
     45 N          37.8050   12.2400  -25.6020 N.am      1 THR        -0.2613
     46 CA         39.1400   11.6740  -25.4860 C.3       1 THR         0.1565
     47 C          40.0530   12.4370  -26.4210 C.2       1 THR         0.2065
     48 O          40.0930   12.1610  -27.6160 O.2       1 THR        -0.3943
     49 CB         39.1820   10.1910  -25.9200 C.3       1 THR         0.0924
     50 OG1        38.2310    9.4270  -25.1640 O.3       1 THR        -0.3874
     51 CG2        40.5750    9.6190  -25.6980 C.3       1 THR        -0.0346
     52 N          40.7800   13.4040  -25.8840 N.am      1 ALA        -0.2626
     53 CA         41.6930   14.1760  -26.7100 C.3       1 ALA         0.1392
     54 C          43.0960   13.9830  -26.1550 C.2       1 ALA         0.2568
     55 O          43.8800   13.2170  -26.7710 O.2       1 ALA        -0.3680
     56 CB         41.3020   15.6610  -26.6820 C.3       1 ALA        -0.0230
     57 O1         43.4834   14.6083  -25.0469 O.3       1 ALA        -0.2910
     58 H1         27.9450   23.6452  -19.2272 H         1 ALA         0.2015
     59 H2         28.8493   22.3553  -18.7498 H         1 ALA         0.2015
     60 H3         27.2084   22.2989  -18.6319 H         1 ALA         0.2015
     61 H4         26.9468   22.3757  -21.0157 H         1 ALA         0.1095
     62 H5         28.9731   22.1884  -22.4348 H         1 ALA         0.0310
     63 H6         30.0052   22.3305  -20.9716 H         1 ALA         0.0310
     64 H7         28.9695   23.7082  -21.4774 H         1 ALA         0.0310
     65 H8         28.9338   20.6081  -18.7684 H         1 ARG         0.1884
     66 H9         29.5155   18.3739  -18.6335 H         1 ARG         0.0800
     67 H10        27.4275   16.9316  -18.6158 H         1 ARG         0.0313
     68 H11        26.5183   18.3831  -19.1573 H         1 ARG         0.0313
     69 H12        27.8361   19.4006  -17.0082 H         1 ARG         0.0301
     70 H13        27.6427   17.6899  -16.4955 H         1 ARG         0.0301
     71 H14        25.1923   17.8967  -17.1328 H         1 ARG         0.0689
     72 H15        25.4745   19.6606  -17.3220 H         1 ARG         0.0689
     73 H16        26.3654   18.5955  -14.7417 H         1 ARG         0.2642
     74 H17        22.7469   20.4033  -15.1487 H         1 ARG         0.2615
     75 H18        23.6279   19.8699  -16.6054 H         1 ARG         0.2615
     76 H19        25.2345   19.2665  -12.9015 H         1 ARG         0.2615
     77 H20        23.6443   20.0572  -13.0703 H         1 ARG         0.2615
     78 H21        30.7514   18.5227  -20.7132 H         1 THR         0.1884
     79 H22        29.6890   16.4454  -22.5848 H         1 THR         0.0826
     80 H23        31.0154   17.5389  -24.4156 H         1 THR         0.0639
     81 H24        32.4286   18.7420  -23.0154 H         1 THR         0.2101
     82 H25        29.4577   19.4390  -24.8039 H         1 THR         0.0257
     83 H26        28.9319   19.3577  -23.0882 H         1 THR         0.0257
     84 H27        28.5843   17.9902  -24.1999 H         1 THR         0.0257
     85 H28        31.2295   14.9678  -23.2721 H         1 M3L         0.1883
     86 H29        33.8206   14.9828  -21.7664 H         1 M3L         0.0800
     87 H30        31.8608   12.7232  -22.3897 H         1 M3L         0.0312
     88 H31        32.2194   13.4284  -20.7770 H         1 M3L         0.0312
     89 H32        34.2610   12.3616  -20.6229 H         1 M3L         0.0269
     90 H33        34.3673   12.0844  -22.3945 H         1 M3L         0.0269
     91 H34        33.8279    9.9828  -21.1999 H         1 M3L         0.0317
     92 H35        32.4705   10.4875  -22.2626 H         1 M3L         0.0317
     93 H36        31.1253   11.1054  -20.4903 H         1 M3L         0.0815
     94 H37        32.5163   11.3411  -19.3785 H         1 M3L         0.0815
     95 H38        31.0272    7.4438  -20.1855 H         1 M3L         0.0778
     96 H39        31.9314    8.3508  -21.4448 H         1 M3L         0.0778
     97 H40        30.2868    8.8858  -20.9594 H         1 M3L         0.0778
     98 H41        33.5131    9.2065  -18.2497 H         1 M3L         0.0778
     99 H42        33.7397    8.4488  -19.8625 H         1 M3L         0.0778
    100 H43        32.7329    7.6314  -18.6195 H         1 M3L         0.0778
    101 H44        29.9902   10.0933  -18.8054 H         1 M3L         0.0778
    102 H45        31.3650   10.1792  -17.6525 H         1 M3L         0.0778
    103 H46        30.5689    8.6037  -17.9854 H         1 M3L         0.0778
    104 H47        35.5376   13.7228  -22.8159 H         1 GLN         0.1883
    105 H48        35.2722   12.6341  -25.4293 H         1 GLN         0.0801
    106 H49        34.9237   15.0581  -25.9988 H         1 GLN         0.0337
    107 H50        36.3048   14.2722  -26.8365 H         1 GLN         0.0337
    108 H51        37.1874   16.3353  -26.2668 H         1 GLN         0.0504
    109 H52        37.7310   15.3048  -24.8996 H         1 GLN         0.0504
    110 H53        36.4050   17.5316  -22.5791 H         1 GLN         0.1814
    111 H54        37.6828   16.4716  -23.0728 H         1 GLN         0.1814
    112 H55        37.3013   12.1126  -26.4564 H         1 THR         0.1884
    113 H56        39.4888   11.7658  -24.4468 H         1 THR         0.0826
    114 H57        38.9305   10.1240  -26.9888 H         1 THR         0.0639
    115 H58        37.3606    9.7822  -25.3010 H         1 THR         0.2101
    116 H59        40.5923    8.5644  -26.0102 H         1 THR         0.0257
    117 H60        40.8349    9.6900  -24.6315 H         1 THR         0.0257
    118 H61        41.3045   10.1892  -26.2919 H         1 THR         0.0257
    119 H62        40.7008   13.6038  -24.9074 H         1 ALA         0.1884
    120 H63        41.6530   13.8118  -27.7472 H         1 ALA         0.0813
    121 H64        41.9989   16.2355  -27.3099 H         1 ALA         0.0278
    122 H65        41.3484   16.0330  -25.6479 H         1 ALA         0.0278
    123 H66        40.2788   15.7781  -27.0683 H         1 ALA         0.0278
    124 H67        43.7281   13.9659  -24.3912 H         1 ALA         0.2540
@<TRIPOS>BOND
     1    2    1 1  
     2    2    5 1  
     3    3    2 1  
     4    3    4 2  
     5    7    6 1  
     6    7   10 1  
     7    8    7 1  
     8    8    9 2  
     9   10   11 1  
    10   11   12 1  
    11   12   13 1  
    12   13   14 ar 
    13   14   16 ar 
    14   14   15 ar 
    15    6    3 am 
    16   18   17 1  
    17   18   21 1  
    18   19   18 1  
    19   19   20 2  
    20   21   23 1  
    21   21   22 1  
    22   17    8 am 
    23   36   37 1  
    24   37   40 1  
    25   37   38 1  
    26   38   39 2  
    27   40   41 1  
    28   41   42 1  
    29   42   44 am 
    30   42   43 2  
    31   45   46 1  
    32   46   49 1  
    33   46   47 1  
    34   47   48 2  
    35   49   51 1  
    36   49   50 1  
    37   38   45 am 
    38   52   53 1  
    39   53   56 1  
    40   53   54 1  
    41   54   55 2  
    42   47   52 am 
    43   25   24 1  
    44   25   26 1  
    45   31   25 1  
    46   26   27 1  
    47   27   28 1  
    48   28   29 1  
    49   29   30 1  
    50   30   33 1  
    51   30   34 1  
    52   30   35 1  
    53   31   32 2  
    54   24   19 am 
    55   31   36 am 
    56   54   57 1  
    57    1   58 1  
    58    1   59 1  
    59    1   60 1  
    60    2   61 1  
    61    5   62 1  
    62    5   63 1  
    63    5   64 1  
    64    6   65 1  
    65    7   66 1  
    66   10   67 1  
    67   10   68 1  
    68   11   69 1  
    69   11   70 1  
    70   12   71 1  
    71   12   72 1  
    72   13   73 1  
    73   15   74 1  
    74   15   75 1  
    75   16   76 1  
    76   16   77 1  
    77   17   78 1  
    78   18   79 1  
    79   21   80 1  
    80   22   81 1  
    81   23   82 1  
    82   23   83 1  
    83   23   84 1  
    84   24   85 1  
    85   25   86 1  
    86   26   87 1  
    87   26   88 1  
    88   27   89 1  
    89   27   90 1  
    90   28   91 1  
    91   28   92 1  
    92   29   93 1  
    93   29   94 1  
    94   33   95 1  
    95   33   96 1  
    96   33   97 1  
    97   34   98 1  
    98   34   99 1  
    99   34  100 1  
   100   35  101 1  
   101   35  102 1  
   102   35  103 1  
   103   36  104 1  
   104   37  105 1  
   105   40  106 1  
   106   40  107 1  
   107   41  108 1  
   108   41  109 1  
   109   44  110 1  
   110   44  111 1  
   111   45  112 1  
   112   46  113 1  
   113   49  114 1  
   114   50  115 1  
   115   51  116 1  
   116   51  117 1  
   117   51  118 1  
   118   52  119 1  
   119   53  120 1  
   120   56  121 1  
   121   56  122 1  
   122   56  123 1  
   123   57  124 1  
@<TRIPOS>SUBSTRUCTURE
     1 ALA         1

