2gfa_ligand
  -I-interpret- 

123122  0  0  0  0  0  0  0  0999 V2000
   27.9830   22.6390  -19.1800 N   0  3  0  0  0
   27.9030   22.0700  -20.5660 C   0  0  0  0  0
   27.9580   20.5470  -20.5290 C   0  0  0  0  0
   27.4880   19.8790  -21.4490 O   0  0  0  0  0
   29.0420   22.6120  -21.4220 C   0  0  0  0  0
   28.5490   20.0060  -19.4680 N   0  0  0  0  0
   28.6540   18.5590  -19.2920 C   0  0  0  0  0
   28.8910   17.7680  -20.5820 C   0  0  0  0  0
   28.0050   17.0550  -21.0620 O   0  0  0  0  0
   27.3970   18.0310  -18.5970 C   0  0  0  0  0
   27.2540   18.4790  -17.1560 C   0  0  0  0  0
   25.8040   18.7490  -16.8020 C   0  0  0  0  0
   25.6210   18.9320  -15.3690 N   0  0  0  0  0
   24.5560   19.5050  -14.8180 C   0  0  0  0  0
   23.5700   19.9600  -15.5810 N   0  0  0  0  0
   24.4720   19.6180  -13.4980 N   0  0  0  0  0
   30.0890   17.9050  -21.1370 N   0  0  0  0  0
   30.4690   17.1830  -22.3450 C   0  0  0  0  0
   31.7800   16.4630  -22.0470 C   0  0  0  0  0
   32.6280   16.9660  -21.2980 O   0  0  0  0  0
   30.6480   18.1260  -23.5610 C   0  0  0  0  0
   31.6010   19.1450  -23.2500 O   0  0  0  0  0
   29.3110   18.7740  -23.9400 C   0  0  0  0  0
   31.9400   15.2910  -22.6470 N   0  0  0  0  0
   33.1140   14.4590  -22.4270 C   0  0  0  0  0
   32.6450   13.1630  -21.7560 C   0  0  0  0  0
   33.6890   12.1130  -21.5290 C   0  0  0  0  0
   33.0370   10.7320  -21.3520 C   0  0  0  0  0
   32.0920   10.6960  -20.1620 C   0  0  0  0  0
   31.8280    9.3200  -19.5400 N   0  3  0  0  0
   33.8040   14.1530  -23.7550 C   0  0  0  0  0
   33.1850   14.2640  -24.8110 O   0  0  0  0  0
   31.2280    8.4410  -20.6040 C   0  0  0  0  0
   33.0320    8.6050  -19.0350 C   0  0  0  0  0
   30.8760    9.5650  -18.4230 C   0  0  0  0  0
   35.0790   13.7750  -23.7030 N   0  0  0  0  0
   35.8250   13.4340  -24.9150 C   0  0  0  0  0
   37.2290   12.9200  -24.6160 C   0  0  0  0  0
   37.7760   13.1400  -23.5290 O   0  0  0  0  0
   35.9310   14.6360  -25.8680 C   0  0  0  0  0
   36.8570   15.7560  -25.3920 C   0  0  0  0  0
   36.1800   16.6990  -24.4120 C   0  0  0  0  0
   35.1060   17.2290  -24.6940 O   0  0  0  0  0
   36.8080   16.9190  -23.2590 N   0  0  0  0  0
   37.8050   12.2400  -25.6020 N   0  0  0  0  0
   39.1400   11.6740  -25.4860 C   0  0  0  0  0
   40.0530   12.4370  -26.4210 C   0  0  0  0  0
   40.0930   12.1610  -27.6160 O   0  0  0  0  0
   39.1820   10.1910  -25.9200 C   0  0  0  0  0
   38.2310    9.4270  -25.1640 O   0  0  0  0  0
   40.5750    9.6190  -25.6980 C   0  0  0  0  0
   40.7800   13.4040  -25.8840 N   0  0  0  0  0
   41.6930   14.1760  -26.7100 C   0  0  0  0  0
   43.0960   13.9830  -26.1550 C   0  0  0  0  0
   43.8800   13.2170  -26.7710 O   0  0  0  0  0
   41.3020   15.6610  -26.6820 C   0  0  0  0  0
   43.4834   14.6083  -25.0469 O   0  0  0  0  0
   27.9445   23.6571  -19.2290 H   0  0  0  0  0
   27.1988   22.2941  -18.6264 H   0  0  0  0  0
   28.8599   22.3512  -18.7457 H   0  0  0  0  0
   26.9518   22.3705  -21.0054 H   0  0  0  0  0
   29.9953   22.2971  -20.9976 H   0  0  0  0  0
   28.9486   22.2243  -22.4364 H   0  0  0  0  0
   28.9936   23.7007  -21.4418 H   0  0  0  0  0
   28.9415   20.6202  -18.7544 H   0  0  0  0  0
   29.5427   18.4042  -18.6801 H   0  0  0  0  0
   27.4635   16.9430  -18.5920 H   0  0  0  0  0
   26.5380   18.4207  -19.1432 H   0  0  0  0  0
   27.8205   19.4005  -17.0221 H   0  0  0  0  0
   27.6266   17.6856  -16.5081 H   0  0  0  0  0
   25.2096   17.8910  -17.1160 H   0  0  0  0  0
   25.4934   19.6641  -17.3062 H   0  0  0  0  0
   26.3581   18.5987  -14.7477 H   0  0  0  0  0
   23.6274   19.8707  -16.5955 H   0  0  0  0  0
   23.6523   20.0529  -13.0745 H   0  0  0  0  0
   25.2271   19.2699  -12.9073 H   0  0  0  0  0
   30.7647   18.5351  -20.7048 H   0  0  0  0  0
   29.6770   16.4826  -22.6101 H   0  0  0  0  0
   31.0066   17.5372  -24.4053 H   0  0  0  0  0
   31.7065   19.7249  -24.0077 H   0  0  0  0  0
   28.5918   17.9964  -24.1972 H   0  0  0  0  0
   28.9365   19.3520  -23.0952 H   0  0  0  0  0
   29.4577   19.4326  -24.7960 H   0  0  0  0  0
   31.2153   14.9613  -23.2846 H   0  0  0  0  0
   33.8338   14.9756  -21.7921 H   0  0  0  0  0
   31.9134   12.7204  -22.4320 H   0  0  0  0  0
   32.2834   13.4481  -20.7680 H   0  0  0  0  0
   34.2469   12.3589  -20.6255 H   0  0  0  0  0
   34.3530   12.0822  -22.3929 H   0  0  0  0  0
   33.8277   10.0014  -21.1812 H   0  0  0  0  0
   32.4617   10.5093  -22.2506 H   0  0  0  0  0
   31.1293   11.0507  -20.5301 H   0  0  0  0  0
   32.5648   11.2939  -19.3828 H   0  0  0  0  0
   30.2956    8.8829  -20.9553 H   0  0  0  0  0
   31.9259    8.3525  -21.4366 H   0  0  0  0  0
   31.0295    7.4532  -20.1881 H   0  0  0  0  0
   33.7287    8.4434  -19.8576 H   0  0  0  0  0
   33.5125    9.2058  -18.2628 H   0  0  0  0  0
   32.7333    7.6441  -18.6161 H   0  0  0  0  0
   31.3294   10.2473  -17.7039 H   0  0  0  0  0
   29.9608   10.0065  -18.8175 H   0  0  0  0  0
   30.6429    8.6201  -17.9322 H   0  0  0  0  0
   35.5467   13.7218  -22.7981 H   0  0  0  0  0
   35.2586   12.6344  -25.3923 H   0  0  0  0  0
   34.9320   15.0649  -25.9470 H   0  0  0  0  0
   36.3451   14.2609  -26.8039 H   0  0  0  0  0
   37.1553   16.3374  -26.2644 H   0  0  0  0  0
   37.7045   15.2964  -24.8834 H   0  0  0  0  0
   36.3998   17.5485  -22.5680 H   0  0  0  0  0
   37.6973   16.4581  -23.0666 H   0  0  0  0  0
   37.2912   12.1100  -26.4735 H   0  0  0  0  0
   39.4464   11.7445  -24.4423 H   0  0  0  0  0
   38.9316   10.1341  -26.9793 H   0  0  0  0  0
   38.2663    8.5088  -25.4421 H   0  0  0  0  0
   41.2968   10.1848  -26.2870 H   0  0  0  0  0
   40.8313    9.6900  -24.6409 H   0  0  0  0  0
   40.5909    8.5740  -26.0077 H   0  0  0  0  0
   40.6992   13.6078  -24.8878 H   0  0  0  0  0
   41.6500   13.8398  -27.7460 H   0  0  0  0  0
   40.2879   15.7757  -27.0650 H   0  0  0  0  0
   41.3483   16.0283  -25.6568 H   0  0  0  0  0
   41.9932   16.2292  -27.3044 H   0  0  0  0  0
   42.7609   15.1465  -24.7153 H   0  0  0  0  0
  2  1  1  0  0  0
  2  5  1  0  0  0
  3  2  1  0  0  0
  3  4  2  0  0  0
  7  6  1  0  0  0
  7 10  1  0  0  0
  8  7  1  0  0  0
  8  9  2  0  0  0
 10 11  1  0  0  0
 11 12  1  0  0  0
 12 13  1  0  0  0
 13 14  1  0  0  0
 14 16  1  0  0  0
 14 15  2  0  0  0
  6  3  1  0  0  0
 18 17  1  0  0  0
 18 21  1  0  0  0
 19 18  1  0  0  0
 19 20  2  0  0  0
 21 23  1  0  0  0
 21 22  1  0  0  0
 17  8  1  0  0  0
 36 37  1  0  0  0
 37 40  1  0  0  0
 37 38  1  0  0  0
 38 39  2  0  0  0
 40 41  1  0  0  0
 41 42  1  0  0  0
 42 44  1  0  0  0
 42 43  2  0  0  0
 45 46  1  0  0  0
 46 49  1  0  0  0
 46 47  1  0  0  0
 47 48  2  0  0  0
 49 51  1  0  0  0
 49 50  1  0  0  0
 38 45  1  0  0  0
 52 53  1  0  0  0
 53 56  1  0  0  0
 53 54  1  0  0  0
 54 55  2  0  0  0
 47 52  1  0  0  0
 25 24  1  0  0  0
 25 26  1  0  0  0
 31 25  1  0  0  0
 26 27  1  0  0  0
 27 28  1  0  0  0
 28 29  1  0  0  0
 29 30  1  0  0  0
 30 33  1  0  0  0
 30 34  1  0  0  0
 30 35  1  0  0  0
 31 32  2  0  0  0
 24 19  1  0  0  0
 31 36  1  0  0  0
 54 57  1  0  0  0
  1 58  1  0  0  0
  1 59  1  0  0  0
  1 60  1  0  0  0
  2 61  1  0  0  0
  5 62  1  0  0  0
  5 63  1  0  0  0
  5 64  1  0  0  0
  6 65  1  0  0  0
  7 66  1  0  0  0
 10 67  1  0  0  0
 10 68  1  0  0  0
 11 69  1  0  0  0
 11 70  1  0  0  0
 12 71  1  0  0  0
 12 72  1  0  0  0
 13 73  1  0  0  0
 15 74  1  0  0  0
 16 75  1  0  0  0
 16 76  1  0  0  0
 17 77  1  0  0  0
 18 78  1  0  0  0
 21 79  1  0  0  0
 22 80  1  0  0  0
 23 81  1  0  0  0
 23 82  1  0  0  0
 23 83  1  0  0  0
 24 84  1  0  0  0
 25 85  1  0  0  0
 26 86  1  0  0  0
 26 87  1  0  0  0
 27 88  1  0  0  0
 27 89  1  0  0  0
 28 90  1  0  0  0
 28 91  1  0  0  0
 29 92  1  0  0  0
 29 93  1  0  0  0
 33 94  1  0  0  0
 33 95  1  0  0  0
 33 96  1  0  0  0
 34 97  1  0  0  0
 34 98  1  0  0  0
 34 99  1  0  0  0
 35100  1  0  0  0
 35101  1  0  0  0
 35102  1  0  0  0
 36103  1  0  0  0
 37104  1  0  0  0
 40105  1  0  0  0
 40106  1  0  0  0
 41107  1  0  0  0
 41108  1  0  0  0
 44109  1  0  0  0
 44110  1  0  0  0
 45111  1  0  0  0
 46112  1  0  0  0
 49113  1  0  0  0
 50114  1  0  0  0
 51115  1  0  0  0
 51116  1  0  0  0
 51117  1  0  0  0
 52118  1  0  0  0
 53119  1  0  0  0
 56120  1  0  0  0
 56121  1  0  0  0
 56122  1  0  0  0
 57123  1  0  0  0
M  END
$$$$
