4mnp_ligand
  -I-interpret- 

 40 40  0  0  0  0  0  0  0  0999 V2000
   22.4830   28.2630   40.7160 C   0  0  0  0  0
   21.8660   26.9580   41.0130 C   0  0  0  0  0
   22.8490   25.9460   41.2720 C   0  0  0  0  0
   22.3470   24.6090   41.3370 C   0  0  0  0  0
   21.5150   24.2590   40.2070 C   0  0  0  0  0
   20.3700   25.2270   39.9500 C   0  0  0  0  0
   19.7020   24.9790   38.7400 C   0  0  0  0  0
   18.6590   26.0860   38.5180 C   0  0  0  0  0
   17.7580   25.7190   37.3870 C   0  0  0  0  0
   21.4070   21.7770   39.6410 C   0  0  0  0  0
   20.8160   20.4460   39.8820 C   0  0  0  0  0
   20.9400   22.9220   40.4280 N   0  0  0  0  0
   23.1500   28.4150   39.6640 O   0  0  0  0  0
   22.3410   29.2360   41.5100 O   0  0  0  0  0
   21.1470   27.1260   42.1850 O   0  0  0  0  0
   23.4400   23.6690   41.4940 O   0  0  0  0  0
   20.9080   26.6230   39.9810 O   0  0  0  0  0
   20.6210   25.0130   37.6790 O   0  0  0  0  0
   17.9270   26.2310   39.6500 O   0  0  0  0  0
   16.9420   24.6160   37.5580 O   0  0  0  0  0
   22.2940   21.9200   38.7780 O   0  0  0  0  0
   23.2745   26.1675   42.2508 H   0  0  0  0  0
   23.5532   25.9749   40.4405 H   0  0  0  0  0
   21.7011   24.5541   42.2133 H   0  0  0  0  0
   22.1658   24.2933   39.3333 H   0  0  0  0  0
   19.6267   25.0869   40.7348 H   0  0  0  0  0
   19.2224   24.0010   38.7808 H   0  0  0  0  0
   19.1652   27.0208   38.2773 H   0  0  0  0  0
   18.4161   25.4726   36.5537 H   0  0  0  0  0
   17.0849   26.5668   37.2591 H   0  0  0  0  0
   20.3512   20.0848   38.9646 H   0  0  0  0  0
   21.5984   19.7531   40.1916 H   0  0  0  0  0
   20.0636   20.5207   40.6671 H   0  0  0  0  0
   20.2134   22.7918   41.1319 H   0  0  0  0  0
   21.8096   28.9603   42.2604 H   0  0  0  0  0
   21.7485   27.3505   42.8987 H   0  0  0  0  0
   23.9745   23.9248   42.2493 H   0  0  0  0  0
   21.2792   24.3256   37.8051 H   0  0  0  0  0
   17.2724   26.9211   39.5202 H   0  0  0  0  0
   16.4143   24.4840   36.7670 H   0  0  0  0  0
  2  1  1  0  0  0
  1 13  2  0  0  0
  1 14  1  0  0  0
  3  2  1  0  0  0
  2 15  1  0  0  0
 17  2  1  0  0  0
  4  3  1  0  0  0
  5  4  1  0  0  0
  4 16  1  0  0  0
  5  6  1  0  0  0
 12  5  1  0  0  0
  6  7  1  0  0  0
  6 17  1  0  0  0
  7  8  1  0  0  0
  7 18  1  0  0  0
  8  9  1  0  0  0
  8 19  1  0  0  0
  9 20  1  0  0  0
 10 11  1  0  0  0
 10 12  1  0  0  0
 10 21  2  0  0  0
  3 22  1  0  0  0
  3 23  1  0  0  0
  4 24  1  0  0  0
  5 25  1  0  0  0
  6 26  1  0  0  0
  7 27  1  0  0  0
  8 28  1  0  0  0
  9 29  1  0  0  0
  9 30  1  0  0  0
 11 31  1  0  0  0
 11 32  1  0  0  0
 11 33  1  0  0  0
 12 34  1  0  0  0
 14 35  1  0  0  0
 15 36  1  0  0  0
 16 37  1  0  0  0
 18 38  1  0  0  0
 19 39  1  0  0  0
 20 40  1  0  0  0
M  END
$$$$
