### 
### Created by X-TOOL on Mon Sep 10 21:13:16 2018
### 

@<TRIPOS>MOLECULE
4lnb_ligand
   87    90     1     0     0
SMALL
GAST_HUCK


@<TRIPOS>ATOM
      1 OAG        21.3330    3.9310   -1.5160 O.2       1 ED5        -0.3774
      2 CBE        21.6750    2.9230   -2.0960 C.2       1 ED5         0.3226
      3 OBD        22.0020    2.9940   -3.4750 O.3       1 ED5        -0.2580
      4 CBP        23.0720    3.7980   -3.9970 C.3       1 ED5         0.0905
      5 CAC        23.6050    3.1420   -5.2130 C.3       1 ED5        -0.0320
      6 CAD        22.6110    5.1620   -4.3610 C.3       1 ED5        -0.0320
      7 CAE        24.1970    3.9090   -2.9580 C.3       1 ED5        -0.0320
      8 NBL        22.1380    1.7680   -1.2930 N.am      1 ED5        -0.2489
      9 CAX        22.2050    1.8190    0.1750 C.3       1 ED5         0.0361
     10 CAV        21.5300    0.6470    0.8230 C.3       1 ED5        -0.0282
     11 CAW        22.5630    0.4960   -1.8700 C.3       1 ED5         0.0361
     12 CAU        21.9230   -0.6960   -1.2070 C.3       1 ED5        -0.0282
     13 CBK        21.9810   -0.6540    0.2770 C.3       1 ED5        -0.0203
     14 CBB        23.4190   -0.9570    0.7550 C.3       1 ED5         0.0325
     15 NBN        24.0360   -2.2590    0.2610 N.am      1 ED5        -0.2328
     16 SBQ        25.6970   -2.1120    0.0620 S.o2      1 ED5         0.0681
     17 OAI        26.3640   -3.3750    0.2500 O.2       1 ED5        -0.1512
     18 OAH        26.2170   -1.1700    1.0180 O.2       1 ED5        -0.1512
     19 CBJ        26.0150   -1.4690   -1.5730 C.ar      1 ED5         0.1093
     20 CAN        26.6310   -0.2160   -1.6880 C.ar      1 ED5        -0.0419
     21 CAL        26.9000    0.3410   -2.9700 C.ar      1 ED5        -0.0669
     22 CAK        26.5480   -0.3610   -4.1200 C.ar      1 ED5        -0.0685
     23 CAM        25.9310   -1.6080   -4.0140 C.ar      1 ED5        -0.0587
     24 CBF        25.6580   -2.1710   -2.7330 C.ar      1 ED5        -0.0195
     25 CAA        24.9960   -3.5070   -2.6660 C.3       1 ED5        -0.0293
     26 CAZ        23.6160   -3.4680    1.0930 C.3       1 ED5         0.0498
     27 CAY        23.6690   -3.3920    2.6440 C.3       1 ED5         0.0483
     28 NBM        24.9780   -3.2720    3.2910 N.pl3     1 ED5        -0.2887
     29 CBH        25.9530   -4.4110    3.2210 C.ar      1 ED5         0.0526
     30 CAQ        27.3000   -4.1970    3.5340 C.ar      1 ED5        -0.0335
     31 CAO        28.2070   -5.2680    3.4600 C.ar      1 ED5        -0.0524
     32 CAR        25.5060   -5.6920    2.8350 C.ar      1 ED5        -0.0335
     33 CAP        26.4070   -6.7550    2.7620 C.ar      1 ED5        -0.0524
     34 CBG        27.7560   -6.5450    3.0750 C.ar      1 ED5        -0.0002
     35 CAJ        28.7120   -7.6790    2.9900 C.2       1 ED5         0.0042
     36 NAF        29.5630   -8.6840    2.8840 N.2       1 ED5        -0.3601
     37 CBA        25.3400   -2.0380    4.0180 C.3       1 ED5         0.0839
     38 CBI        24.5260   -1.7630    5.2780 C.2       1 ED5         0.0761
     39 CAS        23.3860   -0.9670    5.3810 C.2       1 ED5        -0.0256
     40 NBC        22.9890   -1.0050    6.6560 N.2       1 ED5        -0.3435
     41 CAT        23.8210   -1.7930    7.3290 C.2       1 ED5         0.0898
     42 NBO        24.7620   -2.2580    6.4880 N.pl3     1 ED5        -0.2493
     43 CAB        25.8610   -3.1460    6.8480 C.3       1 ED5         0.0471
     44 H          24.4264    3.7463   -5.6254 H         1 ED5         0.0260
     45 H          22.8044    3.0518   -5.9619 H         1 ED5         0.0260
     46 H          23.9802    2.1407   -4.9549 H         1 ED5         0.0260
     47 H          23.4583    5.7424   -4.7550 H         1 ED5         0.0260
     48 H          22.2069    5.6627   -3.4689 H         1 ED5         0.0260
     49 H          21.8265    5.0912   -5.1288 H         1 ED5         0.0260
     50 H          25.0121    4.5256   -3.3647 H         1 ED5         0.0260
     51 H          24.5793    2.9048   -2.7228 H         1 ED5         0.0260
     52 H          23.8056    4.3762   -2.0423 H         1 ED5         0.0260
     53 H          21.7151    2.7421    0.5184 H         1 ED5         0.0522
     54 H          23.2619    1.8297    0.4795 H         1 ED5         0.0522
     55 H          20.4450    0.7361    0.6657 H         1 ED5         0.0288
     56 H          21.7473    0.6691    1.9011 H         1 ED5         0.0288
     57 H          23.6546    0.4110   -1.7648 H         1 ED5         0.0522
     58 H          22.2957    0.4887   -2.9370 H         1 ED5         0.0522
     59 H          22.4408   -1.6040   -1.5496 H         1 ED5         0.0288
     60 H          20.8672   -0.7386   -1.5126 H         1 ED5         0.0288
     61 H          21.3121   -1.4359    0.6658 H         1 ED5         0.0318
     62 H          23.4067   -0.9884    1.8545 H         1 ED5         0.0481
     63 H          24.0644   -0.1321    0.4189 H         1 ED5         0.0481
     64 H          26.9047    0.3332   -0.7944 H         1 ED5         0.0619
     65 H          27.3783    1.3104   -3.0510 H         1 ED5         0.0560
     66 H          26.7532    0.0611   -5.0971 H         1 ED5         0.0599
     67 H          25.6576   -2.1519   -4.9110 H         1 ED5         0.0557
     68 H          24.8580   -3.7954   -1.6135 H         1 ED5         0.0391
     69 H          25.6257   -4.2540   -3.1713 H         1 ED5         0.0391
     70 H          24.0163   -3.4562   -3.1637 H         1 ED5         0.0391
     71 H          24.2657   -4.3032    0.7924 H         1 ED5         0.0498
     72 H          22.5751   -3.6966    0.8204 H         1 ED5         0.0498
     73 H          23.1977   -4.3075    3.0309 H         1 ED5         0.0537
     74 H          23.0749   -2.5174    2.9473 H         1 ED5         0.0537
     75 H          27.6415   -3.2121    3.8314 H         1 ED5         0.0545
     76 H          29.2526   -5.1111    3.6991 H         1 ED5         0.0663
     77 H          24.4610   -5.8509    2.5947 H         1 ED5         0.0545
     78 H          26.0643   -7.7394    2.4642 H         1 ED5         0.0663
     79 H          28.6821   -7.8018    4.0716 H         1 ED5         0.1067
     80 H          29.8702   -9.1735    3.7099 H         1 ED5         0.1148
     81 H          25.2046   -1.1878    3.3334 H         1 ED5         0.0700
     82 H          26.3989   -2.1114    4.3065 H         1 ED5         0.0700
     83 H          22.9079   -0.4164    4.5722 H         1 ED5         0.0325
     84 H          23.7520   -2.0249    8.3908 H         1 ED5         0.1150
     85 H          26.4691   -3.3570    5.9560 H         1 ED5         0.0583
     86 H          25.4559   -4.0878    7.2467 H         1 ED5         0.0583
     87 H          26.4871   -2.6632    7.6128 H         1 ED5         0.0583
@<TRIPOS>BOND
     1    1    2 2  
     2    2    3 1  
     3    2    8 am 
     4    3    4 1  
     5    4    5 1  
     6    4    6 1  
     7    4    7 1  
     8    8    9 1  
     9    8   11 1  
    10    9   10 1  
    11   10   13 1  
    12   11   12 1  
    13   12   13 1  
    14   13   14 1  
    15   14   15 1  
    16   15   16 am 
    17   15   26 1  
    18   16   17 2  
    19   16   18 2  
    20   16   19 1  
    21   19   20 ar 
    22   19   24 ar 
    23   20   21 ar 
    24   21   22 ar 
    25   22   23 ar 
    26   23   24 ar 
    27   24   25 1  
    28   26   27 1  
    29   27   28 1  
    30   28   29 1  
    31   28   37 1  
    32   29   30 ar 
    33   29   32 ar 
    34   30   31 ar 
    35   31   34 ar 
    36   32   33 ar 
    37   33   34 ar 
    38   34   35 1  
    39   35   36 2  
    40   37   38 1  
    41   38   39 2  
    42   38   42 1  
    43   39   40 1  
    44   40   41 2  
    45   41   42 1  
    46   42   43 1  
    47    5   44 1  
    48    5   45 1  
    49    5   46 1  
    50    6   47 1  
    51    6   48 1  
    52    6   49 1  
    53    7   50 1  
    54    7   51 1  
    55    7   52 1  
    56    9   53 1  
    57    9   54 1  
    58   10   55 1  
    59   10   56 1  
    60   11   57 1  
    61   11   58 1  
    62   12   59 1  
    63   12   60 1  
    64   13   61 1  
    65   14   62 1  
    66   14   63 1  
    67   20   64 1  
    68   21   65 1  
    69   22   66 1  
    70   23   67 1  
    71   25   68 1  
    72   25   69 1  
    73   25   70 1  
    74   26   71 1  
    75   26   72 1  
    76   27   73 1  
    77   27   74 1  
    78   30   75 1  
    79   31   76 1  
    80   32   77 1  
    81   33   78 1  
    82   35   79 1  
    83   36   80 1  
    84   37   81 1  
    85   37   82 1  
    86   39   83 1  
    87   41   84 1  
    88   43   85 1  
    89   43   86 1  
    90   43   87 1  
@<TRIPOS>SUBSTRUCTURE
     1 ED5         1

