4lnb_ligand
  -I-interpret- 

 87 90  0  0  0  0  0  0  0  0999 V2000
   21.3330    3.9310   -1.5160 O   0  0  0  0  0
   21.6750    2.9230   -2.0960 C   0  0  0  0  0
   22.0020    2.9940   -3.4750 O   0  0  0  0  0
   23.0720    3.7980   -3.9970 C   0  0  0  0  0
   23.6050    3.1420   -5.2130 C   0  0  0  0  0
   22.6110    5.1620   -4.3610 C   0  0  0  0  0
   24.1970    3.9090   -2.9580 C   0  0  0  0  0
   22.1380    1.7680   -1.2930 N   0  0  0  0  0
   22.2050    1.8190    0.1750 C   0  0  0  0  0
   21.5300    0.6470    0.8230 C   0  0  0  0  0
   22.5630    0.4960   -1.8700 C   0  0  0  0  0
   21.9230   -0.6960   -1.2070 C   0  0  0  0  0
   21.9810   -0.6540    0.2770 C   0  0  0  0  0
   23.4190   -0.9570    0.7550 C   0  0  0  0  0
   24.0360   -2.2590    0.2610 N   0  0  0  0  0
   25.6970   -2.1120    0.0620 S   0  0  0  0  0
   26.3640   -3.3750    0.2500 O   0  0  0  0  0
   26.2170   -1.1700    1.0180 O   0  0  0  0  0
   26.0150   -1.4690   -1.5730 C   0  0  0  0  0
   26.6310   -0.2160   -1.6880 C   0  0  0  0  0
   26.9000    0.3410   -2.9700 C   0  0  0  0  0
   26.5480   -0.3610   -4.1200 C   0  0  0  0  0
   25.9310   -1.6080   -4.0140 C   0  0  0  0  0
   25.6580   -2.1710   -2.7330 C   0  0  0  0  0
   24.9960   -3.5070   -2.6660 C   0  0  0  0  0
   23.6160   -3.4680    1.0930 C   0  0  0  0  0
   23.6690   -3.3920    2.6440 C   0  0  0  0  0
   24.9780   -3.2720    3.2910 N   0  0  0  0  0
   25.9530   -4.4110    3.2210 C   0  0  0  0  0
   27.3000   -4.1970    3.5340 C   0  0  0  0  0
   28.2070   -5.2680    3.4600 C   0  0  0  0  0
   25.5060   -5.6920    2.8350 C   0  0  0  0  0
   26.4070   -6.7550    2.7620 C   0  0  0  0  0
   27.7560   -6.5450    3.0750 C   0  0  0  0  0
   28.7120   -7.6790    2.9900 C   0  0  0  0  0
   29.5630   -8.6840    2.8840 N   0  0  0  0  0
   25.3400   -2.0380    4.0180 C   0  0  0  0  0
   24.5260   -1.7630    5.2780 C   0  0  0  0  0
   23.3860   -0.9670    5.3810 C   0  0  0  0  0
   22.9890   -1.0050    6.6560 N   0  0  0  0  0
   23.8210   -1.7930    7.3290 C   0  0  0  0  0
   24.7620   -2.2580    6.4880 N   0  0  0  0  0
   25.8610   -3.1460    6.8480 C   0  0  0  0  0
   24.4230    3.7384   -5.6171 H   0  0  0  0  0
   23.9705    2.1475   -4.9572 H   0  0  0  0  0
   22.8124    3.0590   -5.9566 H   0  0  0  0  0
   22.2397    5.6685   -3.4701 H   0  0  0  0  0
   23.4442    5.7259   -4.7804 H   0  0  0  0  0
   21.8119    5.0893   -5.0987 H   0  0  0  0  0
   25.0260    4.4763   -3.3812 H   0  0  0  0  0
   23.8215    4.4189   -2.0708 H   0  0  0  0  0
   24.5394    2.9103   -2.6870 H   0  0  0  0  0
   21.6944    2.7243    0.5033 H   0  0  0  0  0
   23.2559    1.8033    0.4640 H   0  0  0  0  0
   20.4599    0.7337    0.6344 H   0  0  0  0  0
   21.7776    0.6659    1.8843 H   0  0  0  0  0
   23.6410    0.4130   -1.7319 H   0  0  0  0  0
   22.2653    0.4917   -2.9185 H   0  0  0  0  0
   22.4693   -1.5821   -1.5303 H   0  0  0  0  0
   20.8711   -0.7031   -1.4927 H   0  0  0  0  0
   21.2971   -1.4159    0.6509 H   0  0  0  0  0
   23.3663   -1.0395    1.8406 H   0  0  0  0  0
   24.0445   -0.1564    0.3601 H   0  0  0  0  0
   26.9062    0.3362   -0.7895 H   0  0  0  0  0
   27.3809    1.3158   -3.0515 H   0  0  0  0  0
   26.7544    0.0635   -5.1025 H   0  0  0  0  0
   25.6561   -2.1549   -4.9159 H   0  0  0  0  0
   25.6465   -4.2075   -2.1423 H   0  0  0  0  0
   24.0512   -3.4164   -2.1301 H   0  0  0  0  0
   24.8086   -3.8693   -3.6768 H   0  0  0  0  0
   24.3347   -4.2446    0.8313 H   0  0  0  0  0
   22.5603   -3.6080    0.8607 H   0  0  0  0  0
   23.2647   -4.3429    2.9909 H   0  0  0  0  0
   23.1366   -2.4770    2.9038 H   0  0  0  0  0
   27.6433   -3.2067    3.8331 H   0  0  0  0  0
   29.2584   -5.1102    3.7004 H   0  0  0  0  0
   24.4552   -5.8517    2.5934 H   0  0  0  0  0
   26.0624   -7.7448    2.4626 H   0  0  0  0  0
   28.6821   -7.8019    4.0726 H   0  0  0  0  0
   29.9092   -8.9645    1.9665 H   0  0  0  0  0
   25.1524   -1.2077    3.3372 H   0  0  0  0  0
   26.3765   -2.1544    4.3346 H   0  0  0  0  0
   22.9074   -0.4159    4.5714 H   0  0  0  0  0
   23.7519   -2.0252    8.3917 H   0  0  0  0  0
   25.7929   -4.0624    6.2618 H   0  0  0  0  0
   26.8095   -2.6504    6.6411 H   0  0  0  0  0
   25.7992   -3.3867    7.9093 H   0  0  0  0  0
  1  2  2  0  0  0
  2  3  1  0  0  0
  2  8  1  0  0  0
  3  4  1  0  0  0
  4  5  1  0  0  0
  4  6  1  0  0  0
  4  7  1  0  0  0
  8  9  1  0  0  0
  8 11  1  0  0  0
  9 10  1  0  0  0
 10 13  1  0  0  0
 11 12  1  0  0  0
 12 13  1  0  0  0
 13 14  1  0  0  0
 14 15  1  0  0  0
 15 16  1  0  0  0
 15 26  1  0  0  0
 16 17  2  0  0  0
 16 18  2  0  0  0
 16 19  1  0  0  0
 19 20  4  0  0  0
 19 24  4  0  0  0
 20 21  4  0  0  0
 21 22  4  0  0  0
 22 23  4  0  0  0
 23 24  4  0  0  0
 24 25  1  0  0  0
 26 27  1  0  0  0
 27 28  1  0  0  0
 28 29  1  0  0  0
 28 37  1  0  0  0
 29 30  4  0  0  0
 29 32  4  0  0  0
 30 31  4  0  0  0
 31 34  4  0  0  0
 32 33  4  0  0  0
 33 34  4  0  0  0
 34 35  1  0  0  0
 35 36  2  0  0  0
 37 38  1  0  0  0
 38 39  4  0  0  0
 38 42  4  0  0  0
 39 40  4  0  0  0
 40 41  4  0  0  0
 41 42  4  0  0  0
 42 43  1  0  0  0
  5 44  1  0  0  0
  5 45  1  0  0  0
  5 46  1  0  0  0
  6 47  1  0  0  0
  6 48  1  0  0  0
  6 49  1  0  0  0
  7 50  1  0  0  0
  7 51  1  0  0  0
  7 52  1  0  0  0
  9 53  1  0  0  0
  9 54  1  0  0  0
 10 55  1  0  0  0
 10 56  1  0  0  0
 11 57  1  0  0  0
 11 58  1  0  0  0
 12 59  1  0  0  0
 12 60  1  0  0  0
 13 61  1  0  0  0
 14 62  1  0  0  0
 14 63  1  0  0  0
 20 64  1  0  0  0
 21 65  1  0  0  0
 22 66  1  0  0  0
 23 67  1  0  0  0
 25 68  1  0  0  0
 25 69  1  0  0  0
 25 70  1  0  0  0
 26 71  1  0  0  0
 26 72  1  0  0  0
 27 73  1  0  0  0
 27 74  1  0  0  0
 30 75  1  0  0  0
 31 76  1  0  0  0
 32 77  1  0  0  0
 33 78  1  0  0  0
 35 79  1  0  0  0
 36 80  1  0  0  0
 37 81  1  0  0  0
 37 82  1  0  0  0
 39 83  1  0  0  0
 41 84  1  0  0  0
 43 85  1  0  0  0
 43 86  1  0  0  0
 43 87  1  0  0  0
M  END
$$$$
