5ove_ligand
  -I-interpret- 

 48 51  0  0  0  0  0  0  0  0999 V2000
    0.4790  -31.0450   45.4470 C   0  0  0  0  0
    2.3000  -30.1850   47.3520 C   0  0  0  0  0
    0.9560  -29.8130   47.4690 C   0  0  0  0  0
    1.1280  -35.1110   42.9790 C   0  0  0  0  0
   -2.2010  -30.2160   45.6020 C   0  0  0  0  0
   -0.2630  -35.2090   42.8330 C   0  0  0  0  0
    1.1240  -37.2700   44.1030 C   0  0  0  0  0
    3.2120  -36.0950   43.7940 C   0  0  0  0  0
   -0.2610  -37.3540   43.9470 C   0  0  0  0  0
    3.8850  -37.1400   44.4320 C   0  0  0  0  0
    1.2700  -27.8200   48.6760 C   0  0  0  0  0
    0.5320  -29.0400   48.5190 O   0  0  0  0  0
    0.0330  -30.2470   46.5120 C   0  0  0  0  0
   -1.2800  -29.8690   46.6580 O   0  0  0  0  0
    1.8280  -31.4230   45.3250 C   0  0  0  0  0
    2.7360  -30.9800   46.2950 C   0  0  0  0  0
    4.0370  -31.3210   46.2030 N   0  0  0  0  0
    4.4740  -32.0740   45.2020 C   0  0  0  0  0
    3.6480  -32.5150   44.2590 N   0  0  0  0  0
    2.3260  -32.2260   44.2780 C   0  0  0  0  0
    1.5440  -32.6910   43.2930 N   0  0  0  0  0
    1.8680  -33.8670   42.4540 C   0  0  0  0  0
    1.4740  -33.5530   41.0000 C   0  0  0  0  0
    1.8220  -36.1510   43.6210 C   0  0  0  0  0
    3.1850  -38.2520   44.9060 C   0  0  0  0  0
    1.8010  -38.3130   44.7390 C   0  0  0  0  0
   -0.9500  -36.3250   43.3100 C   0  0  0  0  0
   -0.2373  -31.3797   44.6966 H   0  0  0  0  0
    3.0171  -29.8471   48.1002 H   0  0  0  0  0
   -1.8728  -29.7563   44.6698 H   0  0  0  0  0
   -2.2263  -31.2994   45.4852 H   0  0  0  0  0
   -3.1969  -29.8533   45.8565 H   0  0  0  0  0
   -0.8124  -34.4057   42.3422 H   0  0  0  0  0
    3.7700  -35.2326   43.4293 H   0  0  0  0  0
   -0.8015  -38.2227   44.3228 H   0  0  0  0  0
    4.9660  -37.0871   44.5610 H   0  0  0  0  0
    2.3209  -28.0522   48.8485 H   0  0  0  0  0
    1.1730  -27.2192   47.7717 H   0  0  0  0  0
    0.8749  -27.2648   49.5267 H   0  0  0  0  0
    5.5309  -32.3360   45.1521 H   0  0  0  0  0
    0.6678  -32.2021   43.1096 H   0  0  0  0  0
    2.9362  -34.0799   42.4956 H   0  0  0  0  0
    0.4054  -33.3438   40.9516 H   0  0  0  0  0
    2.0319  -32.6830   40.6535 H   0  0  0  0  0
    1.7067  -34.4105   40.3686 H   0  0  0  0  0
    3.7153  -39.0650   45.4020 H   0  0  0  0  0
    1.2468  -39.1769   45.1059 H   0  0  0  0  0
   -2.0306  -36.3921   43.1837 H   0  0  0  0  0
  1 13  4  0  0  0
 15  1  4  0  0  0
  2  3  4  0  0  0
 16  2  4  0  0  0
  3 12  1  0  0  0
 13  3  4  0  0  0
  4  6  4  0  0  0
 22  4  1  0  0  0
  4 24  4  0  0  0
 14  5  1  0  0  0
  6 27  4  0  0  0
  7  9  4  0  0  0
 24  7  4  0  0  0
  7 26  4  0  0  0
  8 10  4  0  0  0
 24  8  4  0  0  0
 27  9  4  0  0  0
 10 25  4  0  0  0
 12 11  1  0  0  0
 13 14  1  0  0  0
 15 16  4  0  0  0
 20 15  4  0  0  0
 16 17  4  0  0  0
 18 17  4  0  0  0
 19 18  4  0  0  0
 20 19  4  0  0  0
 21 20  1  0  0  0
 21 22  1  0  0  0
 22 23  1  0  0  0
 25 26  4  0  0  0
  1 28  1  0  0  0
  2 29  1  0  0  0
  5 30  1  0  0  0
  5 31  1  0  0  0
  5 32  1  0  0  0
  6 33  1  0  0  0
  8 34  1  0  0  0
  9 35  1  0  0  0
 10 36  1  0  0  0
 11 37  1  0  0  0
 11 38  1  0  0  0
 11 39  1  0  0  0
 18 40  1  0  0  0
 21 41  1  0  0  0
 22 42  1  0  0  0
 23 43  1  0  0  0
 23 44  1  0  0  0
 23 45  1  0  0  0
 25 46  1  0  0  0
 26 47  1  0  0  0
 27 48  1  0  0  0
M  END
$$$$
