4qf8_ligand
  -I-interpret- 

 32 31  0  0  0  0  0  0  0  0999 V2000
   17.0230   -0.6970   -3.4050 N   0  3  0  0  0
   18.0180   -0.7420   -4.4850 C   0  0  0  0  0
   18.5310    0.6510   -4.8440 C   0  0  0  0  0
   19.9110    0.8490   -4.2850 C   0  0  0  0  0
   19.9440    1.9430   -3.2340 C   0  0  0  0  0
   20.9630    2.9100   -3.5200 N   0  3  0  0  0
   20.8760    3.8420   -4.6370 C   0  0  0  0  0
   21.9090    4.9120   -4.2950 C   0  0  0  0  0
   21.5680    6.2860   -4.8620 C   0  0  0  0  0
   20.7090    6.9760   -3.9080 N   0  3  0  0  0
   16.7068   -1.6439   -3.1960 H   0  0  0  0  0
   17.4453   -0.2867   -2.5721 H   0  0  0  0  0
   16.2285   -0.1292   -3.6997 H   0  0  0  0  0
   17.5447   -1.1704   -5.3685 H   0  0  0  0  0
   18.8633   -1.3411   -4.1466 H   0  0  0  0  0
   17.8615    1.4001   -4.4211 H   0  0  0  0  0
   18.5651    0.7524   -5.9287 H   0  0  0  0  0
   20.5721    1.1393   -5.1015 H   0  0  0  0  0
   20.2276   -0.0835   -3.8178 H   0  0  0  0  0
   20.1588    1.4885   -2.2669 H   0  0  0  0  0
   18.9781    2.4482   -3.2287 H   0  0  0  0  0
   21.7709    2.3347   -3.7581 H   0  0  0  0  0
   20.9410    3.5210   -2.7036 H   0  0  0  0  0
   19.8742    4.2542   -4.7582 H   0  0  0  0  0
   21.0749    3.3627   -5.5955 H   0  0  0  0  0
   22.8589    4.6030   -4.7312 H   0  0  0  0  0
   21.9406    5.0031   -3.2093 H   0  0  0  0  0
   21.0542    6.1786   -5.8173 H   0  0  0  0  0
   22.4805    6.8594   -5.0254 H   0  0  0  0  0
   20.4708    7.8985   -4.2721 H   0  0  0  0  0
   19.8563    6.4345   -3.7665 H   0  0  0  0  0
   21.2008    7.0762   -3.0200 H   0  0  0  0  0
  1  2  1  0  0  0
  2  3  1  0  0  0
  3  4  1  0  0  0
  4  5  1  0  0  0
  5  6  1  0  0  0
  6  7  1  0  0  0
  7  8  1  0  0  0
  8  9  1  0  0  0
  9 10  1  0  0  0
  1 11  1  0  0  0
  1 12  1  0  0  0
  1 13  1  0  0  0
  2 14  1  0  0  0
  2 15  1  0  0  0
  3 16  1  0  0  0
  3 17  1  0  0  0
  4 18  1  0  0  0
  4 19  1  0  0  0
  5 20  1  0  0  0
  5 21  1  0  0  0
  6 22  1  0  0  0
  6 23  1  0  0  0
  7 24  1  0  0  0
  7 25  1  0  0  0
  8 26  1  0  0  0
  8 27  1  0  0  0
  9 28  1  0  0  0
  9 29  1  0  0  0
 10 30  1  0  0  0
 10 31  1  0  0  0
 10 32  1  0  0  0
M  END
$$$$
