2zu5_ligand
  -I-interpret- 

 97 99  0  0  0  0  0  0  0  0999 V2000
   16.1530   -7.3010   24.9600 C   0  0  0  0  0
   17.2660   -7.7130   23.9620 C   0  0  0  0  0
   17.5650   -6.6500   25.0110 C   0  0  0  0  0
   15.0940   -6.2300   24.6040 C   0  0  0  0  0
   15.3920   -5.0530   23.6930 C   0  0  0  0  0
   14.3790   -4.2190   23.4890 C   0  0  0  0  0
   14.5370   -2.8040   23.6380 C   0  0  0  0  0
   13.4960   -1.7050   23.8700 C   0  0  0  0  0
   13.5530   -0.2100   24.3000 C   0  0  0  0  0
   14.0390   -0.1500   25.7540 C   0  0  0  0  0
   13.4760    1.1700   26.2870 C   0  0  0  0  0
   12.2510    1.2910   25.5530 N   0  0  0  0  0
   12.2850    0.5020   24.4090 C   0  0  0  0  0
   11.3530    0.4180   23.5800 O   0  0  0  0  0
   13.9680   -6.3740   25.0970 O   0  0  0  0  0
   15.3750   -2.5530   22.5980 N   0  0  0  0  0
   16.6500   -1.8650   22.6360 C   0  0  0  0  0
   17.2120   -1.7270   23.7130 O   0  0  0  0  0
   17.3130   -1.2660   21.4000 C   0  0  0  0  0
   18.4390   -2.1000   20.7340 C   0  0  0  0  0
   19.0910   -2.1200   19.3660 C   0  0  0  0  0
   18.0560   -2.2770   18.2430 C   0  0  0  0  0
   20.1420   -3.2480   19.3100 C   0  0  0  0  0
   17.8210    0.0890   21.6290 N   0  0  0  0  0
   16.9660    1.1040   21.7780 C   0  0  0  0  0
   15.7790    0.9270   21.7220 O   0  0  0  0  0
   17.8840    2.1690   21.9970 C   0  0  0  0  0
   17.5360    2.9700   23.2490 C   0  0  0  0  0
   17.7730    2.1210   24.5500 C   0  0  0  0  0
   18.2700    4.1480   23.7710 O   0  0  0  0  0
   17.8120    5.5420   24.0750 C   0  0  0  0  0
   16.4110    5.4460   24.6760 C   0  0  0  0  0
   17.7080    6.3340   22.6740 C   0  0  0  0  0
   19.0080    6.3320   24.5710 C   0  0  0  0  0
   17.6680    3.0370   20.8770 N   0  0  0  0  0
   18.6370    3.6200   20.0610 C   0  0  0  0  0
   19.8400    3.3830   20.3030 O   0  0  0  0  0
   18.5340    4.4600   18.9720 O   0  0  0  0  0
   19.5010    5.0810   18.1090 C   0  0  0  0  0
   20.2380    6.1950   18.8100 C   0  0  0  0  0
   21.4910    6.0220   19.3150 C   0  0  0  0  0
   22.2610    7.0770   20.0130 C   0  0  0  0  0
   21.6250    8.4120   20.1730 C   0  0  0  0  0
   20.2720    8.5950   19.6270 C   0  0  0  0  0
   19.5820    7.4820   18.9470 C   0  0  0  0  0
   15.4775   -7.9073   25.5635 H   0  0  0  0  0
   17.3820   -7.8460   22.8864 H   0  0  0  0  0
   17.7184   -8.6304   23.5854 H   0  0  0  0  0
   18.3340   -6.4318   25.7520 H   0  0  0  0  0
   17.9993   -5.6513   25.0564 H   0  0  0  0  0
   15.6517   -5.4706   22.7202 H   0  0  0  0  0
   16.1778   -4.4748   24.1790 H   0  0  0  0  0
   13.6613   -4.4849   24.2651 H   0  0  0  0  0
   14.1449   -4.3459   22.4320 H   0  0  0  0  0
   14.7913   -2.6778   24.6904 H   0  0  0  0  0
   13.0306   -2.1122   24.7676 H   0  0  0  0  0
   13.1806   -1.5624   22.8364 H   0  0  0  0  0
   14.1678    0.2418   23.5215 H   0  0  0  0  0
   15.1259   -0.1910   25.8253 H   0  0  0  0  0
   13.6983   -1.0062   26.3362 H   0  0  0  0  0
   14.1495    2.0150   26.1441 H   0  0  0  0  0
   13.3333    1.1728   27.3676 H   0  0  0  0  0
   11.4629    1.8755   25.8316 H   0  0  0  0  0
   15.0711   -2.8880   21.6838 H   0  0  0  0  0
   16.4795   -1.2589   20.6976 H   0  0  0  0  0
   17.9175   -3.0554   20.6764 H   0  0  0  0  0
   19.2827   -1.7162   21.3075 H   0  0  0  0  0
   19.5855   -1.1615   19.2084 H   0  0  0  0  0
   17.5143   -3.2131   18.3782 H   0  0  0  0  0
   17.3557   -1.4424   18.2767 H   0  0  0  0  0
   18.5657   -2.2866   17.2796 H   0  0  0  0  0
   20.9019   -3.0729   20.0716 H   0  0  0  0  0
   19.6553   -4.2058   19.4940 H   0  0  0  0  0
   20.6087   -3.2594   18.3250 H   0  0  0  0  0
   18.8261    0.2568   21.6746 H   0  0  0  0  0
   18.8996    1.7902   22.1112 H   0  0  0  0  0
   16.5670    3.2701   22.8501 H   0  0  0  0  0
   17.1454    1.2303   24.5204 H   0  0  0  0  0
   18.8212    1.8269   24.6045 H   0  0  0  0  0
   17.5162    2.7190   25.4244 H   0  0  0  0  0
   15.7408    4.9729   23.9583 H   0  0  0  0  0
   16.4483    4.8500   25.5878 H   0  0  0  0  0
   16.0477    6.4469   24.9092 H   0  0  0  0  0
   18.6863    6.3500   22.1936 H   0  0  0  0  0
   16.9916    5.8299   22.0254 H   0  0  0  0  0
   17.3761    7.3556   22.8594 H   0  0  0  0  0
   19.4049    5.8615   25.4705 H   0  0  0  0  0
   19.7768    6.3483   23.7985 H   0  0  0  0  0
   18.6988    7.3520   24.7992 H   0  0  0  0  0
   16.6968    3.2524   20.6516 H   0  0  0  0  0
   18.9764    5.5019   17.2512 H   0  0  0  0  0
   20.2264    4.3261   17.8057 H   0  0  0  0  0
   21.9572    5.0437   19.1978 H   0  0  0  0  0
   23.2621    6.8814   20.3973 H   0  0  0  0  0
   22.1441    9.2268   20.6777 H   0  0  0  0  0
   19.7750    9.5601   19.7253 H   0  0  0  0  0
   18.5784    7.6268   18.5471 H   0  0  0  0  0
  1  2  1  0  0  0
  1  3  1  0  0  0
  1  4  1  0  0  0
  2  3  1  0  0  0
  4  5  1  0  0  0
  4 15  2  0  0  0
  5  6  1  0  0  0
  6  7  1  0  0  0
  7  8  1  0  0  0
  7 16  1  0  0  0
  8  9  1  0  0  0
  9 10  1  0  0  0
  9 13  1  0  0  0
 10 11  1  0  0  0
 11 12  1  0  0  0
 12 13  1  0  0  0
 13 14  2  0  0  0
 16 17  1  0  0  0
 17 18  2  0  0  0
 17 19  1  0  0  0
 19 20  1  0  0  0
 19 24  1  0  0  0
 20 21  1  0  0  0
 21 22  1  0  0  0
 21 23  1  0  0  0
 24 25  1  0  0  0
 25 26  2  0  0  0
 25 27  1  0  0  0
 27 28  1  0  0  0
 27 35  1  0  0  0
 28 29  1  0  0  0
 28 30  1  0  0  0
 30 31  1  0  0  0
 31 32  1  0  0  0
 31 33  1  0  0  0
 31 34  1  0  0  0
 35 36  1  0  0  0
 36 37  2  0  0  0
 36 38  1  0  0  0
 38 39  1  0  0  0
 39 40  1  0  0  0
 40 41  4  0  0  0
 40 45  4  0  0  0
 41 42  4  0  0  0
 42 43  4  0  0  0
 43 44  4  0  0  0
 44 45  4  0  0  0
  1 46  1  0  0  0
  2 47  1  0  0  0
  2 48  1  0  0  0
  3 49  1  0  0  0
  3 50  1  0  0  0
  5 51  1  0  0  0
  5 52  1  0  0  0
  6 53  1  0  0  0
  6 54  1  0  0  0
  7 55  1  0  0  0
  8 56  1  0  0  0
  8 57  1  0  0  0
  9 58  1  0  0  0
 10 59  1  0  0  0
 10 60  1  0  0  0
 11 61  1  0  0  0
 11 62  1  0  0  0
 12 63  1  0  0  0
 16 64  1  0  0  0
 19 65  1  0  0  0
 20 66  1  0  0  0
 20 67  1  0  0  0
 21 68  1  0  0  0
 22 69  1  0  0  0
 22 70  1  0  0  0
 22 71  1  0  0  0
 23 72  1  0  0  0
 23 73  1  0  0  0
 23 74  1  0  0  0
 24 75  1  0  0  0
 27 76  1  0  0  0
 28 77  1  0  0  0
 29 78  1  0  0  0
 29 79  1  0  0  0
 29 80  1  0  0  0
 32 81  1  0  0  0
 32 82  1  0  0  0
 32 83  1  0  0  0
 33 84  1  0  0  0
 33 85  1  0  0  0
 33 86  1  0  0  0
 34 87  1  0  0  0
 34 88  1  0  0  0
 34 89  1  0  0  0
 35 90  1  0  0  0
 39 91  1  0  0  0
 39 92  1  0  0  0
 41 93  1  0  0  0
 42 94  1  0  0  0
 43 95  1  0  0  0
 44 96  1  0  0  0
 45 97  1  0  0  0
M  END
$$$$
