2p59_ligand
  -I-interpret- 

106110  0  0  0  0  0  0  0  0999 V2000
   84.4040   76.1350   48.9260 C   0  0  0  0  0
   83.6740   76.0340   50.3010 C   0  0  0  0  0
   76.1180   75.6710   49.7570 C   0  0  0  0  0
   90.3060   68.6870   49.8650 C   0  0  0  0  0
   76.7550   75.7760   51.1550 C   0  0  0  0  0
   79.1460   75.7660   49.9960 C   0  0  0  0  0
   78.5130   80.5220   58.6130 O   0  0  0  0  0
   91.2530   69.7900   50.5010 C   0  0  0  0  0
   78.8800   75.7390   52.5170 C   0  0  0  0  0
   82.3810   74.3900   52.5990 C   0  0  0  0  0
   84.5070   73.6370   49.3030 C   0  0  0  0  0
   85.9630   70.0460   50.0160 C   0  0  0  0  0
   78.4450   75.7150   48.6310 C   0  0  0  0  0
   80.3980   75.9340   52.5000 C   0  0  0  0  0
   87.6160   70.8710   48.2210 O   0  0  0  0  0
   78.5940   81.0000   56.3020 O   0  0  0  0  0
   83.1230   73.5110   51.5860 C   0  0  0  0  0
   89.1830   69.2100   49.0520 N   0  0  0  0  0
   85.5330   72.6260   49.8790 C   0  0  0  0  0
   77.0630   75.0140   48.7230 C   0  0  0  0  0
   80.9210   77.0130   52.8220 O   0  0  0  0  0
   78.2450   76.1710   51.1770 C   0  0  0  0  0
   82.7000   74.2760   54.1770 C   0  0  0  0  0
   85.1920   74.8530   48.6620 C   0  0  0  0  0
   85.1510   68.8490   50.5370 C   0  0  0  0  0
   82.4240   75.6350   54.9300 C   0  0  0  0  0
   81.0500   74.8100   52.1050 N   0  0  0  0  0
   83.2280   72.2820   51.7470 O   0  0  0  0  0
   86.6260   73.0130   50.3610 O   0  0  0  0  0
   77.9760   76.3970   57.3610 N   0  0  0  0  0
   84.2580   73.9930   54.3440 C   0  0  0  0  0
   81.7710   73.1060   54.8210 C   0  0  0  0  0
   84.1000   69.2030   51.5750 C   0  0  0  0  0
   85.0160   77.5350   48.6840 C   0  0  0  0  0
   86.8650   69.6570   48.7370 C   0  0  0  0  0
   84.6120   76.4140   51.4640 C   0  0  0  0  0
   90.4530   69.4040   51.2790 C   0  0  0  0  0
   78.2160   76.2740   53.7120 N   0  0  0  0  0
   87.6070   67.6810   49.7150 O   0  0  0  0  0
   83.6700   74.3810   50.3910 N   0  0  0  0  0
   85.1090   71.2710   49.8070 N   0  0  0  0  0
   87.9180   68.7560   49.2130 C   0  0  0  0  0
   84.7820   69.1510   52.9260 C   0  0  0  0  0
   78.7660   74.5420   55.1950 O   0  0  0  0  0
   78.4770   75.7330   54.9740 C   0  0  0  0  0
   85.7120   77.4720   51.1440 C   0  0  0  0  0
   85.3360   78.3720   49.9480 C   0  0  0  0  0
   78.0050   77.6380   58.0400 C   0  0  0  0  0
   78.3800   76.6720   56.0200 C   0  0  0  0  0
   78.6920   78.0790   55.7830 C   0  0  0  0  0
   78.4380   78.6800   57.0880 C   0  0  0  0  0
   78.5280   80.1810   57.3320 N   0  0  0  0  0
   83.7215   76.1332   48.0762 H   0  0  0  0  0
   82.7574   76.6206   50.3630 H   0  0  0  0  0
   75.8932   76.6806   49.4132 H   0  0  0  0  0
   75.2261   75.0499   49.8397 H   0  0  0  0  0
   90.3508   67.7106   49.3826 H   0  0  0  0  0
   76.6902   74.7836   51.6011 H   0  0  0  0  0
   76.2172   76.5635   51.6829 H   0  0  0  0  0
   79.9253   76.5244   49.9209 H   0  0  0  0  0
   79.5022   74.7571   50.2041 H   0  0  0  0  0
   92.0929   70.4636   50.3309 H   0  0  0  0  0
   78.7017   74.6674   52.6069 H   0  0  0  0  0
   82.9432   75.3228   52.6426 H   0  0  0  0  0
   83.9212   73.0048   48.6357 H   0  0  0  0  0
   86.6700   70.3199   50.7991 H   0  0  0  0  0
   79.0727   75.1489   47.9428 H   0  0  0  0  0
   78.2900   76.7371   48.2855 H   0  0  0  0  0
   88.1459   70.6190   47.4612 H   0  0  0  0  0
   89.3678   69.9301   48.3536 H   0  0  0  0  0
   76.5876   75.0886   47.7450 H   0  0  0  0  0
   77.2338   73.9843   49.0372 H   0  0  0  0  0
   78.2046   77.2540   51.0600 H   0  0  0  0  0
   86.1862   74.9606   49.0957 H   0  0  0  0  0
   85.2461   74.6938   47.5850 H   0  0  0  0  0
   85.8563   68.1702   51.0165 H   0  0  0  0  0
   84.6242   68.4251   49.6821 H   0  0  0  0  0
   83.0550   76.4173   54.5082 H   0  0  0  0  0
   81.3756   75.9085   54.8109 H   0  0  0  0  0
   82.6514   75.5147   55.9892 H   0  0  0  0  0
   80.5896   74.2122   51.4187 H   0  0  0  0  0
   84.5129   73.0611   53.8393 H   0  0  0  0  0
   84.8243   74.8133   53.9029 H   0  0  0  0  0
   84.4996   73.9116   55.4038 H   0  0  0  0  0
   80.7203   73.3563   54.6746 H   0  0  0  0  0
   81.9916   72.1577   54.3310 H   0  0  0  0  0
   81.9809   73.0229   55.8874 H   0  0  0  0  0
   83.2658   68.5025   51.5355 H   0  0  0  0  0
   83.6891   70.1949   51.3869 H   0  0  0  0  0
   84.2693   78.1005   48.1265 H   0  0  0  0  0
   85.9688   77.3672   48.1818 H   0  0  0  0  0
   86.2181   69.2356   47.9676 H   0  0  0  0  0
   85.1392   75.5009   51.7405 H   0  0  0  0  0
   83.9791   76.8562   52.2334 H   0  0  0  0  0
   90.0684   69.4851   52.2957 H   0  0  0  0  0
   77.5579   77.0479   53.6204 H   0  0  0  0  0
   84.1250   71.1108   49.5916 H   0  0  0  0  0
   85.1716   68.1474   53.0965 H   0  0  0  0  0
   85.6022   69.8687   52.9454 H   0  0  0  0  0
   84.0614   69.3996   53.7051 H   0  0  0  0  0
   86.6276   76.9386   50.8888 H   0  0  0  0  0
   85.8308   78.1093   52.0203 H   0  0  0  0  0
   84.4490   78.9467   50.2145 H   0  0  0  0  0
   86.1825   79.0217   49.7260 H   0  0  0  0  0
   77.7508   77.7976   59.0879 H   0  0  0  0  0
   79.0292   78.5585   54.8641 H   0  0  0  0  0
  2  1  1  0  0  0
 24  1  1  0  0  0
  1 34  1  0  0  0
  2 36  1  0  0  0
 40  2  1  0  0  0
  5  3  1  0  0  0
  3 20  1  0  0  0
  4  8  1  0  0  0
 18  4  1  0  0  0
  4 37  1  0  0  0
 22  5  1  0  0  0
  6 13  1  0  0  0
 22  6  1  0  0  0
 52  7  2  0  0  0
 37  8  2  0  0  0
  9 14  1  0  0  0
  9 22  1  0  0  0
 38  9  1  0  0  0
 10 17  1  0  0  0
 10 23  1  0  0  0
 27 10  1  0  0  0
 11 19  1  0  0  0
 11 24  1  0  0  0
 40 11  1  0  0  0
 12 25  1  0  0  0
 12 35  1  0  0  0
 41 12  1  0  0  0
 13 20  1  0  0  0
 14 21  2  0  0  0
 14 27  1  0  0  0
 35 15  1  0  0  0
 52 16  2  0  0  0
 17 28  2  0  0  0
 17 40  1  0  0  0
 42 18  1  0  0  0
 19 29  2  0  0  0
 19 41  1  0  0  0
 23 26  1  0  0  0
 23 31  1  0  0  0
 23 32  1  0  0  0
 25 33  1  0  0  0
 48 30  4  0  0  0
 49 30  4  0  0  0
 33 43  1  0  0  0
 34 47  1  0  0  0
 35 42  1  0  0  0
 36 46  1  0  0  0
 45 38  1  0  0  0
 42 39  2  0  0  0
 45 44  2  0  0  0
 49 45  1  0  0  0
 46 47  1  0  0  0
 51 48  4  0  0  0
 50 49  4  0  0  0
 51 50  4  0  0  0
 51 52  1  0  0  0
  1 53  1  0  0  0
  2 54  1  0  0  0
  3 55  1  0  0  0
  3 56  1  0  0  0
  4 57  1  0  0  0
  5 58  1  0  0  0
  5 59  1  0  0  0
  6 60  1  0  0  0
  6 61  1  0  0  0
  8 62  1  0  0  0
  9 63  1  0  0  0
 10 64  1  0  0  0
 11 65  1  0  0  0
 12 66  1  0  0  0
 13 67  1  0  0  0
 13 68  1  0  0  0
 15 69  1  0  0  0
 18 70  1  0  0  0
 20 71  1  0  0  0
 20 72  1  0  0  0
 22 73  1  0  0  0
 24 74  1  0  0  0
 24 75  1  0  0  0
 25 76  1  0  0  0
 25 77  1  0  0  0
 26 78  1  0  0  0
 26 79  1  0  0  0
 26 80  1  0  0  0
 27 81  1  0  0  0
 31 82  1  0  0  0
 31 83  1  0  0  0
 31 84  1  0  0  0
 32 85  1  0  0  0
 32 86  1  0  0  0
 32 87  1  0  0  0
 33 88  1  0  0  0
 33 89  1  0  0  0
 34 90  1  0  0  0
 34 91  1  0  0  0
 35 92  1  0  0  0
 36 93  1  0  0  0
 36 94  1  0  0  0
 37 95  1  0  0  0
 38 96  1  0  0  0
 41 97  1  0  0  0
 43 98  1  0  0  0
 43 99  1  0  0  0
 43100  1  0  0  0
 46101  1  0  0  0
 46102  1  0  0  0
 47103  1  0  0  0
 47104  1  0  0  0
 48105  1  0  0  0
 50106  1  0  0  0
M  END
$$$$
