### 
### Created by X-TOOL on Mon Sep 10 21:13:20 2018
### 

@<TRIPOS>MOLECULE
4o3t_ligand
  152   157     1     0     0
SMALL
GAST_HUCK


@<TRIPOS>ATOM
      1 N         -17.9880   18.1730   -1.3030 N.4       1 ILE         0.2381
      2 CA        -18.1790   19.5510   -1.7430 C.3       1 ILE         0.0676
      3 C         -16.8630   20.0550   -2.3410 C.2       1 ILE         0.2270
      4 O         -15.8640   20.1660   -1.6280 O.2       1 ILE        -0.3907
      5 CB        -18.7040   20.4600   -0.5750 C.3       1 ILE         0.0164
      6 CG1       -20.0670   19.9950    0.0230 C.3       1 ILE        -0.0460
      7 CG2       -18.7030   21.9450   -0.9350 C.3       1 ILE        -0.0551
      8 CD1       -21.3650   20.1610   -0.8470 C.3       1 ILE        -0.0647
      9 N         -16.8640   20.3360   -3.6520 N.am      1 VAL        -0.2608
     10 CA        -15.6980   20.8570   -4.3760 C.3       1 VAL         0.1334
     11 C         -15.7410   22.3870   -4.3000 C.2       1 VAL         0.2040
     12 O         -16.8130   22.9790   -4.4490 O.2       1 VAL        -0.3944
     13 CB        -15.6170   20.3380   -5.8330 C.3       1 VAL        -0.0063
     14 CG1       -14.3630   20.8500   -6.5360 C.3       1 VAL        -0.0584
     15 CG2       -15.6530   18.8150   -5.8710 C.3       1 VAL        -0.0584
     16 N         -14.5900   22.9930   -4.0080 N.am      1 GLY        -0.2664
     17 CA        -14.4500   24.4370   -3.8550 C.3       1 GLY         0.1201
     18 C         -15.1950   24.9590   -2.6430 C.2       1 GLY         0.2005
     19 O         -15.7140   26.0790   -2.6580 O.2       1 GLY        -0.3947
     20 N         -15.2540   24.1280   -1.6050 N.am      1 GLY        -0.2666
     21 CA        -15.9570   24.4300   -0.3670 C.3       1 GLY         0.1201
     22 C         -15.0850   24.8410    0.7980 C.2       1 GLY         0.2009
     23 O         -13.8550   24.8760    0.6970 O.2       1 GLY        -0.3947
     24 N         -15.7380   25.1510    1.9190 N.am      1 TYR        -0.2624
     25 CA        -15.1010   25.5920    3.1530 C.3       1 TYR         0.1392
     26 C         -15.6320   24.7400    4.3120 C.2       1 TYR         0.2082
     27 O         -16.6520   24.0760    4.1160 O.2       1 TYR        -0.3940
     28 CB        -15.4210   27.0900    3.3930 C.3       1 TYR         0.0164
     29 CG        -15.2600   27.9450    2.1570 C.ar      1 TYR        -0.0493
     30 CD1       -14.0090   28.1350    1.5740 C.ar      1 TYR        -0.0685
     31 CD2       -16.3640   28.5180    1.5350 C.ar      1 TYR        -0.0685
     32 CE1       -13.8630   28.8550    0.3920 C.ar      1 TYR        -0.0398
     33 CE2       -16.2260   29.2720    0.3700 C.ar      1 TYR        -0.0398
     34 CZ        -14.9720   29.4420   -0.1950 C.ar      1 TYR         0.0805
     35 OH        -14.8180   30.1950   -1.3340 O.3       1 TYR        -0.3376
     36 N         -15.0060   24.7290    5.5220 N.am      1 PRO        -0.2497
     37 CA        -15.5910   23.9520    6.6270 C.3       1 PRO         0.1338
     38 C         -16.9470   24.5420    7.0090 C.2       1 PRO         0.2042
     39 O         -17.1080   25.7660    6.9980 O.2       1 PRO        -0.3944
     40 CB        -14.5710   24.1000    7.7620 C.3       1 PRO        -0.0104
     41 CG        -13.3460   24.6550    7.1280 C.3       1 PRO        -0.0281
     42 CD        -13.8020   25.4560    5.9680 C.3       1 PRO         0.0369
     43 N         -17.9220   23.6600    7.2960 N.am      1 TRP        -0.2627
     44 CA        -19.3180   23.9600    7.6360 C.3       1 TRP         0.1352
     45 C         -19.5980   25.2640    8.4120 C.2       1 TRP         0.2052
     46 O         -20.6140   25.9160    8.1600 O.2       1 TRP        -0.3942
     47 CB        -19.9610   22.7510    8.3280 C.3       1 TRP         0.0042
     48 CG        -19.4330   22.4910    9.7080 C.2       1 TRP        -0.0418
     49 CD1       -18.3720   21.7050   10.0480 C.2       1 TRP         0.0167
     50 CD2       -19.9410   23.0370   10.9320 C.ar      1 TRP        -0.0214
     51 NE1       -18.1930   21.7190   11.4130 N.pl3     1 TRP        -0.2890
     52 CE2       -19.1440   22.5280   11.9800 C.ar      1 TRP         0.0603
     53 CE3       -20.9790   23.9320   11.2440 C.ar      1 TRP        -0.0747
     54 CZ2       -19.3690   22.8630   13.3190 C.ar      1 TRP        -0.0443
     55 CZ3       -21.2100   24.2520   12.5700 C.ar      1 TRP        -0.0792
     56 CH2       -20.4130   23.7210   13.5920 C.ar      1 TRP        -0.0768
     57 N         -18.7040   25.6340    9.3460 N.am      1 TRP        -0.2626
     58 CA        -18.8270   26.8260   10.1900 C.3       1 TRP         0.1351
     59 C         -18.4430   28.1580    9.4950 C.2       1 TRP         0.2047
     60 O         -18.0620   29.1140   10.1740 O.2       1 TRP        -0.3943
     61 CB        -18.0990   26.6240   11.5390 C.3       1 TRP         0.0042
     62 CG        -16.7600   25.9460   11.4350 C.2       1 TRP        -0.0418
     63 CD1       -16.4840   24.6310   11.6730 C.2       1 TRP         0.0167
     64 CD2       -15.5200   26.5540   11.0510 C.ar      1 TRP        -0.0214
     65 NE1       -15.1480   24.3800   11.4590 N.pl3     1 TRP        -0.2890
     66 CE2       -14.5320   25.5420   11.0740 C.ar      1 TRP         0.0603
     67 CE3       -15.1430   27.8630   10.6980 C.ar      1 TRP        -0.0747
     68 CZ2       -13.1950   25.7950   10.7480 C.ar      1 TRP        -0.0443
     69 CZ3       -13.8180   28.1110   10.3710 C.ar      1 TRP        -0.0792
     70 CH2       -12.8600   27.0870   10.3990 C.ar      1 TRP        -0.0768
     71 N         -18.5840   28.2250    8.1480 N.am      1 MET        -0.2669
     72 CA        -18.2800   29.4030    7.3280 C.3       1 MET         0.1233
     73 C         -19.4630   29.7500    6.4350 C.2       1 MET         0.2150
     74 O         -20.4890   30.2210    6.9190 O.co2     1 MET        -0.4120
     75 CB        -17.0330   29.1630    6.4590 C.3       1 MET        -0.0065
     76 CG        -15.7540   28.9430    7.2480 C.3       1 MET        -0.0029
     77 SD        -14.7060   30.4100    7.3850 S.3       1 MET        -0.1639
     78 CE        -15.3470   31.1320    8.8740 C.3       1 MET        -0.0181
     79 H         -17.6515   17.6177   -2.0740 H         1 ILE         0.2015
     80 H         -18.8659   17.7994   -0.9778 H         1 ILE         0.2015
     81 H         -17.3146   18.1499   -0.5533 H         1 ILE         0.2015
     82 H         -18.9405   19.5592   -2.5367 H         1 ILE         0.1101
     83 H         -17.9709   20.3480    0.2374 H         1 ILE         0.0378
     84 H         -20.2243   20.5628    0.9519 H         1 ILE         0.0269
     85 H         -19.9695   18.9251    0.2592 H         1 ILE         0.0269
     86 H         -17.7227   22.2208   -1.3509 H         1 ILE         0.0236
     87 H         -18.8990   22.5414   -0.0318 H         1 ILE         0.0236
     88 H         -19.4865   22.1419   -1.6816 H         1 ILE         0.0236
     89 H         -22.2336   19.7879   -0.2845 H         1 ILE         0.0230
     90 H         -21.2577   19.5868   -1.7790 H         1 ILE         0.0230
     91 H         -21.5125   21.2244   -1.0864 H         1 ILE         0.0230
     92 H         -17.7077   20.1818   -4.1663 H         1 VAL         0.1885
     93 H         -14.7912   20.5131   -3.8569 H         1 VAL         0.0802
     94 H         -16.4943   20.7168   -6.3779 H         1 VAL         0.0343
     95 H         -14.3365   20.4640   -7.5657 H         1 VAL         0.0234
     96 H         -13.4711   20.5054   -5.9921 H         1 VAL         0.0234
     97 H         -14.3775   21.9497   -6.5570 H         1 VAL         0.0234
     98 H         -16.5600   18.4569   -5.3620 H         1 VAL         0.0234
     99 H         -14.7643   18.4144   -5.3614 H         1 VAL         0.0234
    100 H         -15.6608   18.4744   -6.9169 H         1 VAL         0.0234
    101 H         -13.7759   22.4251   -3.8869 H         1 GLY         0.1881
    102 H         -14.8484   24.9289   -4.7546 H         1 GLY         0.0763
    103 H         -13.3827   24.6799   -3.7465 H         1 GLY         0.0763
    104 H         -14.7888   23.2460   -1.6800 H         1 GLY         0.1881
    105 H         -16.5180   23.5320   -0.0690 H         1 GLY         0.0763
    106 H         -16.6602   25.2514   -0.5692 H         1 GLY         0.0763
    107 H         -16.7351   25.0754    1.9120 H         1 TYR         0.1885
    108 H         -14.0117   25.4620    3.0728 H         1 TYR         0.0821
    109 H         -14.7429   27.4709    4.1709 H         1 TYR         0.0453
    110 H         -16.4613   27.1727    3.7408 H         1 TYR         0.0453
    111 H         -13.1315   27.7134    2.0508 H         1 TYR         0.0530
    112 H         -17.3496   28.3760    1.9635 H         1 TYR         0.0530
    113 H         -12.8862   28.9560   -0.0671 H         1 TYR         0.0525
    114 H         -17.0965   29.7235   -0.0920 H         1 TYR         0.0525
    115 H         -13.9012   30.2069   -1.5829 H         1 TYR         0.2458
    116 H         -15.7133   22.8950    6.3481 H         1 PRO         0.0802
    117 H         -14.3582   23.1215    8.2172 H         1 PRO         0.0313
    118 H         -14.9503   24.7879    8.5320 H         1 PRO         0.0313
    119 H         -12.6884   23.8396    6.7924 H         1 PRO         0.0287
    120 H         -12.8040   25.2931    7.8415 H         1 PRO         0.0287
    121 H         -14.0491   26.4846    6.2694 H         1 PRO         0.0524
    122 H         -13.0375   25.4792    5.1774 H         1 PRO         0.0524
    123 H         -17.6673   22.6932    7.2753 H         1 TRP         0.1884
    124 H         -19.8337   24.0824    6.6721 H         1 TRP         0.0815
    125 H         -19.7746   21.8591    7.7118 H         1 TRP         0.0397
    126 H         -21.0444   22.9278    8.3989 H         1 TRP         0.0397
    127 H         -17.7565   21.1479    9.3432 H         1 TRP         0.0795
    128 H         -17.4625   21.2047   11.9257 H         1 TRP         0.2216
    129 H         -21.5884   24.3643   10.4586 H         1 TRP         0.0540
    130 H         -18.7466   22.4635   14.1115 H         1 TRP         0.0541
    131 H         -22.0215   24.9250   12.8222 H         1 TRP         0.0510
    132 H         -20.6218   23.9908   14.6209 H         1 TRP         0.0530
    133 H         -17.8986   25.0551    9.4737 H         1 TRP         0.1884
    134 H         -19.8971   26.9166   10.4280 H         1 TRP         0.0815
    135 H         -18.7432   26.0125   12.1879 H         1 TRP         0.0397
    136 H         -17.9480   27.6120   11.9983 H         1 TRP         0.0397
    137 H         -17.2153   23.8876   11.9869 H         1 TRP         0.0795
    138 H         -14.6857   23.4663   11.5702 H         1 TRP         0.2216
    139 H         -15.8745   28.6628   10.6819 H         1 TRP         0.0540
    140 H         -12.4514   25.0065   10.7689 H         1 TRP         0.0541
    141 H         -13.5177   29.1137   10.0889 H         1 TRP         0.0510
    142 H         -11.8325   27.3161   10.1404 H         1 TRP         0.0530
    143 H         -18.9209   27.4093    7.6777 H         1 MET         0.1876
    144 H         -18.0826   30.2522    7.9987 H         1 MET         0.0751
    145 O1        -19.3893   29.5530    5.1927 O.co2     1 MET        -0.4120
    146 H         -16.8911   30.0401    5.8105 H         1 MET         0.0314
    147 H         -17.2120   28.2729    5.8380 H         1 MET         0.0314
    148 H         -15.1747   28.1504    6.7519 H         1 MET         0.0378
    149 H         -16.0264   28.6177    8.2629 H         1 MET         0.0378
    150 H         -14.7976   32.0582    9.0984 H         1 MET         0.0340
    151 H         -15.2264   30.4233    9.7066 H         1 MET         0.0340
    152 H         -16.4143   31.3622    8.7400 H         1 MET         0.0340
@<TRIPOS>BOND
     1    1    2 1  
     2    2    3 1  
     3    2    5 1  
     4    3    4 2  
     5    3    9 am 
     6    5    6 1  
     7    5    7 1  
     8    6    8 1  
     9    9   10 1  
    10   10   11 1  
    11   10   13 1  
    12   11   12 2  
    13   11   16 am 
    14   13   14 1  
    15   13   15 1  
    16   16   17 1  
    17   17   18 1  
    18   18   19 2  
    19   18   20 am 
    20   20   21 1  
    21   21   22 1  
    22   22   23 2  
    23   22   24 am 
    24   24   25 1  
    25   25   26 1  
    26   25   28 1  
    27   26   27 2  
    28   26   36 am 
    29   28   29 1  
    30   29   30 ar 
    31   29   31 ar 
    32   30   32 ar 
    33   31   33 ar 
    34   32   34 ar 
    35   33   34 ar 
    36   34   35 1  
    37   36   37 1  
    38   36   42 1  
    39   37   38 1  
    40   37   40 1  
    41   38   39 2  
    42   38   43 am 
    43   40   41 1  
    44   41   42 1  
    45   43   44 1  
    46   44   45 1  
    47   44   47 1  
    48   45   46 2  
    49   45   57 am 
    50   47   48 1  
    51   48   49 2  
    52   48   50 1  
    53   49   51 1  
    54   50   52 ar 
    55   50   53 ar 
    56   51   52 1  
    57   52   54 ar 
    58   53   55 ar 
    59   54   56 ar 
    60   55   56 ar 
    61   57   58 1  
    62   58   59 1  
    63   58   61 1  
    64   59   60 2  
    65   59   71 am 
    66   61   62 1  
    67   62   63 2  
    68   62   64 1  
    69   63   65 1  
    70   64   66 ar 
    71   64   67 ar 
    72   65   66 1  
    73   66   68 ar 
    74   67   69 ar 
    75   68   70 ar 
    76   69   70 ar 
    77   71   72 1  
    78   72   73 1  
    79   72   75 1  
    80   73   74 ar 
    81   75   76 1  
    82   76   77 1  
    83   77   78 1  
    84    1   79 1  
    85    1   80 1  
    86    1   81 1  
    87    2   82 1  
    88    5   83 1  
    89    6   84 1  
    90    6   85 1  
    91    7   86 1  
    92    7   87 1  
    93    7   88 1  
    94    8   89 1  
    95    8   90 1  
    96    8   91 1  
    97    9   92 1  
    98   10   93 1  
    99   13   94 1  
   100   14   95 1  
   101   14   96 1  
   102   14   97 1  
   103   15   98 1  
   104   15   99 1  
   105   15  100 1  
   106   16  101 1  
   107   17  102 1  
   108   17  103 1  
   109   20  104 1  
   110   21  105 1  
   111   21  106 1  
   112   24  107 1  
   113   25  108 1  
   114   28  109 1  
   115   28  110 1  
   116   30  111 1  
   117   31  112 1  
   118   32  113 1  
   119   33  114 1  
   120   35  115 1  
   121   37  116 1  
   122   40  117 1  
   123   40  118 1  
   124   41  119 1  
   125   41  120 1  
   126   42  121 1  
   127   42  122 1  
   128   43  123 1  
   129   44  124 1  
   130   47  125 1  
   131   47  126 1  
   132   49  127 1  
   133   51  128 1  
   134   53  129 1  
   135   54  130 1  
   136   55  131 1  
   137   56  132 1  
   138   57  133 1  
   139   58  134 1  
   140   61  135 1  
   141   61  136 1  
   142   63  137 1  
   143   65  138 1  
   144   67  139 1  
   145   68  140 1  
   146   69  141 1  
   147   70  142 1  
   148   71  143 1  
   149   72  144 1  
   150   73  145 ar 
   151   75  146 1  
   152   75  147 1  
   153   76  148 1  
   154   76  149 1  
   155   78  150 1  
   156   78  151 1  
   157   78  152 1  
@<TRIPOS>SUBSTRUCTURE
     1 ILE         1

