4o3t_ligand
  -I-interpret- 

151156  0  0  0  0  0  0  0  0999 V2000
  -17.9880   18.1730   -1.3030 N   0  3  0  0  0
  -18.1790   19.5510   -1.7430 C   0  0  0  0  0
  -16.8630   20.0550   -2.3410 C   0  0  0  0  0
  -15.8640   20.1660   -1.6280 O   0  0  0  0  0
  -18.7040   20.4600   -0.5750 C   0  0  0  0  0
  -20.0670   19.9950    0.0230 C   0  0  0  0  0
  -18.7030   21.9450   -0.9350 C   0  0  0  0  0
  -21.3650   20.1610   -0.8470 C   0  0  0  0  0
  -16.8640   20.3360   -3.6520 N   0  0  0  0  0
  -15.6980   20.8570   -4.3760 C   0  0  0  0  0
  -15.7410   22.3870   -4.3000 C   0  0  0  0  0
  -16.8130   22.9790   -4.4490 O   0  0  0  0  0
  -15.6170   20.3380   -5.8330 C   0  0  0  0  0
  -14.3630   20.8500   -6.5360 C   0  0  0  0  0
  -15.6530   18.8150   -5.8710 C   0  0  0  0  0
  -14.5900   22.9930   -4.0080 N   0  0  0  0  0
  -14.4500   24.4370   -3.8550 C   0  0  0  0  0
  -15.1950   24.9590   -2.6430 C   0  0  0  0  0
  -15.7140   26.0790   -2.6580 O   0  0  0  0  0
  -15.2540   24.1280   -1.6050 N   0  0  0  0  0
  -15.9570   24.4300   -0.3670 C   0  0  0  0  0
  -15.0850   24.8410    0.7980 C   0  0  0  0  0
  -13.8550   24.8760    0.6970 O   0  0  0  0  0
  -15.7380   25.1510    1.9190 N   0  0  0  0  0
  -15.1010   25.5920    3.1530 C   0  0  0  0  0
  -15.6320   24.7400    4.3120 C   0  0  0  0  0
  -16.6520   24.0760    4.1160 O   0  0  0  0  0
  -15.4210   27.0900    3.3930 C   0  0  0  0  0
  -15.2600   27.9450    2.1570 C   0  0  0  0  0
  -14.0090   28.1350    1.5740 C   0  0  0  0  0
  -16.3640   28.5180    1.5350 C   0  0  0  0  0
  -13.8630   28.8550    0.3920 C   0  0  0  0  0
  -16.2260   29.2720    0.3700 C   0  0  0  0  0
  -14.9720   29.4420   -0.1950 C   0  0  0  0  0
  -14.8180   30.1950   -1.3340 O   0  0  0  0  0
  -15.0060   24.7290    5.5220 N   0  0  0  0  0
  -15.5910   23.9520    6.6270 C   0  0  0  0  0
  -16.9470   24.5420    7.0090 C   0  0  0  0  0
  -17.1080   25.7660    6.9980 O   0  0  0  0  0
  -14.5710   24.1000    7.7620 C   0  0  0  0  0
  -13.3460   24.6550    7.1280 C   0  0  0  0  0
  -13.8020   25.4560    5.9680 C   0  0  0  0  0
  -17.9220   23.6600    7.2960 N   0  0  0  0  0
  -19.3180   23.9600    7.6360 C   0  0  0  0  0
  -19.5980   25.2640    8.4120 C   0  0  0  0  0
  -20.6140   25.9160    8.1600 O   0  0  0  0  0
  -19.9610   22.7510    8.3280 C   0  0  0  0  0
  -19.4330   22.4910    9.7080 C   0  0  0  0  0
  -18.3720   21.7050   10.0480 C   0  0  0  0  0
  -19.9410   23.0370   10.9320 C   0  0  0  0  0
  -18.1930   21.7190   11.4130 N   0  0  0  0  0
  -19.1440   22.5280   11.9800 C   0  0  0  0  0
  -20.9790   23.9320   11.2440 C   0  0  0  0  0
  -19.3690   22.8630   13.3190 C   0  0  0  0  0
  -21.2100   24.2520   12.5700 C   0  0  0  0  0
  -20.4130   23.7210   13.5920 C   0  0  0  0  0
  -18.7040   25.6340    9.3460 N   0  0  0  0  0
  -18.8270   26.8260   10.1900 C   0  0  0  0  0
  -18.4430   28.1580    9.4950 C   0  0  0  0  0
  -18.0620   29.1140   10.1740 O   0  0  0  0  0
  -18.0990   26.6240   11.5390 C   0  0  0  0  0
  -16.7600   25.9460   11.4350 C   0  0  0  0  0
  -16.4840   24.6310   11.6730 C   0  0  0  0  0
  -15.5200   26.5540   11.0510 C   0  0  0  0  0
  -15.1480   24.3800   11.4590 N   0  0  0  0  0
  -14.5320   25.5420   11.0740 C   0  0  0  0  0
  -15.1430   27.8630   10.6980 C   0  0  0  0  0
  -13.1950   25.7950   10.7480 C   0  0  0  0  0
  -13.8180   28.1110   10.3710 C   0  0  0  0  0
  -12.8600   27.0870   10.3990 C   0  0  0  0  0
  -18.5840   28.2250    8.1480 N   0  0  0  0  0
  -18.2800   29.4030    7.3280 C   0  0  0  0  0
  -19.4630   29.7500    6.4350 C   0  0  0  0  0
  -20.4890   30.2210    6.9190 O   0  0  0  0  0
  -17.0330   29.1630    6.4590 C   0  0  0  0  0
  -15.7540   28.9430    7.2480 C   0  0  0  0  0
  -14.7060   30.4100    7.3850 S   0  0  0  0  0
  -15.3470   31.1320    8.8740 C   0  0  0  0  0
  -19.3893   29.5530    5.1927 O   0  0  0  0  0
  -17.6476   17.6121   -2.0839 H   0  0  0  0  0
  -17.3065   18.1509   -0.5444 H   0  0  0  0  0
  -18.8769   17.7961   -0.9741 H   0  0  0  0  0
  -18.9501   19.5937   -2.5122 H   0  0  0  0  0
  -17.9778   20.3323    0.2277 H   0  0  0  0  0
  -20.2261   20.6292    0.8951 H   0  0  0  0  0
  -19.9603   18.9206    0.1724 H   0  0  0  0  0
  -19.4798   22.1387   -1.6747 H   0  0  0  0  0
  -18.8973   22.5348   -0.0392 H   0  0  0  0  0
  -17.7312   22.2170   -1.3470 H   0  0  0  0  0
  -21.5100   21.2151   -1.0835 H   0  0  0  0  0
  -21.2573   19.5916   -1.7702 H   0  0  0  0  0
  -22.2249   19.7910   -0.2886 H   0  0  0  0  0
  -17.7245   20.1787   -4.1766 H   0  0  0  0  0
  -14.7857   20.4916   -3.9045 H   0  0  0  0  0
  -16.4878   20.7219   -6.3644 H   0  0  0  0  0
  -14.3786   21.9397   -6.5561 H   0  0  0  0  0
  -13.4801   20.5079   -5.9961 H   0  0  0  0  0
  -14.3378   20.4668   -7.5561 H   0  0  0  0  0
  -14.8067   18.4187   -5.3098 H   0  0  0  0  0
  -16.5832   18.4636   -5.4246 H   0  0  0  0  0
  -15.5947   18.4772   -6.9057 H   0  0  0  0  0
  -13.7596   22.4138   -3.8845 H   0  0  0  0  0
  -14.8679   24.9141   -4.7415 H   0  0  0  0  0
  -13.3916   24.6634   -3.7260 H   0  0  0  0  0
  -14.7795   23.2283   -1.6815 H   0  0  0  0  0
  -16.4615   23.5118   -0.0664 H   0  0  0  0  0
  -16.6076   25.2782   -0.5802 H   0  0  0  0  0
  -16.7551   25.0739    1.9119 H   0  0  0  0  0
  -14.0196   25.4742    3.0834 H   0  0  0  0  0
  -14.7198   27.4595    4.1412 H   0  0  0  0  0
  -16.4633   27.1570    3.7048 H   0  0  0  0  0
  -13.1266   27.7111    2.0534 H   0  0  0  0  0
  -17.3550   28.3752    1.9658 H   0  0  0  0  0
  -12.8808   28.9565   -0.0696 H   0  0  0  0  0
  -17.1013   29.7260   -0.0945 H   0  0  0  0  0
  -15.6735   30.5292   -1.6134 H   0  0  0  0  0
  -15.7720   22.9062    6.3789 H   0  0  0  0  0
  -14.3713   23.1439    8.2457 H   0  0  0  0  0
  -14.9436   24.7545    8.5500 H   0  0  0  0  0
  -12.6731   23.8576    6.8126 H   0  0  0  0  0
  -12.7854   25.2700    7.8320 H   0  0  0  0  0
  -14.0047   26.4960    6.2239 H   0  0  0  0  0
  -13.0453   25.5424    5.1882 H   0  0  0  0  0
  -17.6622   22.6739    7.2749 H   0  0  0  0  0
  -19.7861   24.1567    6.6715 H   0  0  0  0  0
  -19.7356   21.8727    7.7231 H   0  0  0  0  0
  -21.0268   22.9593    8.4219 H   0  0  0  0  0
  -17.7559   21.1474    9.3426 H   0  0  0  0  0
  -21.5918   24.3667   10.4543 H   0  0  0  0  0
  -18.7432   22.4613   14.1159 H   0  0  0  0  0
  -22.0260   24.9287   12.8236 H   0  0  0  0  0
  -20.6229   23.9923   14.6266 H   0  0  0  0  0
  -17.8825   25.0436    9.4762 H   0  0  0  0  0
  -19.8923   26.9388   10.3912 H   0  0  0  0  0
  -18.7337   25.9813   12.1490 H   0  0  0  0  0
  -17.9212   27.6156   11.9553 H   0  0  0  0  0
  -17.2160   23.8870   11.9872 H   0  0  0  0  0
  -15.8786   28.6672   10.6818 H   0  0  0  0  0
  -12.4473   25.0022   10.7690 H   0  0  0  0  0
  -13.5161   29.1192   10.0874 H   0  0  0  0  0
  -11.8268   27.3173   10.1390 H   0  0  0  0  0
  -18.9276   27.3930    7.6683 H   0  0  0  0  0
  -18.0819   30.2357    8.0029 H   0  0  0  0  0
  -16.8867   30.0578    5.8541 H   0  0  0  0  0
  -17.2139   28.2560    5.8821 H   0  0  0  0  0
  -15.1770   28.1838    6.7200 H   0  0  0  0  0
  -16.0449   28.6600    8.2596 H   0  0  0  0  0
  -16.4045   31.3595    8.7399 H   0  0  0  0  0
  -15.2270   30.4288    9.6981 H   0  0  0  0  0
  -14.8018   32.0496    9.0953 H   0  0  0  0  0
  -18.5292   29.1841    4.9788 H   0  0  0  0  0
  1  2  1  0  0  0
  2  3  1  0  0  0
  2  5  1  0  0  0
  3  4  2  0  0  0
  3  9  1  0  0  0
  5  6  1  0  0  0
  5  7  1  0  0  0
  6  8  1  0  0  0
  9 10  1  0  0  0
 10 11  1  0  0  0
 10 13  1  0  0  0
 11 12  2  0  0  0
 11 16  1  0  0  0
 13 14  1  0  0  0
 13 15  1  0  0  0
 16 17  1  0  0  0
 17 18  1  0  0  0
 18 19  2  0  0  0
 18 20  1  0  0  0
 20 21  1  0  0  0
 21 22  1  0  0  0
 22 23  2  0  0  0
 22 24  1  0  0  0
 24 25  1  0  0  0
 25 26  1  0  0  0
 25 28  1  0  0  0
 26 27  2  0  0  0
 26 36  1  0  0  0
 28 29  1  0  0  0
 29 30  4  0  0  0
 29 31  4  0  0  0
 30 32  4  0  0  0
 31 33  4  0  0  0
 32 34  4  0  0  0
 33 34  4  0  0  0
 34 35  1  0  0  0
 36 37  1  0  0  0
 36 42  1  0  0  0
 37 38  1  0  0  0
 37 40  1  0  0  0
 38 39  2  0  0  0
 38 43  1  0  0  0
 40 41  1  0  0  0
 41 42  1  0  0  0
 43 44  1  0  0  0
 44 45  1  0  0  0
 44 47  1  0  0  0
 45 46  2  0  0  0
 45 57  1  0  0  0
 47 48  1  0  0  0
 48 49  4  0  0  0
 48 50  4  0  0  0
 49 51  4  0  0  0
 50 52  4  0  0  0
 50 53  4  0  0  0
 51 52  4  0  0  0
 52 54  4  0  0  0
 53 55  4  0  0  0
 54 56  4  0  0  0
 55 56  4  0  0  0
 57 58  1  0  0  0
 58 59  1  0  0  0
 58 61  1  0  0  0
 59 60  2  0  0  0
 59 71  1  0  0  0
 61 62  1  0  0  0
 62 63  4  0  0  0
 62 64  4  0  0  0
 63 65  4  0  0  0
 64 66  4  0  0  0
 64 67  4  0  0  0
 65 66  4  0  0  0
 66 68  4  0  0  0
 67 69  4  0  0  0
 68 70  4  0  0  0
 69 70  4  0  0  0
 71 72  1  0  0  0
 72 73  1  0  0  0
 72 75  1  0  0  0
 73 74  2  0  0  0
 75 76  1  0  0  0
 76 77  1  0  0  0
 77 78  1  0  0  0
 73 79  1  0  0  0
  1 80  1  0  0  0
  1 81  1  0  0  0
  1 82  1  0  0  0
  2 83  1  0  0  0
  5 84  1  0  0  0
  6 85  1  0  0  0
  6 86  1  0  0  0
  7 87  1  0  0  0
  7 88  1  0  0  0
  7 89  1  0  0  0
  8 90  1  0  0  0
  8 91  1  0  0  0
  8 92  1  0  0  0
  9 93  1  0  0  0
 10 94  1  0  0  0
 13 95  1  0  0  0
 14 96  1  0  0  0
 14 97  1  0  0  0
 14 98  1  0  0  0
 15 99  1  0  0  0
 15100  1  0  0  0
 15101  1  0  0  0
 16102  1  0  0  0
 17103  1  0  0  0
 17104  1  0  0  0
 20105  1  0  0  0
 21106  1  0  0  0
 21107  1  0  0  0
 24108  1  0  0  0
 25109  1  0  0  0
 28110  1  0  0  0
 28111  1  0  0  0
 30112  1  0  0  0
 31113  1  0  0  0
 32114  1  0  0  0
 33115  1  0  0  0
 35116  1  0  0  0
 37117  1  0  0  0
 40118  1  0  0  0
 40119  1  0  0  0
 41120  1  0  0  0
 41121  1  0  0  0
 42122  1  0  0  0
 42123  1  0  0  0
 43124  1  0  0  0
 44125  1  0  0  0
 47126  1  0  0  0
 47127  1  0  0  0
 49128  1  0  0  0
 53129  1  0  0  0
 54130  1  0  0  0
 55131  1  0  0  0
 56132  1  0  0  0
 57133  1  0  0  0
 58134  1  0  0  0
 61135  1  0  0  0
 61136  1  0  0  0
 63137  1  0  0  0
 67138  1  0  0  0
 68139  1  0  0  0
 69140  1  0  0  0
 70141  1  0  0  0
 71142  1  0  0  0
 72143  1  0  0  0
 75144  1  0  0  0
 75145  1  0  0  0
 76146  1  0  0  0
 76147  1  0  0  0
 78148  1  0  0  0
 78149  1  0  0  0
 78150  1  0  0  0
 79151  1  0  0  0
M  END
$$$$
