4bps_ligand
  -I-interpret- 

 24 24  0  0  0  0  0  0  0  0999 V2000
   54.8700    6.3800    4.1760 C   0  0  0  0  0
   53.8910    5.6280    4.2290 O   0  0  0  0  0
   56.2770    5.8550    4.1140 C   0  0  0  0  0
   54.6080    2.2400    9.2550 O   0  0  0  0  0
   55.3610    3.3920   10.9950 O   0  0  0  0  0
   56.7820    6.2290    7.0950 C   0  0  0  0  0
   56.7080    6.4670    8.4620 C   0  0  0  0  0
   56.3820    5.0010    6.5670 C   0  0  0  0  0
   56.2470    5.4840    9.3210 C   0  0  0  0  0
   55.2380    3.2090    9.7250 C   0  0  0  0  0
   55.9010    4.0290    7.4450 C   0  0  0  0  0
   55.8110    4.2630    8.8170 C   0  0  0  0  0
   54.7510    7.6630    4.1100 O   0  0  0  0  0
   56.5020    4.6780    5.0860 C   0  0  0  0  0
   56.9533    6.6621    4.3957 H   0  0  0  0  0
   56.4621    5.4987    3.1007 H   0  0  0  0  0
   55.8765    4.1860   11.1543 H   0  0  0  0  0
   57.1554    7.0077    6.4300 H   0  0  0  0  0
   57.0149    7.4340    8.8606 H   0  0  0  0  0
   56.2256    5.6673   10.3953 H   0  0  0  0  0
   55.5879    3.0630    7.0488 H   0  0  0  0  0
   55.6231    8.0629    4.0770 H   0  0  0  0  0
   57.5276    4.3440    4.9286 H   0  0  0  0  0
   55.7214    3.9490    4.8684 H   0  0  0  0  0
  1  2  2  0  0  0
  3  1  1  0  0  0
  1 13  1  0  0  0
 14  3  1  0  0  0
 10  4  2  0  0  0
 10  5  1  0  0  0
  7  6  4  0  0  0
  6  8  4  0  0  0
  9  7  4  0  0  0
  8 11  4  0  0  0
  8 14  1  0  0  0
 12  9  4  0  0  0
 10 12  1  0  0  0
 11 12  4  0  0  0
  3 15  1  0  0  0
  3 16  1  0  0  0
  5 17  1  0  0  0
  6 18  1  0  0  0
  7 19  1  0  0  0
  9 20  1  0  0  0
 11 21  1  0  0  0
 13 22  1  0  0  0
 14 23  1  0  0  0
 14 24  1  0  0  0
M  END
$$$$
