1w80_ligand
  -I-interpret- 

136139  0  0  0  0  0  0  0  0999 V2000
   22.0180  -19.3770   -7.2980 N   0  3  0  0  0
   22.3770  -19.2690   -8.7150 C   0  0  0  0  0
   23.7860  -18.7080   -8.9120 C   0  0  0  0  0
   24.1310  -17.6500   -8.3700 O   0  0  0  0  0
   21.3030  -18.3330   -9.2720 C   0  0  0  0  0
   20.0850  -18.6810   -8.4420 C   0  0  0  0  0
   20.6140  -18.9790   -7.0550 C   0  0  0  0  0
   24.6120  -19.4210   -9.6700 N   0  0  0  0  0
   26.0360  -19.0650   -9.7580 C   0  0  0  0  0
   26.2990  -17.6850  -10.4230 C   0  0  0  0  0
   27.3650  -17.1130  -10.2210 O   0  0  0  0  0
   26.8090  -20.1760  -10.4850 C   0  0  0  0  0
   28.2970  -20.2960  -10.1260 C   0  0  0  0  0
   28.8240  -21.7100  -10.4770 C   0  0  0  0  0
   28.3460  -22.8460   -9.4880 C   0  0  0  0  0
   29.1860  -24.1340   -9.5980 N   0  3  0  0  0
   25.3710  -17.1380  -11.2050 N   0  0  0  0  0
   25.5960  -15.7820  -11.7370 C   0  0  0  0  0
   25.4550  -14.6560  -10.6720 C   0  0  0  0  0
   25.5410  -13.4710  -11.0250 O   0  0  0  0  0
   25.1520  -14.9820   -9.4070 N   0  0  0  0  0
   24.8260  -13.9050   -8.4260 C   0  0  0  0  0
   26.0400  -13.3510   -7.6930 C   0  0  0  0  0
   26.9190  -14.0840   -7.2340 O   0  0  0  0  0
   23.7820  -14.3410   -7.3540 C   0  0  0  0  0
   22.4390  -14.6500   -7.8780 C   0  0  0  0  0
   21.9840  -14.5310   -9.1650 C   0  0  0  0  0
   21.3020  -15.0100   -7.0710 C   0  0  0  0  0
   20.6130  -14.8450   -9.2050 N   0  0  0  0  0
   20.2030  -15.1690   -7.9310 C   0  0  0  0  0
   21.1510  -15.2620   -5.7130 C   0  0  0  0  0
   18.9140  -15.5640   -7.4530 C   0  0  0  0  0
   19.9150  -15.6170   -5.2310 C   0  0  0  0  0
   18.8120  -15.7660   -6.1150 C   0  0  0  0  0
   25.9700  -12.0400   -7.3940 N   0  0  0  0  0
   26.8490  -11.4930   -6.3350 C   0  0  0  0  0
   26.6000  -12.2390   -5.0490 C   0  0  0  0  0
   25.4530  -12.5290   -4.7220 O   0  0  0  0  0
   26.5600   -9.9440   -6.1590 C   0  0  0  0  0
   27.3910   -9.3940   -5.0750 C   0  0  0  0  0
   26.7990   -9.2630   -7.4690 C   0  0  0  0  0
   27.6500  -12.5230   -4.2820 N   0  0  0  0  0
   27.5830  -13.2230   -3.0310 C   0  0  0  0  0
   28.1360  -12.3710   -1.9710 C   0  0  0  0  0
   28.6800  -11.2810   -2.2470 O   0  0  0  0  0
   28.4500  -14.5150   -3.0990 C   0  0  0  0  0
   29.7500  -14.1390   -3.6430 O   0  0  0  0  0
   27.7380  -15.5230   -3.9450 C   0  0  0  0  0
   27.9410  -12.7900   -0.7430 N   0  0  0  0  0
   28.1150  -11.9120    0.4590 C   0  0  0  0  0
   28.9880  -12.5660    1.5340 C   0  0  0  0  0
   28.9310  -12.2340    2.7160 O   0  0  0  0  0
   26.7550  -11.3970    0.9760 C   0  0  0  0  0
   25.9410  -10.8040   -0.1160 C   0  0  0  0  0
   25.0470  -11.5660   -0.8110 C   0  0  0  0  0
   26.1750   -9.5060   -0.5130 C   0  0  0  0  0
   24.3710  -11.0270   -1.8970 C   0  0  0  0  0
   25.4950   -8.9900   -1.5660 C   0  0  0  0  0
   24.6030   -9.7800   -2.2700 C   0  0  0  0  0
   29.9000  -13.4370    1.0950 N   0  0  0  0  0
   30.7720  -14.1160    2.0880 C   0  0  0  0  0
   31.7190  -13.0390    2.6220 C   0  0  0  0  0
   32.3270  -12.3160    1.8040 O   0  0  0  0  0
   31.5340  -15.2930    1.4620 C   0  0  0  0  0
   30.6230  -16.2410    0.6780 C   0  0  0  0  0
   31.2100  -17.6580    0.3860 C   0  0  0  0  0
   31.1820  -18.0360   -0.8400 O   0  0  0  0  0
   31.6560  -18.4030    1.3540 O   0  0  0  0  0
   31.8530  -12.9180    3.8580 O   0  0  0  0  0
   22.6247  -18.7538   -6.7652 H   0  0  0  0  0
   22.1295  -20.3498   -7.0123 H   0  0  0  0  0
   22.4044  -20.2344   -9.2204 H   0  0  0  0  0
   21.1384  -18.4674  -10.3411 H   0  0  0  0  0
   21.5789  -17.2812   -9.1972 H   0  0  0  0  0
   19.5486  -19.5342   -8.8572 H   0  0  0  0  0
   19.3639  -17.8637   -8.4279 H   0  0  0  0  0
   20.5327  -18.1235   -6.3845 H   0  0  0  0  0
   20.0417  -19.7558   -6.5479 H   0  0  0  0  0
   24.2561  -20.2204  -10.1942 H   0  0  0  0  0
   26.3965  -18.9708   -8.7337 H   0  0  0  0  0
   26.7660  -19.9374  -11.5477 H   0  0  0  0  0
   26.3440  -21.1176  -10.1929 H   0  0  0  0  0
   28.4192  -20.1267   -9.0562 H   0  0  0  0  0
   28.8604  -19.5557  -10.6940 H   0  0  0  0  0
   29.9117  -21.6706  -10.4185 H   0  0  0  0  0
   28.4368  -21.9606  -11.4646 H   0  0  0  0  0
   27.3170  -23.0980   -9.7446 H   0  0  0  0  0
   28.4513  -22.4669   -8.4715 H   0  0  0  0  0
   28.8316  -24.8270   -8.9387 H   0  0  0  0  0
   29.1203  -24.5013  -10.5473 H   0  0  0  0  0
   30.1599  -23.9229   -9.3805 H   0  0  0  0  0
   24.5180  -17.6490  -11.4324 H   0  0  0  0  0
   24.8387  -15.6032  -12.5003 H   0  0  0  0  0
   26.6185  -15.7466  -12.1131 H   0  0  0  0  0
   25.1443  -15.9598   -9.1169 H   0  0  0  0  0
   24.4013  -13.1225   -9.0548 H   0  0  0  0  0
   23.6660  -13.5009   -6.6692 H   0  0  0  0  0
   24.1608  -15.2575   -6.9017 H   0  0  0  0  0
   22.5892  -14.2389  -10.0232 H   0  0  0  0  0
   22.0031  -15.1789   -5.0384 H   0  0  0  0  0
   18.0645  -15.6949   -8.1234 H   0  0  0  0  0
   19.7789  -15.7857   -4.1628 H   0  0  0  0  0
   17.8455  -16.0541   -5.7016 H   0  0  0  0  0
   25.3196  -11.4312   -7.8907 H   0  0  0  0  0
   27.8957  -11.6184   -6.6120 H   0  0  0  0  0
   25.5222   -9.7744   -5.8720 H   0  0  0  0  0
   27.1587   -9.9099   -4.1434 H   0  0  0  0  0
   28.4439   -9.5366   -5.3180 H   0  0  0  0  0
   27.1834   -8.3297   -4.9640 H   0  0  0  0  0
   27.8345   -9.4160   -7.7730 H   0  0  0  0  0
   26.1321   -9.6826   -8.2222 H   0  0  0  0  0
   26.6040   -8.1958   -7.3632 H   0  0  0  0  0
   28.5686  -12.2213   -4.6068 H   0  0  0  0  0
   26.5429  -13.4762   -2.8258 H   0  0  0  0  0
   28.6046  -14.9678   -2.1196 H   0  0  0  0  0
   30.3099  -14.9169   -3.6977 H   0  0  0  0  0
   26.7686  -15.7486   -3.5006 H   0  0  0  0  0
   27.5945  -15.1183   -4.9468 H   0  0  0  0  0
   28.3340  -16.4339   -4.0016 H   0  0  0  0  0
   27.6575  -13.7593   -0.5997 H   0  0  0  0  0
   28.6720  -11.0265    0.1528 H   0  0  0  0  0
   26.9414  -10.6256    1.7232 H   0  0  0  0  0
   26.2054  -12.2398    1.3952 H   0  0  0  0  0
   24.8638  -12.5984   -0.5131 H   0  0  0  0  0
   26.9051   -8.8953    0.0182 H   0  0  0  0  0
   23.6478  -11.6328   -2.4431 H   0  0  0  0  0
   25.6509   -7.9517   -1.8586 H   0  0  0  0  0
   24.0876   -9.3708   -3.1389 H   0  0  0  0  0
   29.9960  -13.6322    0.0985 H   0  0  0  0  0
   30.1854  -14.5539    2.8956 H   0  0  0  0  0
   32.0845  -12.5714    0.9109 H   0  0  0  0  0
   31.9907  -15.8627    2.2713 H   0  0  0  0  0
   32.2668  -14.8837    0.7666 H   0  0  0  0  0
   30.4513  -15.7726   -0.2911 H   0  0  0  0  0
   29.7362  -16.3952    1.2927 H   0  0  0  0  0
   31.5845  -17.9248    2.1833 H   0  0  0  0  0
  1  2  1  0  0  0
  1  7  1  0  0  0
  2  3  1  0  0  0
  2  5  1  0  0  0
  3  4  2  0  0  0
  3  8  1  0  0  0
  5  6  1  0  0  0
  6  7  1  0  0  0
  8  9  1  0  0  0
  9 10  1  0  0  0
  9 12  1  0  0  0
 10 11  2  0  0  0
 10 17  1  0  0  0
 12 13  1  0  0  0
 13 14  1  0  0  0
 14 15  1  0  0  0
 15 16  1  0  0  0
 17 18  1  0  0  0
 18 19  1  0  0  0
 19 20  2  0  0  0
 19 21  1  0  0  0
 21 22  1  0  0  0
 22 23  1  0  0  0
 22 25  1  0  0  0
 23 24  2  0  0  0
 23 35  1  0  0  0
 25 26  1  0  0  0
 26 27  4  0  0  0
 26 28  4  0  0  0
 27 29  4  0  0  0
 28 30  4  0  0  0
 28 31  4  0  0  0
 29 30  4  0  0  0
 30 32  4  0  0  0
 31 33  4  0  0  0
 32 34  4  0  0  0
 33 34  4  0  0  0
 35 36  1  0  0  0
 36 37  1  0  0  0
 36 39  1  0  0  0
 37 38  2  0  0  0
 37 42  1  0  0  0
 39 40  1  0  0  0
 39 41  1  0  0  0
 42 43  1  0  0  0
 43 44  1  0  0  0
 43 46  1  0  0  0
 44 45  2  0  0  0
 44 49  1  0  0  0
 46 47  1  0  0  0
 46 48  1  0  0  0
 49 50  1  0  0  0
 50 51  1  0  0  0
 50 53  1  0  0  0
 51 52  2  0  0  0
 51 60  1  0  0  0
 53 54  1  0  0  0
 54 55  4  0  0  0
 54 56  4  0  0  0
 55 57  4  0  0  0
 56 58  4  0  0  0
 57 59  4  0  0  0
 58 59  4  0  0  0
 60 61  1  0  0  0
 61 62  1  0  0  0
 61 64  1  0  0  0
 62 63  1  0  0  0
 62 69  2  0  0  0
 64 65  1  0  0  0
 65 66  1  0  0  0
 66 67  2  0  0  0
 66 68  1  0  0  0
  1 70  1  0  0  0
  1 71  1  0  0  0
  2 72  1  0  0  0
  5 73  1  0  0  0
  5 74  1  0  0  0
  6 75  1  0  0  0
  6 76  1  0  0  0
  7 77  1  0  0  0
  7 78  1  0  0  0
  8 79  1  0  0  0
  9 80  1  0  0  0
 12 81  1  0  0  0
 12 82  1  0  0  0
 13 83  1  0  0  0
 13 84  1  0  0  0
 14 85  1  0  0  0
 14 86  1  0  0  0
 15 87  1  0  0  0
 15 88  1  0  0  0
 16 89  1  0  0  0
 16 90  1  0  0  0
 16 91  1  0  0  0
 17 92  1  0  0  0
 18 93  1  0  0  0
 18 94  1  0  0  0
 21 95  1  0  0  0
 22 96  1  0  0  0
 25 97  1  0  0  0
 25 98  1  0  0  0
 27 99  1  0  0  0
 31100  1  0  0  0
 32101  1  0  0  0
 33102  1  0  0  0
 34103  1  0  0  0
 35104  1  0  0  0
 36105  1  0  0  0
 39106  1  0  0  0
 40107  1  0  0  0
 40108  1  0  0  0
 40109  1  0  0  0
 41110  1  0  0  0
 41111  1  0  0  0
 41112  1  0  0  0
 42113  1  0  0  0
 43114  1  0  0  0
 46115  1  0  0  0
 47116  1  0  0  0
 48117  1  0  0  0
 48118  1  0  0  0
 48119  1  0  0  0
 49120  1  0  0  0
 50121  1  0  0  0
 53122  1  0  0  0
 53123  1  0  0  0
 55124  1  0  0  0
 56125  1  0  0  0
 57126  1  0  0  0
 58127  1  0  0  0
 59128  1  0  0  0
 60129  1  0  0  0
 61130  1  0  0  0
 63131  1  0  0  0
 64132  1  0  0  0
 64133  1  0  0  0
 65134  1  0  0  0
 65135  1  0  0  0
 68136  1  0  0  0
M  END
$$$$
