### 
### Created by X-TOOL on Tue Oct 16 15:17:22 2018
### 

@<TRIPOS>MOLECULE
1w80_ligand
  135   138     1     0     0
SMALL
GAST_HUCK


@<TRIPOS>ATOM
      1 N          22.0180  -19.3770   -7.2980 N.4       1 PRO         0.2461
      2 CA         22.3770  -19.2690   -8.7150 C.3       1 PRO         0.0670
      3 C          23.7860  -18.7080   -8.9120 C.2       1 PRO         0.2268
      4 O          24.1310  -17.6500   -8.3700 O.2       1 PRO        -0.3907
      5 CB         21.3030  -18.3330   -9.2720 C.3       1 PRO         0.0127
      6 CG         20.0850  -18.6810   -8.4420 C.3       1 PRO        -0.0053
      7 CD         20.6140  -18.9790   -7.0550 C.3       1 PRO        -0.0313
      8 N          24.6120  -19.4210   -9.6700 N.am      1 PRO        -0.2610
      9 CA         26.0360  -19.0650   -9.7580 C.3       1 PRO         0.1311
     10 C          26.2990  -17.6850  -10.4230 C.2       1 PRO         0.2037
     11 O          27.3650  -17.1130  -10.2210 O.2       1 PRO        -0.3944
     12 CB         26.8090  -20.1760  -10.4850 C.3       1 PRO        -0.0122
     13 CG         28.2970  -20.2960  -10.1260 C.3       1 PRO        -0.0440
     14 CD         28.8240  -21.7100  -10.4770 C.3       1 PRO        -0.0124
     15 CE         28.3460  -22.8460   -9.4880 C.3       1 PRO        -0.0354
     16 NZ         29.1860  -24.1340   -9.5980 N.4       1 PRO         0.2185
     17 N          25.3710  -17.1380  -11.2050 N.am      1 PRO        -0.2664
     18 CA         25.5960  -15.7820  -11.7370 C.3       1 PRO         0.1201
     19 C          25.4550  -14.6560  -10.6720 C.2       1 PRO         0.2008
     20 O          25.5410  -13.4710  -11.0250 O.2       1 PRO        -0.3947
     21 N          25.1520  -14.9820   -9.4070 N.am      1 PRO        -0.2629
     22 CA         24.8260  -13.9050   -8.4260 C.3       1 PRO         0.1352
     23 C          26.0400  -13.3510   -7.6930 C.2       1 PRO         0.2052
     24 O          26.9190  -14.0840   -7.2340 O.2       1 PRO        -0.3942
     25 CB         23.7820  -14.3410   -7.3540 C.3       1 PRO         0.0042
     26 CG         22.4390  -14.6500   -7.8780 C.2       1 PRO        -0.0418
     27 CD1        21.9840  -14.5310   -9.1650 C.2       1 PRO         0.0167
     28 CD2        21.3020  -15.0100   -7.0710 C.ar      1 PRO        -0.0214
     29 NE1        20.6130  -14.8450   -9.2050 N.pl3     1 PRO        -0.2890
     30 CE2        20.2030  -15.1690   -7.9310 C.ar      1 PRO         0.0603
     31 CE3        21.1510  -15.2620   -5.7130 C.ar      1 PRO        -0.0747
     32 CZ2        18.9140  -15.5640   -7.4530 C.ar      1 PRO        -0.0443
     33 CZ3        19.9150  -15.6170   -5.2310 C.ar      1 PRO        -0.0792
     34 CH2        18.8120  -15.7660   -6.1150 C.ar      1 PRO        -0.0768
     35 N          25.9700  -12.0400   -7.3940 N.am      1 PRO        -0.2634
     36 CA         26.8490  -11.4930   -6.3350 C.3       1 PRO         0.1333
     37 C          26.6000  -12.2390   -5.0490 C.2       1 PRO         0.2042
     38 O          25.4530  -12.5290   -4.7220 O.2       1 PRO        -0.3944
     39 CB         26.5600   -9.9440   -6.1590 C.3       1 PRO        -0.0063
     40 CG1        27.3910   -9.3940   -5.0750 C.3       1 PRO        -0.0584
     41 CG2        26.7990   -9.2630   -7.4690 C.3       1 PRO        -0.0584
     42 N          27.6500  -12.5230   -4.2820 N.am      1 PRO        -0.2613
     43 CA         27.5830  -13.2230   -3.0310 C.3       1 PRO         0.1565
     44 C          28.1360  -12.3710   -1.9710 C.2       1 PRO         0.2066
     45 O          28.6800  -11.2810   -2.2470 O.2       1 PRO        -0.3943
     46 CB         28.4500  -14.5150   -3.0990 C.3       1 PRO         0.0924
     47 OG1        29.7500  -14.1390   -3.6430 O.3       1 PRO        -0.3874
     48 CG2        27.7380  -15.5230   -3.9450 C.3       1 PRO        -0.0346
     49 N          27.9410  -12.7900   -0.7430 N.am      1 PRO        -0.2619
     50 CA         28.1150  -11.9120    0.4590 C.3       1 PRO         0.1404
     51 C          28.9880  -12.5660    1.5340 C.2       1 PRO         0.2054
     52 O          28.9310  -12.2340    2.7160 O.2       1 PRO        -0.3942
     53 CB         26.7550  -11.3970    0.9760 C.3       1 PRO         0.0214
     54 CG         25.9410  -10.8040   -0.1160 C.ar      1 PRO        -0.0386
     55 CD1        25.0470  -11.5660   -0.8110 C.ar      1 PRO        -0.0601
     56 CD2        26.1750   -9.5060   -0.5130 C.ar      1 PRO        -0.0601
     57 CE1        24.3710  -11.0270   -1.8970 C.ar      1 PRO        -0.0686
     58 CE2        25.4950   -8.9900   -1.5660 C.ar      1 PRO        -0.0686
     59 CZ         24.6030   -9.7800   -2.2700 C.ar      1 PRO        -0.0687
     60 N          29.9000  -13.4370    1.0950 N.am      1 PRO        -0.2692
     61 CA         30.7720  -14.1160    2.0880 C.3       1 PRO         0.0959
     62 C          31.7190  -13.0390    2.6220 C.2       1 PRO         0.0602
     63 O          32.3270  -12.3160    1.8040 O.co2     1 PRO        -0.5666
     64 CB         31.5340  -15.2930    1.4620 C.3       1 PRO        -0.0064
     65 CG         30.6230  -16.2410    0.6780 C.3       1 PRO         0.0038
     66 CD         31.2100  -17.6580    0.3860 C.2       1 PRO         0.0350
     67 OE1        31.1820  -18.0360   -0.8400 O.co2     1 PRO        -0.5690
     68 OE2        31.6560  -18.4030    1.3540 O.co2     1 PRO        -0.5690
     69 OXT        31.8530  -12.9180    3.8580 O.co2     1 PRO        -0.5666
     70 H1         22.6247  -18.7773   -6.7611 H         1 PRO         0.2035
     71 H2         22.1421  -20.3325   -7.0019 H         1 PRO         0.2035
     72 H3         22.3189  -20.2536   -9.2020 H         1 PRO         0.1099
     73 H4         21.1231  -18.5284  -10.3394 H         1 PRO         0.0347
     74 H5         21.5870  -17.2792   -9.1349 H         1 PRO         0.0347
     75 H6         19.5758  -19.5632   -8.8572 H         1 PRO         0.0320
     76 H7         19.3846  -17.8334   -8.4126 H         1 PRO         0.0320
     77 H8         20.5638  -18.0858   -6.4150 H         1 PRO         0.0814
     78 H9         20.0488  -19.7981   -6.5864 H         1 PRO         0.0814
     79 H10        24.2631  -20.2047  -10.1839 H         1 PRO         0.1884
     80 H11        26.4206  -19.0054   -8.7291 H         1 PRO         0.0800
     81 H12        26.7364  -19.9865  -11.5661 H         1 PRO         0.0312
     82 H13        26.3256  -21.1351  -10.2475 H         1 PRO         0.0312
     83 H14        28.4254  -20.1185   -9.0481 H         1 PRO         0.0269
     84 H15        28.8682  -19.5454  -10.6919 H         1 PRO         0.0269
     85 H16        29.9235  -21.6812  -10.4629 H         1 PRO         0.0317
     86 H17        28.4768  -21.9657  -11.4889 H         1 PRO         0.0317
     87 H18        27.2980  -23.0907   -9.7156 H         1 PRO         0.0813
     88 H19        28.4187  -22.4672   -8.4579 H         1 PRO         0.0813
     89 H20        28.8366  -24.8196   -8.9469 H         1 PRO         0.1994
     90 H21        30.1488  -23.9267   -9.3832 H         1 PRO         0.1994
     91 H22        29.1218  -24.4980  -10.5358 H         1 PRO         0.1994
     92 H23        24.5347  -17.6390  -11.4279 H         1 PRO         0.1881
     93 H24        24.8627  -15.5971  -12.5358 H         1 PRO         0.0763
     94 H25        26.6125  -15.7381  -12.1551 H         1 PRO         0.0763
     95 H26        25.1445  -15.9407   -9.1226 H         1 PRO         0.1884
     96 H27        24.3842  -13.0805   -9.0048 H         1 PRO         0.0815
     97 H28        23.6830  -13.5250   -6.6231 H         1 PRO         0.0397
     98 H29        24.1662  -15.2401   -6.8501 H         1 PRO         0.0397
     99 H30        22.5886  -14.2392  -10.0224 H         1 PRO         0.0795
    100 H31        20.0170  -14.8343  -10.0450 H         1 PRO         0.2216
    101 H32        21.9985  -15.1794   -5.0421 H         1 PRO         0.0540
    102 H33        18.0692  -15.6942   -8.1197 H         1 PRO         0.0541
    103 H34        19.7796  -15.7848   -4.1687 H         1 PRO         0.0510
    104 H35        17.8508  -16.0525   -5.7039 H         1 PRO         0.0530
    105 H36        25.3324  -11.4431   -7.8810 H         1 PRO         0.1883
    106 H37        27.9002  -11.6287   -6.6292 H         1 PRO         0.0802
    107 H38        25.5039   -9.8071   -5.8836 H         1 PRO         0.0343
    108 H39        27.1823   -8.3199   -4.9620 H         1 PRO         0.0234
    109 H40        28.4540   -9.5373   -5.3191 H         1 PRO         0.0234
    110 H41        27.1575   -9.9138   -4.1341 H         1 PRO         0.0234
    111 H42        26.1545   -9.7124   -8.2388 H         1 PRO         0.0234
    112 H43        27.8536   -9.3833   -7.7578 H         1 PRO         0.0234
    113 H44        26.5647   -8.1925   -7.3739 H         1 PRO         0.0234
    114 H45        28.5506  -12.2272   -4.6004 H         1 PRO         0.1884
    115 H46        26.5380  -13.4812   -2.8047 H         1 PRO         0.0826
    116 H47        28.5873  -14.9298   -2.0895 H         1 PRO         0.0639
    117 H48        30.1556  -13.4949   -3.0746 H         1 PRO         0.2101
    118 H49        28.3385  -16.4428   -4.0029 H         1 PRO         0.0257
    119 H50        27.5926  -15.1157   -4.9564 H         1 PRO         0.0257
    120 H51        26.7595  -15.7516   -3.4976 H         1 PRO         0.0257
    121 H52        27.6631  -13.7403   -0.6025 H         1 PRO         0.1885
    122 H53        28.6687  -11.0242    0.1198 H         1 PRO         0.0823
    123 H54        26.9329  -10.6304    1.7446 H         1 PRO         0.0474
    124 H55        26.2001  -12.2376    1.4180 H         1 PRO         0.0474
    125 H56        24.8648  -12.5927   -0.5147 H         1 PRO         0.0557
    126 H57        26.9011   -8.8987    0.0153 H         1 PRO         0.0557
    127 H58        23.6518  -11.6294   -2.4401 H         1 PRO         0.0599
    128 H59        25.6501   -7.9574   -1.8570 H         1 PRO         0.0599
    129 H60        24.0904   -9.3731   -3.1342 H         1 PRO         0.0559
    130 H61        29.9941  -13.6283    0.1180 H         1 PRO         0.1875
    131 H62        30.1561  -14.5032    2.9131 H         1 PRO         0.0727
    132 H63        32.0240  -15.8617    2.2660 H         1 PRO         0.0323
    133 H64        32.2971  -14.8934    0.7779 H         1 PRO         0.0323
    134 H65        30.3913  -15.7660   -0.2867 H         1 PRO         0.0432
    135 H66        29.6954  -16.3719    1.2545 H         1 PRO         0.0432
@<TRIPOS>BOND
     1    1    2 1  
     2    1    7 1  
     3    2    3 1  
     4    2    5 1  
     5    3    4 2  
     6    3    8 am 
     7    5    6 1  
     8    6    7 1  
     9    8    9 1  
    10    9   10 1  
    11    9   12 1  
    12   10   11 2  
    13   10   17 am 
    14   12   13 1  
    15   13   14 1  
    16   14   15 1  
    17   15   16 1  
    18   17   18 1  
    19   18   19 1  
    20   19   20 2  
    21   19   21 am 
    22   21   22 1  
    23   22   23 1  
    24   22   25 1  
    25   23   24 2  
    26   23   35 am 
    27   25   26 1  
    28   26   27 2  
    29   26   28 1  
    30   27   29 1  
    31   28   30 ar 
    32   28   31 ar 
    33   29   30 1  
    34   30   32 ar 
    35   31   33 ar 
    36   32   34 ar 
    37   33   34 ar 
    38   35   36 1  
    39   36   37 1  
    40   36   39 1  
    41   37   38 2  
    42   37   42 am 
    43   39   40 1  
    44   39   41 1  
    45   42   43 1  
    46   43   44 1  
    47   43   46 1  
    48   44   45 2  
    49   44   49 am 
    50   46   47 1  
    51   46   48 1  
    52   49   50 1  
    53   50   51 1  
    54   50   53 1  
    55   51   52 2  
    56   51   60 am 
    57   53   54 1  
    58   54   55 ar 
    59   54   56 ar 
    60   55   57 ar 
    61   56   58 ar 
    62   57   59 ar 
    63   58   59 ar 
    64   60   61 1  
    65   61   62 1  
    66   61   64 1  
    67   62   63 ar 
    68   62   69 ar 
    69   64   65 1  
    70   65   66 1  
    71   66   67 ar 
    72   66   68 ar 
    73    1   70 1  
    74    1   71 1  
    75    2   72 1  
    76    5   73 1  
    77    5   74 1  
    78    6   75 1  
    79    6   76 1  
    80    7   77 1  
    81    7   78 1  
    82    8   79 1  
    83    9   80 1  
    84   12   81 1  
    85   12   82 1  
    86   13   83 1  
    87   13   84 1  
    88   14   85 1  
    89   14   86 1  
    90   15   87 1  
    91   15   88 1  
    92   16   89 1  
    93   16   90 1  
    94   16   91 1  
    95   17   92 1  
    96   18   93 1  
    97   18   94 1  
    98   21   95 1  
    99   22   96 1  
   100   25   97 1  
   101   25   98 1  
   102   27   99 1  
   103   29  100 1  
   104   31  101 1  
   105   32  102 1  
   106   33  103 1  
   107   34  104 1  
   108   35  105 1  
   109   36  106 1  
   110   39  107 1  
   111   40  108 1  
   112   40  109 1  
   113   40  110 1  
   114   41  111 1  
   115   41  112 1  
   116   41  113 1  
   117   42  114 1  
   118   43  115 1  
   119   46  116 1  
   120   47  117 1  
   121   48  118 1  
   122   48  119 1  
   123   48  120 1  
   124   49  121 1  
   125   50  122 1  
   126   53  123 1  
   127   53  124 1  
   128   55  125 1  
   129   56  126 1  
   130   57  127 1  
   131   58  128 1  
   132   59  129 1  
   133   60  130 1  
   134   61  131 1  
   135   64  132 1  
   136   64  133 1  
   137   65  134 1  
   138   65  135 1  
@<TRIPOS>SUBSTRUCTURE
     1 PRO         1

