3g4g_ligand
  -I-interpret- 

 41 44  0  0  0  0  0  0  0  0999 V2000
   22.8030    6.1990   19.3350 C   0  0  0  0  0
   23.3830    6.8010   18.2730 C   0  0  0  0  0
   24.5750    7.6690   18.4920 C   0  0  0  0  0
   24.3860    7.2020   20.8450 C   0  0  0  0  0
   23.3160    6.4070   20.6950 C   0  0  0  0  0
   24.6490    8.1110   16.0360 C   0  0  0  0  0
   26.5800   13.2340   16.5470 O   0  0  0  0  0
   27.5480   12.7130   17.0080 N   0  0  0  0  0
   28.6660   13.4350   17.1370 O   0  0  0  0  0
   27.5450   11.3520   17.3710 C   0  0  0  0  0
   26.4190   10.6000   17.1790 C   0  0  0  0  0
   28.7720   10.7260   17.9250 C   0  0  0  0  0
   28.7720    9.4190   18.2340 C   0  0  0  0  0
   27.5470    8.6010   18.0380 C   0  0  0  0  0
   26.4070    9.1600   17.5230 C   0  0  0  0  0
   25.2100    8.3110   17.3510 N   0  0  0  0  0
   25.0070    7.8570   19.7310 N   0  0  0  0  0
   25.1890    8.6440   15.0670 O   0  0  0  0  0
   23.4740    7.2720   15.8330 N   0  0  0  0  0
   22.8490    6.6060   16.9220 C   0  0  0  0  0
   21.8240    5.8860   16.7150 O   0  0  0  0  0
   22.9400    7.0450   14.4600 C   0  0  0  0  0
   23.9070    6.2280   13.6530 C   0  0  0  0  0
   24.7040    6.7310   12.6790 C   0  0  0  0  0
   25.6440    5.8030   11.9630 C   0  0  0  0  0
   25.6770    4.5340   12.2870 N   0  0  0  0  0
   24.8480    4.0100   13.3310 C   0  0  0  0  0
   24.0060    4.8020   14.0200 C   0  0  0  0  0
   21.9416    5.5494   19.1796 H   0  0  0  0  0
   24.7955    7.3546   21.8435 H   0  0  0  0  0
   22.8431    5.9312   21.5541 H   0  0  0  0  0
   25.5224   11.0649   16.7691 H   0  0  0  0  0
   29.6694   11.3249   18.0803 H   0  0  0  0  0
   29.6754    8.9558   18.6307 H   0  0  0  0  0
   27.5554    7.5447   18.3069 H   0  0  0  0  0
   22.7938    8.0083   13.9714 H   0  0  0  0  0
   21.9936    6.5089   14.5305 H   0  0  0  0  0
   24.6638    7.7890   12.4199 H   0  0  0  0  0
   26.2960    6.1841   11.1770 H   0  0  0  0  0
   24.9002    2.9483   13.5722 H   0  0  0  0  0
   23.4070    4.3970   14.8356 H   0  0  0  0  0
  2  1  4  0  0  0
  1  5  4  0  0  0
  3  2  4  0  0  0
  2 20  1  0  0  0
 16  3  1  0  0  0
  3 17  4  0  0  0
  4  5  4  0  0  0
 17  4  4  0  0  0
 16  6  1  0  0  0
  6 18  2  0  0  0
  6 19  1  0  0  0
  8  7  2  0  0  0
  8  9  2  0  0  0
 10  8  1  0  0  0
 11 10  4  0  0  0
 10 12  4  0  0  0
 15 11  4  0  0  0
 13 12  4  0  0  0
 14 13  4  0  0  0
 15 14  4  0  0  0
 15 16  1  0  0  0
 19 20  1  0  0  0
 19 22  1  0  0  0
 20 21  2  0  0  0
 22 23  1  0  0  0
 23 24  4  0  0  0
 23 28  4  0  0  0
 24 25  4  0  0  0
 25 26  4  0  0  0
 26 27  4  0  0  0
 27 28  4  0  0  0
  1 29  1  0  0  0
  4 30  1  0  0  0
  5 31  1  0  0  0
 11 32  1  0  0  0
 12 33  1  0  0  0
 13 34  1  0  0  0
 14 35  1  0  0  0
 22 36  1  0  0  0
 22 37  1  0  0  0
 24 38  1  0  0  0
 25 39  1  0  0  0
 27 40  1  0  0  0
 28 41  1  0  0  0
M  END
$$$$
