### 
### Created by X-TOOL on Mon Sep 10 21:13:34 2018
### 

@<TRIPOS>MOLECULE
5bjt_ligand
  216   222     1     0     0
SMALL
GAST_HUCK


@<TRIPOS>ATOM
      1 N         -35.9140  -81.2710  -10.6540 N.4       1 ARG         0.2377
      2 CA        -35.7410  -82.7320  -11.0280 C.3       1 ARG         0.0621
      3 C         -36.3710  -83.1190  -12.3980 C.2       1 ARG         0.2265
      4 O         -37.4800  -82.6760  -12.7220 O.2       1 ARG        -0.3907
      5 CB        -36.2130  -83.6880   -9.8950 C.3       1 ARG        -0.0040
      6 N         -35.6740  -83.9330  -13.1930 N.am      1 TYR        -0.2594
      7 CA        -36.1910  -84.3580  -14.5100 C.3       1 TYR         0.1391
      8 C         -35.8630  -85.8250  -14.7180 C.2       1 TYR         0.2059
      9 O         -34.7380  -86.2230  -14.3240 O.2       1 TYR        -0.3942
     10 CB        -35.4690  -83.6210  -15.6300 C.3       1 TYR         0.0164
     11 CG        -35.9370  -82.2450  -15.9440 C.ar      1 TYR        -0.0493
     12 CD1       -37.0000  -82.0300  -16.8310 C.ar      1 TYR        -0.0685
     13 CD2       -35.2800  -81.1420  -15.4110 C.ar      1 TYR        -0.0685
     14 CE1       -37.4160  -80.7370  -17.1520 C.ar      1 TYR        -0.0398
     15 CE2       -35.6830  -79.8390  -15.7130 C.ar      1 TYR        -0.0398
     16 CZ        -36.7430  -79.6420  -16.5840 C.ar      1 TYR         0.0805
     17 OH        -37.1160  -78.3520  -16.8770 O.3       1 TYR        -0.3376
     18 N         -36.7760  -86.5970  -15.3650 N.am      1 PHE        -0.2618
     19 CA        -36.5490  -88.0580  -15.6550 C.3       1 PHE         0.1404
     20 C         -36.8380  -88.5950  -17.0790 C.2       1 PHE         0.2060
     21 O         -37.6360  -88.0310  -17.8110 O.2       1 PHE        -0.3942
     22 CB        -37.2800  -88.9280  -14.6470 C.3       1 PHE         0.0214
     23 CG        -38.7410  -88.9230  -14.8260 C.ar      1 PHE        -0.0386
     24 CD1       -39.5340  -88.0280  -14.1050 C.ar      1 PHE        -0.0601
     25 CD2       -39.3430  -89.7980  -15.7370 C.ar      1 PHE        -0.0601
     26 CE1       -40.9220  -88.0110  -14.2750 C.ar      1 PHE        -0.0686
     27 CE2       -40.7160  -89.7830  -15.9330 C.ar      1 PHE        -0.0686
     28 CZ        -41.5120  -88.8930  -15.2040 C.ar      1 PHE        -0.0687
     29 N         -36.2320  -89.7110  -17.4650 N.am      1 CYS        -0.2627
     30 CA        -36.3500  -90.1060  -18.8540 C.3       1 CYS         0.1406
     31 C         -37.4830  -91.0600  -19.2380 C.2       1 CYS         0.2048
     32 O         -37.2240  -92.1880  -19.6420 O.2       1 CYS        -0.3944
     33 CB        -35.0030  -90.5840  -19.4240 C.3       1 CYS         0.0443
     34 SG        -35.0210  -90.6930  -21.2880 S.3       1 CYS        -0.0882
     35 N         -38.7310  -90.6120  -19.1450 N.am      1 THR        -0.2613
     36 CA        -39.8550  -91.2360  -19.8860 C.3       1 THR         0.1565
     37 C         -39.4240  -91.6380  -21.2650 C.2       1 THR         0.2065
     38 O         -39.1630  -90.7770  -22.0770 O.2       1 THR        -0.3943
     39 CB        -40.8660  -90.1770  -20.2760 C.3       1 THR         0.0924
     40 OG1       -40.5910  -88.9430  -19.5820 O.3       1 THR        -0.3874
     41 CG2       -42.2840  -90.6740  -20.0490 C.3       1 THR        -0.0346
     42 N         -39.3630  -92.9140  -21.5780 N.am      1 LYS        -0.2639
     43 CA        -38.8770  -93.3190  -22.9210 C.3       1 LYS         0.1282
     44 C         -37.3360  -93.2180  -23.0810 C.2       1 LYS         0.2037
     45 O         -36.6940  -92.3740  -22.4700 O.2       1 LYS        -0.3944
     46 CB        -39.6390  -92.6290  -24.0920 C.3       1 LYS        -0.0244
     47 N         -36.8080  -94.0760  -23.9590 N.am      1 TRP        -0.2627
     48 CA        -35.4410  -94.6030  -23.9680 C.3       1 TRP         0.1352
     49 C         -35.4790  -95.4830  -25.2110 C.2       1 TRP         0.2052
     50 O         -36.3610  -96.3150  -25.3070 O.2       1 TRP        -0.3942
     51 CB        -35.1930  -95.4990  -22.7330 C.3       1 TRP         0.0042
     52 CG        -34.7310  -94.7830  -21.4730 C.2       1 TRP        -0.0418
     53 CD1       -35.5050  -94.3340  -20.4350 C.2       1 TRP         0.0167
     54 CD2       -33.3840  -94.4280  -21.1300 C.ar      1 TRP        -0.0214
     55 NE1       -34.7260  -93.7310  -19.4640 N.pl3     1 TRP        -0.2890
     56 CE2       -33.4240  -93.7650  -19.8780 C.ar      1 TRP         0.0603
     57 CE3       -32.1360  -94.5990  -21.7680 C.ar      1 TRP        -0.0747
     58 CZ2       -32.2730  -93.2880  -19.2550 C.ar      1 TRP        -0.0443
     59 CZ3       -30.9920  -94.1220  -21.1420 C.ar      1 TRP        -0.0792
     60 CH2       -31.0680  -93.4860  -19.8920 C.ar      1 TRP        -0.0768
     61 N         -34.6020  -95.2950  -26.1920 N.am      1 LYS        -0.2639
     62 CA        -34.6700  -96.1120  -27.4290 C.3       1 LYS         0.1282
     63 C         -33.2710  -96.3440  -27.9430 C.2       1 LYS         0.2036
     64 O         -32.3510  -95.6200  -27.5850 O.2       1 LYS        -0.3944
     65 CB        -35.5730  -95.5140  -28.5190 C.3       1 LYS        -0.0244
     66 N         -33.1170  -97.3450  -28.8020 N.am      1 HIS        -0.2640
     67 CA        -31.8160  -98.0040  -29.0680 C.3       1 HIS         0.1282
     68 C         -30.5940  -97.5490  -28.1560 C.2       1 HIS         0.2034
     69 O         -29.4580  -97.6180  -28.5660 O.2       1 HIS        -0.3944
     70 CB        -31.5430  -98.1190  -30.6130 C.3       1 HIS        -0.0244
     71 N         -30.8370  -97.1430  -26.9080 N.am      1 GLY        -0.2664
     72 CA        -29.7610  -96.7390  -25.9680 C.3       1 GLY         0.1201
     73 C         -29.9590  -95.4160  -25.2050 C.2       1 GLY         0.2008
     74 O         -29.4370  -95.2380  -24.1030 O.2       1 GLY        -0.3947
     75 N         -30.7460  -94.4970  -25.7680 N.am      1 TRP        -0.2629
     76 CA        -30.7110  -93.1080  -25.3350 C.3       1 TRP         0.1352
     77 C         -31.9290  -92.4710  -24.6640 C.2       1 TRP         0.2052
     78 O         -32.1540  -92.7540  -23.5010 O.2       1 TRP        -0.3942
     79 CB        -30.1820  -92.2650  -26.4630 C.3       1 TRP         0.0042
     80 CG        -28.7660  -92.6350  -26.8090 C.2       1 TRP        -0.0418
     81 CD1       -28.3560  -93.6920  -27.5660 C.2       1 TRP         0.0167
     82 CD2       -27.5690  -91.9420  -26.4080 C.ar      1 TRP        -0.0214
     83 NE1       -26.9760  -93.6880  -27.6960 N.pl3     1 TRP        -0.2890
     84 CE2       -26.4610  -92.6370  -26.9760 C.ar      1 TRP         0.0603
     85 CE3       -27.3280  -90.7770  -25.6600 C.ar      1 TRP        -0.0747
     86 CZ2       -25.1330  -92.2140  -26.8220 C.ar      1 TRP        -0.0443
     87 CZ3       -25.9990  -90.3690  -25.4900 C.ar      1 TRP        -0.0792
     88 CH2       -24.9200  -91.0930  -26.1040 C.ar      1 TRP        -0.0768
     89 N         -32.6620  -91.5700  -25.3230 N.am      1 CYS        -0.2628
     90 CA        -33.7930  -90.8810  -24.6300 C.3       1 CYS         0.1406
     91 C         -34.9890  -90.2270  -25.4180 C.2       1 CYS         0.2047
     92 O         -35.1790  -90.3940  -26.6430 O.2       1 CYS        -0.3944
     93 CB        -33.2450  -89.8740  -23.5990 C.3       1 CYS         0.0443
     94 SG        -33.0950  -90.5810  -21.9210 S.3       1 CYS        -0.0882
     95 N         -35.8310  -89.5170  -24.6730 N.am      1 GLU        -0.2640
     96 CA        -36.6000  -88.4510  -25.2860 C.3       1 GLU         0.1282
     97 C         -37.3920  -87.6440  -24.2740 C.2       1 GLU         0.2036
     98 O         -36.8600  -86.6970  -23.7020 O.2       1 GLU        -0.3944
     99 CB        -37.4550  -88.9380  -26.4490 C.3       1 GLU        -0.0244
    100 N         -38.6520  -87.9740  -24.0510 N.am      1 GLU        -0.2640
    101 CA        -39.4820  -87.1250  -23.1800 C.3       1 GLU         0.1282
    102 C         -38.8470  -86.9510  -21.7610 C.2       1 GLU         0.2036
    103 O         -37.8570  -87.6360  -21.4530 O.2       1 GLU        -0.3944
    104 CB        -40.9410  -87.6570  -23.1500 C.3       1 GLU        -0.0244
    105 N         -39.3830  -86.0520  -20.9260 N.am      1 VAL        -0.2635
    106 CA        -38.8920  -85.9420  -19.5440 C.3       1 VAL         0.1332
    107 C         -39.9270  -85.3780  -18.5090 C.2       1 VAL         0.2034
    108 O         -40.8030  -84.6050  -18.8960 O.2       1 VAL        -0.3944
    109 CB        -37.5260  -85.1360  -19.4590 C.3       1 VAL        -0.0063
    110 CG1       -36.3650  -85.8110  -20.2440 C.3       1 VAL        -0.0584
    111 CG2       -37.7080  -83.6730  -19.8630 C.3       1 VAL        -0.0584
    112 N         -39.8020  -85.7140  -17.2110 N.am      1 GLY        -0.2722
    113 CA        -40.7490  -85.2640  -16.1590 C.3       1 GLY         0.0833
    114 C         -41.0220  -83.7720  -15.9970 C.2       1 GLY         0.0570
    115 O         -41.2220  -83.2480  -14.8790 O.co2     1 GLY        -0.5669
    116 OXT       -41.0610  -82.9910  -16.9730 O.co2     1 GLY        -0.5669
    117 H1        -35.4820  -81.0997   -9.7595 H         1 ARG         0.2015
    118 H2        -36.8964  -81.0520  -10.6000 H         1 ARG         0.2015
    119 H3        -35.4784  -80.6911  -11.3540 H         1 ARG         0.2015
    120 H4        -34.6577  -82.8890  -11.1365 H         1 ARG         0.1095
    121 H5        -36.0684  -84.7314  -10.2117 H         1 ARG         0.0310
    122 H6        -37.2788  -83.5123   -9.6872 H         1 ARG         0.0310
    123 H7        -35.6255  -83.4963   -8.9850 H         1 ARG         0.0310
    124 H8        -34.7801  -84.2633  -12.8900 H         1 TYR         0.1886
    125 H9        -37.2757  -84.1832  -14.5638 H         1 TYR         0.0821
    126 H10       -35.5726  -84.2235  -16.5445 H         1 TYR         0.0453
    127 H11       -34.4066  -83.5549  -15.3528 H         1 TYR         0.0453
    128 H12       -37.5064  -82.8798  -17.2742 H         1 TYR         0.0530
    129 H13       -34.4372  -81.2962  -14.7470 H         1 TYR         0.0530
    130 H14       -38.2469  -80.5796  -17.8302 H         1 TYR         0.0525
    131 H15       -35.1723  -78.9912  -15.2709 H         1 TYR         0.0525
    132 H16       -36.3845  -77.8946  -17.2748 H         1 TYR         0.2458
    133 H17       -37.6342  -86.1776  -15.6609 H         1 PHE         0.1885
    134 H18       -35.4721  -88.2161  -15.4962 H         1 PHE         0.0823
    135 H19       -37.0507  -88.5595  -13.6363 H         1 PHE         0.0474
    136 H20       -36.9189  -89.9618  -14.7510 H         1 PHE         0.0474
    137 H21       -39.0697  -87.3404  -13.4074 H         1 PHE         0.0557
    138 H22       -38.7294  -90.4954  -16.2958 H         1 PHE         0.0557
    139 H23       -41.5369  -87.3283  -13.6998 H         1 PHE         0.0599
    140 H24       -41.1707  -90.4585  -16.6485 H         1 PHE         0.0599
    141 H25       -42.5856  -88.8813  -15.3536 H         1 PHE         0.0559
    142 H26       -35.7090  -90.2633  -16.8158 H         1 CYS         0.1884
    143 H27       -36.5848  -89.1719  -19.3853 H         1 CYS         0.0808
    144 H28       -34.7785  -91.5796  -19.0136 H         1 CYS         0.0432
    145 H29       -34.2184  -89.8761  -19.1187 H         1 CYS         0.0432
    146 H30       -38.9190  -89.8268  -18.5549 H         1 THR         0.1884
    147 H31       -40.2918  -92.0651  -19.3100 H         1 THR         0.0826
    148 H32       -40.7538  -89.9832  -21.3529 H         1 THR         0.0639
    149 H33       -41.2315  -88.2889  -19.8356 H         1 THR         0.2101
    150 H34       -42.9983  -89.8893  -20.3388 H         1 THR         0.0257
    151 H35       -42.4207  -90.9196  -18.9855 H         1 THR         0.0257
    152 H36       -42.4595  -91.5728  -20.6584 H         1 THR         0.0257
    153 H37       -39.6426  -93.6080  -20.9145 H         1 LYS         0.1883
    154 H38       -39.1131  -94.3901  -23.0051 H         1 LYS         0.0797
    155 H39       -39.2274  -92.9750  -25.0516 H         1 LYS         0.0277
    156 H40       -39.5206  -91.5382  -24.0143 H         1 LYS         0.0277
    157 H41       -40.7069  -92.8868  -24.0369 H         1 LYS         0.0277
    158 H42       -37.4122  -94.3931  -24.6900 H         1 TRP         0.1884
    159 H43       -34.6851  -93.8065  -24.0321 H         1 TRP         0.0815
    160 H44       -34.4235  -96.2376  -23.0019 H         1 TRP         0.0397
    161 H45       -36.1341  -96.0183  -22.4993 H         1 TRP         0.0397
    162 H46       -36.5877  -94.4380  -20.3818 H         1 TRP         0.0795
    163 H47       -35.0683  -93.3261  -18.5809 H         1 TRP         0.2216
    164 H48       -32.0721  -95.0942  -22.7301 H         1 TRP         0.0540
    165 H49       -32.3240  -92.7776  -18.3000 H         1 TRP         0.0541
    166 H50       -30.0285  -94.2419  -21.6239 H         1 TRP         0.0510
    167 H51       -30.1561  -93.1426  -19.4171 H         1 TRP         0.0530
    168 H52       -33.8913  -94.5981  -26.0958 H         1 LYS         0.1883
    169 H53       -35.0976  -97.0882  -27.1566 H         1 LYS         0.0797
    170 H54       -35.5713  -96.1737  -29.3992 H         1 LYS         0.0277
    171 H55       -35.1951  -94.5211  -28.8042 H         1 LYS         0.0277
    172 H56       -36.5990  -95.4192  -28.1339 H         1 LYS         0.0277
    173 H57       -33.9225  -97.6720  -29.2963 H         1 HIS         0.1883
    174 H58       -31.9794  -99.0453  -28.7533 H         1 HIS         0.0797
    175 H59       -30.5731  -98.6108  -30.7783 H         1 HIS         0.0277
    176 H60       -31.5246  -97.1132  -31.0580 H         1 HIS         0.0277
    177 H61       -32.3403  -98.7134  -31.0830 H         1 HIS         0.0277
    178 H62       -31.7852  -97.1094  -26.5922 H         1 GLY         0.1881
    179 H63       -28.8299  -96.6517  -26.5472 H         1 GLY         0.0763
    180 H64       -29.6547  -97.5398  -25.2214 H         1 GLY         0.0763
    181 H65       -31.3708  -94.7676  -26.5004 H         1 TRP         0.1884
    182 H66       -29.9398  -93.0860  -24.5510 H         1 TRP         0.0815
    183 H67       -30.2121  -91.2070  -26.1634 H         1 TRP         0.0397
    184 H68       -30.8170  -92.4135  -27.3488 H         1 TRP         0.0397
    185 H69       -29.0193  -94.4349  -28.0066 H         1 TRP         0.0795
    186 H70       -26.4252  -94.3641  -28.2441 H         1 TRP         0.2216
    187 H71       -28.1456  -90.2115  -25.2278 H         1 TRP         0.0540
    188 H72       -24.3107  -92.7661  -27.2625 H         1 TRP         0.0541
    189 H73       -25.7812  -89.4950  -24.8869 H         1 TRP         0.0510
    190 H74       -23.9063  -90.7274  -25.9865 H         1 TRP         0.0530
    191 H75       -32.4547  -91.3568  -26.2778 H         1 CYS         0.1884
    192 H76       -34.2704  -91.6847  -24.0502 H         1 CYS         0.0808
    193 H77       -33.9255  -89.0108  -23.5561 H         1 CYS         0.0432
    194 H78       -32.2501  -89.5406  -23.9291 H         1 CYS         0.0432
    195 H79       -35.9331  -89.7163  -23.6984 H         1 GLU         0.1883
    196 H80       -35.8650  -87.7568  -25.7194 H         1 GLU         0.0797
    197 H81       -38.0136  -88.0907  -26.8733 H         1 GLU         0.0277
    198 H82       -38.1620  -89.7005  -26.0903 H         1 GLU         0.0277
    199 H83       -36.8068  -89.3743  -27.2232 H         1 GLU         0.0277
    200 H84       -39.0393  -88.7948  -24.4709 H         1 GLU         0.1883
    201 H85       -39.5153  -86.1238  -23.6343 H         1 GLU         0.0797
    202 H86       -41.5516  -87.0160  -22.4971 H         1 GLU         0.0277
    203 H87       -40.9480  -88.6867  -22.7633 H         1 GLU         0.0277
    204 H88       -41.3567  -87.6449  -24.1683 H         1 GLU         0.0277
    205 H89       -40.1191  -85.4538  -21.2428 H         1 VAL         0.1883
    206 H90       -38.6716  -86.9708  -19.2232 H         1 VAL         0.0802
    207 H91       -37.2283  -85.1378  -18.4001 H         1 VAL         0.0343
    208 H92       -35.4531  -85.2040  -20.1438 H         1 VAL         0.0234
    209 H93       -36.6380  -85.8898  -21.3066 H         1 VAL         0.0234
    210 H94       -36.1828  -86.8164  -19.8366 H         1 VAL         0.0234
    211 H95       -38.5358  -83.2338  -19.2869 H         1 VAL         0.0234
    212 H96       -37.9376  -83.6151  -20.9372 H         1 VAL         0.0234
    213 H97       -36.7816  -83.1173  -19.6555 H         1 VAL         0.0234
    214 H98       -39.0338  -86.2951  -16.9422 H         1 GLY         0.1873
    215 H99       -40.3574  -85.6260  -15.1969 H         1 GLY         0.0689
    216 H100      -41.7149  -85.7474  -16.3670 H         1 GLY         0.0689
@<TRIPOS>BOND
     1    1    2 1  
     2    2    3 1  
     3    2    5 1  
     4    3    4 2  
     5    3    6 am 
     6    6    7 1  
     7    7    8 1  
     8    7   10 1  
     9    8    9 2  
    10    8   18 am 
    11   10   11 1  
    12   11   12 ar 
    13   11   13 ar 
    14   12   14 ar 
    15   13   15 ar 
    16   14   16 ar 
    17   15   16 ar 
    18   16   17 1  
    19   18   19 1  
    20   19   20 1  
    21   19   22 1  
    22   20   21 2  
    23   20   29 am 
    24   22   23 1  
    25   23   24 ar 
    26   23   25 ar 
    27   24   26 ar 
    28   25   27 ar 
    29   26   28 ar 
    30   27   28 ar 
    31   29   30 1  
    32   30   31 1  
    33   30   33 1  
    34   31   32 2  
    35   31   35 am 
    36   33   34 1  
    37   34   94 1  
    38   35   36 1  
    39   36   37 1  
    40   36   39 1  
    41   37   38 2  
    42   37   42 am 
    43   39   40 1  
    44   39   41 1  
    45   42   43 1  
    46   43   44 1  
    47   43   46 1  
    48   44   45 2  
    49   44   47 am 
    50   47   48 1  
    51   48   49 1  
    52   48   51 1  
    53   49   50 2  
    54   49   61 am 
    55   51   52 1  
    56   52   53 2  
    57   52   54 1  
    58   53   55 1  
    59   54   56 ar 
    60   54   57 ar 
    61   55   56 1  
    62   56   58 ar 
    63   57   59 ar 
    64   58   60 ar 
    65   59   60 ar 
    66   61   62 1  
    67   62   63 1  
    68   62   65 1  
    69   63   64 2  
    70   63   66 am 
    71   66   67 1  
    72   67   68 1  
    73   67   70 1  
    74   68   69 2  
    75   68   71 am 
    76   71   72 1  
    77   72   73 1  
    78   73   74 2  
    79   73   75 am 
    80   75   76 1  
    81   76   77 1  
    82   76   79 1  
    83   77   78 2  
    84   77   89 am 
    85   79   80 1  
    86   80   81 2  
    87   80   82 1  
    88   81   83 1  
    89   82   84 ar 
    90   82   85 ar 
    91   83   84 1  
    92   84   86 ar 
    93   85   87 ar 
    94   86   88 ar 
    95   87   88 ar 
    96   89   90 1  
    97   90   91 1  
    98   90   93 1  
    99   91   92 2  
   100   91   95 am 
   101   93   94 1  
   102   95   96 1  
   103   96   97 1  
   104   96   99 1  
   105   97   98 2  
   106   97  100 am 
   107  100  101 1  
   108  101  102 1  
   109  101  104 1  
   110  102  103 2  
   111  102  105 am 
   112  105  106 1  
   113  106  107 1  
   114  106  109 1  
   115  107  108 2  
   116  107  112 am 
   117  109  110 1  
   118  109  111 1  
   119  112  113 1  
   120  113  114 1  
   121  114  115 ar 
   122  114  116 ar 
   123    1  117 1  
   124    1  118 1  
   125    1  119 1  
   126    2  120 1  
   127    5  121 1  
   128    5  122 1  
   129    5  123 1  
   130    6  124 1  
   131    7  125 1  
   132   10  126 1  
   133   10  127 1  
   134   12  128 1  
   135   13  129 1  
   136   14  130 1  
   137   15  131 1  
   138   17  132 1  
   139   18  133 1  
   140   19  134 1  
   141   22  135 1  
   142   22  136 1  
   143   24  137 1  
   144   25  138 1  
   145   26  139 1  
   146   27  140 1  
   147   28  141 1  
   148   29  142 1  
   149   30  143 1  
   150   33  144 1  
   151   33  145 1  
   152   35  146 1  
   153   36  147 1  
   154   39  148 1  
   155   40  149 1  
   156   41  150 1  
   157   41  151 1  
   158   41  152 1  
   159   42  153 1  
   160   43  154 1  
   161   46  155 1  
   162   46  156 1  
   163   46  157 1  
   164   47  158 1  
   165   48  159 1  
   166   51  160 1  
   167   51  161 1  
   168   53  162 1  
   169   55  163 1  
   170   57  164 1  
   171   58  165 1  
   172   59  166 1  
   173   60  167 1  
   174   61  168 1  
   175   62  169 1  
   176   65  170 1  
   177   65  171 1  
   178   65  172 1  
   179   66  173 1  
   180   67  174 1  
   181   70  175 1  
   182   70  176 1  
   183   70  177 1  
   184   71  178 1  
   185   72  179 1  
   186   72  180 1  
   187   75  181 1  
   188   76  182 1  
   189   79  183 1  
   190   79  184 1  
   191   81  185 1  
   192   83  186 1  
   193   85  187 1  
   194   86  188 1  
   195   87  189 1  
   196   88  190 1  
   197   89  191 1  
   198   90  192 1  
   199   93  193 1  
   200   93  194 1  
   201   95  195 1  
   202   96  196 1  
   203   99  197 1  
   204   99  198 1  
   205   99  199 1  
   206  100  200 1  
   207  101  201 1  
   208  104  202 1  
   209  104  203 1  
   210  104  204 1  
   211  105  205 1  
   212  106  206 1  
   213  109  207 1  
   214  110  208 1  
   215  110  209 1  
   216  110  210 1  
   217  111  211 1  
   218  111  212 1  
   219  111  213 1  
   220  112  214 1  
   221  113  215 1  
   222  113  216 1  
@<TRIPOS>SUBSTRUCTURE
     1 ARG         1

