5bjt_ligand
  -I-interpret- 

215221  0  0  0  0  0  0  0  0999 V2000
  -35.9140  -81.2710  -10.6540 N   0  3  0  0  0
  -35.7410  -82.7320  -11.0280 C   0  0  0  0  0
  -36.3710  -83.1190  -12.3980 C   0  0  0  0  0
  -37.4800  -82.6760  -12.7220 O   0  0  0  0  0
  -36.2130  -83.6880   -9.8950 C   0  0  0  0  0
  -35.6740  -83.9330  -13.1930 N   0  0  0  0  0
  -36.1910  -84.3580  -14.5100 C   0  0  0  0  0
  -35.8630  -85.8250  -14.7180 C   0  0  0  0  0
  -34.7380  -86.2230  -14.3240 O   0  0  0  0  0
  -35.4690  -83.6210  -15.6300 C   0  0  0  0  0
  -35.9370  -82.2450  -15.9440 C   0  0  0  0  0
  -37.0000  -82.0300  -16.8310 C   0  0  0  0  0
  -35.2800  -81.1420  -15.4110 C   0  0  0  0  0
  -37.4160  -80.7370  -17.1520 C   0  0  0  0  0
  -35.6830  -79.8390  -15.7130 C   0  0  0  0  0
  -36.7430  -79.6420  -16.5840 C   0  0  0  0  0
  -37.1160  -78.3520  -16.8770 O   0  0  0  0  0
  -36.7760  -86.5970  -15.3650 N   0  0  0  0  0
  -36.5490  -88.0580  -15.6550 C   0  0  0  0  0
  -36.8380  -88.5950  -17.0790 C   0  0  0  0  0
  -37.6360  -88.0310  -17.8110 O   0  0  0  0  0
  -37.2800  -88.9280  -14.6470 C   0  0  0  0  0
  -38.7410  -88.9230  -14.8260 C   0  0  0  0  0
  -39.5340  -88.0280  -14.1050 C   0  0  0  0  0
  -39.3430  -89.7980  -15.7370 C   0  0  0  0  0
  -40.9220  -88.0110  -14.2750 C   0  0  0  0  0
  -40.7160  -89.7830  -15.9330 C   0  0  0  0  0
  -41.5120  -88.8930  -15.2040 C   0  0  0  0  0
  -36.2320  -89.7110  -17.4650 N   0  0  0  0  0
  -36.3500  -90.1060  -18.8540 C   0  0  0  0  0
  -37.4830  -91.0600  -19.2380 C   0  0  0  0  0
  -37.2240  -92.1880  -19.6420 O   0  0  0  0  0
  -35.0030  -90.5840  -19.4240 C   0  0  0  0  0
  -35.0210  -90.6930  -21.2880 S   0  0  0  0  0
  -38.7310  -90.6120  -19.1450 N   0  0  0  0  0
  -39.8550  -91.2360  -19.8860 C   0  0  0  0  0
  -39.4240  -91.6380  -21.2650 C   0  0  0  0  0
  -39.1630  -90.7770  -22.0770 O   0  0  0  0  0
  -40.8660  -90.1770  -20.2760 C   0  0  0  0  0
  -40.5910  -88.9430  -19.5820 O   0  0  0  0  0
  -42.2840  -90.6740  -20.0490 C   0  0  0  0  0
  -39.3630  -92.9140  -21.5780 N   0  0  0  0  0
  -38.8770  -93.3190  -22.9210 C   0  0  0  0  0
  -37.3360  -93.2180  -23.0810 C   0  0  0  0  0
  -36.6940  -92.3740  -22.4700 O   0  0  0  0  0
  -39.6390  -92.6290  -24.0920 C   0  0  0  0  0
  -36.8080  -94.0760  -23.9590 N   0  0  0  0  0
  -35.4410  -94.6030  -23.9680 C   0  0  0  0  0
  -35.4790  -95.4830  -25.2110 C   0  0  0  0  0
  -36.3610  -96.3150  -25.3070 O   0  0  0  0  0
  -35.1930  -95.4990  -22.7330 C   0  0  0  0  0
  -34.7310  -94.7830  -21.4730 C   0  0  0  0  0
  -35.5050  -94.3340  -20.4350 C   0  0  0  0  0
  -33.3840  -94.4280  -21.1300 C   0  0  0  0  0
  -34.7260  -93.7310  -19.4640 N   0  0  0  0  0
  -33.4240  -93.7650  -19.8780 C   0  0  0  0  0
  -32.1360  -94.5990  -21.7680 C   0  0  0  0  0
  -32.2730  -93.2880  -19.2550 C   0  0  0  0  0
  -30.9920  -94.1220  -21.1420 C   0  0  0  0  0
  -31.0680  -93.4860  -19.8920 C   0  0  0  0  0
  -34.6020  -95.2950  -26.1920 N   0  0  0  0  0
  -34.6700  -96.1120  -27.4290 C   0  0  0  0  0
  -33.2710  -96.3440  -27.9430 C   0  0  0  0  0
  -32.3510  -95.6200  -27.5850 O   0  0  0  0  0
  -35.5730  -95.5140  -28.5190 C   0  0  0  0  0
  -33.1170  -97.3450  -28.8020 N   0  0  0  0  0
  -31.8160  -98.0040  -29.0680 C   0  0  0  0  0
  -30.5940  -97.5490  -28.1560 C   0  0  0  0  0
  -29.4580  -97.6180  -28.5660 O   0  0  0  0  0
  -31.5430  -98.1190  -30.6130 C   0  0  0  0  0
  -30.8370  -97.1430  -26.9080 N   0  0  0  0  0
  -29.7610  -96.7390  -25.9680 C   0  0  0  0  0
  -29.9590  -95.4160  -25.2050 C   0  0  0  0  0
  -29.4370  -95.2380  -24.1030 O   0  0  0  0  0
  -30.7460  -94.4970  -25.7680 N   0  0  0  0  0
  -30.7110  -93.1080  -25.3350 C   0  0  0  0  0
  -31.9290  -92.4710  -24.6640 C   0  0  0  0  0
  -32.1540  -92.7540  -23.5010 O   0  0  0  0  0
  -30.1820  -92.2650  -26.4630 C   0  0  0  0  0
  -28.7660  -92.6350  -26.8090 C   0  0  0  0  0
  -28.3560  -93.6920  -27.5660 C   0  0  0  0  0
  -27.5690  -91.9420  -26.4080 C   0  0  0  0  0
  -26.9760  -93.6880  -27.6960 N   0  0  0  0  0
  -26.4610  -92.6370  -26.9760 C   0  0  0  0  0
  -27.3280  -90.7770  -25.6600 C   0  0  0  0  0
  -25.1330  -92.2140  -26.8220 C   0  0  0  0  0
  -25.9990  -90.3690  -25.4900 C   0  0  0  0  0
  -24.9200  -91.0930  -26.1040 C   0  0  0  0  0
  -32.6620  -91.5700  -25.3230 N   0  0  0  0  0
  -33.7930  -90.8810  -24.6300 C   0  0  0  0  0
  -34.9890  -90.2270  -25.4180 C   0  0  0  0  0
  -35.1790  -90.3940  -26.6430 O   0  0  0  0  0
  -33.2450  -89.8740  -23.5990 C   0  0  0  0  0
  -33.0950  -90.5810  -21.9210 S   0  0  0  0  0
  -35.8310  -89.5170  -24.6730 N   0  0  0  0  0
  -36.6000  -88.4510  -25.2860 C   0  0  0  0  0
  -37.3920  -87.6440  -24.2740 C   0  0  0  0  0
  -36.8600  -86.6970  -23.7020 O   0  0  0  0  0
  -37.4550  -88.9380  -26.4490 C   0  0  0  0  0
  -38.6520  -87.9740  -24.0510 N   0  0  0  0  0
  -39.4820  -87.1250  -23.1800 C   0  0  0  0  0
  -38.8470  -86.9510  -21.7610 C   0  0  0  0  0
  -37.8570  -87.6360  -21.4530 O   0  0  0  0  0
  -40.9410  -87.6570  -23.1500 C   0  0  0  0  0
  -39.3830  -86.0520  -20.9260 N   0  0  0  0  0
  -38.8920  -85.9420  -19.5440 C   0  0  0  0  0
  -39.9270  -85.3780  -18.5090 C   0  0  0  0  0
  -40.8030  -84.6050  -18.8960 O   0  0  0  0  0
  -37.5260  -85.1360  -19.4590 C   0  0  0  0  0
  -36.3650  -85.8110  -20.2440 C   0  0  0  0  0
  -37.7080  -83.6730  -19.8630 C   0  0  0  0  0
  -39.8020  -85.7140  -17.2110 N   0  0  0  0  0
  -40.7490  -85.2640  -16.1590 C   0  0  0  0  0
  -41.0220  -83.7720  -15.9970 C   0  0  0  0  0
  -41.2220  -83.2480  -14.8790 O   0  0  0  0  0
  -41.0610  -82.9910  -16.9730 O   0  0  0  0  0
  -35.5927  -80.6839  -11.4237 H   0  0  0  0  0
  -36.8994  -81.0829  -10.4696 H   0  0  0  0  0
  -35.3657  -81.0680   -9.8182 H   0  0  0  0  0
  -34.6659  -82.8620  -11.1517 H   0  0  0  0  0
  -37.2979  -83.6345   -9.8047 H   0  0  0  0  0
  -35.9171  -84.7090  -10.1361 H   0  0  0  0  0
  -35.7535  -83.3880   -8.9532 H   0  0  0  0  0
  -34.7622  -84.2699  -12.8839 H   0  0  0  0  0
  -37.2622  -84.1572  -14.5295 H   0  0  0  0  0
  -35.6424  -84.2075  -16.5323 H   0  0  0  0  0
  -34.4358  -83.5157  -15.2992 H   0  0  0  0  0
  -37.5092  -82.8845  -17.2766 H   0  0  0  0  0
  -34.4325  -81.2971  -14.7433 H   0  0  0  0  0
  -38.2515  -80.5787  -17.8339 H   0  0  0  0  0
  -35.1694  -78.9865  -15.2685 H   0  0  0  0  0
  -36.5488  -77.7403  -16.4019 H   0  0  0  0  0
  -37.6514  -86.1692  -15.6668 H   0  0  0  0  0
  -35.4643  -88.1246  -15.5713 H   0  0  0  0  0
  -37.0681  -88.5313  -13.6541 H   0  0  0  0  0
  -36.9345  -89.9527  -14.7840 H   0  0  0  0  0
  -39.0671  -87.3366  -13.4035 H   0  0  0  0  0
  -38.7260  -90.4992  -16.2989 H   0  0  0  0  0
  -41.5403  -87.3245  -13.6966 H   0  0  0  0  0
  -41.1732  -90.4623  -16.6525 H   0  0  0  0  0
  -42.5915  -88.8812  -15.3545 H   0  0  0  0  0
  -35.6986  -90.2744  -16.8028 H   0  0  0  0  0
  -36.6549  -89.1737  -19.3293 H   0  0  0  0  0
  -34.8029  -91.5800  -19.0289 H   0  0  0  0  0
  -34.2384  -89.8630  -19.1348 H   0  0  0  0  0
  -38.9228  -89.8111  -18.5431 H   0  0  0  0  0
  -40.2124  -92.0417  -19.2448 H   0  0  0  0  0
  -40.7757  -89.9723  -21.3428 H   0  0  0  0  0
  -41.2383  -88.2820  -19.8382 H   0  0  0  0  0
  -42.4566  -91.5646  -20.6533 H   0  0  0  0  0
  -42.4181  -90.9170  -18.9949 H   0  0  0  0  0
  -42.9908  -89.8956  -20.3365 H   0  0  0  0  0
  -39.6482  -93.6219  -20.9013 H   0  0  0  0  0
  -39.1164  -94.3802  -22.9891 H   0  0  0  0  0
  -40.6970  -92.8852  -24.0362 H   0  0  0  0  0
  -39.5209  -91.5482  -24.0138 H   0  0  0  0  0
  -39.2303  -92.9726  -25.0422 H   0  0  0  0  0
  -37.4243  -94.3995  -24.7046 H   0  0  0  0  0
  -34.6703  -93.8323  -23.9575 H   0  0  0  0  0
  -34.3911  -96.1843  -23.0076 H   0  0  0  0  0
  -36.1511  -95.9586  -22.4905 H   0  0  0  0  0
  -36.5887  -94.4381  -20.3817 H   0  0  0  0  0
  -32.0717  -95.0970  -22.7355 H   0  0  0  0  0
  -32.3243  -92.7748  -18.2947 H   0  0  0  0  0
  -30.0231  -94.2426  -21.6266 H   0  0  0  0  0
  -30.1510  -93.1407  -19.4144 H   0  0  0  0  0
  -33.8771  -94.5841  -26.0939 H   0  0  0  0  0
  -35.1361  -97.0619  -27.1672 H   0  0  0  0  0
  -36.5893  -95.4205  -28.1362 H   0  0  0  0  0
  -35.1976  -94.5302  -28.8007 H   0  0  0  0  0
  -35.5705  -96.1685  -29.3906 H   0  0  0  0  0
  -33.9386  -97.6786  -29.3062 H   0  0  0  0  0
  -31.9156  -99.0288  -28.7102 H   0  0  0  0  0
  -32.3337  -98.7082  -31.0775 H   0  0  0  0  0
  -31.5251  -97.1218  -31.0527 H   0  0  0  0  0
  -30.5817  -98.6065  -30.7755 H   0  0  0  0  0
  -31.8042  -97.1088  -26.5859 H   0  0  0  0  0
  -28.8692  -96.5994  -26.5790 H   0  0  0  0  0
  -29.7228  -97.5184  -25.2070 H   0  0  0  0  0
  -31.3833  -94.7730  -26.5150 H   0  0  0  0  0
  -30.0463  -93.1398  -24.4717 H   0  0  0  0  0
  -30.2002  -91.2205  -26.1519 H   0  0  0  0  0
  -30.8068  -92.4305  -27.3407 H   0  0  0  0  0
  -29.0199  -94.4356  -28.0070 H   0  0  0  0  0
  -28.1501  -90.2084  -25.2255 H   0  0  0  0  0
  -24.3062  -92.7692  -27.2650 H   0  0  0  0  0
  -25.7800  -89.4901  -24.8836 H   0  0  0  0  0
  -23.9007  -90.7254  -25.9858 H   0  0  0  0  0
  -32.4506  -91.3525  -26.2969 H   0  0  0  0  0
  -34.2972  -91.7500  -24.2074 H   0  0  0  0  0
  -33.9437  -89.0391  -23.5464 H   0  0  0  0  0
  -32.2483  -89.5752  -23.9238 H   0  0  0  0  0
  -35.9352  -89.7203  -23.6789 H   0  0  0  0  0
  -35.8720  -87.7627  -25.7154 H   0  0  0  0  0
  -36.8115  -89.3701  -27.2154 H   0  0  0  0  0
  -38.1551  -89.6935  -26.0922 H   0  0  0  0  0
  -38.0080  -88.0976  -26.8686 H   0  0  0  0  0
  -39.0470  -88.8112  -24.4793 H   0  0  0  0  0
  -39.5197  -86.1187  -23.5972 H   0  0  0  0  0
  -41.3517  -87.6446  -24.1596 H   0  0  0  0  0
  -40.9465  -88.6774  -22.7667 H   0  0  0  0  0
  -41.5450  -87.0211  -22.5028 H   0  0  0  0  0
  -40.1338  -85.4419  -21.2492 H   0  0  0  0  0
  -38.7175  -86.9765  -19.2484 H   0  0  0  0  0
  -37.2293  -85.1560  -18.4104 H   0  0  0  0  0
  -36.1855  -86.8071  -19.8394 H   0  0  0  0  0
  -36.6368  -85.8886  -21.2967 H   0  0  0  0  0
  -35.4621  -85.2087  -20.1440 H   0  0  0  0  0
  -38.0736  -83.6234  -20.8887 H   0  0  0  0  0
  -38.4287  -83.2001  -19.1958 H   0  0  0  0  0
  -36.7511  -83.1559  -19.7916 H   0  0  0  0  0
  -39.0185  -86.3067  -16.9368 H   0  0  0  0  0
  -40.2890  -85.5685  -15.2189 H   0  0  0  0  0
  -41.7089  -85.6954  -16.4428 H   0  0  0  0  0
  -41.1725  -83.9222  -14.1974 H   0  0  0  0  0
  1  2  1  0  0  0
  2  3  1  0  0  0
  2  5  1  0  0  0
  3  4  2  0  0  0
  3  6  1  0  0  0
  6  7  1  0  0  0
  7  8  1  0  0  0
  7 10  1  0  0  0
  8  9  2  0  0  0
  8 18  1  0  0  0
 10 11  1  0  0  0
 11 12  4  0  0  0
 11 13  4  0  0  0
 12 14  4  0  0  0
 13 15  4  0  0  0
 14 16  4  0  0  0
 15 16  4  0  0  0
 16 17  1  0  0  0
 18 19  1  0  0  0
 19 20  1  0  0  0
 19 22  1  0  0  0
 20 21  2  0  0  0
 20 29  1  0  0  0
 22 23  1  0  0  0
 23 24  4  0  0  0
 23 25  4  0  0  0
 24 26  4  0  0  0
 25 27  4  0  0  0
 26 28  4  0  0  0
 27 28  4  0  0  0
 29 30  1  0  0  0
 30 31  1  0  0  0
 30 33  1  0  0  0
 31 32  2  0  0  0
 31 35  1  0  0  0
 33 34  1  0  0  0
 34 94  1  0  0  0
 35 36  1  0  0  0
 36 37  1  0  0  0
 36 39  1  0  0  0
 37 38  2  0  0  0
 37 42  1  0  0  0
 39 40  1  0  0  0
 39 41  1  0  0  0
 42 43  1  0  0  0
 43 44  1  0  0  0
 43 46  1  0  0  0
 44 45  2  0  0  0
 44 47  1  0  0  0
 47 48  1  0  0  0
 48 49  1  0  0  0
 48 51  1  0  0  0
 49 50  2  0  0  0
 49 61  1  0  0  0
 51 52  1  0  0  0
 52 53  4  0  0  0
 52 54  4  0  0  0
 53 55  4  0  0  0
 54 56  4  0  0  0
 54 57  4  0  0  0
 55 56  4  0  0  0
 56 58  4  0  0  0
 57 59  4  0  0  0
 58 60  4  0  0  0
 59 60  4  0  0  0
 61 62  1  0  0  0
 62 63  1  0  0  0
 62 65  1  0  0  0
 63 64  2  0  0  0
 63 66  1  0  0  0
 66 67  1  0  0  0
 67 68  1  0  0  0
 67 70  1  0  0  0
 68 69  2  0  0  0
 68 71  1  0  0  0
 71 72  1  0  0  0
 72 73  1  0  0  0
 73 74  2  0  0  0
 73 75  1  0  0  0
 75 76  1  0  0  0
 76 77  1  0  0  0
 76 79  1  0  0  0
 77 78  2  0  0  0
 77 89  1  0  0  0
 79 80  1  0  0  0
 80 81  4  0  0  0
 80 82  4  0  0  0
 81 83  4  0  0  0
 82 84  4  0  0  0
 82 85  4  0  0  0
 83 84  4  0  0  0
 84 86  4  0  0  0
 85 87  4  0  0  0
 86 88  4  0  0  0
 87 88  4  0  0  0
 89 90  1  0  0  0
 90 91  1  0  0  0
 90 93  1  0  0  0
 91 92  2  0  0  0
 91 95  1  0  0  0
 93 94  1  0  0  0
 95 96  1  0  0  0
 96 97  1  0  0  0
 96 99  1  0  0  0
 97 98  2  0  0  0
 97100  1  0  0  0
100101  1  0  0  0
101102  1  0  0  0
101104  1  0  0  0
102103  2  0  0  0
102105  1  0  0  0
105106  1  0  0  0
106107  1  0  0  0
106109  1  0  0  0
107108  2  0  0  0
107112  1  0  0  0
109110  1  0  0  0
109111  1  0  0  0
112113  1  0  0  0
113114  1  0  0  0
114115  1  0  0  0
114116  2  0  0  0
  1117  1  0  0  0
  1118  1  0  0  0
  1119  1  0  0  0
  2120  1  0  0  0
  5121  1  0  0  0
  5122  1  0  0  0
  5123  1  0  0  0
  6124  1  0  0  0
  7125  1  0  0  0
 10126  1  0  0  0
 10127  1  0  0  0
 12128  1  0  0  0
 13129  1  0  0  0
 14130  1  0  0  0
 15131  1  0  0  0
 17132  1  0  0  0
 18133  1  0  0  0
 19134  1  0  0  0
 22135  1  0  0  0
 22136  1  0  0  0
 24137  1  0  0  0
 25138  1  0  0  0
 26139  1  0  0  0
 27140  1  0  0  0
 28141  1  0  0  0
 29142  1  0  0  0
 30143  1  0  0  0
 33144  1  0  0  0
 33145  1  0  0  0
 35146  1  0  0  0
 36147  1  0  0  0
 39148  1  0  0  0
 40149  1  0  0  0
 41150  1  0  0  0
 41151  1  0  0  0
 41152  1  0  0  0
 42153  1  0  0  0
 43154  1  0  0  0
 46155  1  0  0  0
 46156  1  0  0  0
 46157  1  0  0  0
 47158  1  0  0  0
 48159  1  0  0  0
 51160  1  0  0  0
 51161  1  0  0  0
 53162  1  0  0  0
 57163  1  0  0  0
 58164  1  0  0  0
 59165  1  0  0  0
 60166  1  0  0  0
 61167  1  0  0  0
 62168  1  0  0  0
 65169  1  0  0  0
 65170  1  0  0  0
 65171  1  0  0  0
 66172  1  0  0  0
 67173  1  0  0  0
 70174  1  0  0  0
 70175  1  0  0  0
 70176  1  0  0  0
 71177  1  0  0  0
 72178  1  0  0  0
 72179  1  0  0  0
 75180  1  0  0  0
 76181  1  0  0  0
 79182  1  0  0  0
 79183  1  0  0  0
 81184  1  0  0  0
 85185  1  0  0  0
 86186  1  0  0  0
 87187  1  0  0  0
 88188  1  0  0  0
 89189  1  0  0  0
 90190  1  0  0  0
 93191  1  0  0  0
 93192  1  0  0  0
 95193  1  0  0  0
 96194  1  0  0  0
 99195  1  0  0  0
 99196  1  0  0  0
 99197  1  0  0  0
100198  1  0  0  0
101199  1  0  0  0
104200  1  0  0  0
104201  1  0  0  0
104202  1  0  0  0
105203  1  0  0  0
106204  1  0  0  0
109205  1  0  0  0
110206  1  0  0  0
110207  1  0  0  0
110208  1  0  0  0
111209  1  0  0  0
111210  1  0  0  0
111211  1  0  0  0
112212  1  0  0  0
113213  1  0  0  0
113214  1  0  0  0
115215  1  0  0  0
M  END
$$$$
