3i5n_ligand
  -I-interpret- 

 46 50  0  0  0  0  0  0  0  0999 V2000
   19.7420   13.7030   56.9300 N   0  0  0  0  0
   20.7950   15.6250   56.7240 N   0  0  0  0  0
   19.8090   15.0190   57.3880 C   0  0  0  0  0
   17.0950   12.2850   58.8010 C   0  0  0  0  0
   15.9950   12.6990   59.5600 C   0  0  0  0  0
   15.0780   11.7690   60.0430 C   0  0  0  0  0
   15.2590   10.4130   59.7710 C   0  0  0  0  0
   17.2690   10.9250   58.5310 C   0  0  0  0  0
   22.0310   10.7830   56.8120 C   0  0  0  0  0
   24.2690   10.9030   57.7070 C   0  0  0  0  0
   21.8100    9.6880   57.6450 C   0  0  0  0  0
   20.3620    8.0410   58.4140 C   0  0  0  0  0
   21.9440    5.9680   61.0100 C   0  0  0  0  0
   20.9740    6.4450   60.0500 O   0  0  0  0  0
   21.3270    7.5260   59.2800 C   0  0  0  0  0
   22.5870    8.1330   59.3180 C   0  0  0  0  0
   20.6130    9.0800   57.6350 N   0  0  0  0  0
   22.8320    9.2290   58.4850 C   0  0  0  0  0
   24.0280    9.8520   58.4900 N   0  0  0  0  0
   23.2870   11.3940   56.8420 C   0  0  0  0  0
   21.0340   11.1950   56.0110 N   0  0  0  0  0
   21.1030   12.3970   55.1610 C   0  0  0  0  0
   20.7620   13.6490   55.9760 C   0  0  0  0  0
   18.9140   12.8890   57.3670 N   0  0  0  0  0
   21.3370   14.8530   55.9210 N   0  0  0  0  0
   18.9250   15.4470   58.3700 C   0  0  0  0  0
   18.0070   14.5210   58.8470 C   0  0  0  0  0
   18.0140   13.2240   58.3220 C   0  0  0  0  0
   16.3540    9.9920   59.0150 C   0  0  0  0  0
   15.8546   13.7583   59.7750 H   0  0  0  0  0
   14.2220   12.0994   60.6314 H   0  0  0  0  0
   14.5447    9.6816   60.1491 H   0  0  0  0  0
   18.1227   10.5931   57.9402 H   0  0  0  0  0
   25.2453   11.3864   57.7416 H   0  0  0  0  0
   19.3770    7.5757   58.3785 H   0  0  0  0  0
   22.8527    5.6681   60.4881 H   0  0  0  0  0
   22.1756    6.7646   61.7170 H   0  0  0  0  0
   21.5324    5.1129   61.5462 H   0  0  0  0  0
   23.3635    7.7583   59.9849 H   0  0  0  0  0
   23.4993   12.2462   56.1964 H   0  0  0  0  0
   20.1771   10.6421   55.9899 H   0  0  0  0  0
   20.3851   12.2974   54.3469 H   0  0  0  0  0
   22.1145   12.4950   54.7668 H   0  0  0  0  0
   18.9509   16.4681   58.7506 H   0  0  0  0  0
   17.2908   14.8005   59.6197 H   0  0  0  0  0
   16.4937    8.9320   58.8029 H   0  0  0  0  0
  1  3  4  0  0  0
  1 23  4  0  0  0
 24  1  4  0  0  0
  3  2  4  0  0  0
 25  2  4  0  0  0
  3 26  4  0  0  0
  4  5  4  0  0  0
  4  8  4  0  0  0
 28  4  1  0  0  0
  5  6  4  0  0  0
  6  7  4  0  0  0
 29  7  4  0  0  0
  8 29  4  0  0  0
  9 11  4  0  0  0
  9 20  4  0  0  0
 21  9  1  0  0  0
 10 19  4  0  0  0
 20 10  4  0  0  0
 11 17  4  0  0  0
 11 18  4  0  0  0
 12 15  4  0  0  0
 17 12  4  0  0  0
 14 13  1  0  0  0
 15 14  1  0  0  0
 16 15  4  0  0  0
 18 16  4  0  0  0
 18 19  4  0  0  0
 22 21  1  0  0  0
 23 22  1  0  0  0
 23 25  4  0  0  0
 24 28  4  0  0  0
 26 27  4  0  0  0
 27 28  4  0  0  0
  5 30  1  0  0  0
  6 31  1  0  0  0
  7 32  1  0  0  0
  8 33  1  0  0  0
 10 34  1  0  0  0
 12 35  1  0  0  0
 13 36  1  0  0  0
 13 37  1  0  0  0
 13 38  1  0  0  0
 16 39  1  0  0  0
 20 40  1  0  0  0
 21 41  1  0  0  0
 22 42  1  0  0  0
 22 43  1  0  0  0
 26 44  1  0  0  0
 27 45  1  0  0  0
 29 46  1  0  0  0
M  END
$$$$
