2q6c_ligand
  -I-interpret- 

 74 78  0  0  0  0  0  0  0  0999 V2000
   98.9790   -9.0980   16.7000 N   0  0  0  0  0
  103.8140  -14.1070   17.6240 C   0  0  0  0  0
   98.7830   -8.3170   18.8750 C   0  0  0  0  0
   98.8750   -9.2600   15.2140 C   0  0  0  0  0
   97.6160   -6.9040   16.9910 C   0  0  0  0  0
   96.1280   -7.1460   16.9120 C   0  0  0  0  0
   93.9800   -5.9010   16.9520 C   0  0  0  0  0
   99.3400   -8.0220   14.4520 C   0  0  0  0  0
   98.7570   -5.8870   21.8020 C   0  0  0  0  0
  101.0240  -14.1650   17.6110 C   0  0  0  0  0
  101.6920  -12.9990   17.9770 C   0  0  0  0  0
   97.0520   -7.6440   20.4980 C   0  0  0  0  0
  100.7310  -10.6310   22.3260 C   0  0  0  0  0
   96.5880   -6.9200   21.5890 C   0  0  0  0  0
  103.0890  -12.9710   17.9760 C   0  0  0  0  0
  101.4310  -11.7770   21.9820 C   0  0  0  0  0
  100.5150  -11.5860   16.1550 O   0  0  0  0  0
  100.3900  -11.1480   17.3180 C   0  0  0  0  0
   99.6540   -9.9730   17.5010 C   0  0  0  0  0
   97.4550   -9.6910   14.8390 C   0  0  0  0  0
   99.5600   -9.5470   18.8970 C   0  0  0  0  0
  100.2030  -10.2970   20.0010 C   0  0  0  0  0
  100.1140   -9.8880   21.3310 C   0  0  0  0  0
  100.9010  -11.4470   19.6390 C   0  0  0  0  0
  101.5200  -12.1860   20.6570 C   0  0  0  0  0
  100.9710  -11.8320   18.3350 N   0  0  0  0  0
  103.1440  -15.2730   17.2600 C   0  0  0  0  0
  101.7510  -15.2990   17.2540 C   0  0  0  0  0
   98.3630   -7.4920   20.0460 C   0  0  0  0  0
   97.4420   -6.0420   22.2450 C   0  0  0  0  0
   99.2220   -6.6130   20.7010 C   0  0  0  0  0
   96.9800   -5.3450   23.3010 F   0  0  0  0  0
   98.4120   -8.0940   17.4550 C   0  0  0  0  0
   95.4680   -5.7900   16.6850 C   0  0  0  0  0
   95.7000   -5.3790   15.3460 O   0  0  0  0  0
   93.6880   -5.9130   18.4490 C   0  0  0  0  0
   94.0020   -4.6550   19.0290 O   0  0  0  0  0
   92.2160   -6.2330   18.6440 C   0  0  0  0  0
   91.9660   -6.5690   20.0890 C   0  0  0  0  0
   91.3720   -5.7200   20.7850 O   0  0  0  0  0
   92.3630   -7.6760   20.5210 O   0  0  0  0  0
  104.9037  -14.0838   17.6333 H   0  0  0  0  0
   99.5608  -10.0498   14.9075 H   0  0  0  0  0
   97.7738   -6.1084   17.7191 H   0  0  0  0  0
   97.9561   -6.6630   15.9838 H   0  0  0  0  0
   95.7622   -7.6043   17.8308 H   0  0  0  0  0
   95.8911   -7.8316   16.0984 H   0  0  0  0  0
   93.6173   -6.8333   16.5192 H   0  0  0  0  0
   93.4814   -5.0399   16.5070 H   0  0  0  0  0
   99.3267   -8.2292   13.3820 H   0  0  0  0  0
   98.6709   -7.1898   14.6706 H   0  0  0  0  0
  100.3534   -7.7660   14.7612 H   0  0  0  0  0
   99.4247   -5.1964   22.3171 H   0  0  0  0  0
   99.9343  -14.1905   17.6038 H   0  0  0  0  0
   96.3840   -8.3389   19.9892 H   0  0  0  0  0
  100.6663  -10.3172   23.3678 H   0  0  0  0  0
   95.5593   -7.0401   21.9287 H   0  0  0  0  0
  103.6137  -12.0563   18.2519 H   0  0  0  0  0
  101.9176  -12.3645   22.7605 H   0  0  0  0  0
   96.7600   -8.8817   15.0629 H   0  0  0  0  0
   97.4158   -9.9212   13.7743 H   0  0  0  0  0
   97.1816  -10.5759   15.4137 H   0  0  0  0  0
   99.5600   -8.9852   21.5883 H   0  0  0  0  0
  102.0761  -13.0895   20.4068 H   0  0  0  0  0
  103.7082  -16.1628   16.9806 H   0  0  0  0  0
  101.2271  -16.2112   16.9685 H   0  0  0  0  0
  100.2495   -6.4918   20.3579 H   0  0  0  0  0
   95.8917   -5.0504   17.3644 H   0  0  0  0  0
   96.6453   -5.3132   15.1919 H   0  0  0  0  0
   94.3028   -6.6672   18.9402 H   0  0  0  0  0
   93.8122   -4.6813   19.9697 H   0  0  0  0  0
   91.9421   -7.0833   18.0195 H   0  0  0  0  0
   91.6147   -5.3689   18.3615 H   0  0  0  0  0
   92.7902   -8.1607   19.8110 H   0  0  0  0  0
  1  4  1  0  0  0
 19  1  4  0  0  0
  1 33  4  0  0  0
 15  2  4  0  0  0
  2 27  4  0  0  0
 21  3  4  0  0  0
  3 29  1  0  0  0
  3 33  4  0  0  0
  4  8  1  0  0  0
  4 20  1  0  0  0
  5  6  1  0  0  0
 33  5  1  0  0  0
  6 34  1  0  0  0
 34  7  1  0  0  0
  7 36  1  0  0  0
 30  9  4  0  0  0
  9 31  4  0  0  0
 11 10  4  0  0  0
 10 28  4  0  0  0
 11 15  4  0  0  0
 26 11  1  0  0  0
 12 14  4  0  0  0
 29 12  4  0  0  0
 13 16  4  0  0  0
 23 13  4  0  0  0
 14 30  4  0  0  0
 16 25  4  0  0  0
 18 17  2  0  0  0
 19 18  1  0  0  0
 18 26  1  0  0  0
 21 19  4  0  0  0
 22 21  1  0  0  0
 22 23  4  0  0  0
 22 24  4  0  0  0
 24 25  4  0  0  0
 24 26  1  0  0  0
 27 28  4  0  0  0
 29 31  4  0  0  0
 30 32  1  0  0  0
 34 35  1  0  0  0
 36 37  1  0  0  0
 36 38  1  0  0  0
 38 39  1  0  0  0
 39 40  2  0  0  0
 39 41  1  0  0  0
  2 42  1  0  0  0
  4 43  1  0  0  0
  5 44  1  0  0  0
  5 45  1  0  0  0
  6 46  1  0  0  0
  6 47  1  0  0  0
  7 48  1  0  0  0
  7 49  1  0  0  0
  8 50  1  0  0  0
  8 51  1  0  0  0
  8 52  1  0  0  0
  9 53  1  0  0  0
 10 54  1  0  0  0
 12 55  1  0  0  0
 13 56  1  0  0  0
 14 57  1  0  0  0
 15 58  1  0  0  0
 16 59  1  0  0  0
 20 60  1  0  0  0
 20 61  1  0  0  0
 20 62  1  0  0  0
 23 63  1  0  0  0
 25 64  1  0  0  0
 27 65  1  0  0  0
 28 66  1  0  0  0
 31 67  1  0  0  0
 34 68  1  0  0  0
 35 69  1  0  0  0
 36 70  1  0  0  0
 37 71  1  0  0  0
 38 72  1  0  0  0
 38 73  1  0  0  0
 41 74  1  0  0  0
M  END
$$$$
