4rx8_ligand
  -I-interpret- 

 49 52  0  0  0  0  0  0  0  0999 V2000
    0.4040    4.5760   10.2660 C   0  0  0  0  0
   -0.6060    5.1660   11.2460 C   0  0  0  0  0
   -0.5780    4.4630   12.5860 C   0  0  0  0  0
   -1.0940    0.0410   12.8480 C   0  0  0  0  0
   -1.8660   -0.9650   13.4600 C   0  0  0  0  0
    4.2700    0.5710   14.9430 C   0  0  0  0  0
    3.4900    2.6720   13.4590 C   0  0  0  0  0
    3.0610    0.5460   14.2940 C   0  0  0  0  0
    4.7630   -0.5620   15.7870 C   0  0  0  0  0
    0.1180   -1.5670   14.6710 C   0  0  0  0  0
   -1.2090   -1.7650   14.3790 C   0  0  0  0  0
   -1.5730   -2.9370   15.2710 C   0  0  0  0  0
   -0.4730   -3.2200   15.9460 C   0  0  0  0  0
    0.8060    4.4470   13.2100 C   0  0  0  0  0
    1.7670    3.7770   12.2000 C   0  0  0  0  0
    1.7780    4.5750   10.8960 C   0  0  0  0  0
    3.0750    3.6960   12.7390 N   0  0  0  0  0
    1.2050    5.8290   13.5360 N   0  3  0  0  0
    0.9170   -0.5560   14.0720 C   0  0  0  0  0
    0.2710    0.2170   13.1250 C   0  0  0  0  0
    2.2170   -0.4930   14.4300 N   0  0  0  0  0
    5.0550    1.6610   14.8300 N   0  0  0  0  0
    4.6510    2.6780   14.0910 N   0  0  0  0  0
    2.7020    1.6040   13.5830 N   0  0  0  0  0
    4.0550   -1.4470   16.0680 O   0  0  0  0  0
    0.4960   -2.4300   15.5860 N   0  0  0  0  0
    6.0020   -0.4850   16.1740 N   0  0  0  0  0
    0.4219    5.1777    9.3573 H   0  0  0  0  0
    0.1167    3.5536   10.0204 H   0  0  0  0  0
   -1.6023    5.0461   10.8203 H   0  0  0  0  0
   -0.3514    6.2136   11.4066 H   0  0  0  0  0
   -0.8862    3.4294   12.4284 H   0  0  0  0  0
   -1.2433    5.0018   13.2607 H   0  0  0  0  0
   -1.5742    0.7082   12.1323 H   0  0  0  0  0
   -2.9207   -1.1058   13.2236 H   0  0  0  0  0
   -2.5379   -3.4393   15.3403 H   0  0  0  0  0
   -0.3892   -4.0044   16.6981 H   0  0  0  0  0
    0.8278    3.8793   14.1403 H   0  0  0  0  0
    1.4186    2.7644   11.9966 H   0  0  0  0  0
    2.0700    5.6028   11.1116 H   0  0  0  0  0
    2.4847    4.1154   10.2050 H   0  0  0  0  0
    3.7237    4.4630   12.5624 H   0  0  0  0  0
    0.5422    6.2247   14.2028 H   0  0  0  0  0
    2.1392    5.8243   13.9455 H   0  0  0  0  0
    1.2086    6.3904   12.6844 H   0  0  0  0  0
    0.8325    0.9779   12.5829 H   0  0  0  0  0
    2.6065   -1.3345   14.8549 H   0  0  0  0  0
    6.4019   -1.2225   16.7541 H   0  0  0  0  0
    6.5740    0.3129   15.8975 H   0  0  0  0  0
  1  2  1  0  0  0
 16  1  1  0  0  0
  3  2  1  0  0  0
 14  3  1  0  0  0
  4  5  4  0  0  0
 20  4  4  0  0  0
 11  5  4  0  0  0
  8  6  4  0  0  0
  6  9  1  0  0  0
  6 22  4  0  0  0
  7 17  1  0  0  0
  7 23  4  0  0  0
 24  7  4  0  0  0
 21  8  1  0  0  0
  8 24  4  0  0  0
  9 25  2  0  0  0
  9 27  1  0  0  0
 10 11  4  0  0  0
 19 10  4  0  0  0
 10 26  4  0  0  0
 11 12  4  0  0  0
 13 12  4  0  0  0
 26 13  4  0  0  0
 15 14  1  0  0  0
 14 18  1  0  0  0
 15 16  1  0  0  0
 17 15  1  0  0  0
 19 20  4  0  0  0
 19 21  1  0  0  0
 22 23  4  0  0  0
  1 28  1  0  0  0
  1 29  1  0  0  0
  2 30  1  0  0  0
  2 31  1  0  0  0
  3 32  1  0  0  0
  3 33  1  0  0  0
  4 34  1  0  0  0
  5 35  1  0  0  0
 12 36  1  0  0  0
 13 37  1  0  0  0
 14 38  1  0  0  0
 15 39  1  0  0  0
 16 40  1  0  0  0
 16 41  1  0  0  0
 17 42  1  0  0  0
 18 43  1  0  0  0
 18 44  1  0  0  0
 18 45  1  0  0  0
 20 46  1  0  0  0
 21 47  1  0  0  0
 27 48  1  0  0  0
 27 49  1  0  0  0
M  END
$$$$
