3t3c_ligand
  -I-interpret- 

 75 78  0  0  0  0  0  0  0  0999 V2000
    3.3050   -4.2660  -15.0220 N   0  0  0  0  0
    2.6160   -4.2360  -16.1970 C   0  0  0  0  0
    2.3110   -3.0130  -16.7860 C   0  0  0  0  0
    1.5900   -2.9700  -17.9810 C   0  0  0  0  0
    1.1690   -4.1540  -18.5870 C   0  0  0  0  0
    1.5020   -5.3820  -17.9940 C   0  0  0  0  0
    2.2040   -5.4310  -16.7920 C   0  0  0  0  0
    0.3150   -4.0970  -19.9710 S   0  0  0  0  0
    0.6080   -2.8440  -20.5850 O   0  0  0  0  0
    0.6330   -5.2220  -20.7970 O   0  0  0  0  0
   -1.3030   -4.1990  -19.6640 N   0  0  0  0  0
   -1.6920   -5.4440  -18.9770 C   0  0  0  0  0
   -3.1360   -5.8630  -19.2860 C   0  0  0  0  0
   -3.3380   -6.1830  -20.7700 C   0  0  0  0  0
   -3.4520   -7.0960  -18.4560 C   0  0  0  0  0
   -1.9040   -3.0010  -19.0250 C   0  0  0  0  0
   -2.9740   -2.4690  -20.0000 C   0  0  0  0  0
   -3.8070   -1.5360  -19.3160 O   0  0  0  0  0
   -2.4070   -1.9000  -21.3390 C   0  0  0  0  0
   -3.5550   -1.7210  -22.2370 N   0  0  0  0  0
   -3.8040   -2.5380  -23.2620 C   0  0  0  0  0
   -3.1420   -3.5230  -23.6000 O   0  0  0  0  0
   -4.9850   -2.1960  -24.0060 O   0  0  0  0  0
   -5.2090   -2.7480  -25.3070 C   0  0  0  0  0
   -6.7100   -2.9650  -25.3350 C   0  0  0  0  0
   -7.2140   -1.6480  -25.4850 O   0  0  0  0  0
   -6.3350   -0.9210  -26.3590 C   0  0  0  0  0
   -6.1010    0.3900  -25.8560 O   0  0  0  0  0
   -4.7370    0.5830  -25.4490 C   0  0  0  0  0
   -3.9560   -0.6000  -26.0190 C   0  0  0  0  0
   -5.0080   -1.6600  -26.3520 C   0  0  0  0  0
   -1.7110   -0.5290  -21.2690 C   0  0  0  0  0
   -1.7310    1.0070  -23.2960 C   0  0  0  0  0
   -1.3160    1.3780  -24.5850 C   0  0  0  0  0
   -0.3970    0.5930  -25.2800 C   0  0  0  0  0
    0.1170   -0.5570  -24.6730 C   0  0  0  0  0
   -0.2900   -0.9280  -23.3760 C   0  0  0  0  0
   -1.2240   -0.1400  -22.6780 C   0  0  0  0  0
    3.5947   -3.3945  -14.5783 H   0  0  0  0  0
    3.5311   -5.1600  -14.5861 H   0  0  0  0  0
    2.6357   -2.0860  -16.3134 H   0  0  0  0  0
    1.3558   -2.0100  -18.4410 H   0  0  0  0  0
    1.2068   -6.3111  -18.4815 H   0  0  0  0  0
    2.4288   -6.3885  -16.3221 H   0  0  0  0  0
   -1.6152   -5.2725  -17.9033 H   0  0  0  0  0
   -1.0310   -6.2385  -19.3233 H   0  0  0  0  0
   -3.8014   -5.0353  -19.0407 H   0  0  0  0  0
   -3.1051   -5.3004  -21.3657 H   0  0  0  0  0
   -2.6776   -7.0013  -21.0571 H   0  0  0  0  0
   -4.3745   -6.4743  -20.9397 H   0  0  0  0  0
   -2.7613   -7.8969  -18.7199 H   0  0  0  0  0
   -3.3460   -6.8571  -17.3978 H   0  0  0  0  0
   -4.4746   -7.4154  -18.6570 H   0  0  0  0  0
   -1.1454   -2.2432  -18.8294 H   0  0  0  0  0
   -2.3476   -3.2554  -18.0624 H   0  0  0  0  0
   -3.5719   -3.3216  -20.3219 H   0  0  0  0  0
   -4.4747   -1.2023  -19.9197 H   0  0  0  0  0
   -1.6462   -2.6119  -21.6591 H   0  0  0  0  0
   -4.1886   -0.9393  -22.0702 H   0  0  0  0  0
   -4.5745   -3.6148  -25.4918 H   0  0  0  0  0
   -7.0838   -3.4635  -24.4406 H   0  0  0  0  0
   -7.0274   -3.6348  -26.1342 H   0  0  0  0  0
   -6.7741   -0.8474  -27.3539 H   0  0  0  0  0
   -4.6514    0.6262  -24.3632 H   0  0  0  0  0
   -4.3448    1.5302  -25.8193 H   0  0  0  0  0
   -3.2218   -0.9753  -25.3061 H   0  0  0  0  0
   -3.3836   -0.3136  -26.9013 H   0  0  0  0  0
   -4.6812   -2.1370  -27.2760 H   0  0  0  0  0
   -0.8611   -0.5830  -20.5886 H   0  0  0  0  0
   -2.4125    0.2207  -20.9030 H   0  0  0  0  0
   -2.4598    1.6228  -22.7690 H   0  0  0  0  0
   -1.7138    2.2831  -25.0440 H   0  0  0  0  0
   -0.0826    0.8727  -26.2855 H   0  0  0  0  0
    0.8397   -1.1726  -25.2085 H   0  0  0  0  0
    0.1189   -1.8260  -22.9129 H   0  0  0  0  0
  2  1  1  0  0  0
  3  2  4  0  0  0
  7  2  4  0  0  0
  4  3  4  0  0  0
  5  4  4  0  0  0
  5  6  4  0  0  0
  8  5  1  0  0  0
  6  7  4  0  0  0
  8  9  2  0  0  0
  8 10  2  0  0  0
 11  8  1  0  0  0
 11 12  1  0  0  0
 16 11  1  0  0  0
 12 13  1  0  0  0
 13 14  1  0  0  0
 13 15  1  0  0  0
 17 16  1  0  0  0
 17 18  1  0  0  0
 19 17  1  0  0  0
 19 20  1  0  0  0
 32 19  1  0  0  0
 20 21  1  0  0  0
 21 22  2  0  0  0
 21 23  1  0  0  0
 23 24  1  0  0  0
 24 25  1  0  0  0
 24 31  1  0  0  0
 25 26  1  0  0  0
 27 26  1  0  0  0
 27 28  1  0  0  0
 31 27  1  0  0  0
 29 28  1  0  0  0
 30 29  1  0  0  0
 31 30  1  0  0  0
 38 32  1  0  0  0
 33 34  4  0  0  0
 33 38  4  0  0  0
 34 35  4  0  0  0
 35 36  4  0  0  0
 36 37  4  0  0  0
 37 38  4  0  0  0
  1 39  1  0  0  0
  1 40  1  0  0  0
  3 41  1  0  0  0
  4 42  1  0  0  0
  6 43  1  0  0  0
  7 44  1  0  0  0
 12 45  1  0  0  0
 12 46  1  0  0  0
 13 47  1  0  0  0
 14 48  1  0  0  0
 14 49  1  0  0  0
 14 50  1  0  0  0
 15 51  1  0  0  0
 15 52  1  0  0  0
 15 53  1  0  0  0
 16 54  1  0  0  0
 16 55  1  0  0  0
 17 56  1  0  0  0
 18 57  1  0  0  0
 19 58  1  0  0  0
 20 59  1  0  0  0
 24 60  1  0  0  0
 25 61  1  0  0  0
 25 62  1  0  0  0
 27 63  1  0  0  0
 29 64  1  0  0  0
 29 65  1  0  0  0
 30 66  1  0  0  0
 30 67  1  0  0  0
 31 68  1  0  0  0
 32 69  1  0  0  0
 32 70  1  0  0  0
 33 71  1  0  0  0
 34 72  1  0  0  0
 35 73  1  0  0  0
 36 74  1  0  0  0
 37 75  1  0  0  0
M  END
$$$$
