1e34_ligand
  -I-interpret- 

 40 40  0  0  0  0  0  0  0  0999 V2000
   -9.0360   23.7870   37.6540 C   0  0  0  0  0
  -10.4560   23.2700   37.7690 C   0  0  0  0  0
  -10.6410   22.1640   36.8160 C   0  0  0  0  0
  -12.0150   21.5610   36.8870 C   0  0  0  0  0
  -11.4020   24.4160   37.5870 C   0  0  0  0  0
  -11.0880   25.5130   38.5910 C   0  0  0  0  0
   -8.5430   24.4530   36.7620 O   0  0  0  0  0
  -12.5260   21.1910   35.7980 O   0  0  0  0  0
  -12.5550   21.4450   38.0030 O   0  0  0  0  0
   -9.6190   21.0950   36.8170 C   0  0  0  0  0
   -8.2370   21.4900   36.6760 N   0  0  0  0  0
   -8.5790   22.2170   34.2940 O   0  0  0  0  0
   -6.3140   22.0310   35.2180 O   0  0  0  0  0
   -7.6510   21.5780   35.1370 S   0  0  0  0  0
   -7.5250   19.8540   34.7370 C   0  0  0  0  0
   -6.0850   19.6590   34.0230 C   0  0  0  0  0
   -8.3460   18.9860   34.4160 C   0  0  0  0  0
   -5.7890   18.3930   33.5580 C   0  0  0  0  0
   -8.0500   17.7210   33.9500 C   0  0  0  0  0
   -6.7720   17.4220   33.5210 C   0  0  0  0  0
   -6.4510   16.0460   33.0140 C   0  0  0  0  0
   -8.3694   23.5290   38.4769 H   0  0  0  0  0
  -10.6653   22.8556   38.7552 H   0  0  0  0  0
  -10.5068   22.6749   35.8625 H   0  0  0  0  0
  -12.4226   24.0672   37.7442 H   0  0  0  0  0
  -11.2953   24.8125   36.5773 H   0  0  0  0  0
  -11.1911   25.1189   39.6020 H   0  0  0  0  0
  -10.0668   25.8622   38.4382 H   0  0  0  0  0
  -11.7817   26.3419   38.4503 H   0  0  0  0  0
  -11.9203   21.3858   35.0791 H   0  0  0  0  0
   -9.8380   20.4803   35.9439 H   0  0  0  0  0
   -9.6898   20.6237   37.7973 H   0  0  0  0  0
   -7.6542   21.7033   37.4855 H   0  0  0  0  0
   -5.3837   20.4864   33.9147 H   0  0  0  0  0
   -9.4008   19.2442   34.5099 H   0  0  0  0  0
   -4.7795   18.1592   33.2199 H   0  0  0  0  0
   -8.8265   16.9566   33.9206 H   0  0  0  0  0
   -6.1064   16.1117   31.9820 H   0  0  0  0  0
   -5.6687   15.6057   33.6323 H   0  0  0  0  0
   -7.3456   15.4250   33.0609 H   0  0  0  0  0
  1  2  1  0  0  0
  1  7  2  0  0  0
  2  3  1  0  0  0
  2  5  1  0  0  0
  3  4  1  0  0  0
  3 10  1  0  0  0
  4  8  1  0  0  0
  4  9  2  0  0  0
  5  6  1  0  0  0
 10 11  1  0  0  0
 11 14  1  0  0  0
 14 12  2  0  0  0
 14 13  2  0  0  0
 14 15  1  0  0  0
 15 16  4  0  0  0
 15 17  4  0  0  0
 16 18  4  0  0  0
 17 19  4  0  0  0
 18 20  4  0  0  0
 19 20  4  0  0  0
 20 21  1  0  0  0
  1 22  1  0  0  0
  2 23  1  0  0  0
  3 24  1  0  0  0
  5 25  1  0  0  0
  5 26  1  0  0  0
  6 27  1  0  0  0
  6 28  1  0  0  0
  6 29  1  0  0  0
  8 30  1  0  0  0
 10 31  1  0  0  0
 10 32  1  0  0  0
 11 33  1  0  0  0
 16 34  1  0  0  0
 17 35  1  0  0  0
 18 36  1  0  0  0
 19 37  1  0  0  0
 21 38  1  0  0  0
 21 39  1  0  0  0
 21 40  1  0  0  0
M  END
$$$$
