5lqq_ligand
  -I-interpret- 

 43 46  0  0  0  0  0  0  0  0999 V2000
  -12.3070  -20.5080   -1.3860 Cl  0  0  0  0  0
  -13.1970  -21.4180   -0.1930 C   0  0  0  0  0
  -14.2150  -20.7680    0.5050 C   0  0  0  0  0
  -14.9430  -21.4550    1.4560 C   0  0  0  0  0
  -14.6410  -22.7980    1.7010 C   0  0  0  0  0
  -15.1820  -23.7780    2.6050 C   0  0  0  0  0
  -16.5110  -23.5080    3.7150 S   0  0  0  0  0
  -15.8810  -22.3900    4.9500 C   0  0  0  0  0
  -14.6660  -21.7290    4.8840 C   0  0  0  0  0
  -14.2790  -20.8780    5.8950 C   0  0  0  0  0
  -15.0990  -20.6750    6.9890 C   0  0  0  0  0
  -16.3200  -21.3260    7.0750 C   0  0  0  0  0
  -17.2140  -21.1120    8.2540 C   0  0  0  0  0
  -18.3470  -21.7700    8.2200 O   0  0  0  0  0
  -16.9060  -20.3740    9.1790 O   0  0  0  0  0
  -16.7030  -22.1820    6.0490 C   0  0  0  0  0
  -14.5020  -24.9520    2.4210 C   0  0  0  0  0
  -14.6880  -26.2590    3.1060 C   0  0  0  0  0
  -13.5320  -24.7540    1.4450 N   0  0  0  0  0
  -12.6110  -25.7470    0.9730 C   0  0  0  0  0
  -11.3100  -25.7620    1.4400 C   0  0  0  0  0
  -10.4340  -26.7380    0.9880 C   0  0  0  0  0
  -10.8560  -27.6970    0.0930 C   0  0  0  0  0
  -12.1570  -27.6840   -0.3570 C   0  0  0  0  0
  -13.0450  -26.7140    0.0860 C   0  0  0  0  0
  -13.6070  -23.4310    0.9910 C   0  0  0  0  0
  -12.8650  -22.7470    0.0290 C   0  0  0  0  0
  -14.4352  -19.7203    0.3001 H   0  0  0  0  0
  -15.7411  -20.9579    2.0074 H   0  0  0  0  0
  -14.0116  -21.8834    4.0261 H   0  0  0  0  0
  -13.3210  -20.3618    5.8322 H   0  0  0  0  0
  -14.7849  -20.0013    7.7862 H   0  0  0  0  0
  -18.3910  -22.2877    7.4127 H   0  0  0  0  0
  -17.6619  -22.6969    6.1082 H   0  0  0  0  0
  -14.5261  -26.1330    4.1765 H   0  0  0  0  0
  -15.7018  -26.6187    2.9305 H   0  0  0  0  0
  -13.9719  -26.9798    2.7113 H   0  0  0  0  0
  -10.9752  -25.0130    2.1576 H   0  0  0  0  0
   -9.4037  -26.7464    1.3436 H   0  0  0  0  0
  -10.1631  -28.4622   -0.2570 H   0  0  0  0  0
  -12.4919  -28.4409   -1.0662 H   0  0  0  0  0
  -14.0776  -26.7147   -0.2631 H   0  0  0  0  0
  -12.0611  -23.2337   -0.5233 H   0  0  0  0  0
  1  2  1  0  0  0
  2  3  4  0  0  0
  2 27  4  0  0  0
  3  4  4  0  0  0
  4  5  4  0  0  0
  5  6  4  0  0  0
  5 26  4  0  0  0
  6  7  1  0  0  0
  6 17  4  0  0  0
  7  8  1  0  0  0
  8  9  4  0  0  0
  8 16  4  0  0  0
  9 10  4  0  0  0
 10 11  4  0  0  0
 11 12  4  0  0  0
 12 13  1  0  0  0
 12 16  4  0  0  0
 13 14  1  0  0  0
 13 15  2  0  0  0
 17 18  1  0  0  0
 17 19  4  0  0  0
 19 20  1  0  0  0
 19 26  4  0  0  0
 20 21  4  0  0  0
 20 25  4  0  0  0
 21 22  4  0  0  0
 22 23  4  0  0  0
 23 24  4  0  0  0
 24 25  4  0  0  0
 26 27  4  0  0  0
  3 28  1  0  0  0
  4 29  1  0  0  0
  9 30  1  0  0  0
 10 31  1  0  0  0
 11 32  1  0  0  0
 14 33  1  0  0  0
 16 34  1  0  0  0
 18 35  1  0  0  0
 18 36  1  0  0  0
 18 37  1  0  0  0
 21 38  1  0  0  0
 22 39  1  0  0  0
 23 40  1  0  0  0
 24 41  1  0  0  0
 25 42  1  0  0  0
 27 43  1  0  0  0
M  END
$$$$
