4ona_ligand
  -I-interpret- 

 49 51  0  0  0  0  0  0  0  0999 V2000
    9.8820  -19.5650  -32.8690 C   0  0  0  0  0
    8.4650  -19.2160  -32.4400 C   0  0  0  0  0
    7.5490  -19.8620  -33.3510 O   0  0  0  0  0
    6.2110  -19.6990  -33.1340 C   0  0  0  0  0
    5.7060  -19.0210  -32.0590 C   0  0  0  0  0
    5.3860  -20.3650  -34.0170 C   0  0  0  0  0
    4.0570  -20.4690  -33.7640 C   0  0  0  0  0
    3.4990  -19.8980  -32.6060 C   0  0  0  0  0
    2.1500  -20.0470  -32.2290 C   0  0  0  0  0
    4.3290  -19.1310  -31.7700 C   0  0  0  0  0
    3.8580  -18.5410  -30.6360 N   0  0  0  0  0
    2.5980  -18.7500  -30.3250 C   0  0  0  0  0
    1.6910  -19.4890  -31.0660 C   0  0  0  0  0
    0.2780  -19.5800  -30.6640 C   0  0  0  0  0
   -0.3240  -18.4550  -30.3000 N   0  0  0  0  0
   -1.6140  -18.8070  -29.9920 N   0  0  0  0  0
   -2.5250  -17.7040  -29.5200 C   0  0  0  0  0
   -1.7460  -16.3900  -29.4720 C   0  0  0  0  0
   -3.6890  -17.5590  -30.5000 C   0  0  0  0  0
   -3.0340  -18.0420  -28.1160 C   0  0  0  0  0
   -1.8300  -20.1250  -30.1670 C   0  0  0  0  0
   -3.0320  -20.7180  -30.0560 N   0  0  0  0  0
   -0.6040  -20.6920  -30.5830 C   0  0  0  0  0
   -0.4390  -22.1420  -30.7720 C   0  0  0  0  0
   -1.4230  -22.8540  -30.9150 O   0  0  0  0  0
    0.7670  -22.6760  -30.7610 N   0  0  0  0  0
   10.0153  -20.6462  -32.8330 H   0  0  0  0  0
   10.0500  -19.2106  -33.8860 H   0  0  0  0  0
   10.5925  -19.0874  -32.1944 H   0  0  0  0  0
    8.3202  -18.1359  -32.4643 H   0  0  0  0  0
    8.2857  -19.5585  -31.4209 H   0  0  0  0  0
    6.3558  -18.4063  -31.4362 H   0  0  0  0  0
    5.8033  -20.8090  -34.9208 H   0  0  0  0  0
    3.4147  -21.0009  -34.4659 H   0  0  0  0  0
    1.4679  -20.6095  -32.8665 H   0  0  0  0  0
    2.2343  -18.3012  -29.4006 H   0  0  0  0  0
   -0.9076  -16.4911  -28.7829 H   0  0  0  0  0
   -1.3725  -16.1539  -30.4684 H   0  0  0  0  0
   -2.4043  -15.5911  -29.1306 H   0  0  0  0  0
   -3.3013  -17.3157  -31.4892 H   0  0  0  0  0
   -4.2426  -18.4968  -30.5459 H   0  0  0  0  0
   -4.3503  -16.7615  -30.1613 H   0  0  0  0  0
   -3.5821  -18.9837  -28.1466 H   0  0  0  0  0
   -2.1869  -18.1351  -27.4364 H   0  0  0  0  0
   -3.6941  -17.2470  -27.7690 H   0  0  0  0  0
   -3.8555  -20.1622  -29.8251 H   0  0  0  0  0
   -3.1201  -21.7235  -30.2027 H   0  0  0  0  0
    0.8796  -23.6837  -30.8718 H   0  0  0  0  0
    1.5870  -22.0813  -30.6417 H   0  0  0  0  0
  1  2  1  0  0  0
  2  3  1  0  0  0
  3  4  1  0  0  0
  4  5  4  0  0  0
  4  6  4  0  0  0
  5 10  4  0  0  0
  6  7  4  0  0  0
  7  8  4  0  0  0
  8  9  4  0  0  0
  8 10  4  0  0  0
  9 13  4  0  0  0
 10 11  4  0  0  0
 11 12  4  0  0  0
 12 13  4  0  0  0
 13 14  1  0  0  0
 14 15  4  0  0  0
 14 23  4  0  0  0
 15 16  4  0  0  0
 16 17  1  0  0  0
 16 21  4  0  0  0
 17 18  1  0  0  0
 17 19  1  0  0  0
 17 20  1  0  0  0
 21 22  1  0  0  0
 21 23  4  0  0  0
 23 24  1  0  0  0
 24 25  2  0  0  0
 24 26  1  0  0  0
  1 27  1  0  0  0
  1 28  1  0  0  0
  1 29  1  0  0  0
  2 30  1  0  0  0
  2 31  1  0  0  0
  5 32  1  0  0  0
  6 33  1  0  0  0
  7 34  1  0  0  0
  9 35  1  0  0  0
 12 36  1  0  0  0
 18 37  1  0  0  0
 18 38  1  0  0  0
 18 39  1  0  0  0
 19 40  1  0  0  0
 19 41  1  0  0  0
 19 42  1  0  0  0
 20 43  1  0  0  0
 20 44  1  0  0  0
 20 45  1  0  0  0
 22 46  1  0  0  0
 22 47  1  0  0  0
 26 48  1  0  0  0
 26 49  1  0  0  0
M  END
$$$$
