6m9d_ligand
  -I-interpret- 

 65 66  0  0  0  0  0  0  0  0999 V2000
   23.5330   13.2160    3.5120 N   0  0  0  0  0
   23.2050   11.8770    3.9000 C   0  0  0  0  0
   23.5880   14.3050    4.4750 C   0  0  0  0  0
   23.1700   11.0820    2.7120 N   0  0  0  0  0
   23.0050   12.5450    6.1350 C   0  0  0  0  0
   24.0930   13.5140    5.6850 C   0  0  0  0  0
   22.9570   11.4130    5.2310 N   0  0  0  0  0
   21.9480   11.5750    7.9130 N   0  3  0  0  0
   23.3050   11.9990    7.5420 C   0  0  0  0  0
   24.0020   12.8960    8.5750 C   0  0  0  0  0
   25.1890   13.2200    8.4670 O   0  0  0  0  0
   23.2540   13.3030    9.6010 N   0  0  0  0  0
   23.7990   14.1750   10.6380 C   0  0  0  0  0
   24.7550   13.3770   11.5120 C   0  0  0  0  0
   24.5380   12.2070   11.8300 O   0  0  0  0  0
   22.6860   14.7980   11.4730 C   0  0  0  0  0
   21.9170   16.0130   10.9660 C   0  0  0  0  0
   22.2740   16.3890    9.5370 C   0  0  0  0  0
   20.4100   15.7760   11.0520 C   0  0  0  0  0
   25.8600   13.9850   11.9360 N   0  0  0  0  0
   26.7310   13.2140   12.8260 C   0  0  0  0  0
   26.7340   13.8430   14.2150 C   0  0  0  0  0
   27.3180   13.3100   15.1620 O   0  0  0  0  0
   28.1250   13.1440   12.2440 C   0  0  0  0  0
   28.4610   12.0560   11.2480 C   0  0  0  0  0
   29.4860   12.2800   10.3300 C   0  0  0  0  0
   27.8030   10.8410   11.2120 C   0  0  0  0  0
   29.8440   11.3210    9.4040 C   0  0  0  0  0
   28.1540    9.8740   10.2870 C   0  0  0  0  0
   29.1730   10.1070    9.3780 C   0  0  0  0  0
   23.7340   13.4119    2.5314 H   0  0  0  0  0
   22.6490   14.8371    4.6277 H   0  0  0  0  0
   24.2087   15.1519    4.1826 H   0  0  0  0  0
   22.9525   10.0872    2.7703 H   0  0  0  0  0
   22.0587   13.0859    6.1398 H   0  0  0  0  0
   24.3333   14.1996    6.4976 H   0  0  0  0  0
   24.9899   12.9581    5.4120 H   0  0  0  0  0
   22.7763   10.4456    5.4991 H   0  0  0  0  0
   21.5631   10.9863    7.1743 H   0  0  0  0  0
   21.9844   11.0477    8.7854 H   0  0  0  0  0
   21.3577   12.3977    8.0360 H   0  0  0  0  0
   24.0839   11.2366    7.5292 H   0  0  0  0  0
   22.2822   12.9994    9.6628 H   0  0  0  0  0
   24.3435   14.9925   10.1655 H   0  0  0  0  0
   23.1943   15.1589   12.3671 H   0  0  0  0  0
   21.9317   14.0139   11.5384 H   0  0  0  0  0
   22.2072   16.8405   11.6134 H   0  0  0  0  0
   23.3373   16.6217    9.4787 H   0  0  0  0  0
   22.0469   15.5532    8.8752 H   0  0  0  0  0
   21.6929   17.2607    9.2360 H   0  0  0  0  0
   20.1441   14.9119   10.4431 H   0  0  0  0  0
   20.1312   15.5908   12.0893 H   0  0  0  0  0
   19.8834   16.6568   10.6847 H   0  0  0  0  0
   26.0887   14.9387   11.6557 H   0  0  0  0  0
   26.3553   12.1950   12.9191 H   0  0  0  0  0
   25.6853   13.8243   14.5117 H   0  0  0  0  0
   27.2688   14.7823   14.0745 H   0  0  0  0  0
   27.2087   13.8496   15.9485 H   0  0  0  0  0
   28.7725   12.9472   13.0984 H   0  0  0  0  0
   28.2401   14.0742   11.6877 H   0  0  0  0  0
   30.0159   13.2325   10.3438 H   0  0  0  0  0
   26.9986   10.6425   11.9203 H   0  0  0  0  0
   30.6499   11.5166    8.6967 H   0  0  0  0  0
   27.6246    8.9213   10.2734 H   0  0  0  0  0
   29.4451    9.3436    8.6491 H   0  0  0  0  0
  1  2  1  0  0  0
  1  3  1  0  0  0
  2  4  2  0  0  0
  2  7  1  0  0  0
  3  6  1  0  0  0
  6  5  1  0  0  0
  5  7  1  0  0  0
  5  9  1  0  0  0
  9  8  1  0  0  0
  9 10  1  0  0  0
 10 11  2  0  0  0
 10 12  1  0  0  0
 12 13  1  0  0  0
 13 14  1  0  0  0
 13 16  1  0  0  0
 14 15  2  0  0  0
 14 20  1  0  0  0
 16 17  1  0  0  0
 17 18  1  0  0  0
 17 19  1  0  0  0
 20 21  1  0  0  0
 21 22  1  0  0  0
 21 24  1  0  0  0
 22 23  1  0  0  0
 24 25  1  0  0  0
 25 26  4  0  0  0
 25 27  4  0  0  0
 26 28  4  0  0  0
 27 29  4  0  0  0
 28 30  4  0  0  0
 29 30  4  0  0  0
  1 31  1  0  0  0
  3 32  1  0  0  0
  3 33  1  0  0  0
  4 34  1  0  0  0
  5 35  1  0  0  0
  6 36  1  0  0  0
  6 37  1  0  0  0
  7 38  1  0  0  0
  8 39  1  0  0  0
  8 40  1  0  0  0
  8 41  1  0  0  0
  9 42  1  0  0  0
 12 43  1  0  0  0
 13 44  1  0  0  0
 16 45  1  0  0  0
 16 46  1  0  0  0
 17 47  1  0  0  0
 18 48  1  0  0  0
 18 49  1  0  0  0
 18 50  1  0  0  0
 19 51  1  0  0  0
 19 52  1  0  0  0
 19 53  1  0  0  0
 20 54  1  0  0  0
 21 55  1  0  0  0
 22 56  1  0  0  0
 22 57  1  0  0  0
 23 58  1  0  0  0
 24 59  1  0  0  0
 24 60  1  0  0  0
 26 61  1  0  0  0
 27 62  1  0  0  0
 28 63  1  0  0  0
 29 64  1  0  0  0
 30 65  1  0  0  0
M  END
$$$$
