### 
### Created by X-TOOL on Mon Sep 10 21:12:44 2018
### 

@<TRIPOS>MOLECULE
1p02_ligand
   49    49     1     0     0
SMALL
GAST_HUCK


@<TRIPOS>ATOM
      1 N          13.4240   41.8680   18.7130 N.4       1 ALA         0.2377
      2 CA         14.0990   40.6170   18.3140 C.3       1 ALA         0.0621
      3 C          13.2630   39.3680   18.5380 C.2       1 ALA         0.2264
      4 O          12.5030   39.3170   19.5460 O.2       1 ALA        -0.3907
      5 CB         15.3390   40.3300   19.1530 C.3       1 ALA        -0.0040
      6 N          13.4470   38.4380   17.6250 N.am      1 ALA        -0.2613
      7 CA         12.6660   37.1760   17.7920 C.3       1 ALA         0.1285
      8 C          13.6380   36.0520   17.4510 C.2       1 ALA         0.2061
      9 O          14.5820   36.3620   16.7270 O.2       1 ALA        -0.3942
     10 CB         11.4360   37.1970   16.9160 C.3       1 ALA        -0.0244
     11 N          13.4070   34.8820   18.0230 N.am      1 PRO        -0.2498
     12 CA         14.2390   33.7100   17.7510 C.3       1 PRO         0.1336
     13 C          14.0090   33.3250   16.2930 C.2       1 PRO         0.2010
     14 O          12.8900   33.5880   15.8000 O.2       1 PRO        -0.3946
     15 CB         13.7090   32.6390   18.6870 C.3       1 PRO        -0.0104
     16 CG         12.8570   33.3650   19.7040 C.3       1 PRO        -0.0281
     17 CD         12.2720   34.5680   18.9120 C.3       1 PRO         0.0369
     18 N          15.0070   32.7620   15.6330 N.am      1 B2A        -0.2921
     19 CA         14.8230   32.3550   14.2160 C.3       1 B2A         0.0504
     20 CB         15.8290   33.0630   13.3250 C.3       1 B2A        -0.0510
     21 B          14.8010   30.8470   14.0100 B         1 B2A         0.7161
     22 O1         14.8930   30.2570   12.6460 O.3       1 B2A        -0.4967
     23 O2         14.0020   30.0750   14.9720 O.3       1 B2A        -0.4967
     24 H1         14.0348   42.6503   18.5368 H         1 ALA         0.2015
     25 H2         13.2006   41.8308   19.6952 H         1 ALA         0.2015
     26 H3         12.5758   41.9771   18.1794 H         1 ALA         0.2015
     27 H4         14.3698   40.7017   17.2512 H         1 ALA         0.1095
     28 H5         15.8010   39.3907   18.8150 H         1 ALA         0.0310
     29 H6         15.0526   40.2377   20.2110 H         1 ALA         0.0310
     30 H7         16.0582   41.1544   19.0383 H         1 ALA         0.0310
     31 H8         14.0768   38.5695   16.8595 H         1 ALA         0.1884
     32 H9         12.3426   37.0713   18.8381 H         1 ALA         0.0797
     33 H10        10.8735   36.2615   17.0514 H         1 ALA         0.0277
     34 H11        11.7376   37.2943   15.8627 H         1 ALA         0.0277
     35 H12        10.8010   38.0504   17.1960 H         1 ALA         0.0277
     36 H13        15.3047   33.9089   17.9372 H         1 PRO         0.0802
     37 H14        14.5410   32.1198   19.1852 H         1 PRO         0.0313
     38 H15        13.1025   31.9096   18.1301 H         1 PRO         0.0313
     39 H16        13.4684   33.7134   20.5494 H         1 PRO         0.0287
     40 H17        12.0527   32.7138   20.0769 H         1 PRO         0.0287
     41 H18        11.3763   34.2815   18.3414 H         1 PRO         0.0524
     42 H19        12.0300   35.4116   19.5751 H         1 PRO         0.0524
     43 H20        15.8849   32.6103   16.0873 H         1 B2A         0.1840
     44 H21        13.8284   32.7157   13.9148 H         1 B2A         0.0429
     45 H22        15.7955   34.1448   13.5217 H         1 B2A         0.0239
     46 H23        15.5811   32.8743   12.2700 H         1 B2A         0.0239
     47 H24        16.8390   32.6828   13.5380 H         1 B2A         0.0239
     48 H25        15.2913   29.3963   12.7007 H         1 B2A         0.1667
     49 H26        13.9981   30.5226   15.8100 H         1 B2A         0.1667
@<TRIPOS>BOND
     1    1    2 1  
     2    2    3 1  
     3    2    5 1  
     4    3    4 2  
     5    3    6 am 
     6    6    7 1  
     7    7    8 1  
     8    7   10 1  
     9    8    9 2  
    10    8   11 am 
    11   11   12 1  
    12   11   17 1  
    13   12   13 1  
    14   12   15 1  
    15   13   14 2  
    16   13   18 am 
    17   15   16 1  
    18   16   17 1  
    19   18   19 1  
    20   19   20 1  
    21   19   21 1  
    22   21   22 1  
    23   21   23 1  
    24    1   24 1  
    25    1   25 1  
    26    1   26 1  
    27    2   27 1  
    28    5   28 1  
    29    5   29 1  
    30    5   30 1  
    31    6   31 1  
    32    7   32 1  
    33   10   33 1  
    34   10   34 1  
    35   10   35 1  
    36   12   36 1  
    37   15   37 1  
    38   15   38 1  
    39   16   39 1  
    40   16   40 1  
    41   17   41 1  
    42   17   42 1  
    43   18   43 1  
    44   19   44 1  
    45   20   45 1  
    46   20   46 1  
    47   20   47 1  
    48   22   48 1  
    49   23   49 1  
@<TRIPOS>SUBSTRUCTURE
     1 ALA         1

