1p02_ligand
  -I-interpret- 

 49 49  0  0  0  0  0  0  0  0999 V2000
   13.4240   41.8680   18.7130 N   0  3  0  0  0
   14.0990   40.6170   18.3140 C   0  0  0  0  0
   13.2630   39.3680   18.5380 C   0  0  0  0  0
   12.5030   39.3170   19.5460 O   0  0  0  0  0
   15.3390   40.3300   19.1530 C   0  0  0  0  0
   13.4470   38.4380   17.6250 N   0  0  0  0  0
   12.6660   37.1760   17.7920 C   0  0  0  0  0
   13.6380   36.0520   17.4510 C   0  0  0  0  0
   14.5820   36.3620   16.7270 O   0  0  0  0  0
   11.4360   37.1970   16.9160 C   0  0  0  0  0
   13.4070   34.8820   18.0230 N   0  0  0  0  0
   14.2390   33.7100   17.7510 C   0  0  0  0  0
   14.0090   33.3250   16.2930 C   0  0  0  0  0
   12.8900   33.5880   15.8000 O   0  0  0  0  0
   13.7090   32.6390   18.6870 C   0  0  0  0  0
   12.8570   33.3650   19.7040 C   0  0  0  0  0
   12.2720   34.5680   18.9120 C   0  0  0  0  0
   15.0070   32.7620   15.6330 N   0  0  0  0  0
   14.8230   32.3550   14.2160 C   0  0  0  0  0
   15.8290   33.0630   13.3250 C   0  0  0  0  0
   14.8010   30.8470   14.0100 B   0  0  0  0  0
   14.8930   30.2570   12.6460 O   0  0  0  0  0
   14.0020   30.0750   14.9720 O   0  0  0  0  0
   12.6042   42.0135   18.1237 H   0  0  0  0  0
   13.1351   41.8007   19.6889 H   0  0  0  0  0
   14.0680   42.6510   18.6010 H   0  0  0  0  0
   14.3103   40.7944   17.2595 H   0  0  0  0  0
   15.0478   40.1936   20.1945 H   0  0  0  0  0
   15.8215   39.4235   18.7876 H   0  0  0  0  0
   16.0311   41.1684   19.0747 H   0  0  0  0  0
   14.0894   38.5722   16.8442 H   0  0  0  0  0
   12.2836   37.0415   18.8038 H   0  0  0  0  0
   11.7345   37.3279   15.8759 H   0  0  0  0  0
   10.8977   36.2555   17.0252 H   0  0  0  0  0
   10.7912   38.0227   17.2169 H   0  0  0  0  0
   15.3068   33.8666   17.9041 H   0  0  0  0  0
   14.5220   32.0946   19.1673 H   0  0  0  0  0
   13.1294   31.8911   18.1459 H   0  0  0  0  0
   13.4317   33.6826   20.5740 H   0  0  0  0  0
   12.0784   32.7271   20.1223 H   0  0  0  0  0
   11.3427   34.3465   18.3871 H   0  0  0  0  0
   11.9527   35.4010   19.5383 H   0  0  0  0  0
   15.9024   32.6073   16.0963 H   0  0  0  0  0
   13.8262   32.6788   13.9166 H   0  0  0  0  0
   15.6886   34.1409   13.4058 H   0  0  0  0  0
   16.8391   32.8022   13.6409 H   0  0  0  0  0
   15.6787   32.7522   12.2911 H   0  0  0  0  0
   14.8638   29.2996   12.7101 H   0  0  0  0  0
   14.0551   29.1416   14.7541 H   0  0  0  0  0
  1  2  1  0  0  0
  2  3  1  0  0  0
  2  5  1  0  0  0
  3  4  2  0  0  0
  3  6  1  0  0  0
  6  7  1  0  0  0
  7  8  1  0  0  0
  7 10  1  0  0  0
  8  9  2  0  0  0
  8 11  1  0  0  0
 11 12  1  0  0  0
 11 17  1  0  0  0
 12 13  1  0  0  0
 12 15  1  0  0  0
 13 14  2  0  0  0
 13 18  1  0  0  0
 15 16  1  0  0  0
 16 17  1  0  0  0
 18 19  1  0  0  0
 19 20  1  0  0  0
 19 21  1  0  0  0
 21 22  1  0  0  0
 21 23  1  0  0  0
  1 24  1  0  0  0
  1 25  1  0  0  0
  1 26  1  0  0  0
  2 27  1  0  0  0
  5 28  1  0  0  0
  5 29  1  0  0  0
  5 30  1  0  0  0
  6 31  1  0  0  0
  7 32  1  0  0  0
 10 33  1  0  0  0
 10 34  1  0  0  0
 10 35  1  0  0  0
 12 36  1  0  0  0
 15 37  1  0  0  0
 15 38  1  0  0  0
 16 39  1  0  0  0
 16 40  1  0  0  0
 17 41  1  0  0  0
 17 42  1  0  0  0
 18 43  1  0  0  0
 19 44  1  0  0  0
 20 45  1  0  0  0
 20 46  1  0  0  0
 20 47  1  0  0  0
 22 48  1  0  0  0
 23 49  1  0  0  0
M  END
$$$$
