4bj9_ligand
  -I-interpret- 

 67 72  0  0  0  0  0  0  0  0999 V2000
  -39.1070  -13.1260   16.1370 C   0  0  0  0  0
  -40.1500  -14.1740   16.0990 C   0  0  0  0  0
  -40.7960  -14.5070   14.8250 C   0  0  0  0  0
  -40.4200  -13.7560   13.5770 C   0  0  0  0  0
  -39.3270  -12.7120   13.6230 C   0  0  0  0  0
  -38.6970  -12.4090   14.8780 C   0  0  0  0  0
  -37.6910  -11.3820   14.6420 C   0  0  0  0  0
  -38.7230  -11.8430   12.5980 C   0  0  0  0  0
  -37.7190  -11.0440   13.2430 N   0  0  0  0  0
  -36.9660  -10.8970   15.4660 O   0  0  0  0  0
  -41.0940  -14.1200   12.3630 N   0  0  0  0  0
  -41.5470  -13.2230   11.3090 C   0  0  0  0  0
  -41.3890  -12.0050   11.3760 O   0  0  0  0  0
  -42.2400  -13.9360   10.0940 C   0  0  0  0  0
  -42.7430  -12.9510    9.1320 N   0  3  0  0  0
  -41.6030  -12.5690    8.2900 C   0  0  0  0  0
  -41.8420  -11.4470    7.2860 C   0  0  0  0  0
  -42.7310  -10.4050    7.7660 N   0  0  0  0  0
  -43.9600  -10.9700    8.1920 C   0  0  0  0  0
  -43.7530  -11.9460    9.3240 C   0  0  0  0  0
  -42.3960   -8.9750    7.8400 C   0  0  0  0  0
  -41.0700   -8.4540    7.3730 C   0  0  0  0  0
  -40.0110   -8.5320    8.4560 C   0  0  0  0  0
  -39.7140   -7.1500    8.7590 C   0  0  0  0  0
  -39.9860   -6.4940    7.4760 C   0  0  0  0  0
  -41.2100   -7.0780    6.9960 O   0  0  0  0  0
  -43.2050   -8.1570    8.2880 O   0  0  0  0  0
  -38.9140   -9.2450    8.0070 O   0  0  0  0  0
  -38.3640   -6.9700    9.2720 O   0  0  0  0  0
  -40.0950   -5.0860    7.5180 N   0  0  0  0  0
  -39.8220   -2.9680    6.8920 C   0  0  0  0  0
  -39.5590   -4.2500    6.5470 C   0  0  0  0  0
  -40.6990   -4.3120    8.4520 C   0  0  0  0  0
  -40.5310   -3.0010    8.0840 N   0  0  0  0  0
  -38.6220   -2.1140    4.7970 N   0  0  0  0  0
  -38.3470   -3.4590    4.4440 C   0  0  0  0  0
  -38.8190   -4.5400    5.3130 N   0  0  0  0  0
  -39.3280   -1.8290    5.9780 C   0  0  0  0  0
  -39.5760   -0.4930    6.3130 N   0  0  0  0  0
  -38.6314  -12.8707   17.0839 H   0  0  0  0  0
  -40.4368  -14.6956   17.0121 H   0  0  0  0  0
  -41.5464  -15.2964   14.7826 H   0  0  0  0  0
  -39.4822  -11.2061   12.1441 H   0  0  0  0  0
  -38.2790  -12.4435   11.8040 H   0  0  0  0  0
  -37.1248  -10.3523   12.7860 H   0  0  0  0  0
  -41.2752  -15.1141   12.2236 H   0  0  0  0  0
  -43.0782  -14.5266   10.4638 H   0  0  0  0  0
  -41.5089  -14.5729    9.5960 H   0  0  0  0  0
  -43.5157  -13.4830    8.7317 H   0  0  0  0  0
  -41.3543  -13.4520    7.7012 H   0  0  0  0  0
  -40.8342  -12.2046    8.9714 H   0  0  0  0  0
  -42.3103  -11.8927    6.4084 H   0  0  0  0  0
  -40.8770  -10.9817    7.0853 H   0  0  0  0  0
  -44.4060  -11.5029    7.3522 H   0  0  0  0  0
  -44.6082  -10.1664    8.5415 H   0  0  0  0  0
  -43.4273  -11.3516   10.1777 H   0  0  0  0  0
  -44.6949  -12.4835    9.4336 H   0  0  0  0  0
  -40.7569   -9.0727    6.5320 H   0  0  0  0  0
  -40.3352   -9.0631    9.3510 H   0  0  0  0  0
  -40.3073   -6.7244    9.5683 H   0  0  0  0  0
  -39.1319   -6.6588    6.8192 H   0  0  0  0  0
  -38.2536   -9.2855    8.7026 H   0  0  0  0  0
  -38.2148   -6.0400    9.4576 H   0  0  0  0  0
  -41.2248   -4.6677    9.3381 H   0  0  0  0  0
  -37.7900   -3.6867    3.5352 H   0  0  0  0  0
  -40.0866   -0.2676    7.1667 H   0  0  0  0  0
  -39.2461    0.2553    5.7034 H   0  0  0  0  0
  2  1  4  0  0  0
  6  1  4  0  0  0
  3  2  4  0  0  0
  4  3  4  0  0  0
  4  5  4  0  0  0
 11  4  1  0  0  0
  5  6  4  0  0  0
  5  8  1  0  0  0
  6  7  1  0  0  0
  9  7  1  0  0  0
  7 10  2  0  0  0
  8  9  1  0  0  0
 12 11  1  0  0  0
 12 13  2  0  0  0
 14 12  1  0  0  0
 15 14  1  0  0  0
 16 15  1  0  0  0
 20 15  1  0  0  0
 17 16  1  0  0  0
 18 17  1  0  0  0
 18 19  1  0  0  0
 21 18  1  0  0  0
 19 20  1  0  0  0
 22 21  1  0  0  0
 21 27  2  0  0  0
 22 23  1  0  0  0
 26 22  1  0  0  0
 24 23  1  0  0  0
 23 28  1  0  0  0
 25 24  1  0  0  0
 24 29  1  0  0  0
 25 26  1  0  0  0
 30 25  1  0  0  0
 32 30  4  0  0  0
 33 30  4  0  0  0
 31 32  4  0  0  0
 31 34  4  0  0  0
 38 31  4  0  0  0
 32 37  4  0  0  0
 34 33  4  0  0  0
 35 36  4  0  0  0
 35 38  4  0  0  0
 36 37  4  0  0  0
 38 39  1  0  0  0
  1 40  1  0  0  0
  2 41  1  0  0  0
  3 42  1  0  0  0
  8 43  1  0  0  0
  8 44  1  0  0  0
  9 45  1  0  0  0
 11 46  1  0  0  0
 14 47  1  0  0  0
 14 48  1  0  0  0
 15 49  1  0  0  0
 16 50  1  0  0  0
 16 51  1  0  0  0
 17 52  1  0  0  0
 17 53  1  0  0  0
 19 54  1  0  0  0
 19 55  1  0  0  0
 20 56  1  0  0  0
 20 57  1  0  0  0
 22 58  1  0  0  0
 23 59  1  0  0  0
 24 60  1  0  0  0
 25 61  1  0  0  0
 28 62  1  0  0  0
 29 63  1  0  0  0
 33 64  1  0  0  0
 36 65  1  0  0  0
 39 66  1  0  0  0
 39 67  1  0  0  0
M  END
$$$$
