3snl_ligand
  -I-interpret- 

 41 44  0  0  0  0  0  0  0  0999 V2000
   14.8990  -40.8760  -20.2600 C   0  0  0  0  0
   14.1700  -37.4510  -23.9710 F   0  0  0  0  0
   11.4050  -40.3000  -21.5770 N   0  0  0  0  0
   19.0790  -35.1640  -20.9710 Cl  0  0  0  0  0
   13.5440  -40.2590  -20.4340 C   0  0  0  0  0
   15.9920  -36.6960  -24.8820 F   0  0  0  0  0
   13.7460  -38.5910  -17.4100 N   0  0  0  0  0
   12.6450  -40.7900  -21.3530 C   0  0  0  0  0
   15.8260  -38.8030  -24.3740 F   0  0  0  0  0
   15.1220  -37.7410  -18.9430 N   0  0  0  0  0
   11.0310  -39.2260  -20.8530 C   0  0  0  0  0
   17.4170  -36.1670  -18.6740 N   0  0  0  0  0
   11.8420  -38.6180  -19.9130 C   0  0  0  0  0
   13.1210  -39.1410  -19.6980 C   0  0  0  0  0
   13.9820  -38.5020  -18.7070 C   0  0  0  0  0
   14.7330  -37.8860  -16.7760 C   0  0  0  0  0
   15.6000  -37.3480  -17.7050 C   0  0  0  0  0
   15.7950  -37.3480  -20.1300 C   0  0  0  0  0
   15.3710  -37.7060  -21.4160 C   0  0  0  0  0
   16.0840  -37.2840  -22.5520 C   0  0  0  0  0
   17.2290  -36.4980  -22.3800 C   0  0  0  0  0
   17.6540  -36.1390  -21.0970 C   0  0  0  0  0
   16.9500  -36.5540  -19.9530 C   0  0  0  0  0
   16.7820  -36.5400  -17.6080 C   0  0  0  0  0
   17.3130  -36.1060  -16.2700 C   0  0  0  0  0
   15.5270  -37.5510  -23.9310 C   0  0  0  0  0
   14.7300  -37.8070  -15.2970 C   0  0  0  0  0
   14.7867  -41.9139  -19.9465 H   0  0  0  0  0
   15.4386  -40.8373  -21.2063 H   0  0  0  0  0
   15.4535  -40.3239  -19.5012 H   0  0  0  0  0
   12.9611  -41.6586  -21.9307 H   0  0  0  0  0
   10.0351  -38.8147  -21.0178 H   0  0  0  0  0
   11.4926  -37.7510  -19.3524 H   0  0  0  0  0
   14.4779  -38.3189  -21.5376 H   0  0  0  0  0
   17.7927  -36.1637  -23.2510 H   0  0  0  0  0
   18.3254  -36.4886  -16.1408 H   0  0  0  0  0
   17.3258  -35.0172  -16.2214 H   0  0  0  0  0
   16.6714  -36.4987  -15.4812 H   0  0  0  0  0
   13.8041  -37.3400  -14.9613 H   0  0  0  0  0
   14.8035  -38.8117  -14.8806 H   0  0  0  0  0
   15.5802  -37.2114  -14.9645 H   0  0  0  0  0
  5  1  1  0  0  0
 26  2  1  0  0  0
  8  3  4  0  0  0
 11  3  4  0  0  0
 22  4  1  0  0  0
  5  8  4  0  0  0
 14  5  4  0  0  0
 26  6  1  0  0  0
 15  7  4  0  0  0
 16  7  4  0  0  0
 26  9  1  0  0  0
 10 15  4  0  0  0
 10 17  4  0  0  0
 18 10  4  0  0  0
 13 11  4  0  0  0
 23 12  4  0  0  0
 12 24  4  0  0  0
 14 13  4  0  0  0
 15 14  1  0  0  0
 17 16  4  0  0  0
 16 27  1  0  0  0
 17 24  4  0  0  0
 19 18  4  0  0  0
 18 23  4  0  0  0
 20 19  4  0  0  0
 21 20  4  0  0  0
 20 26  1  0  0  0
 21 22  4  0  0  0
 22 23  4  0  0  0
 24 25  1  0  0  0
  1 28  1  0  0  0
  1 29  1  0  0  0
  1 30  1  0  0  0
  8 31  1  0  0  0
 11 32  1  0  0  0
 13 33  1  0  0  0
 19 34  1  0  0  0
 21 35  1  0  0  0
 25 36  1  0  0  0
 25 37  1  0  0  0
 25 38  1  0  0  0
 27 39  1  0  0  0
 27 40  1  0  0  0
 27 41  1  0  0  0
M  END
$$$$
