5o1a_ligand
  -I-interpret- 

 41 43  0  0  0  0  0  0  0  0999 V2000
   92.2430   92.0340  -42.9940 N   0  0  0  0  0
   91.9430  100.5410  -45.0300 N   0  3  0  0  0
   91.6810   93.1760  -43.6010 C   0  0  0  0  0
   91.5820   94.3210  -42.7740 C   0  0  0  0  0
   91.0580   95.5130  -43.3080 C   0  0  0  0  0
   91.6200   90.9020  -42.5370 C   0  0  0  0  0
   92.5790   90.0670  -41.9980 C   0  0  0  0  0
   93.5970   91.9090  -42.7430 C   0  0  0  0  0
   90.4440  100.3240  -45.1790 C   0  0  0  0  0
   92.2870   98.0860  -45.1890 C   0  0  0  0  0
   90.1950   99.0900  -46.0430 C   0  0  0  0  0
   92.2240  101.8120  -44.2850 C   0  0  0  0  0
   92.5990   99.3360  -44.3720 C   0  0  0  0  0
   90.8530   97.9270  -45.4530 N   0  0  0  0  0
   90.0910   96.7780  -45.2410 C   0  0  0  0  0
   88.8890   96.7280  -45.5070 O   0  0  0  0  0
   90.6630   95.5490  -44.6500 C   0  0  0  0  0
   92.1590   94.2590  -40.7180 I   0  0  0  0  0
   90.9230   96.6650  -42.5690 O   0  0  0  0  0
   90.7670   94.4100  -45.4660 C   0  0  0  0  0
   91.2850   93.2050  -44.9660 C   0  0  0  0  0
   91.3670   91.5650  -46.3400 I   0  0  0  0  0
   93.8360   90.7010  -42.1250 C   0  0  0  0  0
   92.3526  100.6383  -45.9591 H   0  0  0  0  0
   90.5509   90.6960  -42.5899 H   0  0  0  0  0
   92.3980   89.0890  -41.5521 H   0  0  0  0  0
   94.3560   92.6498  -42.9945 H   0  0  0  0  0
   89.9946  101.1970  -45.6523 H   0  0  0  0  0
   89.9976  100.1765  -44.1956 H   0  0  0  0  0
   92.6205   97.2200  -44.6171 H   0  0  0  0  0
   92.7963   98.1770  -46.1484 H   0  0  0  0  0
   90.5986   99.2630  -47.0406 H   0  0  0  0  0
   89.1226   98.9039  -46.1024 H   0  0  0  0  0
   91.7985  102.6536  -44.8315 H   0  0  0  0  0
   91.7754  101.7570  -43.2931 H   0  0  0  0  0
   93.3017  101.9458  -44.1908 H   0  0  0  0  0
   92.2129   99.2169  -43.3596 H   0  0  0  0  0
   93.6779   99.4850  -44.3293 H   0  0  0  0  0
   90.5478   97.3555  -43.1204 H   0  0  0  0  0
   90.4400   94.4629  -46.5045 H   0  0  0  0  0
   94.8008   90.3122  -41.7993 H   0  0  0  0  0
  3  1  1  0  0  0
  1  6  4  0  0  0
  1  8  4  0  0  0
  9  2  1  0  0  0
  2 12  1  0  0  0
 13  2  1  0  0  0
  4  3  4  0  0  0
  3 21  4  0  0  0
  5  4  4  0  0  0
  4 18  1  0  0  0
 17  5  4  0  0  0
  5 19  1  0  0  0
  6  7  4  0  0  0
 23  7  4  0  0  0
  8 23  4  0  0  0
 11  9  1  0  0  0
 10 13  1  0  0  0
 14 10  1  0  0  0
 14 11  1  0  0  0
 15 14  1  0  0  0
 15 16  2  0  0  0
 15 17  1  0  0  0
 17 20  4  0  0  0
 20 21  4  0  0  0
 21 22  1  0  0  0
  2 24  1  0  0  0
  6 25  1  0  0  0
  7 26  1  0  0  0
  8 27  1  0  0  0
  9 28  1  0  0  0
  9 29  1  0  0  0
 10 30  1  0  0  0
 10 31  1  0  0  0
 11 32  1  0  0  0
 11 33  1  0  0  0
 12 34  1  0  0  0
 12 35  1  0  0  0
 12 36  1  0  0  0
 13 37  1  0  0  0
 13 38  1  0  0  0
 19 39  1  0  0  0
 20 40  1  0  0  0
 23 41  1  0  0  0
M  END
$$$$
