4alx_ligand
  -I-interpret- 

 42 45  0  0  0  0  0  0  0  0999 V2000
   -5.1980  -34.1850  -25.6690 N   0  3  0  0  0
   -5.8320  -35.5220  -25.6690 C   0  0  0  0  0
   -5.1880  -36.4030  -26.7500 C   0  0  0  0  0
   -4.6330  -31.0410  -26.7580 C   0  0  0  0  0
   -5.4410  -33.4380  -26.9310 C   0  0  0  0  0
   -6.8630  -32.8260  -27.0000 C   0  0  0  0  0
   -6.9350  -31.4590  -27.7380 C   0  0  0  0  0
   -5.9680  -30.4270  -27.1310 C   0  0  0  0  0
   -4.4160  -32.3720  -26.6890 C   0  0  0  0  0
   -3.1570  -33.1010  -26.3160 C   0  0  0  0  0
   -3.7330  -34.1620  -25.3670 C   0  0  0  0  0
   -5.0600  -34.3120  -28.1510 C   0  0  0  0  0
   -4.9430  -35.6520  -28.0440 C   0  0  0  0  0
   -4.5620  -36.5350  -29.2130 C   0  0  0  0  0
   -4.0690  -34.5200  -30.5240 C   0  0  0  0  0
   -4.7940  -33.6440  -29.4930 C   0  0  0  0  0
   -3.4180  -34.0270  -31.4390 O   0  0  0  0  0
   -4.1800  -35.8610  -30.4070 O   0  0  0  0  0
   -8.2580  -30.9580  -27.6470 O   0  0  0  0  0
   -8.4210  -29.6220  -28.0760 C   0  0  0  0  0
   -5.6644  -33.7206  -24.8898 H   0  0  0  0  0
   -6.8966  -35.4161  -25.8774 H   0  0  0  0  0
   -5.6914  -35.9876  -24.6935 H   0  0  0  0  0
   -5.8709  -37.2253  -26.9634 H   0  0  0  0  0
   -4.2243  -36.7458  -26.3733 H   0  0  0  0  0
   -3.8028  -30.3714  -26.5332 H   0  0  0  0  0
   -7.1890  -32.6547  -25.9741 H   0  0  0  0  0
   -7.4868  -33.5250  -27.5572 H   0  0  0  0  0
   -6.6471  -31.6204  -28.7768 H   0  0  0  0  0
   -5.7880  -29.6524  -27.8764 H   0  0  0  0  0
   -6.4230  -30.0293  -26.2239 H   0  0  0  0  0
   -2.3868  -32.4705  -25.8717 H   0  0  0  0  0
   -2.6046  -33.5074  -27.1632 H   0  0  0  0  0
   -3.2708  -35.1375  -25.5185 H   0  0  0  0  0
   -3.5366  -33.9229  -24.3218 H   0  0  0  0  0
   -5.4511  -37.1150  -29.4605 H   0  0  0  0  0
   -3.6911  -37.1070  -28.8929 H   0  0  0  0  0
   -4.1459  -32.7901  -29.2955 H   0  0  0  0  0
   -5.7665  -33.3975  -29.9191 H   0  0  0  0  0
   -7.7961  -28.9677  -27.4681 H   0  0  0  0  0
   -8.1262  -29.5391  -29.1221 H   0  0  0  0  0
   -9.4661  -29.3319  -27.9676 H   0  0  0  0  0
  1  2  1  0  0  0
  5  1  1  0  0  0
  1 11  1  0  0  0
  2  3  1  0  0  0
  3 13  1  0  0  0
  4  8  1  0  0  0
  9  4  2  0  0  0
  5  6  1  0  0  0
  5  9  1  0  0  0
  5 12  1  0  0  0
  6  7  1  0  0  0
  7  8  1  0  0  0
  7 19  1  0  0  0
  9 10  1  0  0  0
 10 11  1  0  0  0
 12 13  2  0  0  0
 12 16  1  0  0  0
 13 14  1  0  0  0
 14 18  1  0  0  0
 16 15  1  0  0  0
 15 17  2  0  0  0
 15 18  1  0  0  0
 19 20  1  0  0  0
  1 21  1  0  0  0
  2 22  1  0  0  0
  2 23  1  0  0  0
  3 24  1  0  0  0
  3 25  1  0  0  0
  4 26  1  0  0  0
  6 27  1  0  0  0
  6 28  1  0  0  0
  7 29  1  0  0  0
  8 30  1  0  0  0
  8 31  1  0  0  0
 10 32  1  0  0  0
 10 33  1  0  0  0
 11 34  1  0  0  0
 11 35  1  0  0  0
 14 36  1  0  0  0
 14 37  1  0  0  0
 16 38  1  0  0  0
 16 39  1  0  0  0
 20 40  1  0  0  0
 20 41  1  0  0  0
 20 42  1  0  0  0
M  END
$$$$
