1f0s_ligand
  -I-interpret- 

 45 49  0  0  0  0  0  0  0  0999 V2000
    7.6060    1.0940   19.3540 C   0  0  0  0  0
    8.9380    0.8560   18.9180 C   0  0  0  0  0
    9.1560    0.3320   17.6010 C   0  0  0  0  0
    8.0090    0.0760   16.7810 C   0  0  0  0  0
    6.7310    0.3140   17.2280 N   0  0  0  0  0
    6.5230    0.8210   18.5140 C   0  0  0  0  0
    5.2240    1.0830   19.0410 C   0  0  0  0  0
    5.4170    1.5850   20.3580 C   0  0  0  0  0
    7.0600    1.6950   20.8240 S   0  0  0  0  0
    5.4360    6.6890   22.3610 N   0  0  0  0  0
    4.8530    5.5240   22.7290 C   0  0  0  0  0
    5.1980    4.5040   21.6700 C   0  0  0  0  0
    5.6910    5.3290   20.4780 C   0  0  0  0  0
    6.1760    6.6130   21.1040 C   0  0  0  0  0
    4.0380    3.7310   21.2460 N   0  0  0  0  0
    4.0940    2.1000   21.3290 S   0  0  0  0  0
    2.8170    1.7980   20.7620 O   0  0  0  0  0
    4.3660    1.8090   22.7100 O   0  0  0  0  0
    4.1840    5.3260   23.7370 O   0  0  0  0  0
    5.3970    7.9560   23.0940 C   0  0  0  0  0
    8.2870    7.7370   25.3130 C   0  0  0  0  0
    8.8340    8.6580   24.3270 C   0  0  0  0  0
   10.1640    9.1550   24.4650 C   0  0  0  0  0
   10.9160    8.7110   25.5940 C   0  0  0  0  0
   10.3610    7.8440   26.4980 N   0  0  0  0  0
    9.1030    7.3430   26.4150 C   0  0  0  0  0
    7.8360    8.8770   23.3640 C   0  0  0  0  0
    6.7390    8.0990   23.7830 C   0  0  0  0  0
    7.0010    7.4330   24.9230 N   0  0  0  0  0
    9.7813    1.0687   19.5751 H   0  0  0  0  0
   10.1635    0.1345   17.2349 H   0  0  0  0  0
    8.1539   -0.3183   15.7752 H   0  0  0  0  0
    4.2712    0.9290   18.5346 H   0  0  0  0  0
    5.9293    3.7924   22.0533 H   0  0  0  0  0
    4.9083    5.4980   19.7385 H   0  0  0  0  0
    6.4743    4.8196   19.9167 H   0  0  0  0  0
    7.2552    6.6184   21.2568 H   0  0  0  0  0
    5.9994    7.4786   20.4655 H   0  0  0  0  0
    3.2014    4.2021   20.9017 H   0  0  0  0  0
    4.5841    7.9608   23.8201 H   0  0  0  0  0
    5.2155    8.7915   22.4179 H   0  0  0  0  0
   10.5890    9.8463   23.7373 H   0  0  0  0  0
   11.9373    9.0636   25.7377 H   0  0  0  0  0
    8.7248    6.6560   27.1720 H   0  0  0  0  0
    7.8970    9.5131   22.4809 H   0  0  0  0  0
  1  9  4  0  0  0
  1  6  4  0  0  0
  1  2  4  0  0  0
  2  3  4  0  0  0
  3  4  4  0  0  0
  4  5  4  0  0  0
  5  6  4  0  0  0
  6  7  4  0  0  0
  7  8  4  0  0  0
  8 16  1  0  0  0
  8  9  4  0  0  0
 16 18  2  0  0  0
 16 17  2  0  0  0
 16 15  1  0  0  0
 15 12  1  0  0  0
 12 13  1  0  0  0
 12 11  1  0  0  0
 11 19  2  0  0  0
 11 10  1  0  0  0
 10 20  1  0  0  0
 10 14  1  0  0  0
 14 13  1  0  0  0
 20 28  1  0  0  0
 28 29  4  0  0  0
 28 27  4  0  0  0
 27 22  4  0  0  0
 22 23  4  0  0  0
 22 21  4  0  0  0
 21 29  4  0  0  0
 21 26  4  0  0  0
 26 25  4  0  0  0
 25 24  4  0  0  0
 24 23  4  0  0  0
  2 30  1  0  0  0
  3 31  1  0  0  0
  4 32  1  0  0  0
  7 33  1  0  0  0
 12 34  1  0  0  0
 13 35  1  0  0  0
 13 36  1  0  0  0
 14 37  1  0  0  0
 14 38  1  0  0  0
 15 39  1  0  0  0
 20 40  1  0  0  0
 20 41  1  0  0  0
 23 42  1  0  0  0
 24 43  1  0  0  0
 26 44  1  0  0  0
 27 45  1  0  0  0
M  END
$$$$
