1g5s_ligand
  -I-interpret- 

 62 66  0  0  0  0  0  0  0  0999 V2000
   15.2920   -8.9720   14.5730 C   0  0  0  0  0
   13.9860   -9.6460   14.3440 N   0  0  0  0  0
   13.2900   -9.6290   13.1580 C   0  0  0  0  0
   13.6950   -8.9990   12.0310 N   0  0  0  0  0
   12.8800   -9.1210   11.0260 C   0  0  0  0  0
   11.2420  -10.4870   12.2370 C   0  0  0  0  0
   11.6760   -9.8340   11.0710 N   0  0  0  0  0
   12.1360  -10.3780   13.3880 C   0  0  0  0  0
   12.0860  -10.8500   14.6690 N   0  0  0  0  0
   13.2100  -10.4040   15.2430 C   0  0  0  0  0
   10.0010  -11.1980   12.2600 N   0  0  0  0  0
    9.1990  -11.2030   11.0400 C   0  0  0  0  0
    7.8770  -13.1410   10.9730 C   0  0  0  0  0
    7.4600  -14.3220   10.3330 C   0  0  0  0  0
    7.9940  -14.6880    9.1090 C   0  0  0  0  0
    8.9610  -13.8680    8.5030 C   0  0  0  0  0
    9.3790  -12.6730    9.1510 C   0  0  0  0  0
    8.8330  -12.3300   10.3740 C   0  0  0  0  0
   13.2260   -8.3960    9.7540 N   0  0  0  0  0
   14.4790   -7.4500    9.6590 C   0  0  0  0  0
   14.9430   -4.6260    8.8490 C   0  0  0  0  0
   15.1240   -5.0890   10.2750 C   0  0  0  0  0
   14.2460   -6.3010   10.5880 C   0  0  0  0  0
   14.5380   -7.0420    8.0960 C   0  0  0  0  0
   15.3530   -5.7490    7.9380 C   0  0  0  0  0
   15.8210   -3.4180    8.5840 N   0  3  0  0  0
   16.5920   -8.9840   13.8290 C   0  0  0  0  0
   17.0640   -7.6070   13.7800 C   0  0  0  0  0
   15.1000   -7.4710   14.8510 C   0  0  0  0  0
   16.5040   -6.9930   14.9450 C   0  0  0  0  0
   15.4993   -9.7621   15.2948 H   0  0  0  0  0
   13.4901  -10.6026   16.2775 H   0  0  0  0  0
    9.6872  -11.6847   13.0997 H   0  0  0  0  0
    9.8496  -10.7017   10.3234 H   0  0  0  0  0
    8.2432  -10.8043   11.3799 H   0  0  0  0  0
    7.4511  -12.8626   11.9369 H   0  0  0  0  0
    6.7090  -14.9554   10.8052 H   0  0  0  0  0
    7.6668  -15.6052    8.6193 H   0  0  0  0  0
    9.3890  -14.1467    7.5401 H   0  0  0  0  0
   10.1264  -12.0305    8.6856 H   0  0  0  0  0
   12.6336   -8.5210    8.9332 H   0  0  0  0  0
   15.4326   -7.8863    9.9562 H   0  0  0  0  0
   13.9030   -4.3506    8.6740 H   0  0  0  0  0
   14.8377   -4.2748   10.9408 H   0  0  0  0  0
   16.1669   -5.3734   10.4154 H   0  0  0  0  0
   14.4904   -6.6355   11.5962 H   0  0  0  0  0
   13.2059   -5.9933   10.4799 H   0  0  0  0  0
   13.5264   -6.8832    7.7223 H   0  0  0  0  0
   15.0112   -7.8429    7.5278 H   0  0  0  0  0
   16.3855   -5.9950    8.1859 H   0  0  0  0  0
   15.1959   -5.4002    6.9173 H   0  0  0  0  0
   15.6933   -3.1114    7.6196 H   0  0  0  0  0
   15.5602   -2.6637    9.2192 H   0  0  0  0  0
   16.7979   -3.6694    8.7356 H   0  0  0  0  0
   16.4585   -9.3831   12.8235 H   0  0  0  0  0
   17.3183   -9.6242   14.3298 H   0  0  0  0  0
   16.7554   -7.1023   12.8645 H   0  0  0  0  0
   18.1524   -7.5489   13.7714 H   0  0  0  0  0
   14.5140   -7.2692   15.7476 H   0  0  0  0  0
   14.5202   -6.9600   14.0824 H   0  0  0  0  0
   16.6058   -5.9081   14.9710 H   0  0  0  0  0
   17.0054   -7.2597   15.8754 H   0  0  0  0  0
  2  1  1  0  0  0
  1 27  1  0  0  0
  1 29  1  0  0  0
  3  2  4  0  0  0
  2 10  4  0  0  0
  4  3  4  0  0  0
  3  8  4  0  0  0
  5  4  4  0  0  0
  5  7  4  0  0  0
 19  5  1  0  0  0
  7  6  4  0  0  0
  6  8  4  0  0  0
  6 11  1  0  0  0
  8  9  4  0  0  0
  9 10  4  0  0  0
 11 12  1  0  0  0
 12 18  1  0  0  0
 13 14  4  0  0  0
 18 13  4  0  0  0
 14 15  4  0  0  0
 16 15  4  0  0  0
 17 16  4  0  0  0
 18 17  4  0  0  0
 20 19  1  0  0  0
 23 20  1  0  0  0
 20 24  1  0  0  0
 22 21  1  0  0  0
 21 25  1  0  0  0
 21 26  1  0  0  0
 22 23  1  0  0  0
 24 25  1  0  0  0
 27 28  1  0  0  0
 28 30  1  0  0  0
 29 30  1  0  0  0
  1 31  1  0  0  0
 10 32  1  0  0  0
 11 33  1  0  0  0
 12 34  1  0  0  0
 12 35  1  0  0  0
 13 36  1  0  0  0
 14 37  1  0  0  0
 15 38  1  0  0  0
 16 39  1  0  0  0
 17 40  1  0  0  0
 19 41  1  0  0  0
 20 42  1  0  0  0
 21 43  1  0  0  0
 22 44  1  0  0  0
 22 45  1  0  0  0
 23 46  1  0  0  0
 23 47  1  0  0  0
 24 48  1  0  0  0
 24 49  1  0  0  0
 25 50  1  0  0  0
 25 51  1  0  0  0
 26 52  1  0  0  0
 26 53  1  0  0  0
 26 54  1  0  0  0
 27 55  1  0  0  0
 27 56  1  0  0  0
 28 57  1  0  0  0
 28 58  1  0  0  0
 29 59  1  0  0  0
 29 60  1  0  0  0
 30 61  1  0  0  0
 30 62  1  0  0  0
M  END
$$$$
