1ukt_ligand
  -I-interpret- 

 88 91  0  0  0  0  0  0  0  0999 V2000
   47.8770   51.3150   20.5620 C   0  0  0  0  0
   49.2710   50.7390   20.7620 C   0  0  0  0  0
   49.6050   50.7190   22.2440 C   0  0  0  0  0
   49.7690   52.1540   22.7350 C   0  0  0  0  0
   48.5170   52.9900   22.4500 C   0  0  0  0  0
   48.1250   54.2160   23.2730 C   0  0  0  0  0
   47.6400   52.6100   21.3920 C   0  0  0  0  0
   46.8940   50.2690   20.8450 N   0  3  0  0  0
   49.3240   49.4140   20.2450 O   0  0  0  0  0
   50.8150   50.0050   22.4300 O   0  0  0  0  0
   50.0660   52.1610   24.1290 O   0  0  0  0  0
   48.4780   54.0360   24.6360 O   0  0  0  0  0
   42.6390   51.0570   21.2370 C   0  0  0  0  0
   43.5740   52.0900   20.5840 C   0  0  0  0  0
   44.8120   51.3610   20.0300 C   0  0  0  0  0
   45.5900   50.8030   21.2320 C   0  0  0  0  0
   44.7380   49.7010   21.8780 C   0  0  0  0  0
   45.3700   49.2360   23.1990 C   0  0  0  0  0
   42.8920   52.7520   19.5280 O   0  0  0  0  0
   45.6220   52.2420   19.2480 O   0  0  0  0  0
   43.3940   50.1890   22.1290 O   0  0  0  0  0
   40.8420   46.6580   22.0040 C   0  0  0  0  0
   41.5610   46.6840   20.6630 C   0  0  0  0  0
   42.3250   47.9820   20.5220 C   0  0  0  0  0
   41.3150   49.1180   20.4910 C   0  0  0  0  0
   40.5090   49.1560   21.7970 C   0  0  0  0  0
   39.3370   50.1360   21.6550 C   0  0  0  0  0
   42.4440   45.5890   20.5140 O   0  0  0  0  0
   43.0720   47.9610   19.3080 O   0  0  0  0  0
   41.9550   50.3620   20.1840 O   0  0  0  0  0
   39.9920   47.8280   22.0830 O   0  0  0  0  0
   38.5440   50.0990   22.8370 O   0  0  0  0  0
   41.9200   42.4520   23.9250 C   0  0  0  0  0
   41.1370   43.3880   24.8570 C   0  0  0  0  0
   40.7520   44.6230   24.0580 C   0  0  0  0  0
   42.0450   45.3540   23.6880 C   0  0  0  0  0
   42.9390   44.4450   22.8160 C   0  0  0  0  0
   44.3320   45.0770   22.5890 C   0  0  0  0  0
   42.2740   41.2560   24.6080 O   0  0  0  0  0
   39.9730   42.7570   25.3690 O   0  0  0  0  0
   39.9090   45.4600   24.8380 O   0  0  0  0  0
   41.7950   46.6310   23.0720 O   0  0  0  0  0
   43.0910   43.1460   23.4440 O   0  0  0  0  0
   44.9300   45.4770   23.8190 O   0  0  0  0  0
   47.7658   51.6310   19.5247 H   0  0  0  0  0
   49.9947   51.3600   20.2341 H   0  0  0  0  0
   48.8068   50.2345   22.8063 H   0  0  0  0  0
   50.5983   52.6057   22.1906 H   0  0  0  0  0
   47.0466   54.3584   23.2031 H   0  0  0  0  0
   48.6527   55.0866   22.8834 H   0  0  0  0  0
   46.7829   53.2417   21.1589 H   0  0  0  0  0
   47.2465   49.7131   21.6242 H   0  0  0  0  0
   46.7664   49.7229   19.9930 H   0  0  0  0  0
   49.1128   49.4284   19.3086 H   0  0  0  0  0
   50.7043   49.1035   22.1190 H   0  0  0  0  0
   50.8518   51.6336   24.2903 H   0  0  0  0  0
   48.2245   54.8149   25.1366 H   0  0  0  0  0
   41.8871   51.5306   21.8682 H   0  0  0  0  0
   43.8829   52.8292   21.3231 H   0  0  0  0  0
   44.5120   50.5503   19.3661 H   0  0  0  0  0
   45.7799   51.6128   21.9364 H   0  0  0  0  0
   44.6926   48.8566   21.1902 H   0  0  0  0  0
   46.3683   48.8440   23.0045 H   0  0  0  0  0
   45.4371   50.0802   23.8852 H   0  0  0  0  0
   44.7514   48.4550   23.6412 H   0  0  0  0  0
   43.4786   53.3953   19.1235 H   0  0  0  0  0
   46.3849   51.7632   18.9158 H   0  0  0  0  0
   40.2288   45.7613   22.0937 H   0  0  0  0  0
   40.8071   46.6073   19.8795 H   0  0  0  0  0
   43.0152   48.1163   21.3549 H   0  0  0  0  0
   40.5990   48.9395   19.6887 H   0  0  0  0  0
   41.1569   49.4826   22.6105 H   0  0  0  0  0
   38.7265   49.8517   20.7980 H   0  0  0  0  0
   39.7220   51.1449   21.5063 H   0  0  0  0  0
   42.8761   45.6420   19.6584 H   0  0  0  0  0
   43.5571   48.7845   19.2178 H   0  0  0  0  0
   37.8106   50.7121   22.7483 H   0  0  0  0  0
   41.2993   42.1708   23.0742 H   0  0  0  0  0
   41.7599   43.6554   25.7106 H   0  0  0  0  0
   40.2053   44.3476   23.1561 H   0  0  0  0  0
   42.5845   45.5737   24.6093 H   0  0  0  0  0
   42.4530   44.3290   21.8473 H   0  0  0  0  0
   44.2128   45.9591   21.9598 H   0  0  0  0  0
   44.9756   44.3344   22.1173 H   0  0  0  0  0
   42.7622   40.6818   24.0134 H   0  0  0  0  0
   39.5074   43.3667   25.9461 H   0  0  0  0  0
   39.6703   46.2370   24.3272 H   0  0  0  0  0
   45.7908   45.8642   23.6440 H   0  0  0  0  0
  1  2  1  0  0  0
  1  7  1  0  0  0
  8  1  1  0  0  0
  2  3  1  0  0  0
  2  9  1  0  0  0
  3  4  1  0  0  0
  3 10  1  0  0  0
  5  4  1  0  0  0
  4 11  1  0  0  0
  5  6  1  0  0  0
  7  5  2  0  0  0
  6 12  1  0  0  0
 16  8  1  0  0  0
 13 14  1  0  0  0
 13 21  1  0  0  0
 30 13  1  0  0  0
 14 15  1  0  0  0
 14 19  1  0  0  0
 15 16  1  0  0  0
 15 20  1  0  0  0
 17 16  1  0  0  0
 17 18  1  0  0  0
 21 17  1  0  0  0
 22 23  1  0  0  0
 22 31  1  0  0  0
 42 22  1  0  0  0
 23 24  1  0  0  0
 23 28  1  0  0  0
 24 25  1  0  0  0
 24 29  1  0  0  0
 26 25  1  0  0  0
 25 30  1  0  0  0
 26 27  1  0  0  0
 31 26  1  0  0  0
 27 32  1  0  0  0
 34 33  1  0  0  0
 33 39  1  0  0  0
 33 43  1  0  0  0
 35 34  1  0  0  0
 34 40  1  0  0  0
 36 35  1  0  0  0
 35 41  1  0  0  0
 36 37  1  0  0  0
 36 42  1  0  0  0
 37 38  1  0  0  0
 37 43  1  0  0  0
 38 44  1  0  0  0
  1 45  1  0  0  0
  2 46  1  0  0  0
  3 47  1  0  0  0
  4 48  1  0  0  0
  6 49  1  0  0  0
  6 50  1  0  0  0
  7 51  1  0  0  0
  8 52  1  0  0  0
  8 53  1  0  0  0
  9 54  1  0  0  0
 10 55  1  0  0  0
 11 56  1  0  0  0
 12 57  1  0  0  0
 13 58  1  0  0  0
 14 59  1  0  0  0
 15 60  1  0  0  0
 16 61  1  0  0  0
 17 62  1  0  0  0
 18 63  1  0  0  0
 18 64  1  0  0  0
 18 65  1  0  0  0
 19 66  1  0  0  0
 20 67  1  0  0  0
 22 68  1  0  0  0
 23 69  1  0  0  0
 24 70  1  0  0  0
 25 71  1  0  0  0
 26 72  1  0  0  0
 27 73  1  0  0  0
 27 74  1  0  0  0
 28 75  1  0  0  0
 29 76  1  0  0  0
 32 77  1  0  0  0
 33 78  1  0  0  0
 34 79  1  0  0  0
 35 80  1  0  0  0
 36 81  1  0  0  0
 37 82  1  0  0  0
 38 83  1  0  0  0
 38 84  1  0  0  0
 39 85  1  0  0  0
 40 86  1  0  0  0
 41 87  1  0  0  0
 44 88  1  0  0  0
M  END
$$$$
