1qj6_ligand
  -I-interpret- 

 56 58  0  0  0  0  0  0  0  0999 V2000
    8.5680   22.2910   51.5460 C   0  0  0  0  0
    8.5230   23.4650   50.6050 C   0  0  0  0  0
    9.7580   23.4140   49.7310 C   0  0  0  0  0
    9.7700   22.1790   48.8540 C   0  0  0  0  0
   10.7460   22.2150   47.6960 C   0  0  0  0  0
   10.9510   23.2750   46.9350 N   0  0  0  0  0
   11.3860   21.1270   47.3500 N   0  0  0  0  0
    8.1020   23.5910   54.4040 O   0  0  0  0  0
    5.0630   21.5360   54.4810 O   0  0  0  0  0
    6.0740   21.5780   52.1740 C   0  0  0  0  0
    4.4870   20.1880   51.1960 C   0  0  0  0  0
    5.7760   20.6240   51.0170 C   0  0  0  0  0
    5.2920   20.8350   53.2810 C   0  0  0  0  0
    3.9780   20.5450   52.5580 C   0  0  0  0  0
    6.4850   20.2010   49.9080 C   0  0  0  0  0
    5.7930   19.4520   48.9710 C   0  0  0  0  0
    4.4370   19.1270   49.0900 C   0  0  0  0  0
    3.7920   19.4580   50.2670 C   0  0  0  0  0
    3.6720   18.4980   47.9340 C   0  0  0  0  0
    2.3830   18.9620   47.6410 C   0  0  0  0  0
    1.6680   18.4860   46.5570 C   0  0  0  0  0
    2.2510   17.5150   45.7470 C   0  0  0  0  0
    3.5160   17.0110   46.0300 C   0  0  0  0  0
    4.2250   17.5000   47.1200 C   0  0  0  0  0
    0.3780   19.8610   45.1670 C   0  0  0  0  0
    0.3860   18.9910   46.2900 O   0  0  0  0  0
    7.4670   22.1570   52.5870 C   0  0  0  0  0
    7.3650   23.4300   53.4780 C   0  0  0  0  0
    9.4879   22.4170   52.1170 H   0  0  0  0  0
    8.4696   21.4109   50.9105 H   0  0  0  0  0
    8.4995   24.3977   51.1685 H   0  0  0  0  0
    7.6247   23.4191   49.9894 H   0  0  0  0  0
   10.6358   23.3864   50.3766 H   0  0  0  0  0
    9.7608   24.2935   49.0872 H   0  0  0  0  0
    8.7739   22.0958   48.4194 H   0  0  0  0  0
   10.0725   21.3476   49.4907 H   0  0  0  0  0
   11.5778   23.2133   46.1327 H   0  0  0  0  0
   10.4825   24.1552   47.1496 H   0  0  0  0  0
   11.9989   21.1333   46.5347 H   0  0  0  0  0
    4.5721   20.9773   55.0880 H   0  0  0  0  0
    5.8124   22.5903   51.8659 H   0  0  0  0  0
    5.8546   19.9767   53.6484 H   0  0  0  0  0
    3.3750   19.7668   53.0258 H   0  0  0  0  0
    3.2729   21.3762   52.5658 H   0  0  0  0  0
    7.5391   20.4456   49.7773 H   0  0  0  0  0
    6.3335   19.0965   48.0937 H   0  0  0  0  0
    2.7632   19.1483   50.4506 H   0  0  0  0  0
    1.9319   19.7177   48.2840 H   0  0  0  0  0
    1.7077   17.1442   44.8779 H   0  0  0  0  0
    3.9495   16.2352   45.3989 H   0  0  0  0  0
    5.2163   17.1056   47.3433 H   0  0  0  0  0
    1.0429   20.7036   45.3570 H   0  0  0  0  0
    0.7201   19.3181   44.2859 H   0  0  0  0  0
   -0.6351   20.2265   44.9994 H   0  0  0  0  0
    7.8317   21.3166   53.1776 H   0  0  0  0  0
    6.6108   24.1843   53.2536 H   0  0  0  0  0
  1  2  1  0  0  0
 27  1  1  0  0  0
  2  3  1  0  0  0
  3  4  1  0  0  0
  4  5  1  0  0  0
  5  6  1  0  0  0
  5  7  2  0  0  0
 28  8  2  0  0  0
 13  9  1  0  0  0
 10 12  1  0  0  0
 10 13  1  0  0  0
 27 10  1  0  0  0
 12 11  4  0  0  0
 14 11  1  0  0  0
 11 18  4  0  0  0
 12 15  4  0  0  0
 13 14  1  0  0  0
 15 16  4  0  0  0
 16 17  4  0  0  0
 18 17  4  0  0  0
 17 19  1  0  0  0
 19 20  4  0  0  0
 19 24  4  0  0  0
 20 21  4  0  0  0
 21 22  4  0  0  0
 21 26  1  0  0  0
 23 22  4  0  0  0
 24 23  4  0  0  0
 26 25  1  0  0  0
 27 28  1  0  0  0
  1 29  1  0  0  0
  1 30  1  0  0  0
  2 31  1  0  0  0
  2 32  1  0  0  0
  3 33  1  0  0  0
  3 34  1  0  0  0
  4 35  1  0  0  0
  4 36  1  0  0  0
  6 37  1  0  0  0
  6 38  1  0  0  0
  7 39  1  0  0  0
  9 40  1  0  0  0
 10 41  1  0  0  0
 13 42  1  0  0  0
 14 43  1  0  0  0
 14 44  1  0  0  0
 15 45  1  0  0  0
 16 46  1  0  0  0
 18 47  1  0  0  0
 20 48  1  0  0  0
 22 49  1  0  0  0
 23 50  1  0  0  0
 24 51  1  0  0  0
 25 52  1  0  0  0
 25 53  1  0  0  0
 25 54  1  0  0  0
 27 55  1  0  0  0
 28 56  1  0  0  0
M  END
$$$$
