2zmj_ligand
  -I-interpret- 

 93 98  0  0  0  0  0  0  0  0999 V2000
   15.9100    6.6840   25.7460 C   0  0  0  0  0
   14.5850    4.5710   27.3720 C   0  0  0  0  0
    8.1980    3.2080   28.9670 C   0  0  0  0  0
   16.2300    7.9030   24.8920 C   0  0  0  0  0
   14.1760    8.3690   26.1370 C   0  0  0  0  0
   14.0450   12.1420   17.3200 C   0  0  0  0  0
    9.6320    4.0020   26.9970 C   0  0  0  0  0
   15.4780    9.0070   25.6000 C   0  0  0  0  0
    7.9110    1.8670   28.2090 C   0  0  0  0  0
    9.3430    2.6720   26.2420 C   0  0  0  0  0
    7.1530    4.5420   27.0680 C   0  0  0  0  0
   15.1170   10.2730   24.8220 C   0  0  0  0  0
   13.5710    9.4080   27.1530 C   0  0  0  0  0
   13.1350    8.0280   25.0220 C   0  0  0  0  0
    6.8430    3.2120   26.3010 C   0  0  0  0  0
   13.4150   10.8460   26.5480 C   0  0  0  0  0
   15.1880   10.3900   23.4590 C   0  0  0  0  0
    6.6320    2.0500   27.3380 C   0  0  0  0  0
   11.7390    6.4760   28.2690 C   0  0  0  0  0
   13.0450    6.1830   28.3430 C   0  0  0  0  0
   10.8720    6.7730   29.4530 C   0  0  0  0  0
    9.8780    5.6510   29.6910 C   0  0  0  0  0
   13.8490    5.8930   27.1080 C   0  0  0  0  0
    8.7540    5.7180   28.6480 C   0  0  0  0  0
   14.8080    7.0790   26.7590 C   0  0  0  0  0
    8.4360    4.3830   27.9440 C   0  0  0  0  0
   15.1310   13.1380   19.2870 C   0  0  0  0  0
   14.6340   11.3530   25.7580 C   0  0  0  0  0
   14.8460   11.6080   22.6940 C   0  0  0  0  0
    8.0540    2.8600   25.3780 C   0  0  0  0  0
    9.1170    1.5270   27.2810 C   0  0  0  0  0
   14.8630   11.6660   21.3420 C   0  0  0  0  0
   15.2060   10.4210   20.4710 C   0  0  0  0  0
   15.1970   10.5980   18.9360 C   0  0  0  0  0
   14.5010   12.9990   20.6700 C   0  0  0  0  0
   14.7500   11.9620   18.4500 C   0  0  0  0  0
    9.3200    5.7990   30.9800 O   0  0  0  0  0
   14.3680    9.5790   18.4080 O   0  0  0  0  0
   16.5400   13.2010   19.4280 O   0  0  0  0  0
   16.8034    6.3519   26.2747 H   0  0  0  0  0
   15.5634    5.8652   25.1155 H   0  0  0  0  0
   15.2314    4.6840   28.2423 H   0  0  0  0  0
   13.8565    3.7821   27.5590 H   0  0  0  0  0
   15.1876    4.3120   26.5014 H   0  0  0  0  0
    9.0925    3.0844   29.5774 H   0  0  0  0  0
    7.3385    3.4518   29.5914 H   0  0  0  0  0
   15.9320    7.7841   23.8503 H   0  0  0  0  0
   17.2993    8.0988   24.8118 H   0  0  0  0  0
   13.7516   13.1464   17.0149 H   0  0  0  0  0
   13.7667   11.2836   16.7087 H   0  0  0  0  0
    9.7657    4.7981   26.2646 H   0  0  0  0  0
   10.5297    3.8732   27.6016 H   0  0  0  0  0
   16.1715    9.3832   26.3521 H   0  0  0  0  0
    7.7657    1.0591   28.9262 H   0  0  0  0  0
   10.1849    2.4120   25.6003 H   0  0  0  0  0
    6.3098    4.7816   27.7158 H   0  0  0  0  0
    7.3165    5.3389   26.3425 H   0  0  0  0  0
   14.2544    9.4784   27.9992 H   0  0  0  0  0
   12.5771    9.0574   27.4309 H   0  0  0  0  0
   12.8560    8.9409   24.4958 H   0  0  0  0  0
   13.5762    7.3219   24.3185 H   0  0  0  0  0
   12.2494    7.5842   25.4769 H   0  0  0  0  0
    5.9419    3.3361   25.7004 H   0  0  0  0  0
   13.2774   11.5279   27.3872 H   0  0  0  0  0
   12.5806   10.8047   25.8479 H   0  0  0  0  0
   15.5221    9.5188   22.8956 H   0  0  0  0  0
    5.7916    2.2985   27.9861 H   0  0  0  0  0
    6.4314    1.1236   26.7998 H   0  0  0  0  0
   11.2778    6.4996   27.2817 H   0  0  0  0  0
   13.5325    6.1547   29.3175 H   0  0  0  0  0
   10.3217    7.6944   29.2624 H   0  0  0  0  0
   11.5050    6.8736   30.3347 H   0  0  0  0  0
   10.3887    4.6916   29.6085 H   0  0  0  0  0
   13.2138    5.7899   26.2283 H   0  0  0  0  0
    9.0845    6.4106   27.8739 H   0  0  0  0  0
    7.8500    6.0164   29.1789 H   0  0  0  0  0
   15.1760    7.3072   27.7593 H   0  0  0  0  0
   14.7757   14.0472   18.8020 H   0  0  0  0  0
   14.3501   12.2323   25.1798 H   0  0  0  0  0
   15.4325   11.6132   26.4528 H   0  0  0  0  0
   14.5660   12.5047   23.2469 H   0  0  0  0  0
    7.8414    1.9346   24.8426 H   0  0  0  0  0
    8.2123    3.6710   24.6671 H   0  0  0  0  0
    8.9051    0.6001   26.7480 H   0  0  0  0  0
   10.0143    1.4175   27.8900 H   0  0  0  0  0
   14.4270    9.6895   20.6860 H   0  0  0  0  0
   16.2314   10.1564   20.7293 H   0  0  0  0  0
   16.2255   10.5207   18.5835 H   0  0  0  0  0
   13.4178   13.0370   20.5543 H   0  0  0  0  0
   14.8773   13.8076   21.2966 H   0  0  0  0  0
    8.6898    5.0922   31.1377 H   0  0  0  0  0
   14.3373    9.6565   17.4516 H   0  0  0  0  0
   16.9436   13.2886   18.5614 H   0  0  0  0  0
  4  1  1  0  0  0
 25  1  1  0  0  0
 23  2  1  0  0  0
  3  9  1  0  0  0
 26  3  1  0  0  0
  8  4  1  0  0  0
  8  5  1  0  0  0
  5 13  1  0  0  0
  5 14  1  0  0  0
  5 25  1  0  0  0
 36  6  2  0  0  0
  7 10  1  0  0  0
 26  7  1  0  0  0
 12  8  1  0  0  0
  9 18  1  0  0  0
  9 31  1  0  0  0
 10 30  1  0  0  0
 10 31  1  0  0  0
 11 15  1  0  0  0
 26 11  1  0  0  0
 17 12  2  0  0  0
 12 28  1  0  0  0
 16 13  1  0  0  0
 15 18  1  0  0  0
 15 30  1  0  0  0
 28 16  1  0  0  0
 29 17  1  0  0  0
 20 19  2  0  0  0
 19 21  1  0  0  0
 23 20  1  0  0  0
 21 22  1  0  0  0
 22 24  1  0  0  0
 22 37  1  0  0  0
 25 23  1  0  0  0
 24 26  1  0  0  0
 35 27  1  0  0  0
 27 36  1  0  0  0
 27 39  1  0  0  0
 32 29  2  0  0  0
 32 33  1  0  0  0
 32 35  1  0  0  0
 33 34  1  0  0  0
 34 36  1  0  0  0
 34 38  1  0  0  0
  1 40  1  0  0  0
  1 41  1  0  0  0
  2 42  1  0  0  0
  2 43  1  0  0  0
  2 44  1  0  0  0
  3 45  1  0  0  0
  3 46  1  0  0  0
  4 47  1  0  0  0
  4 48  1  0  0  0
  6 49  1  0  0  0
  6 50  1  0  0  0
  7 51  1  0  0  0
  7 52  1  0  0  0
  8 53  1  0  0  0
  9 54  1  0  0  0
 10 55  1  0  0  0
 11 56  1  0  0  0
 11 57  1  0  0  0
 13 58  1  0  0  0
 13 59  1  0  0  0
 14 60  1  0  0  0
 14 61  1  0  0  0
 14 62  1  0  0  0
 15 63  1  0  0  0
 16 64  1  0  0  0
 16 65  1  0  0  0
 17 66  1  0  0  0
 18 67  1  0  0  0
 18 68  1  0  0  0
 19 69  1  0  0  0
 20 70  1  0  0  0
 21 71  1  0  0  0
 21 72  1  0  0  0
 22 73  1  0  0  0
 23 74  1  0  0  0
 24 75  1  0  0  0
 24 76  1  0  0  0
 25 77  1  0  0  0
 27 78  1  0  0  0
 28 79  1  0  0  0
 28 80  1  0  0  0
 29 81  1  0  0  0
 30 82  1  0  0  0
 30 83  1  0  0  0
 31 84  1  0  0  0
 31 85  1  0  0  0
 33 86  1  0  0  0
 33 87  1  0  0  0
 34 88  1  0  0  0
 35 89  1  0  0  0
 35 90  1  0  0  0
 37 91  1  0  0  0
 38 92  1  0  0  0
 39 93  1  0  0  0
M  END
$$$$
