6ic2_ligand
  -I-interpret- 

 38 39  0  0  0  0  0  0  0  0999 V2000
   -2.2390    6.5910   13.4390 C   0  0  0  0  0
   -1.4540    7.1590   14.4270 C   0  0  0  0  0
   -1.9550    9.3390   13.5770 C   0  0  0  0  0
   -2.7490    8.7760   12.5780 C   0  0  0  0  0
   -2.8700    7.3830   12.4790 C   0  0  0  0  0
   -4.9240    7.2410   11.6290 C   0  0  0  0  0
   -7.9650    5.7480   12.8730 O   0  0  0  0  0
   -1.3070    8.5370   14.4990 C   0  0  0  0  0
   -0.5400    9.0900   15.4550 F   0  0  0  0  0
   -1.7620   11.2170   13.6680 Br  0  0  0  0  0
   -3.7110    6.7140   11.6640 N   0  0  0  0  0
   -5.1060    8.4810   11.4430 N   0  0  0  0  0
   -6.3550    9.0830   11.5930 O   0  0  0  0  0
   -6.0660    6.4250   12.1590 C   0  0  0  0  0
   -5.9870    5.1540   12.7580 C   0  0  0  0  0
   -7.1830    4.7110   13.1800 N   0  0  0  0  0
   -7.3620    6.7900   12.2830 N   0  0  0  0  0
   -4.8840    4.3640   12.8790 N   0  0  0  0  0
   -4.9260    3.0020   13.3770 C   0  0  0  0  0
   -5.1210    2.8750   14.8840 C   0  0  0  0  0
   -4.7730    1.4880   15.2590 N   0  0  0  0  0
   -5.5980    0.8650   16.5090 S   0  0  0  0  0
   -5.0010    1.2440   17.7610 O   0  0  0  0  0
   -6.9830    1.2540   16.4710 O   0  0  0  0  0
   -5.5100   -0.7310   16.3260 N   0  0  0  0  0
   -2.3663    5.5088   13.4103 H   0  0  0  0  0
   -0.9488    6.5210   15.1521 H   0  0  0  0  0
   -3.2759    9.4198   11.8737 H   0  0  0  0  0
   -3.4401    5.8880   11.1304 H   0  0  0  0  0
   -6.2806   10.0221   11.4082 H   0  0  0  0  0
   -3.9807    4.7504   12.6050 H   0  0  0  0  0
   -3.9612    2.5512   13.1446 H   0  0  0  0  0
   -5.7830    2.5203   12.9063 H   0  0  0  0  0
   -6.1529    3.0970   15.1559 H   0  0  0  0  0
   -4.4850    3.5849   15.4128 H   0  0  0  0  0
   -4.0584    0.9558   14.7625 H   0  0  0  0  0
   -5.0751   -1.3040   17.0491 H   0  0  0  0  0
   -5.8891   -1.1698   15.4869 H   0  0  0  0  0
  1  2  4  0  0  0
  5  1  4  0  0  0
  2  8  4  0  0  0
  4  3  4  0  0  0
  3  8  4  0  0  0
  3 10  1  0  0  0
  5  4  4  0  0  0
 11  5  1  0  0  0
  6 11  1  0  0  0
  6 12  2  0  0  0
 14  6  1  0  0  0
  7 16  4  0  0  0
 17  7  4  0  0  0
  8  9  1  0  0  0
 12 13  1  0  0  0
 14 15  4  0  0  0
 14 17  4  0  0  0
 15 16  4  0  0  0
 15 18  1  0  0  0
 18 19  1  0  0  0
 19 20  1  0  0  0
 20 21  1  0  0  0
 21 22  1  0  0  0
 22 23  2  0  0  0
 22 24  2  0  0  0
 22 25  1  0  0  0
  1 26  1  0  0  0
  2 27  1  0  0  0
  4 28  1  0  0  0
 11 29  1  0  0  0
 13 30  1  0  0  0
 18 31  1  0  0  0
 19 32  1  0  0  0
 19 33  1  0  0  0
 20 34  1  0  0  0
 20 35  1  0  0  0
 21 36  1  0  0  0
 25 37  1  0  0  0
 25 38  1  0  0  0
M  END
$$$$
