5f0h_ligand
  -I-interpret- 

 66 69  0  0  0  0  0  0  0  0999 V2000
   26.8090   -5.5850   -4.3890 N   0  0  0  0  0
   27.1800  -13.0340   -7.7770 O   0  0  0  0  0
   25.8830   -4.5520   -4.8910 C   0  0  0  0  0
   27.4750  -12.9670   -6.5560 C   0  0  0  0  0
   27.3480  -11.9050   -5.6680 N   0  0  0  0  0
   26.4550  -10.8820   -6.0200 C   0  0  0  0  0
   26.6300   -9.5580   -5.4450 C   0  0  0  0  0
   27.7140   -9.1580   -4.6940 C   0  0  0  0  0
   27.7320   -7.8310   -4.2890 C   0  0  0  0  0
   25.6230   -8.6790   -5.8250 C   0  0  0  0  0
   25.6390   -7.3460   -5.4130 C   0  0  0  0  0
   26.7250   -6.9360   -4.6620 C   0  0  0  0  0
   27.9790   -5.1220   -3.6740 C   0  0  0  0  0
   28.6330   -4.0520   -4.5050 C   0  0  0  0  0
   27.7740   -2.7980   -4.4450 C   0  0  0  0  0
   26.2800   -3.1520   -4.3160 C   0  0  0  0  0
   28.0240  -14.1270   -5.8700 C   0  0  0  0  0
   28.0980  -15.2340   -6.8520 C   0  0  0  0  0
   29.1100  -16.2880   -6.5420 C   0  0  0  0  0
   29.3400  -16.3340   -5.0400 C   0  0  0  0  0
   30.3680  -17.3870   -4.6840 C   0  0  0  0  0
   31.3840  -17.7370   -5.7390 N   0  0  0  0  0
   31.1980  -17.4240   -7.1920 C   0  0  0  0  0
   30.3680  -16.1690   -7.3490 C   0  0  0  0  0
   32.5120  -18.4900   -5.2660 C   0  0  0  0  0
   33.1120  -19.3050   -6.1920 C   0  0  0  0  0
   34.2350  -20.0370   -5.8820 C   0  0  0  0  0
   34.7360  -20.0490   -4.6160 C   0  0  0  0  0
   35.7230  -20.8430   -4.4690 C   0  0  0  0  0
   36.5550  -21.6700   -4.2940 N   0  0  0  0  0
   34.1640  -19.2910   -3.5820 C   0  0  0  0  0
   33.0230  -18.5110   -3.9000 C   0  0  0  0  0
   24.8688   -4.7952   -4.5742 H   0  0  0  0  0
   25.9365   -4.5209   -5.9792 H   0  0  0  0  0
   27.8807  -11.8711   -4.7988 H   0  0  0  0  0
   25.4856  -11.2195   -5.6532 H   0  0  0  0  0
   26.5993  -10.7421   -7.0913 H   0  0  0  0  0
   28.5157   -9.8483   -4.4317 H   0  0  0  0  0
   28.5522   -7.4774   -3.6641 H   0  0  0  0  0
   24.8081   -9.0363   -6.4546 H   0  0  0  0  0
   24.8326   -6.6596   -5.6713 H   0  0  0  0  0
   28.6713   -5.9472   -3.5070 H   0  0  0  0  0
   27.6940   -4.7234   -2.7004 H   0  0  0  0  0
   28.7262   -4.3890   -5.5374 H   0  0  0  0  0
   29.6292   -3.8383   -4.1177 H   0  0  0  0  0
   27.9194   -2.2322   -5.3652 H   0  0  0  0  0
   28.0700   -2.2148   -3.5730 H   0  0  0  0  0
   26.0512   -3.1720   -3.2505 H   0  0  0  0  0
   25.7284   -2.4072   -4.8897 H   0  0  0  0  0
   27.3901  -14.4066   -5.0286 H   0  0  0  0  0
   29.0147  -13.9019   -5.4752 H   0  0  0  0  0
   28.3881  -14.7903   -7.8044 H   0  0  0  0  0
   27.1238  -15.7230   -6.8483 H   0  0  0  0  0
   28.7099  -17.2534   -6.8519 H   0  0  0  0  0
   28.3992  -16.5816   -4.5483 H   0  0  0  0  0
   29.7056  -15.3613   -4.7110 H   0  0  0  0  0
   29.8046  -18.3016   -4.4992 H   0  0  0  0  0
   30.9361  -16.9771   -3.8489 H   0  0  0  0  0
   30.6853  -18.2557   -7.6751 H   0  0  0  0  0
   32.1734  -17.2688   -7.6530 H   0  0  0  0  0
   30.9416  -15.3112   -6.9979 H   0  0  0  0  0
   30.1109  -16.0360   -8.3999 H   0  0  0  0  0
   32.6901  -19.3742   -7.1947 H   0  0  0  0  0
   34.7308  -20.6158   -6.6613 H   0  0  0  0  0
   34.5803  -19.3015   -2.5747 H   0  0  0  0  0
   32.5281  -17.9274   -3.1238 H   0  0  0  0  0
  1  3  1  0  0  0
 12  1  1  0  0  0
  1 13  1  0  0  0
  4  2  2  0  0  0
  3 16  1  0  0  0
  5  4  1  0  0  0
  4 17  1  0  0  0
  6  5  1  0  0  0
  7  6  1  0  0  0
  8  7  4  0  0  0
  7 10  4  0  0  0
  9  8  4  0  0  0
  9 12  4  0  0  0
 10 11  4  0  0  0
 11 12  4  0  0  0
 13 14  1  0  0  0
 14 15  1  0  0  0
 15 16  1  0  0  0
 17 18  1  0  0  0
 18 19  1  0  0  0
 19 20  1  0  0  0
 19 24  1  0  0  0
 20 21  1  0  0  0
 21 22  1  0  0  0
 22 23  1  0  0  0
 22 25  1  0  0  0
 23 24  1  0  0  0
 25 26  4  0  0  0
 25 32  4  0  0  0
 26 27  4  0  0  0
 27 28  4  0  0  0
 28 29  1  0  0  0
 28 31  4  0  0  0
 29 30  3  0  0  0
 31 32  4  0  0  0
  3 33  1  0  0  0
  3 34  1  0  0  0
  5 35  1  0  0  0
  6 36  1  0  0  0
  6 37  1  0  0  0
  8 38  1  0  0  0
  9 39  1  0  0  0
 10 40  1  0  0  0
 11 41  1  0  0  0
 13 42  1  0  0  0
 13 43  1  0  0  0
 14 44  1  0  0  0
 14 45  1  0  0  0
 15 46  1  0  0  0
 15 47  1  0  0  0
 16 48  1  0  0  0
 16 49  1  0  0  0
 17 50  1  0  0  0
 17 51  1  0  0  0
 18 52  1  0  0  0
 18 53  1  0  0  0
 19 54  1  0  0  0
 20 55  1  0  0  0
 20 56  1  0  0  0
 21 57  1  0  0  0
 21 58  1  0  0  0
 23 59  1  0  0  0
 23 60  1  0  0  0
 24 61  1  0  0  0
 24 62  1  0  0  0
 26 63  1  0  0  0
 27 64  1  0  0  0
 31 65  1  0  0  0
 32 66  1  0  0  0
M  END
$$$$
