5d7r_ligand
  -I-interpret- 

 43 46  0  0  0  0  0  0  0  0999 V2000
    1.1560  -21.4950   22.1040 C   0  0  0  0  0
    1.5870  -20.3640   21.4140 C   0  0  0  0  0
   -2.2040  -27.8390   24.7220 C   0  0  0  0  0
   -0.1020  -28.5010   25.3140 C   0  0  0  0  0
   -0.3110  -24.1970   23.4470 C   0  0  0  0  0
    1.9040  -21.8990   23.2260 C   0  0  0  0  0
   -0.8920  -27.5130   24.8270 C   0  0  0  0  0
    3.5010  -19.9880   22.9640 C   0  0  0  0  0
    3.0460  -21.1520   23.5860 C   0  0  0  0  0
    2.7060  -19.6660   21.8450 C   0  0  0  0  0
   -2.6150  -29.0920   25.1250 C   0  0  0  0  0
    1.8400  -22.9610   24.1780 C   0  0  0  0  0
    0.8940  -24.1010   24.1580 C   0  0  0  0  0
   -1.7540  -30.0400   25.6000 C   0  0  0  0  0
   -0.3950  -26.2090   24.4340 C   0  0  0  0  0
   -2.1930  -31.3780   26.0730 C   0  0  0  0  0
    7.2860  -19.6820   23.5780 C   0  0  0  0  0
    4.7360  -19.1480   23.3780 C   0  0  0  0  0
    5.9120  -20.0480   23.0820 C   0  0  0  0  0
   -0.4680  -29.7290   25.7040 N   0  0  0  0  0
   -1.0150  -25.3830   23.6260 N   0  0  0  0  0
    2.8480  -22.8670   25.0740 N   0  0  0  0  0
    3.5480  -21.7630   24.7200 N   0  0  0  0  0
   -3.3610  -31.7540   26.1630 O   0  0  0  0  0
    3.0220  -18.5490   21.1070 O   0  0  0  0  0
   -3.9190  -29.3250   24.9930 O   0  0  0  0  0
   -1.1040  -32.0810   26.4730 O   0  0  0  0  0
    1.1030  -25.5820   24.9940 S   0  0  0  0  0
    0.2715  -22.0472   21.7865 H   0  0  0  0  0
    1.0429  -20.0261   20.5320 H   0  0  0  0  0
   -2.9225  -27.1218   24.3252 H   0  0  0  0  0
    0.9594  -28.2680   25.3984 H   0  0  0  0  0
   -0.6708  -23.3977   22.7991 H   0  0  0  0  0
    7.5783  -18.7198   23.1575 H   0  0  0  0  0
    7.2724  -19.6155   24.6659 H   0  0  0  0  0
    7.9983  -20.4467   23.2683 H   0  0  0  0  0
    4.6989  -18.8509   24.4261 H   0  0  0  0  0
    4.7928  -18.2047   22.8347 H   0  0  0  0  0
    5.6769  -20.9803   23.5955 H   0  0  0  0  0
    6.0014  -20.0302   21.9958 H   0  0  0  0  0
    3.8046  -18.1336   21.4765 H   0  0  0  0  0
   -4.1161  -30.2146   25.2951 H   0  0  0  0  0
   -0.3112  -31.5699   26.2944 H   0  0  0  0  0
  2  1  4  0  0  0
  6  1  4  0  0  0
 10  2  4  0  0  0
  7  3  4  0  0  0
  3 11  4  0  0  0
  7  4  4  0  0  0
  4 20  4  0  0  0
 13  5  4  0  0  0
  5 21  4  0  0  0
  9  6  4  0  0  0
  6 12  4  0  0  0
 15  7  1  0  0  0
  8  9  4  0  0  0
  8 10  4  0  0  0
 18  8  1  0  0  0
  9 23  4  0  0  0
 10 25  1  0  0  0
 11 14  4  0  0  0
 11 26  1  0  0  0
 12 13  1  0  0  0
 12 22  4  0  0  0
 13 28  4  0  0  0
 14 16  1  0  0  0
 20 14  4  0  0  0
 15 21  4  0  0  0
 28 15  4  0  0  0
 16 24  2  0  0  0
 16 27  1  0  0  0
 19 17  1  0  0  0
 18 19  1  0  0  0
 22 23  4  0  0  0
  1 29  1  0  0  0
  2 30  1  0  0  0
  3 31  1  0  0  0
  4 32  1  0  0  0
  5 33  1  0  0  0
 17 34  1  0  0  0
 17 35  1  0  0  0
 17 36  1  0  0  0
 18 37  1  0  0  0
 18 38  1  0  0  0
 19 39  1  0  0  0
 19 40  1  0  0  0
 25 41  1  0  0  0
 26 42  1  0  0  0
 27 43  1  0  0  0
M  END
$$$$
