6n55_ligand
  -I-interpret- 

 30 31  0  0  0  0  0  0  0  0999 V2000
  107.4810  -51.0860   41.3010 N   0  0  0  0  0
  106.5080  -51.9680   41.0130 C   0  0  0  0  0
  105.9050  -52.4540   41.9470 O   0  0  0  0  0
  106.2020  -52.3110   39.7360 N   0  0  0  0  0
  106.8920  -51.7570   38.7060 C   0  0  0  0  0
  106.6460  -52.0510   37.5440 O   0  0  0  0  0
  107.9250  -50.8180   38.9740 C   0  0  0  0  0
  108.1890  -50.5030   40.2700 C   0  0  0  0  0
  107.7510  -50.7370   42.7140 C   0  0  0  0  0
  108.7460  -51.6900   43.4270 C   0  0  0  0  0
  110.1580  -51.0860   43.3400 C   0  0  0  0  0
  108.4410  -52.6670   44.4790 N   0  0  0  0  0
  110.9280  -51.3830   44.5100 O   0  0  0  0  0
  109.7980  -49.5920   43.3180 C   0  0  0  0  0
  107.4170  -53.1140   44.6690 N   0  0  0  0  0
  108.4540  -49.4570   42.7700 O   0  0  0  0  0
  110.8700  -48.8300   42.5160 C   0  0  0  0  0
  106.4120  -53.5860   44.9170 N   0  0  0  0  0
  111.0960  -47.5430   43.1160 O   0  0  0  0  0
  105.4567  -52.9823   39.5507 H   0  0  0  0  0
  108.4909  -50.3623   38.1615 H   0  0  0  0  0
  108.9715  -49.7792   40.4980 H   0  0  0  0  0
  106.7708  -50.7639   43.1901 H   0  0  0  0  0
  108.5595  -52.6159   42.8829 H   0  0  0  0  0
  110.7559  -51.4480   42.5036 H   0  0  0  0  0
  111.8011  -50.9932   44.4245 H   0  0  0  0  0
  109.7888  -49.1562   44.3171 H   0  0  0  0  0
  110.5281  -48.6965   41.4897 H   0  0  0  0  0
  111.7991  -49.4000   42.5200 H   0  0  0  0  0
  111.7643  -47.0703   42.6145 H   0  0  0  0  0
  1  2  1  0  0  0
  1  8  1  0  0  0
  1  9  1  0  0  0
  2  3  2  0  0  0
  2  4  1  0  0  0
  4  5  1  0  0  0
  5  6  2  0  0  0
  5  7  1  0  0  0
  7  8  2  0  0  0
  9 10  1  0  0  0
  9 16  1  0  0  0
 10 11  1  0  0  0
 10 12  1  0  0  0
 11 13  1  0  0  0
 11 14  1  0  0  0
 12 15  2  0  0  0
 14 16  1  0  0  0
 14 17  1  0  0  0
 15 18  3  0  0  0
 17 19  1  0  0  0
  4 20  1  0  0  0
  7 21  1  0  0  0
  8 22  1  0  0  0
  9 23  1  0  0  0
 10 24  1  0  0  0
 11 25  1  0  0  0
 13 26  1  0  0  0
 14 27  1  0  0  0
 17 28  1  0  0  0
 17 29  1  0  0  0
 19 30  1  0  0  0
M  END
$$$$
