2fw3_ligand
  -I-interpret- 

 74 73  0  0  0  0  0  0  0  0999 V2000
   27.7370   10.0010   32.4040 O   0  0  0  0  0
   26.4760    9.9220   32.2400 C   0  0  0  0  0
   25.8540   10.7190   31.4910 O   0  0  0  0  0
   25.6900    8.8300   32.9560 C   0  0  0  0  0
   24.1790    9.1310   33.1180 C   0  0  0  0  0
   23.8600   10.2710   34.1080 C   0  0  0  0  0
   22.5080   10.9210   33.9700 N   0  3  0  0  0
   21.3620   10.0350   34.2790 C   0  0  0  0  0
   22.2860   11.5170   32.6320 C   0  0  0  0  0
   22.4240   11.9880   34.9730 C   0  0  0  0  0
   23.5840    7.9080   33.6690 N   0  0  0  0  0
   22.8390    7.1140   32.8520 C   0  0  0  0  0
   22.6920    7.4560   31.6740 O   0  0  0  0  0
   22.2500    5.9720   33.3090 N   0  0  0  0  0
   21.4280    5.0230   32.5590 C   0  0  0  0  0
   20.4290    4.4580   33.5690 C   0  0  0  0  0
   18.9530    4.8750   33.4300 C   0  0  0  0  0
   18.4310    4.7530   32.0110 C   0  0  0  0  0
   16.9150    4.9990   31.9480 C   0  0  0  0  0
   16.3310    4.8820   30.5350 C   0  0  0  0  0
   15.4030    3.6680   30.4390 C   0  0  0  0  0
   14.2870    3.8630   29.4110 C   0  0  0  0  0
   13.1460    4.7240   29.9610 C   0  0  0  0  0
   11.8080    4.0280   29.7190 C   0  0  0  0  0
   10.5940    4.8650   30.1240 C   0  0  0  0  0
    9.3370    4.1860   29.5970 C   0  0  0  0  0
    8.0640    4.9930   29.8430 C   0  0  0  0  0
    7.0850    4.2570   30.7270 C   0  0  0  0  0
   28.0240    9.3113   33.0069 H   0  0  0  0  0
   26.1077    8.7403   33.9588 H   0  0  0  0  0
   25.7733    7.9270   32.3513 H   0  0  0  0  0
   23.7923    9.4387   32.1465 H   0  0  0  0  0
   24.5930   11.0540   33.9137 H   0  0  0  0  0
   23.8799    9.8229   35.1014 H   0  0  0  0  0
   20.4418   10.6192   34.2769 H   0  0  0  0  0
   21.2974    9.2504   33.5252 H   0  0  0  0  0
   21.5064    9.5857   35.2615 H   0  0  0  0  0
   22.2154   10.7226   31.8890 H   0  0  0  0  0
   21.3597   12.0915   32.6407 H   0  0  0  0  0
   23.1201   12.1739   32.3853 H   0  0  0  0  0
   21.4697   12.5050   34.8725 H   0  0  0  0  0
   22.5006   11.5544   35.9701 H   0  0  0  0  0
   23.2395   12.6946   34.8191 H   0  0  0  0  0
   23.7262    7.6572   34.6474 H   0  0  0  0  0
   22.4012    5.7531   34.2937 H   0  0  0  0  0
   22.0348    4.2342   32.1144 H   0  0  0  0  0
   20.9208    5.5073   31.7246 H   0  0  0  0  0
   20.7488    4.8394   34.5387 H   0  0  0  0  0
   20.4416    3.3786   33.4177 H   0  0  0  0  0
   18.8759    5.9222   33.7223 H   0  0  0  0  0
   18.3606    4.2106   34.0590 H   0  0  0  0  0
   18.6330    3.7433   31.6535 H   0  0  0  0  0
   18.9289    5.5006   31.3935 H   0  0  0  0  0
   16.7351    6.0174   32.2922 H   0  0  0  0  0
   16.4351    4.2382   32.5635 H   0  0  0  0  0
   17.1472    4.7618   29.8227 H   0  0  0  0  0
   15.7603    5.7833   30.3113 H   0  0  0  0  0
   14.9395    3.5212   31.4146 H   0  0  0  0  0
   16.0010    2.8116   30.1276 H   0  0  0  0  0
   13.8829    2.8833   29.1560 H   0  0  0  0  0
   14.7080    4.3689   28.5421 H   0  0  0  0  0
   13.1467    5.6890   29.4541 H   0  0  0  0  0
   13.2881    4.8685   31.0320 H   0  0  0  0  0
   11.7972    3.1242   30.3282 H   0  0  0  0  0
   11.7294    3.8386   28.6485 H   0  0  0  0  0
   10.6779    5.8673   29.7040 H   0  0  0  0  0
   10.5446    4.9453   31.2099 H   0  0  0  0  0
    9.2312    3.2368   30.1223 H   0  0  0  0  0
    9.4516    4.0732   28.5189 H   0  0  0  0  0
    7.5843    5.1721   28.8808 H   0  0  0  0  0
    8.3416    5.9210   30.3429 H   0  0  0  0  0
    6.8046    3.3167   30.2523 H   0  0  0  0  0
    7.5501    4.0539   31.6917 H   0  0  0  0  0
    6.1963    4.8711   30.8727 H   0  0  0  0  0
  1  2  1  0  0  0
  2  3  2  0  0  0
  2  4  1  0  0  0
  4  5  1  0  0  0
  5  6  1  0  0  0
  5 11  1  0  0  0
  6  7  1  0  0  0
  7  8  1  0  0  0
  7  9  1  0  0  0
  7 10  1  0  0  0
 11 12  1  0  0  0
 12 13  2  0  0  0
 12 14  1  0  0  0
 14 15  1  0  0  0
 15 16  1  0  0  0
 16 17  1  0  0  0
 17 18  1  0  0  0
 18 19  1  0  0  0
 19 20  1  0  0  0
 20 21  1  0  0  0
 21 22  1  0  0  0
 22 23  1  0  0  0
 23 24  1  0  0  0
 24 25  1  0  0  0
 25 26  1  0  0  0
 26 27  1  0  0  0
 27 28  1  0  0  0
  1 29  1  0  0  0
  4 30  1  0  0  0
  4 31  1  0  0  0
  5 32  1  0  0  0
  6 33  1  0  0  0
  6 34  1  0  0  0
  8 35  1  0  0  0
  8 36  1  0  0  0
  8 37  1  0  0  0
  9 38  1  0  0  0
  9 39  1  0  0  0
  9 40  1  0  0  0
 10 41  1  0  0  0
 10 42  1  0  0  0
 10 43  1  0  0  0
 11 44  1  0  0  0
 14 45  1  0  0  0
 15 46  1  0  0  0
 15 47  1  0  0  0
 16 48  1  0  0  0
 16 49  1  0  0  0
 17 50  1  0  0  0
 17 51  1  0  0  0
 18 52  1  0  0  0
 18 53  1  0  0  0
 19 54  1  0  0  0
 19 55  1  0  0  0
 20 56  1  0  0  0
 20 57  1  0  0  0
 21 58  1  0  0  0
 21 59  1  0  0  0
 22 60  1  0  0  0
 22 61  1  0  0  0
 23 62  1  0  0  0
 23 63  1  0  0  0
 24 64  1  0  0  0
 24 65  1  0  0  0
 25 66  1  0  0  0
 25 67  1  0  0  0
 26 68  1  0  0  0
 26 69  1  0  0  0
 27 70  1  0  0  0
 27 71  1  0  0  0
 28 72  1  0  0  0
 28 73  1  0  0  0
 28 74  1  0  0  0
M  END
$$$$
