1c85_ligand
  -I-interpret- 

 22 22  0  0  0  0  0  0  0  0999 V2000
   12.4100   45.1770   19.0250 C   0  0  0  0  0
   11.4800   45.8550   19.8130 C   0  0  0  0  0
   10.1210   45.8720   19.4630 C   0  0  0  0  0
    9.7490   45.2960   18.2630 C   0  0  0  0  0
   10.6950   44.6340   17.4660 C   0  0  0  0  0
   12.0100   44.5500   17.8660 C   0  0  0  0  0
    8.3610   45.4000   17.7930 C   0  0  0  0  0
    8.3270   45.2570   16.4810 O   0  0  0  0  0
    7.4030   45.4890   18.4750 O   0  0  0  0  0
    9.1840   46.4720   20.2310 N   0  0  0  0  0
    9.2780   47.0290   21.4530 C   0  0  0  0  0
   10.3650   47.0510   22.1100 O   0  0  0  0  0
    7.8280   47.2610   22.0490 C   0  0  0  0  0
    7.3860   48.1360   22.6900 O   0  0  0  0  0
    6.9850   46.1480   21.9320 O   0  0  0  0  0
   13.4566   45.1433   19.3275 H   0  0  0  0  0
   11.8123   46.3772   20.7102 H   0  0  0  0  0
   10.3867   44.1827   16.5229 H   0  0  0  0  0
   12.7300   43.9905   17.2688 H   0  0  0  0  0
    9.2239   45.2065   16.1424 H   0  0  0  0  0
    8.2528   46.5087   19.8164 H   0  0  0  0  0
    7.4146   45.4776   21.3957 H   0  0  0  0  0
  1  2  4  0  0  0
  1  6  4  0  0  0
  2  3  4  0  0  0
  3  4  4  0  0  0
  3 10  1  0  0  0
  4  5  4  0  0  0
  4  7  1  0  0  0
  5  6  4  0  0  0
  7  8  1  0  0  0
  7  9  2  0  0  0
 10 11  1  0  0  0
 11 12  2  0  0  0
 11 13  1  0  0  0
 13 14  2  0  0  0
 13 15  1  0  0  0
  1 16  1  0  0  0
  2 17  1  0  0  0
  5 18  1  0  0  0
  6 19  1  0  0  0
  8 20  1  0  0  0
 10 21  1  0  0  0
 15 22  1  0  0  0
M  END
$$$$
