### 
### Created by X-TOOL on Mon Sep 10 21:13:32 2018
### 

@<TRIPOS>MOLECULE
5U4E_LIGAND
   32    33     1     0     0
SMALL
GAST_HUCK


@<TRIPOS>ATOM
      1 C01        42.8960    1.6850   21.4940 C.ar      1 XLB        -0.0804
      2 C02        43.2760    0.3700   21.6960 C.ar      1 XLB        -0.0217
      3 C03        43.5980   -0.0770   22.9680 C.ar      1 XLB        -0.0802
      4 C04        43.5230    0.7960   24.0430 C.ar      1 XLB        -0.0962
      5 C05        43.1530    2.1150   23.8360 C.ar      1 XLB        -0.0939
      6 C06        42.8330    2.5590   22.5640 C.ar      1 XLB        -0.0919
      7 C07        43.8890    0.3470   25.4430 C.2       1 XLB        -0.1472
      8 C08        43.1170    0.2340   26.5380 C.2       1 XLB        -0.1476
      9 C09        43.5820   -0.1920   27.9260 C.ar      1 XLB        -0.0865
     10 C10        44.5980   -1.1170   28.1710 C.ar      1 XLB         0.0054
     11 C11        44.9650   -1.4350   29.4690 C.ar      1 XLB        -0.0763
     12 C12        44.3320   -0.8360   30.5400 C.ar      1 XLB        -0.0658
     13 C13        43.3290    0.0890   30.3100 C.ar      1 XLB        -0.0896
     14 C14        42.9600    0.4080   29.0110 C.ar      1 XLB        -0.0945
     15 C15        43.3430   -0.5680   20.5140 C.2       1 XLB         0.0549
     16 O01        46.1050   -0.8960   32.5250 O.3       1 XLB        -0.8710
     17 O02        43.8830   -1.9140   32.9370 O.3       1 XLB        -0.8710
     18 O03        42.9130   -0.1910   19.3940 O.co2     1 XLB        -0.5619
     19 O04        43.8330   -1.7180   20.6450 O.co2     1 XLB        -0.5619
     20 CL1        45.4630   -1.9390   26.9090 Cl        1 XLB        -0.0937
     21 B01        44.7920   -1.2340   32.0730 B         1 XLB         3.0000
     22 H          42.6463    2.0322   20.4914 H         1 XLB         0.0378
     23 H          43.9088   -1.1102   23.1227 H         1 XLB         0.0445
     24 H          43.1136    2.8061   24.6780 H         1 XLB         0.0405
     25 H          42.5322    3.5948   22.4064 H         1 XLB         0.0528
     26 H          44.9351    0.0748   25.5836 H         1 XLB         0.0033
     27 H          42.0590    0.4691   26.4224 H         1 XLB         0.0034
     28 H          45.7577   -2.1620   29.6454 H         1 XLB         0.0536
     29 H          42.8277    0.5681   31.1510 H         1 XLB         0.0528
     30 H          42.1706    1.1401   28.8408 H         1 XLB         0.0402
     31 H          46.5751   -1.6973   32.7668 H         1 XLB        -0.1290
     32 H          43.0540   -2.0608   32.4758 H         1 XLB        -0.1290
@<TRIPOS>BOND
     1    1    2 ar 
     2    1    6 ar 
     3    2    3 ar 
     4    2   15 1  
     5    3    4 ar 
     6    4    5 ar 
     7    4    7 1  
     8    5    6 ar 
     9    7    8 2  
    10    8    9 1  
    11    9   10 ar 
    12    9   14 ar 
    13   10   11 ar 
    14   10   20 1  
    15   11   12 ar 
    16   12   13 ar 
    17   12   21 1  
    18   13   14 ar 
    19   15   18 ar 
    20   15   19 ar 
    21   21   16 1  
    22   21   17 1  
    23    1   22 1  
    24    3   23 1  
    25    5   24 1  
    26    6   25 1  
    27    7   26 1  
    28    8   27 1  
    29   11   28 1  
    30   13   29 1  
    31   14   30 1  
    32   16   31 1  
    33   17   32 1  
@<TRIPOS>SUBSTRUCTURE
     1 XLB         1

