5U4E_LIGAND
  -I-interpret- 

 33 34  0  0  0  0  0  0  0  0999 V2000
   42.8960    1.6850   21.4940 C   0  0  0  0  0
   43.2760    0.3700   21.6960 C   0  0  0  0  0
   43.5980   -0.0770   22.9680 C   0  0  0  0  0
   43.5230    0.7960   24.0430 C   0  0  0  0  0
   43.1530    2.1150   23.8360 C   0  0  0  0  0
   42.8330    2.5590   22.5640 C   0  0  0  0  0
   43.8890    0.3470   25.4430 C   0  0  0  0  0
   43.1170    0.2340   26.5380 C   0  0  0  0  0
   43.5820   -0.1920   27.9260 C   0  0  0  0  0
   44.5980   -1.1170   28.1710 C   0  0  0  0  0
   44.9650   -1.4350   29.4690 C   0  0  0  0  0
   44.3320   -0.8360   30.5400 C   0  0  0  0  0
   43.3290    0.0890   30.3100 C   0  0  0  0  0
   42.9600    0.4080   29.0110 C   0  0  0  0  0
   43.3430   -0.5680   20.5140 C   0  0  0  0  0
   46.1050   -0.8960   32.5250 O   0  0  0  0  0
   43.8830   -1.9140   32.9370 O   0  0  0  0  0
   42.9130   -0.1910   19.3940 O   0  0  0  0  0
   43.8330   -1.7180   20.6450 O   0  0  0  0  0
   45.4630   -1.9390   26.9090 Cl  0  0  0  0  0
   44.7920   -1.2340   32.0730 B   0  0  0  0  0
   42.6463    2.0322   20.4914 H   0  0  0  0  0
   43.9088   -1.1102   23.1227 H   0  0  0  0  0
   43.1136    2.8061   24.6780 H   0  0  0  0  0
   42.5322    3.5948   22.4064 H   0  0  0  0  0
   44.9351    0.0748   25.5836 H   0  0  0  0  0
   42.0590    0.4691   26.4224 H   0  0  0  0  0
   45.7577   -2.1620   29.6454 H   0  0  0  0  0
   42.8277    0.5681   31.1510 H   0  0  0  0  0
   42.1706    1.1401   28.8408 H   0  0  0  0  0
   46.2167   -1.1932   33.4310 H   0  0  0  0  0
   44.3048   -2.0690   33.7853 H   0  0  0  0  0
   42.5752    0.7046   19.4671 H   0  0  0  0  0
  1  2  4  0  0  0
  1  6  4  0  0  0
  2  3  4  0  0  0
  2 15  1  0  0  0
  3  4  4  0  0  0
  4  5  4  0  0  0
  4  7  1  0  0  0
  5  6  4  0  0  0
  7  8  2  0  0  0
  8  9  1  0  0  0
  9 10  4  0  0  0
  9 14  4  0  0  0
 10 11  4  0  0  0
 10 20  1  0  0  0
 11 12  4  0  0  0
 12 13  4  0  0  0
 12 21  1  0  0  0
 13 14  4  0  0  0
 15 18  1  0  0  0
 15 19  2  0  0  0
 21 16  1  0  0  0
 21 17  1  0  0  0
  1 22  1  0  0  0
  3 23  1  0  0  0
  5 24  1  0  0  0
  6 25  1  0  0  0
  7 26  1  0  0  0
  8 27  1  0  0  0
 11 28  1  0  0  0
 13 29  1  0  0  0
 14 30  1  0  0  0
 16 31  1  0  0  0
 17 32  1  0  0  0
 18 33  1  0  0  0
M  END
$$$$
