### 
### Created by X-TOOL on Mon Sep 10 21:13:10 2018
### 

@<TRIPOS>MOLECULE
4edz_ligand
   53    56     1     0     0
SMALL
GAST_HUCK


@<TRIPOS>ATOM
      1 O19        34.8260   14.9780  -25.9690 O.2       1 0O5        -0.3840
      2 C18        34.3380   14.4470  -24.9870 C.2       1 0O5         0.2061
      3 N20        34.6740   14.8060  -23.7440 N.am      1 0O5        -0.2879
      4 C21        35.6050   15.8460  -23.3320 C.3       1 0O5         0.0119
      5 C22        34.8330   16.6460  -22.2880 C.3       1 0O5        -0.0922
      6 N23        35.1730   18.0820  -22.2410 N.4       1 0O5         0.4073
      7 C28        36.6180   18.3480  -22.1360 C.3       1 0O5        -0.0888
      8 C24        36.7950   19.8390  -21.8480 C.3       1 0O5         0.0291
      9 O26        36.1470   20.6260  -22.8590 O.3       1 0O5        -0.3838
     10 C25        34.7630   20.3140  -23.0450 C.3       1 0O5         0.0291
     11 C27        34.6190   18.8330  -23.3770 C.3       1 0O5        -0.0888
     12 C13        33.3310   13.3520  -25.1920 C.ar      1 0O5         0.0517
     13 C17        33.2630   12.6700  -26.4120 C.ar      1 0O5        -0.0392
     14 C14        32.3260   11.6580  -26.6060 C.ar      1 0O5        -0.0445
     15 C16        32.4430   13.0320  -24.1710 C.ar      1 0O5        -0.0392
     16 C15        31.5010   12.0280  -24.3720 C.ar      1 0O5        -0.0445
     17 C9         31.4550   11.3210  -25.5750 C.ar      1 0O5         0.0053
     18 C4         30.4070   10.2760  -25.7170 C.ar      1 0O5         0.0580
     19 N6         29.5420   10.3950  -26.7600 N.ar      1 0O5        -0.2908
     20 C2         28.5280    9.5330  -26.9770 C.ar      1 0O5         0.0206
     21 C1         27.6180    9.7370  -28.1600 C.3       1 0O5        -0.0181
     22 C7         30.2580    9.2200  -24.8080 C.ar      1 0O5         0.0110
     23 C12        31.0910    9.0060  -23.7080 C.ar      1 0O5        -0.0478
     24 C11        30.8570    7.9250  -22.8660 C.ar      1 0O5        -0.0578
     25 C10        29.8040    7.0350  -23.0840 C.ar      1 0O5        -0.0582
     26 C8         28.9410    7.2070  -24.1600 C.ar      1 0O5        -0.0503
     27 C5         29.1410    8.2680  -25.0360 C.ar      1 0O5        -0.0102
     28 C3         28.3120    8.4580  -26.1230 C.ar      1 0O5        -0.0328
     29 H          34.2220   14.2869  -22.9912 H         1 0O5         0.1844
     30 H          35.9274   16.4651  -24.1692 H         1 0O5         0.0499
     31 H          36.5317   15.4341  -22.9324 H         1 0O5         0.0499
     32 H          35.0859   16.2267  -21.3142 H         1 0O5         0.0037
     33 H          33.7773   16.5770  -22.5503 H         1 0O5         0.0037
     34 H          37.1223   18.0779  -23.0638 H         1 0O5         0.0040
     35 H          37.0568   17.7519  -21.3358 H         1 0O5         0.0040
     36 H          37.8591   20.0751  -21.8429 H         1 0O5         0.0539
     37 H          36.3490   20.0684  -20.8802 H         1 0O5         0.0539
     38 H          34.3616   20.9116  -23.8635 H         1 0O5         0.0539
     39 H          34.2131   20.5376  -22.1309 H         1 0O5         0.0539
     40 H          33.5725   18.5737  -23.5372 H         1 0O5         0.0040
     41 H          35.1518   18.5903  -24.2964 H         1 0O5         0.0040
     42 H          33.9490   12.9330  -27.2172 H         1 0O5         0.0674
     43 H          32.2755   11.1332  -27.5600 H         1 0O5         0.0656
     44 H          32.4846   13.5637  -23.2204 H         1 0O5         0.0674
     45 H          30.7902   11.7905  -23.5805 H         1 0O5         0.0656
     46 H          27.6679    8.8635  -28.8100 H         1 0O5         0.0410
     47 H          26.5946    9.8733  -27.8103 H         1 0O5         0.0410
     48 H          27.9353   10.6213  -28.7126 H         1 0O5         0.0410
     49 H          31.9214    9.6839  -23.5104 H         1 0O5         0.0651
     50 H          31.5146    7.7678  -22.0110 H         1 0O5         0.0625
     51 H          29.6569    6.1964  -22.4034 H         1 0O5         0.0646
     52 H          28.1134    6.5150  -24.3159 H         1 0O5         0.0625
     53 H          27.4903    7.7670  -26.3111 H         1 0O5         0.0621
@<TRIPOS>BOND
     1    1    2 2  
     2    2    3 am 
     3    2   12 1  
     4    3    4 1  
     5    4    5 1  
     6    5    6 1  
     7    6    7 1  
     8    6   11 1  
     9    7    8 1  
    10    8    9 1  
    11    9   10 1  
    12   10   11 1  
    13   12   13 ar 
    14   12   15 ar 
    15   13   14 ar 
    16   14   17 ar 
    17   15   16 ar 
    18   16   17 ar 
    19   17   18 1  
    20   18   19 ar 
    21   18   22 ar 
    22   19   20 ar 
    23   20   21 1  
    24   20   28 ar 
    25   22   23 ar 
    26   22   27 ar 
    27   23   24 ar 
    28   24   25 ar 
    29   25   26 ar 
    30   26   27 ar 
    31   27   28 ar 
    32    3   29 1  
    33    4   30 1  
    34    4   31 1  
    35    5   32 1  
    36    5   33 1  
    37    7   34 1  
    38    7   35 1  
    39    8   36 1  
    40    8   37 1  
    41   10   38 1  
    42   10   39 1  
    43   11   40 1  
    44   11   41 1  
    45   13   42 1  
    46   14   43 1  
    47   15   44 1  
    48   16   45 1  
    49   21   46 1  
    50   21   47 1  
    51   21   48 1  
    52   23   49 1  
    53   24   50 1  
    54   25   51 1  
    55   26   52 1  
    56   28   53 1  
@<TRIPOS>SUBSTRUCTURE
     1 0O5         1

