4edz_ligand
  -I-interpret- 

 54 57  0  0  0  0  0  0  0  0999 V2000
   34.8260   14.9780  -25.9690 O   0  0  0  0  0
   34.3380   14.4470  -24.9870 C   0  0  0  0  0
   34.6740   14.8060  -23.7440 N   0  0  0  0  0
   35.6050   15.8460  -23.3320 C   0  0  0  0  0
   34.8330   16.6460  -22.2880 C   0  0  0  0  0
   35.1730   18.0820  -22.2410 N   0  3  0  0  0
   36.6180   18.3480  -22.1360 C   0  0  0  0  0
   36.7950   19.8390  -21.8480 C   0  0  0  0  0
   36.1470   20.6260  -22.8590 O   0  0  0  0  0
   34.7630   20.3140  -23.0450 C   0  0  0  0  0
   34.6190   18.8330  -23.3770 C   0  0  0  0  0
   33.3310   13.3520  -25.1920 C   0  0  0  0  0
   33.2630   12.6700  -26.4120 C   0  0  0  0  0
   32.3260   11.6580  -26.6060 C   0  0  0  0  0
   32.4430   13.0320  -24.1710 C   0  0  0  0  0
   31.5010   12.0280  -24.3720 C   0  0  0  0  0
   31.4550   11.3210  -25.5750 C   0  0  0  0  0
   30.4070   10.2760  -25.7170 C   0  0  0  0  0
   29.5420   10.3950  -26.7600 N   0  0  0  0  0
   28.5280    9.5330  -26.9770 C   0  0  0  0  0
   27.6180    9.7370  -28.1600 C   0  0  0  0  0
   30.2580    9.2200  -24.8080 C   0  0  0  0  0
   31.0910    9.0060  -23.7080 C   0  0  0  0  0
   30.8570    7.9250  -22.8660 C   0  0  0  0  0
   29.8040    7.0350  -23.0840 C   0  0  0  0  0
   28.9410    7.2070  -24.1600 C   0  0  0  0  0
   29.1410    8.2680  -25.0360 C   0  0  0  0  0
   28.3120    8.4580  -26.1230 C   0  0  0  0  0
   34.2220   14.2869  -22.9912 H   0  0  0  0  0
   35.9274   16.4651  -24.1692 H   0  0  0  0  0
   36.5317   15.4341  -22.9324 H   0  0  0  0  0
   35.0859   16.2267  -21.3142 H   0  0  0  0  0
   33.7773   16.5770  -22.5503 H   0  0  0  0  0
   34.7346   18.4118  -21.3811 H   0  0  0  0  0
   37.1223   18.0779  -23.0638 H   0  0  0  0  0
   37.0568   17.7519  -21.3358 H   0  0  0  0  0
   37.8591   20.0751  -21.8429 H   0  0  0  0  0
   36.3490   20.0684  -20.8802 H   0  0  0  0  0
   34.3616   20.9116  -23.8635 H   0  0  0  0  0
   34.2131   20.5376  -22.1309 H   0  0  0  0  0
   33.5725   18.5737  -23.5372 H   0  0  0  0  0
   35.1518   18.5903  -24.2964 H   0  0  0  0  0
   33.9490   12.9330  -27.2172 H   0  0  0  0  0
   32.2755   11.1332  -27.5600 H   0  0  0  0  0
   32.4846   13.5637  -23.2204 H   0  0  0  0  0
   30.7902   11.7905  -23.5805 H   0  0  0  0  0
   27.1310   10.7088  -28.0788 H   0  0  0  0  0
   28.2039    9.6983  -29.0784 H   0  0  0  0  0
   26.8630    8.9510  -28.1758 H   0  0  0  0  0
   31.9214    9.6839  -23.5104 H   0  0  0  0  0
   31.5146    7.7678  -22.0110 H   0  0  0  0  0
   29.6569    6.1964  -22.4034 H   0  0  0  0  0
   28.1134    6.5150  -24.3159 H   0  0  0  0  0
   27.4903    7.7670  -26.3111 H   0  0  0  0  0
  1  2  2  0  0  0
  2  3  1  0  0  0
  2 12  1  0  0  0
  3  4  1  0  0  0
  4  5  1  0  0  0
  5  6  1  0  0  0
  6  7  1  0  0  0
  6 11  1  0  0  0
  7  8  1  0  0  0
  8  9  1  0  0  0
  9 10  1  0  0  0
 10 11  1  0  0  0
 12 13  4  0  0  0
 12 15  4  0  0  0
 13 14  4  0  0  0
 14 17  4  0  0  0
 15 16  4  0  0  0
 16 17  4  0  0  0
 17 18  1  0  0  0
 18 19  4  0  0  0
 18 22  4  0  0  0
 19 20  4  0  0  0
 20 21  1  0  0  0
 20 28  4  0  0  0
 22 23  4  0  0  0
 22 27  4  0  0  0
 23 24  4  0  0  0
 24 25  4  0  0  0
 25 26  4  0  0  0
 26 27  4  0  0  0
 27 28  4  0  0  0
  3 29  1  0  0  0
  4 30  1  0  0  0
  4 31  1  0  0  0
  5 32  1  0  0  0
  5 33  1  0  0  0
  6 34  1  0  0  0
  7 35  1  0  0  0
  7 36  1  0  0  0
  8 37  1  0  0  0
  8 38  1  0  0  0
 10 39  1  0  0  0
 10 40  1  0  0  0
 11 41  1  0  0  0
 11 42  1  0  0  0
 13 43  1  0  0  0
 14 44  1  0  0  0
 15 45  1  0  0  0
 16 46  1  0  0  0
 21 47  1  0  0  0
 21 48  1  0  0  0
 21 49  1  0  0  0
 23 50  1  0  0  0
 24 51  1  0  0  0
 25 52  1  0  0  0
 26 53  1  0  0  0
 28 54  1  0  0  0
M  END
$$$$
