4e4l_ligand
  -I-interpret- 

 41 44  0  0  0  0  0  0  0  0999 V2000
  -14.7900   29.4150   -2.9370 C   0  0  0  0  0
  -14.4500   29.8380   -1.4630 C   0  0  0  0  0
  -13.3210   30.8720   -1.4940 C   0  0  0  0  0
  -13.7340   32.2480   -2.0370 C   0  0  0  0  0
  -15.0920   32.6590   -1.6540 N   0  0  0  0  0
  -16.1700   31.6770   -1.3680 C   0  0  0  0  0
  -15.6690   30.3740   -0.7370 C   0  0  0  0  0
  -15.4580   34.2610   -1.7090 S   0  0  0  0  0
  -16.4580   34.5080   -0.7220 O   0  0  0  0  0
  -14.2310   34.9970   -1.6310 O   0  0  0  0  0
  -16.1520   34.5190   -3.3760 C   0  0  0  0  0
  -13.9060   28.6540   -0.7500 N   0  0  0  0  0
  -12.6240   28.5700   -0.2450 C   0  0  0  0  0
  -12.4460   27.3780    0.2460 N   0  0  0  0  0
  -13.5620   26.6170    0.0930 C   0  0  0  0  0
  -14.5110   27.4270   -0.5570 C   0  0  0  0  0
  -15.7690   26.8570   -0.8470 C   0  0  0  0  0
  -17.0070   27.3460   -1.4840 C   0  0  0  0  0
  -17.8560   26.3220   -1.4920 C   0  0  0  0  0
  -17.2670   25.2280   -0.9140 N   0  0  0  0  0
  -16.0040   25.5160   -0.4990 C   0  0  0  0  0
  -15.0720   24.7740    0.1140 N   0  0  0  0  0
  -13.8910   25.3000    0.4320 C   0  0  0  0  0
  -13.8839   29.0647   -3.4313 H   0  0  0  0  0
  -15.5300   28.6148   -2.9225 H   0  0  0  0  0
  -15.1912   30.2729   -3.4765 H   0  0  0  0  0
  -12.5505   30.4838   -2.1602 H   0  0  0  0  0
  -12.9947   31.0196   -0.4645 H   0  0  0  0  0
  -13.7096   32.1868   -3.1250 H   0  0  0  0  0
  -13.0443   32.9810   -1.6184 H   0  0  0  0  0
  -16.6353   31.4192   -2.3194 H   0  0  0  0  0
  -16.8519   32.1416   -0.6558 H   0  0  0  0  0
  -15.3937   30.5751    0.2983 H   0  0  0  0  0
  -16.4639   29.6310   -0.8016 H   0  0  0  0  0
  -16.9866   33.8352   -3.5305 H   0  0  0  0  0
  -16.5015   35.5474   -3.4675 H   0  0  0  0  0
  -15.3812   34.3281   -4.1226 H   0  0  0  0  0
  -11.8834   29.3697   -0.2557 H   0  0  0  0  0
  -17.1897   28.3483   -1.8714 H   0  0  0  0  0
  -18.8675   26.3490   -1.8972 H   0  0  0  0  0
  -13.1638   24.6907    0.9687 H   0  0  0  0  0
  1  2  1  0  0  0
  2  3  1  0  0  0
  2  7  1  0  0  0
  2 12  1  0  0  0
  3  4  1  0  0  0
  4  5  1  0  0  0
  5  6  1  0  0  0
  5  8  1  0  0  0
  6  7  1  0  0  0
  8  9  2  0  0  0
  8 10  2  0  0  0
  8 11  1  0  0  0
 12 13  4  0  0  0
 12 16  4  0  0  0
 13 14  4  0  0  0
 14 15  4  0  0  0
 15 16  4  0  0  0
 15 23  4  0  0  0
 16 17  4  0  0  0
 17 18  4  0  0  0
 17 21  4  0  0  0
 18 19  4  0  0  0
 19 20  4  0  0  0
 20 21  4  0  0  0
 21 22  4  0  0  0
 22 23  4  0  0  0
  1 24  1  0  0  0
  1 25  1  0  0  0
  1 26  1  0  0  0
  3 27  1  0  0  0
  3 28  1  0  0  0
  4 29  1  0  0  0
  4 30  1  0  0  0
  6 31  1  0  0  0
  6 32  1  0  0  0
  7 33  1  0  0  0
  7 34  1  0  0  0
 11 35  1  0  0  0
 11 36  1  0  0  0
 11 37  1  0  0  0
 13 38  1  0  0  0
 18 39  1  0  0  0
 19 40  1  0  0  0
 23 41  1  0  0  0
M  END
$$$$
