6oqn_ligand
  -I-interpret- 

 66 70  0  0  0  0  0  0  0  0999 V2000
  -11.4570   10.8460  -16.0090 C   0  0  0  0  0
  -10.1420   10.8900  -16.5370 C   0  0  0  0  0
   -9.8180   10.4390  -17.8420 C   0  0  0  0  0
  -20.7570    4.8090  -22.3780 O   0  0  0  0  0
  -17.9690    2.2710  -20.0580 O   0  0  0  0  0
  -16.6700    6.4880  -19.9870 C   0  0  0  0  0
  -18.0210    6.7520  -19.7760 C   0  0  0  0  0
  -18.4590    7.8510  -19.0350 C   0  0  0  0  0
  -17.5380    8.7480  -18.4980 C   0  0  0  0  0
  -14.4760    9.9860  -19.2030 C   0  0  0  0  0
  -13.3260    7.7560  -18.7680 C   0  0  0  0  0
  -15.7020    7.3660  -19.4530 C   0  0  0  0  0
  -16.1610    8.5090  -18.7080 C   0  0  0  0  0
  -13.1020    9.2300  -19.1190 C   0  0  0  0  0
  -18.9990    5.8730  -20.3380 C   0  0  0  0  0
  -13.9160    4.6080  -19.5480 C   0  0  0  0  0
  -13.9220    3.3350  -20.3720 C   0  0  0  0  0
  -10.7460    9.3880  -20.0080 C   0  0  0  0  0
  -12.2490    9.2730  -20.4230 C   0  0  0  0  0
  -15.2410    2.5770  -20.4440 C   0  0  0  0  0
  -14.3560    7.0480  -19.5630 N   0  0  0  0  0
  -15.3380    9.4980  -18.1870 O   0  0  0  0  0
  -20.1760    5.8820  -19.9430 O   0  0  0  0  0
  -18.5620    5.0520  -21.3230 N   0  0  0  0  0
  -13.8970    5.9190  -20.4030 C   0  0  0  0  0
  -10.8590    9.9140  -18.6200 C   0  0  0  0  0
  -12.1660    9.8460  -18.1240 C   0  0  0  0  0
  -12.4740   10.3100  -16.8280 C   0  0  0  0  0
   -8.8710   11.4470  -15.4810 Cl  0  0  0  0  0
  -19.6930    3.9270  -21.8150 S   0  0  0  0  0
  -20.2630    3.1850  -20.2930 C   0  0  0  0  0
  -18.9740    2.9530  -22.6580 O   0  0  0  0  0
  -19.3400    2.0040  -20.0730 C   0  0  0  0  0
  -17.2020    1.3330  -19.4100 C   0  0  0  0  0
  -15.7770    1.8570  -19.2440 C   0  0  0  0  0
  -11.6750   11.2131  -15.0061 H   0  0  0  0  0
   -8.7992   10.4983  -18.2250 H   0  0  0  0  0
  -16.3630    5.6122  -20.5587 H   0  0  0  0  0
  -19.5258    8.0080  -18.8759 H   0  0  0  0  0
  -17.8722    9.6151  -17.9284 H   0  0  0  0  0
  -14.9284    9.8164  -20.1801 H   0  0  0  0  0
  -14.3150   11.0551  -19.0647 H   0  0  0  0  0
  -13.6707    7.7367  -17.7341 H   0  0  0  0  0
  -12.3827    7.2473  -18.9671 H   0  0  0  0  0
  -13.0065    4.6003  -18.9473 H   0  0  0  0  0
  -14.8344    4.6178  -18.9610 H   0  0  0  0  0
  -13.2130    2.6612  -19.8909 H   0  0  0  0  0
  -13.6913    3.6363  -21.3938 H   0  0  0  0  0
  -10.1590   10.0255  -20.6691 H   0  0  0  0  0
  -10.2024    8.4455  -20.0739 H   0  0  0  0  0
  -12.5384   10.1264  -21.0363 H   0  0  0  0  0
  -12.4110    8.3695  -21.0109 H   0  0  0  0  0
  -15.0537    1.7846  -21.1686 H   0  0  0  0  0
  -15.9824    3.3506  -20.6438 H   0  0  0  0  0
  -17.6276    5.1154  -21.7270 H   0  0  0  0  0
  -14.5582    5.8073  -21.2623 H   0  0  0  0  0
  -12.8846    6.1122  -20.7576 H   0  0  0  0  0
  -13.4981   10.2546  -16.4587 H   0  0  0  0  0
  -21.3074    2.8793  -20.3553 H   0  0  0  0  0
  -20.2304    3.8877  -19.4604 H   0  0  0  0  0
  -19.5804    1.6164  -19.0830 H   0  0  0  0  0
  -19.5053    1.3336  -20.9164 H   0  0  0  0  0
  -17.1827    0.4147  -19.9969 H   0  0  0  0  0
  -17.6298    1.1333  -18.4276 H   0  0  0  0  0
  -15.7919    2.5718  -18.4213 H   0  0  0  0  0
  -15.1350    0.9924  -19.0754 H   0  0  0  0  0
  1  2  4  0  0  0
 28  1  4  0  0  0
  3  2  4  0  0  0
  2 29  1  0  0  0
 26  3  4  0  0  0
 30  4  2  0  0  0
 33  5  1  0  0  0
  5 34  1  0  0  0
  7  6  4  0  0  0
  6 12  4  0  0  0
  7  8  4  0  0  0
 15  7  1  0  0  0
  8  9  4  0  0  0
  9 13  4  0  0  0
 10 14  1  0  0  0
 22 10  1  0  0  0
 11 14  1  0  0  0
 21 11  1  0  0  0
 12 13  4  0  0  0
 12 21  1  0  0  0
 13 22  1  0  0  0
 14 19  1  0  0  0
 14 27  1  0  0  0
 15 23  2  0  0  0
 24 15  1  0  0  0
 16 17  1  0  0  0
 25 16  1  0  0  0
 17 20  1  0  0  0
 19 18  1  0  0  0
 26 18  1  0  0  0
 20 35  1  0  0  0
 21 25  1  0  0  0
 30 24  1  0  0  0
 27 26  4  0  0  0
 27 28  4  0  0  0
 31 30  1  0  0  0
 30 32  2  0  0  0
 31 33  1  0  0  0
 34 35  1  0  0  0
  1 36  1  0  0  0
  3 37  1  0  0  0
  6 38  1  0  0  0
  8 39  1  0  0  0
  9 40  1  0  0  0
 10 41  1  0  0  0
 10 42  1  0  0  0
 11 43  1  0  0  0
 11 44  1  0  0  0
 16 45  1  0  0  0
 16 46  1  0  0  0
 17 47  1  0  0  0
 17 48  1  0  0  0
 18 49  1  0  0  0
 18 50  1  0  0  0
 19 51  1  0  0  0
 19 52  1  0  0  0
 20 53  1  0  0  0
 20 54  1  0  0  0
 24 55  1  0  0  0
 25 56  1  0  0  0
 25 57  1  0  0  0
 28 58  1  0  0  0
 31 59  1  0  0  0
 31 60  1  0  0  0
 33 61  1  0  0  0
 33 62  1  0  0  0
 34 63  1  0  0  0
 34 64  1  0  0  0
 35 65  1  0  0  0
 35 66  1  0  0  0
M  END
$$$$
