6ep9_ligand
  -I-interpret- 

 88 93  0  0  0  0  0  0  0  0999 V2000
   25.4670    6.2500    3.2540 C   0  0  0  0  0
   26.6550    5.6490    2.8110 C   0  0  0  0  0
   27.8720    5.9480    3.4000 C   0  0  0  0  0
   27.9450    6.8510    4.4520 C   0  0  0  0  0
   26.7790    7.4570    4.9210 C   0  0  0  0  0
   25.5390    7.1720    4.3240 C   0  0  0  0  0
   24.2960    7.8640    4.8490 C   0  0  0  0  0
   26.5210    8.0780    7.2700 C   0  0  0  0  0
   26.5310    8.8480    9.6620 C   0  0  0  0  0
   24.5190   11.9080   12.7100 C   0  0  0  0  0
   26.0420   11.8560   12.5040 C   0  0  0  0  0
   23.9370   13.2570   12.2590 C   0  0  0  0  0
   24.3160   13.4930   10.7930 C   0  0  0  0  0
   25.8500   13.5140   10.6810 C   0  0  0  0  0
   24.1980    5.8630    2.5550 C   0  0  0  0  0
   26.5020   10.4980    7.8880 C   0  0  0  0  0
   26.4920   11.5130    8.8270 C   0  0  0  0  0
   23.0350    5.6820    3.2600 C   0  0  0  0  0
   26.8200    8.3820    5.9760 N   0  0  0  0  0
   26.5320    9.1510    8.2930 C   0  0  0  0  0
   26.2120    6.9410    7.5970 O   0  0  0  0  0
   26.5170    9.8710   10.5910 C   0  0  0  0  0
   26.4890   11.2210   10.1970 C   0  0  0  0  0
   26.4920   12.2640   11.1500 N   0  0  0  0  0
   21.8720    5.3230    2.6350 N   0  0  0  0  0
   21.8820    5.1240    1.2860 C   0  0  0  0  0
   23.1380    5.3110    0.5470 C   0  0  0  0  0
   24.2220    5.6710    1.2160 N   0  0  0  0  0
   20.8770    4.7990    0.6670 O   0  0  0  0  0
   20.6360    5.1550    3.4110 C   0  0  0  0  0
   23.0930    5.0880   -0.8340 N   0  0  0  0  0
   24.1130    5.2140   -1.7760 C   0  0  0  0  0
   25.3990    5.6640   -1.4610 C   0  0  0  0  0
   26.3620    5.7720   -2.4480 C   0  0  0  0  0
   26.0560    5.4360   -3.7760 C   0  0  0  0  0
   24.7660    4.9720   -4.0870 C   0  0  0  0  0
   23.8100    4.8710   -3.0970 C   0  0  0  0  0
   27.0940    5.5410   -4.8350 C   0  0  0  0  0
   26.9900    6.3810   -5.9010 N   0  0  0  0  0
   28.0820    4.8350   -4.7390 O   0  0  0  0  0
   28.0540    6.4420   -6.9350 C   0  0  0  0  0
   27.4150    6.1990   -8.3150 C   0  0  0  0  0
   26.3250    7.1670   -8.5510 N   0  3  0  0  0
   25.2770    7.0050   -7.5250 C   0  0  0  0  0
   25.8370    7.2830   -6.1250 C   0  0  0  0  0
   25.7030    6.7910   -9.8310 C   0  0  0  0  0
   26.6193    4.9343    1.9888 H   0  0  0  0  0
   28.7809    5.4701    3.0344 H   0  0  0  0  0
   28.9068    7.0850    4.9085 H   0  0  0  0  0
   23.8381    8.4432    4.0472 H   0  0  0  0  0
   23.5893    7.1157    5.2078 H   0  0  0  0  0
   24.5703    8.5287    5.6681 H   0  0  0  0  0
   26.5412    7.8093    9.9923 H   0  0  0  0  0
   24.3090   11.7783   13.7717 H   0  0  0  0  0
   24.0622   11.1178   12.1142 H   0  0  0  0  0
   26.3484   10.8194   12.6439 H   0  0  0  0  0
   26.4846   12.5561   13.2125 H   0  0  0  0  0
   24.3396   14.0586   12.8783 H   0  0  0  0  0
   22.8520   13.2443   12.3626 H   0  0  0  0  0
   23.9056   14.4433   10.4515 H   0  0  0  0  0
   23.9090   12.6957   10.1711 H   0  0  0  0  0
   26.2140   14.3262   11.3103 H   0  0  0  0  0
   26.1006   13.6364    9.6273 H   0  0  0  0  0
   26.4865   10.7433    6.8261 H   0  0  0  0  0
   26.4864   12.5520    8.4974 H   0  0  0  0  0
   23.0376    5.8272    4.3403 H   0  0  0  0  0
   27.0905    9.3416    5.7604 H   0  0  0  0  0
   26.5279    9.6262   11.6531 H   0  0  0  0  0
   20.7817    4.3765    4.1599 H   0  0  0  0  0
   20.3882    6.0944    3.9051 H   0  0  0  0  0
   19.8243    4.8699    2.7418 H   0  0  0  0  0
   22.1889    4.7924   -1.2022 H   0  0  0  0  0
   25.6436    5.9309   -0.4329 H   0  0  0  0  0
   27.3632    6.1197   -2.1933 H   0  0  0  0  0
   24.5206    4.6917   -5.1113 H   0  0  0  0  0
   22.8088    4.5203   -3.3474 H   0  0  0  0  0
   28.8078    5.6801   -6.7364 H   0  0  0  0  0
   28.5335    7.4207   -6.9159 H   0  0  0  0  0
   27.0073    5.1886   -8.3460 H   0  0  0  0  0
   28.1750    6.3229   -9.0865 H   0  0  0  0  0
   26.6929    8.1183   -8.5375 H   0  0  0  0  0
   24.9082    5.9798   -7.5585 H   0  0  0  0  0
   24.4736    7.7128   -7.7288 H   0  0  0  0  0
   26.1540    8.3230   -6.0477 H   0  0  0  0  0
   25.0695    7.1045   -5.3719 H   0  0  0  0  0
   26.4486    6.8416  -10.6245 H   0  0  0  0  0
   25.3143    5.7751   -9.7601 H   0  0  0  0  0
   24.8871    7.4789  -10.0529 H   0  0  0  0  0
  1  2  4  0  0  0
  6  1  4  0  0  0
  1 15  1  0  0  0
  3  2  4  0  0  0
  4  3  4  0  0  0
  5  4  4  0  0  0
  5  6  4  0  0  0
 19  5  1  0  0  0
  6  7  1  0  0  0
  8 19  1  0  0  0
 20  8  1  0  0  0
  8 21  2  0  0  0
  9 20  4  0  0  0
 22  9  4  0  0  0
 11 10  1  0  0  0
 10 12  1  0  0  0
 24 11  1  0  0  0
 13 12  1  0  0  0
 14 13  1  0  0  0
 24 14  1  0  0  0
 15 18  2  0  0  0
 15 28  1  0  0  0
 17 16  4  0  0  0
 16 20  4  0  0  0
 23 17  4  0  0  0
 18 25  1  0  0  0
 23 22  4  0  0  0
 23 24  1  0  0  0
 25 26  1  0  0  0
 25 30  1  0  0  0
 26 27  1  0  0  0
 26 29  2  0  0  0
 27 28  2  0  0  0
 27 31  1  0  0  0
 31 32  1  0  0  0
 32 33  4  0  0  0
 32 37  4  0  0  0
 33 34  4  0  0  0
 34 35  4  0  0  0
 35 36  4  0  0  0
 35 38  1  0  0  0
 36 37  4  0  0  0
 38 39  1  0  0  0
 38 40  2  0  0  0
 39 41  1  0  0  0
 39 45  1  0  0  0
 41 42  1  0  0  0
 42 43  1  0  0  0
 43 44  1  0  0  0
 43 46  1  0  0  0
 44 45  1  0  0  0
  2 47  1  0  0  0
  3 48  1  0  0  0
  4 49  1  0  0  0
  7 50  1  0  0  0
  7 51  1  0  0  0
  7 52  1  0  0  0
  9 53  1  0  0  0
 10 54  1  0  0  0
 10 55  1  0  0  0
 11 56  1  0  0  0
 11 57  1  0  0  0
 12 58  1  0  0  0
 12 59  1  0  0  0
 13 60  1  0  0  0
 13 61  1  0  0  0
 14 62  1  0  0  0
 14 63  1  0  0  0
 16 64  1  0  0  0
 17 65  1  0  0  0
 18 66  1  0  0  0
 19 67  1  0  0  0
 22 68  1  0  0  0
 30 69  1  0  0  0
 30 70  1  0  0  0
 30 71  1  0  0  0
 31 72  1  0  0  0
 33 73  1  0  0  0
 34 74  1  0  0  0
 36 75  1  0  0  0
 37 76  1  0  0  0
 41 77  1  0  0  0
 41 78  1  0  0  0
 42 79  1  0  0  0
 42 80  1  0  0  0
 43 81  1  0  0  0
 44 82  1  0  0  0
 44 83  1  0  0  0
 45 84  1  0  0  0
 45 85  1  0  0  0
 46 86  1  0  0  0
 46 87  1  0  0  0
 46 88  1  0  0  0
M  END
$$$$
