2q8g_ligand
  -I-interpret- 

 49 50  0  0  0  0  0  0  0  0999 V2000
   -4.4200   40.8940    0.7420 F   0  0  0  0  0
   -4.3670   40.3270    1.9280 C   0  0  0  0  0
   -4.7200   39.0570    1.8500 F   0  0  0  0  0
   -3.1450   40.3520    2.4670 F   0  0  0  0  0
   -5.2520   41.1730    2.8510 C   0  0  0  0  0
   -4.7350   42.5210    2.7380 O   0  0  0  0  0
   -6.7180   41.2080    2.4590 C   0  0  0  0  0
   -5.0650   40.7130    4.2850 C   0  0  0  0  0
   -5.4560   39.6220    4.6620 O   0  0  0  0  0
   -4.4610   41.5610    5.1010 N   0  0  0  0  0
   -4.0520   41.2630    6.3720 C   0  0  0  0  0
   -4.0290   39.9800    6.9500 C   0  0  0  0  0
   -3.5560   39.8390    8.2760 C   0  0  0  0  0
   -3.5630   42.4100    7.1950 C   0  0  0  0  0
   -3.6280   44.0430    6.4730 Cl  0  0  0  0  0
   -3.1110   42.2210    8.5090 C   0  0  0  0  0
   -3.0900   40.9230    9.0560 C   0  0  0  0  0
   -2.5880   40.7410   10.6140 S   0  0  0  0  0
   -1.8160   39.5570   10.8740 O   0  0  0  0  0
   -1.7850   41.8860   10.9640 O   0  0  0  0  0
   -3.9490   40.7310   11.4200 C   0  0  0  0  0
   -4.4990   41.9290   11.8930 C   0  0  0  0  0
   -5.7020   41.9280   12.5980 C   0  0  0  0  0
   -4.5890   39.5250   11.6030 C   0  0  0  0  0
   -5.7940   39.5050   12.2910 C   0  0  0  0  0
   -6.3500   40.7020   12.7880 C   0  0  0  0  0
   -7.6650   40.5970   13.5370 C   0  0  0  0  0
   -7.7350   39.6930   14.3860 O   0  0  0  0  0
   -8.7020   41.4370   13.2660 N   0  0  0  0  0
   -8.8390   42.2310   12.0440 C   0  0  0  0  0
   -9.8320   41.6260   14.1860 C   0  0  0  0  0
   -3.8063   42.5277    2.9810 H   0  0  0  0  0
   -7.1431   40.2092    2.5576 H   0  0  0  0  0
   -7.2514   41.8975    3.1133 H   0  0  0  0  0
   -6.8085   41.5424    1.4255 H   0  0  0  0  0
   -4.2876   42.5057    4.7576 H   0  0  0  0  0
   -4.3692   39.1111    6.3866 H   0  0  0  0  0
   -3.5504   38.8433    8.7195 H   0  0  0  0  0
   -2.7783   43.0723    9.1028 H   0  0  0  0  0
   -3.9820   42.8707   11.7084 H   0  0  0  0  0
   -6.1247   42.8534   12.9891 H   0  0  0  0  0
   -4.1567   38.6029   11.2144 H   0  0  0  0  0
   -6.3133   38.5596   12.4480 H   0  0  0  0  0
   -7.9874   42.9052   11.9529 H   0  0  0  0  0
   -8.8710   41.5654   11.1814 H   0  0  0  0  0
   -9.7603   42.8116   12.0909 H   0  0  0  0  0
  -10.3349   40.6717   14.3426 H   0  0  0  0  0
   -9.4633   42.0047   15.1393 H   0  0  0  0  0
  -10.5331   42.3413   13.7561 H   0  0  0  0  0
  1  2  1  0  0  0
  2  3  1  0  0  0
  2  4  1  0  0  0
  2  5  1  0  0  0
  5  6  1  0  0  0
  5  7  1  0  0  0
  5  8  1  0  0  0
  8  9  2  0  0  0
  8 10  1  0  0  0
 10 11  1  0  0  0
 11 12  4  0  0  0
 11 14  4  0  0  0
 12 13  4  0  0  0
 13 17  4  0  0  0
 14 15  1  0  0  0
 14 16  4  0  0  0
 16 17  4  0  0  0
 17 18  1  0  0  0
 18 19  2  0  0  0
 18 20  2  0  0  0
 18 21  1  0  0  0
 21 22  4  0  0  0
 21 24  4  0  0  0
 22 23  4  0  0  0
 23 26  4  0  0  0
 24 25  4  0  0  0
 25 26  4  0  0  0
 26 27  1  0  0  0
 27 28  2  0  0  0
 27 29  1  0  0  0
 29 30  1  0  0  0
 29 31  1  0  0  0
  6 32  1  0  0  0
  7 33  1  0  0  0
  7 34  1  0  0  0
  7 35  1  0  0  0
 10 36  1  0  0  0
 12 37  1  0  0  0
 13 38  1  0  0  0
 16 39  1  0  0  0
 22 40  1  0  0  0
 23 41  1  0  0  0
 24 42  1  0  0  0
 25 43  1  0  0  0
 30 44  1  0  0  0
 30 45  1  0  0  0
 30 46  1  0  0  0
 31 47  1  0  0  0
 31 48  1  0  0  0
 31 49  1  0  0  0
M  END
$$$$
