4li7_ligand
  -I-interpret- 

 55 57  0  0  0  0  0  0  0  0999 V2000
  -24.9610   -6.9050    7.5170 C   0  0  0  0  0
  -26.2280   -7.4830    7.1220 C   0  0  0  0  0
  -23.8440   -7.8140    7.9080 C   0  0  0  0  0
  -24.7290   -5.4210    7.5440 C   0  0  0  0  0
  -26.3650   -8.9360    7.1080 C   0  0  0  0  0
  -27.2490   -6.5920    6.7680 O   0  0  0  0  0
  -24.0010   -9.2280    7.8920 C   0  0  0  0  0
  -25.7640   -4.5980    7.4400 N   0  0  0  0  0
  -23.5870   -4.9710    7.6590 O   0  0  0  0  0
  -25.2780   -9.7940    7.4830 C   0  0  0  0  0
  -28.6470   -6.9030    6.8880 C   0  0  0  0  0
  -22.8920  -10.1090    8.2750 C   0  0  0  0  0
  -25.6920   -3.1330    7.4450 C   0  0  0  0  0
  -25.5410  -11.5200    7.4350 Cl  0  0  0  0  0
  -22.0570  -10.8550    8.5620 N   0  0  0  0  0
  -26.1980   -2.5100    8.7800 C   0  0  0  0  0
  -25.3010   -2.6430    9.9590 N   0  3  0  0  0
  -25.9270   -1.9010   11.0760 C   0  0  0  0  0
  -23.9460   -2.1020    9.7180 C   0  0  0  0  0
  -25.1010   -1.9070   12.3730 C   0  0  0  0  0
  -23.0140   -2.1650   10.9940 C   0  0  0  0  0
  -23.7230   -1.3080   12.0980 C   0  0  0  0  0
  -22.8600   -1.2180   13.4010 C   0  0  0  0  0
  -22.0350    0.0630   13.5950 C   0  0  0  0  0
  -22.9070   -2.0930   14.2700 O   0  0  0  0  0
  -21.3210    0.3390   14.8490 C   0  0  0  0  0
  -21.9690    1.0280   12.5270 C   0  0  0  0  0
  -20.5940    1.5630   14.9570 C   0  0  0  0  0
  -21.2300    2.2460   12.6640 C   0  0  0  0  0
  -20.5490    2.5200   13.8690 C   0  0  0  0  0
  -19.8630    3.6920   13.9700 F   0  0  0  0  0
  -22.8887   -7.3861    8.2119 H   0  0  0  0  0
  -27.3140   -9.3790    6.8060 H   0  0  0  0  0
  -26.6883   -5.0196    7.3488 H   0  0  0  0  0
  -28.8783   -7.7734    6.2740 H   0  0  0  0  0
  -28.8816   -7.1193    7.9302 H   0  0  0  0  0
  -29.2376   -6.0514    6.5504 H   0  0  0  0  0
  -26.3292   -2.7641    6.6412 H   0  0  0  0  0
  -24.6473   -2.8491    7.3183 H   0  0  0  0  0
  -27.1120   -3.0464    9.0351 H   0  0  0  0  0
  -26.2954   -1.4402    8.5951 H   0  0  0  0  0
  -25.1872   -3.6350   10.1673 H   0  0  0  0  0
  -26.8767   -2.3888   11.2957 H   0  0  0  0  0
  -26.0239   -0.8624   10.7596 H   0  0  0  0  0
  -24.0536   -1.0538    9.4390 H   0  0  0  0  0
  -23.4820   -2.7080    8.9398 H   0  0  0  0  0
  -24.9888   -2.9311   12.7290 H   0  0  0  0  0
  -25.6110   -1.3146   13.1326 H   0  0  0  0  0
  -22.0199   -1.7760   10.7734 H   0  0  0  0  0
  -22.8725   -3.1935   11.3262 H   0  0  0  0  0
  -23.8409   -0.2850   11.7407 H   0  0  0  0  0
  -21.3457   -0.3718   15.6750 H   0  0  0  0  0
  -22.4939    0.8258   11.5934 H   0  0  0  0  0
  -20.0593    1.7835   15.8809 H   0  0  0  0  0
  -21.1934    2.9592   11.8406 H   0  0  0  0  0
  1  2  4  0  0  0
  1  3  4  0  0  0
  1  4  1  0  0  0
  2  5  4  0  0  0
  2  6  1  0  0  0
  3  7  4  0  0  0
  4  8  1  0  0  0
  4  9  2  0  0  0
  5 10  4  0  0  0
  6 11  1  0  0  0
  7 10  4  0  0  0
  7 12  1  0  0  0
  8 13  1  0  0  0
 10 14  1  0  0  0
 12 15  3  0  0  0
 13 16  1  0  0  0
 16 17  1  0  0  0
 17 18  1  0  0  0
 17 19  1  0  0  0
 18 20  1  0  0  0
 19 21  1  0  0  0
 20 22  1  0  0  0
 21 22  1  0  0  0
 22 23  1  0  0  0
 23 24  1  0  0  0
 23 25  2  0  0  0
 24 26  4  0  0  0
 24 27  4  0  0  0
 26 28  4  0  0  0
 27 29  4  0  0  0
 28 30  4  0  0  0
 29 30  4  0  0  0
 30 31  1  0  0  0
  3 32  1  0  0  0
  5 33  1  0  0  0
  8 34  1  0  0  0
 11 35  1  0  0  0
 11 36  1  0  0  0
 11 37  1  0  0  0
 13 38  1  0  0  0
 13 39  1  0  0  0
 16 40  1  0  0  0
 16 41  1  0  0  0
 17 42  1  0  0  0
 18 43  1  0  0  0
 18 44  1  0  0  0
 19 45  1  0  0  0
 19 46  1  0  0  0
 20 47  1  0  0  0
 20 48  1  0  0  0
 21 49  1  0  0  0
 21 50  1  0  0  0
 22 51  1  0  0  0
 26 52  1  0  0  0
 27 53  1  0  0  0
 28 54  1  0  0  0
 29 55  1  0  0  0
M  END
$$$$
