5yof_ligand
  -I-interpret- 

 52 51  0  0  0  0  0  0  0  0999 V2000
  -14.0540   16.8280  -13.3990 N   0  0  0  0  0
  -12.6110   16.5660  -13.3680 C   0  0  0  0  0
  -16.0080   18.2030  -13.8130 C   0  0  0  0  0
  -14.4880   18.0080  -13.8330 C   0  0  0  0  0
  -10.7150   14.9730  -16.2680 C   0  0  0  0  0
   -9.3450   14.4430  -15.8200 C   0  0  0  0  0
  -10.6280   15.6960  -17.6200 C   0  0  0  0  0
  -12.0410   16.0240  -18.1260 C   0  0  0  0  0
  -12.7780   14.7310  -18.4840 C   0  0  0  0  0
  -14.8240   15.3810  -19.7180 C   0  0  0  0  0
  -12.2560   15.5580  -14.4650 C   0  0  0  0  0
  -12.9410   14.5550  -14.6530 O   0  0  0  0  0
  -11.1860   15.8690  -15.2060 N   0  0  0  0  0
  -14.2200   15.0000  -18.5870 N   0  0  0  0  0
  -16.1470   15.6080  -19.7270 N   0  0  0  0  0
  -14.1050   15.5390  -20.8410 N   0  0  0  0  0
  -13.7310   18.8860  -14.2420 O   0  0  0  0  0
   -9.2660   13.8140  -14.7470 O   0  0  0  0  0
  -12.2020   16.0940  -11.9550 C   0  0  0  0  0
  -11.9800   17.3480  -11.0920 C   0  0  0  0  0
  -11.9940   17.0280   -9.5950 C   0  0  0  0  0
  -11.7000   18.3060   -8.8020 C   0  0  0  0  0
  -11.8080   18.0490   -7.3520 N   0  3  0  0  0
  -14.7156   16.1150  -13.0919 H   0  0  0  0  0
  -12.0466   17.4756  -13.5733 H   0  0  0  0  0
  -16.2552   19.0571  -13.1825 H   0  0  0  0  0
  -16.3632   18.3839  -14.8275 H   0  0  0  0  0
  -16.4829   17.3063  -13.4149 H   0  0  0  0  0
  -11.4153   14.1514  -16.4188 H   0  0  0  0  0
   -8.4577   14.6139  -16.4295 H   0  0  0  0  0
  -10.1270   15.0513  -18.3421 H   0  0  0  0  0
  -10.0647   16.6212  -17.4985 H   0  0  0  0  0
  -11.9687   16.6543  -19.0123 H   0  0  0  0  0
  -12.5911   16.5471  -17.3438 H   0  0  0  0  0
  -12.6022   13.9862  -17.7078 H   0  0  0  0  0
  -12.4097   14.3557  -19.4388 H   0  0  0  0  0
  -10.6901   16.7427  -15.0297 H   0  0  0  0  0
  -14.7915   14.8899  -17.7493 H   0  0  0  0  0
  -16.6905   15.4899  -18.8720 H   0  0  0  0  0
  -14.5640   15.8321  -21.7034 H   0  0  0  0  0
  -13.0998   15.3659  -20.8316 H   0  0  0  0  0
  -11.2903   15.4985  -12.0021 H   0  0  0  0  0
  -12.9824   15.4680  -11.5224 H   0  0  0  0  0
  -12.7891   18.0490  -11.2970 H   0  0  0  0  0
  -11.0036   17.7634  -11.3414 H   0  0  0  0  0
  -11.2339   16.2785   -9.3747 H   0  0  0  0  0
  -12.9732   16.6407   -9.3135 H   0  0  0  0  0
  -12.4239   19.0715   -9.0816 H   0  0  0  0  0
  -10.6873   18.6392   -9.0288 H   0  0  0  0  0
  -11.6096   18.9085   -6.8399 H   0  0  0  0  0
  -12.7525   17.7319   -7.1335 H   0  0  0  0  0
  -11.1362   17.3296   -7.0845 H   0  0  0  0  0
  2  1  1  0  0  0
  1  4  1  0  0  0
 11  2  1  0  0  0
  2 19  1  0  0  0
  4  3  1  0  0  0
  4 17  2  0  0  0
  5  6  1  0  0  0
  5  7  1  0  0  0
 13  5  1  0  0  0
  6 18  2  0  0  0
  7  8  1  0  0  0
  8  9  1  0  0  0
  9 14  1  0  0  0
 14 10  1  0  0  0
 10 15  2  0  0  0
 10 16  1  0  0  0
 11 12  2  0  0  0
 11 13  1  0  0  0
 19 20  1  0  0  0
 20 21  1  0  0  0
 21 22  1  0  0  0
 22 23  1  0  0  0
  1 24  1  0  0  0
  2 25  1  0  0  0
  3 26  1  0  0  0
  3 27  1  0  0  0
  3 28  1  0  0  0
  5 29  1  0  0  0
  6 30  1  0  0  0
  7 31  1  0  0  0
  7 32  1  0  0  0
  8 33  1  0  0  0
  8 34  1  0  0  0
  9 35  1  0  0  0
  9 36  1  0  0  0
 13 37  1  0  0  0
 14 38  1  0  0  0
 15 39  1  0  0  0
 16 40  1  0  0  0
 16 41  1  0  0  0
 19 42  1  0  0  0
 19 43  1  0  0  0
 20 44  1  0  0  0
 20 45  1  0  0  0
 21 46  1  0  0  0
 21 47  1  0  0  0
 22 48  1  0  0  0
 22 49  1  0  0  0
 23 50  1  0  0  0
 23 51  1  0  0  0
 23 52  1  0  0  0
M  END
$$$$
