6ayd_ligand
  -I-interpret- 

 34 37  0  0  0  0  0  0  0  0999 V2000
  -15.6920  -33.9570   -3.9670 C   0  0  0  0  0
  -15.9810  -35.2740   -4.2960 C   0  0  0  0  0
  -16.8970  -35.9940   -3.5330 C   0  0  0  0  0
  -17.5690  -35.3930   -2.4520 C   0  0  0  0  0
  -17.2640  -34.0740   -2.1120 C   0  0  0  0  0
  -16.3300  -33.3640   -2.8690 C   0  0  0  0  0
  -18.5350  -36.2230   -1.6540 C   0  0  0  0  0
  -18.5960  -36.0560   -0.2480 C   0  0  0  0  0
  -21.2520  -38.8030    0.4130 C   0  0  0  0  0
  -14.7660  -33.2720   -4.7190 O   0  0  0  0  0
  -19.4630  -36.8330    0.5300 C   0  0  0  0  0
  -20.2730  -37.8250   -0.0650 C   0  0  0  0  0
  -21.6630  -39.0220    1.7790 N   0  0  0  0  0
  -20.6800  -39.0650    2.8310 C   0  0  0  0  0
  -19.4950  -38.9260    2.6120 O   0  0  0  0  0
  -20.9850  -39.3040    4.2570 C   0  0  0  0  0
  -20.9260  -38.8950    5.5800 C   0  0  0  0  0
  -21.3140  -40.2020    5.2340 C   0  0  0  0  0
  -21.6810  -39.4670   -0.6600 N   0  0  0  0  0
  -21.0880  -39.0250   -1.7470 N   0  0  0  0  0
  -20.2170  -38.0180   -1.4540 C   0  0  0  0  0
  -19.3480  -37.2150   -2.2450 C   0  0  0  0  0
  -15.4922  -35.7437   -5.1495 H   0  0  0  0  0
  -17.0963  -37.0376   -3.7764 H   0  0  0  0  0
  -17.7523  -33.6008   -1.2601 H   0  0  0  0  0
  -16.0937  -32.3339   -2.6022 H   0  0  0  0  0
  -17.9600  -35.3134    0.2338 H   0  0  0  0  0
  -14.6723  -32.3806   -4.3750 H   0  0  0  0  0
  -19.5132  -36.6704    1.6066 H   0  0  0  0  0
  -22.6510  -39.1465    1.9998 H   0  0  0  0  0
  -20.7270  -38.1298    6.3303 H   0  0  0  0  0
  -21.0761  -41.2276    5.5161 H   0  0  0  0  0
  -22.1149  -40.9051    5.4627 H   0  0  0  0  0
  -19.3094  -37.3680   -3.3235 H   0  0  0  0  0
  2  1  4  0  0  0
  6  1  4  0  0  0
  1 10  1  0  0  0
  3  2  4  0  0  0
  4  3  4  0  0  0
  4  5  4  0  0  0
  7  4  1  0  0  0
  5  6  4  0  0  0
  8  7  4  0  0  0
  7 22  4  0  0  0
 11  8  4  0  0  0
 12  9  4  0  0  0
  9 13  1  0  0  0
  9 19  4  0  0  0
 11 12  4  0  0  0
 12 21  4  0  0  0
 13 14  1  0  0  0
 14 15  2  0  0  0
 14 16  1  0  0  0
 16 17  2  0  0  0
 16 18  1  0  0  0
 17 18  1  0  0  0
 19 20  4  0  0  0
 20 21  4  0  0  0
 21 22  4  0  0  0
  2 23  1  0  0  0
  3 24  1  0  0  0
  5 25  1  0  0  0
  6 26  1  0  0  0
  8 27  1  0  0  0
 10 28  1  0  0  0
 11 29  1  0  0  0
 13 30  1  0  0  0
 17 31  1  0  0  0
 18 32  1  0  0  0
 18 33  1  0  0  0
 22 34  1  0  0  0
M  END
$$$$
