6ajr_ligand
  -I-interpret- 

 12 12  0  0  0  0  0  0  0  0999 V2000
   -9.6220   -6.3950   -5.2290 N   0  0  0  0  0
  -10.4090   -6.5120   -6.4710 C   0  0  0  0  0
  -11.4580   -5.9910   -6.6390 O   0  0  0  0  0
   -9.9260   -7.3080   -7.5840 N   0  0  0  0  0
   -8.6650   -7.9700   -7.5270 C   0  0  0  0  0
   -8.3440   -8.5890   -8.4770 O   0  0  0  0  0
   -7.8770   -7.8580   -6.2690 C   0  0  0  0  0
   -8.3510   -7.0800   -5.1630 C   0  0  0  0  0
   -9.9646   -5.8469   -4.4400 H   0  0  0  0  0
  -10.4996   -7.3954   -8.4229 H   0  0  0  0  0
   -6.9221   -8.3773   -6.1877 H   0  0  0  0  0
   -7.7451   -7.0038   -4.2601 H   0  0  0  0  0
  1  2  1  0  0  0
  1  8  1  0  0  0
  2  3  2  0  0  0
  2  4  1  0  0  0
  4  5  1  0  0  0
  5  6  2  0  0  0
  5  7  1  0  0  0
  7  8  2  0  0  0
  1  9  1  0  0  0
  4 10  1  0  0  0
  7 11  1  0  0  0
  8 12  1  0  0  0
M  END
$$$$
