5uiu_ligand
  -I-interpret- 

 46 48  0  0  0  0  0  0  0  0999 V2000
  -27.2530  -38.9220    4.7110 N   0  0  0  0  0
  -25.8130  -38.5840   13.6160 C   0  0  0  0  0
  -22.7650  -38.5620   10.7110 N   0  0  0  0  0
  -24.5340  -38.5470   12.7470 C   0  0  0  0  0
  -27.7690  -39.9200   12.8870 C   0  0  0  0  0
  -24.5980  -38.9610    9.1140 C   0  0  0  0  0
  -24.1810  -38.9080    6.7220 C   0  0  0  0  0
  -24.0480  -38.8010   10.4370 C   0  0  0  0  0
  -28.6540  -39.5880    8.2660 C   0  0  0  0  0
  -21.9150  -38.4800    9.6260 C   0  0  0  0  0
  -26.2900  -42.4750   13.8690 C   0  0  0  0  0
  -25.5930  -41.1680   13.5180 C   0  0  0  0  0
  -26.4980  -39.9700   13.7840 C   0  0  0  0  0
  -26.8570  -37.7230   13.0450 N   0  0  0  0  0
  -27.8980  -38.4390   12.4820 C   0  0  0  0  0
  -28.7930  -37.9620   11.8060 O   0  0  0  0  0
  -27.6770  -40.6580   11.7660 F   0  0  0  0  0
  -24.9490  -38.9200   11.4470 O   0  0  0  0  0
  -25.9590  -39.2210    8.8690 C   0  0  0  0  0
  -26.4030  -39.2880    7.5670 C   0  0  0  0  0
  -25.5160  -39.1050    6.4650 C   0  0  0  0  0
  -23.6970  -38.8310    8.0500 C   0  0  0  0  0
  -22.3200  -38.5970    8.3220 C   0  0  0  0  0
  -25.9270  -39.0840    5.0320 C   0  0  0  0  0
  -25.0910  -39.1630    4.1260 O   0  0  0  0  0
  -27.7000  -39.5330    7.2290 O   0  0  0  0  0
  -27.5381  -38.8682    3.7331 H   0  0  0  0  0
  -27.9523  -38.8555    5.4505 H   0  0  0  0  0
  -25.4391  -38.2600   14.5872 H   0  0  0  0  0
  -23.7703  -39.2229   13.1316 H   0  0  0  0  0
  -24.0766  -37.5576   12.7516 H   0  0  0  0  0
  -28.6185  -40.3234   13.4381 H   0  0  0  0  0
  -23.4834  -38.8094    5.8903 H   0  0  0  0  0
  -28.3865  -40.3828    8.9623 H   0  0  0  0  0
  -28.6725  -38.6335    8.7919 H   0  0  0  0  0
  -29.6378  -39.7901    7.8425 H   0  0  0  0  0
  -20.8555  -38.3117    9.8187 H   0  0  0  0  0
  -26.5586  -42.4698   14.9254 H   0  0  0  0  0
  -27.1909  -42.5786   13.2643 H   0  0  0  0  0
  -25.6178  -43.3092   13.6678 H   0  0  0  0  0
  -25.3395  -41.1833   12.4580 H   0  0  0  0  0
  -24.7005  -41.0733   14.1365 H   0  0  0  0  0
  -26.7623  -40.1374   14.8281 H   0  0  0  0  0
  -26.8184  -36.7039   13.0619 H   0  0  0  0  0
  -26.6519  -39.3673    9.6977 H   0  0  0  0  0
  -21.6003  -38.5123    7.5078 H   0  0  0  0  0
 24  1  1  0  0  0
  4  2  1  0  0  0
  2 13  1  0  0  0
  2 14  1  0  0  0
  8  3  4  0  0  0
  3 10  4  0  0  0
 18  4  1  0  0  0
 13  5  1  0  0  0
 15  5  1  0  0  0
  5 17  1  0  0  0
  6  8  4  0  0  0
 19  6  4  0  0  0
 22  6  4  0  0  0
 21  7  4  0  0  0
  7 22  4  0  0  0
  8 18  1  0  0  0
 26  9  1  0  0  0
 10 23  4  0  0  0
 12 11  1  0  0  0
 13 12  1  0  0  0
 14 15  1  0  0  0
 15 16  2  0  0  0
 20 19  4  0  0  0
 21 20  4  0  0  0
 20 26  1  0  0  0
 21 24  1  0  0  0
 22 23  4  0  0  0
 24 25  2  0  0  0
  1 27  1  0  0  0
  1 28  1  0  0  0
  2 29  1  0  0  0
  4 30  1  0  0  0
  4 31  1  0  0  0
  5 32  1  0  0  0
  7 33  1  0  0  0
  9 34  1  0  0  0
  9 35  1  0  0  0
  9 36  1  0  0  0
 10 37  1  0  0  0
 11 38  1  0  0  0
 11 39  1  0  0  0
 11 40  1  0  0  0
 12 41  1  0  0  0
 12 42  1  0  0  0
 13 43  1  0  0  0
 14 44  1  0  0  0
 19 45  1  0  0  0
 23 46  1  0  0  0
M  END
$$$$
