1o79_ligand
  -I-interpret- 

 65 68  0  0  0  0  0  0  0  0999 V2000
   61.7520   70.3400   59.1340 C   0  0  0  0  0
   60.7820   70.9170   60.2370 C   0  0  0  0  0
   61.5940   71.6910   61.3290 C   0  0  0  0  0
   62.5460   70.7590   62.0580 N   0  3  0  0  0
   63.0710   69.6150   61.2130 C   0  0  0  0  0
   63.1830   70.0230   59.7080 C   0  0  0  0  0
   62.0010   70.2320   63.3320 C   0  0  0  0  0
   62.9580   70.3870   64.5090 C   0  0  0  0  0
   63.0800   69.3500   65.4870 C   0  0  0  0  0
   63.9740   69.4960   66.5960 C   0  0  0  0  0
   64.7520   70.6900   66.7280 C   0  0  0  0  0
   64.6160   71.7070   65.7420 C   0  0  0  0  0
   63.7340   71.5600   64.6500 C   0  0  0  0  0
   65.7250   70.9580   67.8770 C   0  0  0  0  0
   65.0390   70.7730   69.2760 C   0  0  0  0  0
   66.0410   71.1580   70.3970 C   0  0  0  0  0
   67.3610   70.3230   70.3060 C   0  0  0  0  0
   68.0190   70.4790   68.9070 C   0  0  0  0  0
   67.0290   70.0880   67.7630 C   0  0  0  0  0
   68.3170   70.6110   71.4130 N   0  0  0  0  0
   68.7570   71.9310   71.6240 C   0  0  0  0  0
   69.6140   72.2890   72.6020 O   0  0  0  0  0
   70.0550   73.6240   72.7930 C   0  0  0  0  0
   71.2600   74.0710   72.1760 C   0  0  0  0  0
   71.7170   75.4060   72.3770 C   0  0  0  0  0
   70.9750   76.3010   73.1950 C   0  0  0  0  0
   69.7630   75.8640   73.8100 C   0  0  0  0  0
   69.3040   74.5260   73.6100 C   0  0  0  0  0
   68.7920   69.5240   72.2780 C   0  0  0  0  0
   68.3890   72.8750   70.9230 O   0  0  0  0  0
   71.5620   77.9300   73.4440 Cl  0  0  0  0  0
   61.8593   71.0902   58.3505 H   0  0  0  0  0
   61.3238   69.4108   58.7581 H   0  0  0  0  0
   60.2508   70.0907   60.7094 H   0  0  0  0  0
   60.0778   71.6030   59.7661 H   0  0  0  0  0
   60.8957   72.1140   62.0512 H   0  0  0  0  0
   62.1744   72.4758   60.8439 H   0  0  0  0  0
   63.3372   71.3649   62.2753 H   0  0  0  0  0
   62.3777   68.7778   61.2943 H   0  0  0  0  0
   64.0636   69.3452   61.5735 H   0  0  0  0  0
   63.8110   70.9096   59.6206 H   0  0  0  0  0
   63.6240   69.2014   59.1436 H   0  0  0  0  0
   61.8175   69.1663   63.1954 H   0  0  0  0  0
   61.0997   70.7995   63.5639 H   0  0  0  0  0
   62.4872   68.4408   65.3871 H   0  0  0  0  0
   64.0616   68.7011   67.3366 H   0  0  0  0  0
   65.2057   72.6192   65.8320 H   0  0  0  0  0
   63.6507   72.3564   63.9104 H   0  0  0  0  0
   66.0257   72.0024   67.7934 H   0  0  0  0  0
   64.7379   69.7326   69.3988 H   0  0  0  0  0
   64.1599   71.4145   69.3378 H   0  0  0  0  0
   65.5727   70.9557   71.3603 H   0  0  0  0  0
   66.2934   72.2124   70.2844 H   0  0  0  0  0
   67.0815   69.2770   70.4319 H   0  0  0  0  0
   68.8842   69.8180   68.8563 H   0  0  0  0  0
   68.3059   71.5222   68.7743 H   0  0  0  0  0
   67.5015   70.2670   66.7972 H   0  0  0  0  0
   66.7703   69.0329   67.8518 H   0  0  0  0  0
   71.8339   73.3893   71.5483 H   0  0  0  0  0
   72.6387   75.7419   71.9018 H   0  0  0  0  0
   69.1883   76.5506   74.4316 H   0  0  0  0  0
   68.3795   74.1920   74.0811 H   0  0  0  0  0
   67.9413   69.0619   72.7789 H   0  0  0  0  0
   69.3077   68.7786   71.6726 H   0  0  0  0  0
   69.4784   69.9274   73.0225 H   0  0  0  0  0
  1  2  1  0  0  0
  1  6  1  0  0  0
  2  3  1  0  0  0
  3  4  1  0  0  0
  4  5  1  0  0  0
  4  7  1  0  0  0
  5  6  1  0  0  0
  7  8  1  0  0  0
  8  9  4  0  0  0
  8 13  4  0  0  0
  9 10  4  0  0  0
 10 11  4  0  0  0
 11 12  4  0  0  0
 11 14  1  0  0  0
 12 13  4  0  0  0
 14 15  1  0  0  0
 14 19  1  0  0  0
 15 16  1  0  0  0
 16 17  1  0  0  0
 17 18  1  0  0  0
 17 20  1  0  0  0
 18 19  1  0  0  0
 20 21  1  0  0  0
 20 29  1  0  0  0
 21 22  1  0  0  0
 21 30  2  0  0  0
 22 23  1  0  0  0
 23 24  4  0  0  0
 23 28  4  0  0  0
 24 25  4  0  0  0
 25 26  4  0  0  0
 26 27  4  0  0  0
 26 31  1  0  0  0
 27 28  4  0  0  0
  1 32  1  0  0  0
  1 33  1  0  0  0
  2 34  1  0  0  0
  2 35  1  0  0  0
  3 36  1  0  0  0
  3 37  1  0  0  0
  4 38  1  0  0  0
  5 39  1  0  0  0
  5 40  1  0  0  0
  6 41  1  0  0  0
  6 42  1  0  0  0
  7 43  1  0  0  0
  7 44  1  0  0  0
  9 45  1  0  0  0
 10 46  1  0  0  0
 12 47  1  0  0  0
 13 48  1  0  0  0
 14 49  1  0  0  0
 15 50  1  0  0  0
 15 51  1  0  0  0
 16 52  1  0  0  0
 16 53  1  0  0  0
 17 54  1  0  0  0
 18 55  1  0  0  0
 18 56  1  0  0  0
 19 57  1  0  0  0
 19 58  1  0  0  0
 24 59  1  0  0  0
 25 60  1  0  0  0
 27 61  1  0  0  0
 28 62  1  0  0  0
 29 63  1  0  0  0
 29 64  1  0  0  0
 29 65  1  0  0  0
M  END
$$$$
