2k2g_ligand
  -I-interpret- 

 41 43  0  0  0  0  0  0  0  0999 V2000
   69.3230   23.2640   16.7340 C   0  0  0  0  0
   68.4190   22.2460   16.3550 C   0  0  0  0  0
   67.1160   22.6210   15.9560 C   0  0  0  0  0
   66.7200   23.9590   15.8970 C   0  0  0  0  0
   67.6000   24.9650   16.3320 C   0  0  0  0  0
   68.8840   24.6070   16.8170 C   0  0  0  0  0
   65.8060   21.5250   15.4810 S   0  0  0  0  0
   64.7350   22.8870   15.0960 C   0  0  0  0  0
   65.3480   24.1150   15.3480 C   0  0  0  0  0
   63.4180   22.7990   14.5930 C   0  0  0  0  0
   62.7070   23.9960   14.3380 C   0  0  0  0  0
   63.3730   25.2400   14.4680 C   0  0  0  0  0
   64.6540   25.3060   15.0740 C   0  0  0  0  0
   71.0060   22.8590   17.0960 S   0  0  0  0  0
   71.2880   21.5260   16.6560 O   0  0  0  0  0
   71.3020   23.2410   18.4450 O   0  0  0  0  0
   72.0020   23.8790   16.0980 N   0  0  0  0  0
   73.2690   24.3620   16.6330 C   0  0  0  0  0
   74.3090   23.2230   16.6930 C   0  0  0  0  0
   75.5630   23.6110   17.4840 C   0  0  0  0  0
   74.7100   22.7500   15.2820 C   0  0  0  0  0
   73.7870   25.5470   15.7930 C   0  0  0  0  0
   74.9000   25.6340   15.3700 O   0  0  0  0  0
   72.8260   26.4800   15.5940 O   0  0  0  0  0
   68.7190   21.1982   16.3700 H   0  0  0  0  0
   67.2982   26.0118   16.2969 H   0  0  0  0  0
   69.5327   25.3663   17.2537 H   0  0  0  0  0
   62.9584   21.8287   14.4050 H   0  0  0  0  0
   61.6578   23.9613   14.0446 H   0  0  0  0  0
   62.8990   26.1502   14.1008 H   0  0  0  0  0
   65.0955   26.2706   15.3246 H   0  0  0  0  0
   71.7047   24.1341   15.1562 H   0  0  0  0  0
   73.1050   24.7131   17.6518 H   0  0  0  0  0
   73.8231   22.4014   17.2193 H   0  0  0  0  0
   76.0361   24.4726   17.0128 H   0  0  0  0  0
   75.2824   23.8631   18.5067 H   0  0  0  0  0
   76.2592   22.7724   17.4931 H   0  0  0  0  0
   73.8268   22.3846   14.7580 H   0  0  0  0  0
   75.1424   23.5843   14.7297 H   0  0  0  0  0
   75.4434   21.9478   15.3639 H   0  0  0  0  0
   72.0149   26.1991   16.0240 H   0  0  0  0  0
  1  2  4  0  0  0
  1  6  4  0  0  0
  1 14  1  0  0  0
  2  3  4  0  0  0
  3  4  4  0  0  0
  3  7  4  0  0  0
  4  5  4  0  0  0
  4  9  4  0  0  0
  5  6  4  0  0  0
  7  8  4  0  0  0
  8  9  4  0  0  0
  8 10  4  0  0  0
  9 13  4  0  0  0
 10 11  4  0  0  0
 11 12  4  0  0  0
 12 13  4  0  0  0
 14 15  2  0  0  0
 14 16  2  0  0  0
 14 17  1  0  0  0
 17 18  1  0  0  0
 18 19  1  0  0  0
 18 22  1  0  0  0
 19 20  1  0  0  0
 19 21  1  0  0  0
 22 23  2  0  0  0
 22 24  1  0  0  0
  2 25  1  0  0  0
  5 26  1  0  0  0
  6 27  1  0  0  0
 10 28  1  0  0  0
 11 29  1  0  0  0
 12 30  1  0  0  0
 13 31  1  0  0  0
 17 32  1  0  0  0
 18 33  1  0  0  0
 19 34  1  0  0  0
 20 35  1  0  0  0
 20 36  1  0  0  0
 20 37  1  0  0  0
 21 38  1  0  0  0
 21 39  1  0  0  0
 21 40  1  0  0  0
 24 41  1  0  0  0
M  END
$$$$
