### 
### Created by X-TOOL on Mon Sep 10 21:13:10 2018
### 

@<TRIPOS>MOLECULE
4dpt_ligand
   28    27     1     0     0
SMALL
GAST_HUCK


@<TRIPOS>ATOM
      1 OAA         4.1010   18.7850   21.5170 O.co2     1 FM0        -0.5689
      2 OAB        12.1100   18.1940   22.2060 O.co2     1 FM0        -0.5891
      3 OAC         8.7630   17.5150   21.1060 O.co2     1 FM0        -0.5556
      4 OAD         3.9930   19.2690   23.6470 O.co2     1 FM0        -0.5689
      5 OAE         4.4570   20.6900   19.7330 O.3       1 FM0        -0.3842
      6 OAF        12.9150   19.6540   20.4200 O.co2     1 FM0        -0.5891
      7 OAG        11.7990   17.5660   19.8360 O.co2     1 FM0        -0.5891
      8 OAH         9.6400   18.2250   18.9370 O.co2     1 FM0        -0.5556
      9 FAI         4.7360   23.3690   19.3160 F         1 FM0        -0.2460
     10 CAJ         4.2810   22.8180   20.4380 C.3       1 FM0         0.1204
     11 CAK         7.1300   20.2010   21.0520 C.3       1 FM0         0.0872
     12 CAL         6.3580   21.4970   20.8110 C.3       1 FM0         0.0087
     13 CAM         4.2940   21.1120   22.1520 C.3       1 FM0         0.0316
     14 OAN         7.9350   19.7080   20.0380 O.3       1 FM0        -0.2462
     15 OAO        10.4250   19.4130   20.8630 O.3       1 FM0        -0.1548
     16 CAP         4.1190   19.6480   22.4550 C.2       1 FM0         0.0376
     17 CAQ         4.8480   21.5000   20.7870 C.3       1 FM0         0.1077
     18 PAR        11.8210   18.7090   20.8290 P.3       1 FM0         0.2069
     19 PAS         9.1590   18.7130   20.2750 P.3       1 FM0         0.3275
     20 H           4.7860   19.7996   19.8760 H         1 FM0         0.2104
     21 H           3.2121   22.6627   20.2916 H         1 FM0         0.0645
     22 H           4.5585   23.4947   21.2462 H         1 FM0         0.0645
     23 H           6.3650   19.4392   21.2022 H         1 FM0         0.0622
     24 H           7.8125   20.4259   21.8716 H         1 FM0         0.0622
     25 H           6.6420   21.7935   19.8013 H         1 FM0         0.0321
     26 H           6.6130   22.1230   21.6661 H         1 FM0         0.0321
     27 H           5.0278   21.4705   22.8739 H         1 FM0         0.0459
     28 H           3.2905   21.5361   22.1874 H         1 FM0         0.0459
@<TRIPOS>BOND
     1   16    1 ar 
     2   18    2 ar 
     3   19    3 ar 
     4   16    4 ar 
     5   17    5 1  
     6   18    6 ar 
     7   18    7 ar 
     8   19    8 ar 
     9   10    9 1  
    10   17   10 1  
    11   11   12 1  
    12   14   11 1  
    13   12   17 1  
    14   13   16 1  
    15   17   13 1  
    16   19   14 1  
    17   15   18 1  
    18   15   19 1  
    19    5   20 1  
    20   10   21 1  
    21   10   22 1  
    22   11   23 1  
    23   11   24 1  
    24   12   25 1  
    25   12   26 1  
    26   13   27 1  
    27   13   28 1  
@<TRIPOS>SUBSTRUCTURE
     1 FM0         1

