5mhp_ligand
  -I-interpret- 

 76 81  0  0  0  0  0  0  0  0999 V2000
   96.9960    5.9520   34.7140 C   0  0  0  0  0
   95.9630    5.0920   35.4190 C   0  0  0  0  0
   95.4360    5.7130   36.6010 O   0  0  0  0  0
   97.0660    4.0960   35.7170 C   0  0  0  0  0
   98.0620    4.9840   35.0710 N   0  0  0  0  0
   99.3900    4.9250   34.8890 C   0  0  0  0  0
  100.0920    3.9950   35.2840 O   0  0  0  0  0
  100.0100    6.1080   34.1420 C   0  0  0  0  0
  100.6130    5.6430   32.8830 N   0  3  0  0  0
  101.4920    6.6810   32.3360 C   0  0  0  0  0
  102.3390    6.0720   31.2340 C   0  0  0  0  0
   99.5770    5.3850   31.8730 C   0  0  0  0  0
  100.1690    4.8250   30.5870 C   0  0  0  0  0
  101.4960    5.3850   30.2260 N   0  0  0  0  0
  101.9960    5.1560   28.9990 C   0  0  0  0  0
  101.3200    4.3650   28.0750 C   0  0  0  0  0
  101.9110    4.1760   26.8220 N   0  0  0  0  0
  103.2170    5.7030   28.6110 C   0  0  0  0  0
  103.7370    5.4650   27.3410 C   0  0  0  0  0
  104.9580    6.0280   26.9870 C   0  0  0  0  0
  103.0780    4.7070   26.4670 C   0  0  0  0  0
  103.3530    4.3350   25.2180 N   0  0  0  0  0
  102.3430    3.5720   24.8130 C   0  0  0  0  0
  102.2550    2.9280   23.4300 C   0  0  0  0  0
  101.4640    3.8410   22.4910 C   0  0  0  0  0
  101.4520    3.4670   25.7930 C   0  0  0  0  0
  100.2970    2.8050   25.8170 N   0  0  0  0  0
   99.0410    3.5590   25.6830 C   0  0  0  0  0
  100.2640    1.4850   25.9840 C   0  0  0  0  0
   99.1580    0.7380   26.0230 N   0  0  0  0  0
  101.6170    0.4550   26.1820 S   0  0  0  0  0
  100.6430   -0.9460   26.3130 C   0  0  0  0  0
  101.1420   -2.2740   26.5080 C   0  0  0  0  0
  101.5380   -3.3310   26.6630 N   0  0  0  0  0
   99.3640   -0.5760   26.2010 C   0  0  0  0  0
   98.3380   -1.4250   26.2580 C   0  0  0  0  0
   97.1670   -1.0370   26.9010 C   0  0  0  0  0
   96.0850   -1.9060   26.9700 C   0  0  0  0  0
   96.1680   -3.1690   26.3950 C   0  0  0  0  0
   95.1080   -4.0200   26.4630 F   0  0  0  0  0
   97.3360   -3.5590   25.7520 C   0  0  0  0  0
   98.4190   -2.6890   25.6820 C   0  0  0  0  0
   97.1043    7.0014   34.9883 H   0  0  0  0  0
   96.8463    6.2315   33.6711 H   0  0  0  0  0
   95.0394    4.7885   34.9262 H   0  0  0  0  0
   94.7441    6.3313   36.3549 H   0  0  0  0  0
   96.9659    3.0636   35.3821 H   0  0  0  0  0
   97.2270    3.7593   36.7411 H   0  0  0  0  0
  100.7810    6.5625   34.7642 H   0  0  0  0  0
   99.2339    6.8406   33.9205 H   0  0  0  0  0
  101.1315    4.7891   33.0890 H   0  0  0  0  0
  102.1358    7.0731   33.1234 H   0  0  0  0  0
  100.8934    7.4981   31.9335 H   0  0  0  0  0
  103.0145    5.3411   31.6785 H   0  0  0  0  0
  102.8916    6.8705   30.7389 H   0  0  0  0  0
   99.0824    6.3281   31.6405 H   0  0  0  0  0
   98.8794    4.6515   32.2771 H   0  0  0  0  0
   99.4830    5.0839   29.7805 H   0  0  0  0  0
  100.3047    3.7540   30.7378 H   0  0  0  0  0
  100.3613    3.9078   28.3200 H   0  0  0  0  0
  103.7733    6.3261   29.3112 H   0  0  0  0  0
  104.8882    7.1139   27.0512 H   0  0  0  0  0
  105.7318    5.6715   27.6669 H   0  0  0  0  0
  105.2079    5.7384   25.9663 H   0  0  0  0  0
  101.7512    1.9647   23.5094 H   0  0  0  0  0
  103.2595    2.7815   23.0331 H   0  0  0  0  0
  100.4598    3.9869   22.8889 H   0  0  0  0  0
  101.9685    4.8040   22.4124 H   0  0  0  0  0
  101.4022    3.3802   21.5051 H   0  0  0  0  0
   98.9620    4.2785   26.4979 H   0  0  0  0  0
   99.0353    4.0864   24.7291 H   0  0  0  0  0
   98.1983    2.8688   25.7230 H   0  0  0  0  0
   97.0980   -0.0473   27.3525 H   0  0  0  0  0
   95.1701   -1.5971   27.4755 H   0  0  0  0  0
   97.4039   -4.5491   25.3013 H   0  0  0  0  0
   99.3330   -2.9980   25.1749 H   0  0  0  0  0
  1  2  1  0  0  0
  1  5  1  0  0  0
  2  3  1  0  0  0
  2  4  1  0  0  0
  4  5  1  0  0  0
  5  6  1  0  0  0
  6  7  2  0  0  0
  6  8  1  0  0  0
  8  9  1  0  0  0
  9 10  1  0  0  0
  9 12  1  0  0  0
 10 11  1  0  0  0
 11 14  1  0  0  0
 12 13  1  0  0  0
 13 14  1  0  0  0
 14 15  1  0  0  0
 15 16  4  0  0  0
 15 18  4  0  0  0
 16 17  4  0  0  0
 17 21  4  0  0  0
 17 26  4  0  0  0
 18 19  4  0  0  0
 19 20  1  0  0  0
 19 21  4  0  0  0
 21 22  4  0  0  0
 22 23  4  0  0  0
 23 24  1  0  0  0
 23 26  4  0  0  0
 24 25  1  0  0  0
 26 27  1  0  0  0
 27 28  1  0  0  0
 27 29  1  0  0  0
 29 30  4  0  0  0
 29 31  4  0  0  0
 30 35  4  0  0  0
 31 32  4  0  0  0
 32 33  1  0  0  0
 32 35  4  0  0  0
 33 34  3  0  0  0
 35 36  1  0  0  0
 36 37  4  0  0  0
 36 42  4  0  0  0
 37 38  4  0  0  0
 38 39  4  0  0  0
 39 40  1  0  0  0
 39 41  4  0  0  0
 41 42  4  0  0  0
  1 43  1  0  0  0
  1 44  1  0  0  0
  2 45  1  0  0  0
  3 46  1  0  0  0
  4 47  1  0  0  0
  4 48  1  0  0  0
  8 49  1  0  0  0
  8 50  1  0  0  0
  9 51  1  0  0  0
 10 52  1  0  0  0
 10 53  1  0  0  0
 11 54  1  0  0  0
 11 55  1  0  0  0
 12 56  1  0  0  0
 12 57  1  0  0  0
 13 58  1  0  0  0
 13 59  1  0  0  0
 16 60  1  0  0  0
 18 61  1  0  0  0
 20 62  1  0  0  0
 20 63  1  0  0  0
 20 64  1  0  0  0
 24 65  1  0  0  0
 24 66  1  0  0  0
 25 67  1  0  0  0
 25 68  1  0  0  0
 25 69  1  0  0  0
 28 70  1  0  0  0
 28 71  1  0  0  0
 28 72  1  0  0  0
 37 73  1  0  0  0
 38 74  1  0  0  0
 41 75  1  0  0  0
 42 76  1  0  0  0
M  END
$$$$
