5j6m_ligand
  -I-interpret- 

 48 51  0  0  0  0  0  0  0  0999 V2000
   -0.2450   37.5320   24.4310 C   0  0  0  0  0
   -0.6040   32.5710   26.0520 C   0  0  0  0  0
   -1.8910   32.8650   25.5700 C   0  0  0  0  0
    0.5380   33.0390   25.3730 C   0  0  0  0  0
   -0.9880   34.9110   22.4970 C   0  0  0  0  0
   -0.7570   36.6650   21.1770 C   0  0  0  0  0
    0.3630   36.8340   23.3830 C   0  0  0  0  0
    1.9340   38.0720   25.3320 C   0  0  0  0  0
    1.9350   32.7150   25.7370 C   0  0  0  0  0
    4.4650   30.8890   24.2020 C   0  0  0  0  0
    5.1130   29.7610   23.8380 C   0  0  0  0  0
   -2.0170   33.5910   24.3750 C   0  0  0  0  0
   -0.8720   34.0690   23.7060 C   0  0  0  0  0
    0.4040   33.7270   24.1670 C   0  0  0  0  0
   -1.6350   34.6270   21.4050 N   0  0  0  0  0
   -0.4210   36.1750   22.3920 N   0  0  0  0  0
   -3.2440   33.8880   23.8630 O   0  0  0  0  0
   -0.4130   31.8990   27.2020 O   0  0  0  0  0
   -1.4900   35.7160   20.5320 N   0  0  0  0  0
   -0.4300   37.7690   20.7510 O   0  0  0  0  0
    1.7590   36.7530   23.3260 C   0  0  0  0  0
    2.5520   37.3580   24.3040 C   0  0  0  0  0
    2.4490   31.4970   25.3730 N   0  0  0  0  0
    2.6340   33.6030   26.2250 O   0  0  0  0  0
    3.8760   31.1810   25.5660 C   0  0  0  0  0
    0.5420   38.1440   25.4060 C   0  0  0  0  0
    1.6170   30.4140   24.8290 C   0  0  0  0  0
    4.3670   31.7010   23.1420 O   0  0  0  0  0
    4.9890   31.1090   22.0890 C   0  0  0  0  0
    5.4690   29.9080   22.4670 C   0  0  0  0  0
    2.3160   36.0750   22.3020 F   0  0  0  0  0
   -1.3316   37.5976   24.4857 H   0  0  0  0  0
   -2.7758   32.5351   26.1144 H   0  0  0  0  0
    2.5427   38.5768   26.0822 H   0  0  0  0  0
    5.3236   28.9009   24.4735 H   0  0  0  0  0
    1.2872   33.9963   23.5878 H   0  0  0  0  0
   -3.1379   34.3851   23.0486 H   0  0  0  0  0
    0.5286   31.7976   27.3595 H   0  0  0  0  0
   -1.8655   35.7843   19.5861 H   0  0  0  0  0
    3.6380   37.2737   24.2649 H   0  0  0  0  0
    4.3927   32.0194   26.0332 H   0  0  0  0  0
    3.9904   30.3192   26.2234 H   0  0  0  0  0
    0.0687   38.6803   26.2285 H   0  0  0  0  0
    0.8553   30.1409   25.5593 H   0  0  0  0  0
    1.1371   30.7525   23.9108 H   0  0  0  0  0
    2.2439   29.5484   24.6150 H   0  0  0  0  0
    5.0849   31.5393   21.0921 H   0  0  0  0  0
    6.0170   29.1956   21.8503 H   0  0  0  0  0
  7  1  4  0  0  0
  1 26  4  0  0  0
  2  3  4  0  0  0
  4  2  4  0  0  0
  2 18  1  0  0  0
  3 12  4  0  0  0
  9  4  1  0  0  0
  4 14  4  0  0  0
 13  5  1  0  0  0
  5 15  2  0  0  0
  5 16  1  0  0  0
 16  6  1  0  0  0
  6 19  1  0  0  0
  6 20  2  0  0  0
 16  7  1  0  0  0
  7 21  4  0  0  0
 22  8  4  0  0  0
 26  8  4  0  0  0
 23  9  1  0  0  0
  9 24  2  0  0  0
 10 11  4  0  0  0
 25 10  1  0  0  0
 10 28  4  0  0  0
 11 30  4  0  0  0
 13 12  4  0  0  0
 12 17  1  0  0  0
 14 13  4  0  0  0
 15 19  1  0  0  0
 21 22  4  0  0  0
 21 31  1  0  0  0
 23 25  1  0  0  0
 23 27  1  0  0  0
 28 29  4  0  0  0
 29 30  4  0  0  0
  1 32  1  0  0  0
  3 33  1  0  0  0
  8 34  1  0  0  0
 11 35  1  0  0  0
 14 36  1  0  0  0
 17 37  1  0  0  0
 18 38  1  0  0  0
 19 39  1  0  0  0
 22 40  1  0  0  0
 25 41  1  0  0  0
 25 42  1  0  0  0
 26 43  1  0  0  0
 27 44  1  0  0  0
 27 45  1  0  0  0
 27 46  1  0  0  0
 29 47  1  0  0  0
 30 48  1  0  0  0
M  END
$$$$
