### 
### Created by X-TOOL on Wed Jan  1 15:39:38 2020
### 

@<TRIPOS>MOLECULE
6ggn_ligand
   65    69     1     0     0
SMALL
GAST_HUCK


@<TRIPOS>ATOM
      1 C1        -11.5860  -10.7630   -0.8490 C.2       1 EYH         0.1389
      2 C12        -7.9550  -10.6120   -0.8600 C.3       1 EYH         0.1575
      3 C14        -7.1750  -11.9440   -0.9800 C.ar      1 EYH         0.0052
      4 C15        -6.3480   -9.7380    0.9320 C.ar      1 EYH         0.0756
      5 C16        -6.0180  -12.0570   -1.7820 C.ar      1 EYH        -0.0383
      6 C17        -5.3310  -13.2830   -1.8380 C.ar      1 EYH        -0.0527
      7 C18        -5.7700  -14.3900   -1.0990 C.ar      1 EYH         0.0267
      8 C19        -6.9110  -14.2840   -0.2990 C.ar      1 EYH        -0.0610
      9 C20        -7.6010  -13.0630   -0.2340 C.ar      1 EYH        -0.0611
     10 C21        -5.9010   -8.4010    0.7400 C.ar      1 EYH        -0.0234
     11 C22        -4.6090   -8.0140    1.1240 C.ar      1 EYH        -0.0731
     12 C23        -3.7450   -8.9450    1.7000 C.ar      1 EYH        -0.0701
     13 C24        -4.1820  -10.2620    1.8880 C.ar      1 EYH         0.0195
     14 C25        -5.4730  -10.6710    1.5090 C.ar      1 EYH        -0.0333
     15 C26        -6.7870   -7.3130    0.1090 C.3       1 EYH        -0.0349
     16 C29        -5.4540  -10.9010   -2.6300 C.3       1 EYH        -0.0332
     17 C30       -13.8660   -9.8210   -1.5420 C.ar      1 EYH         0.0203
     18 N2        -11.2760  -10.2590    0.2640 N.2       1 EYH        -0.3205
     19 N3        -10.5100  -11.0140   -1.5600 N.pl3     1 EYH        -0.2284
     20 C4        -10.5220  -11.5930   -2.9170 C.3       1 EYH         0.0648
     21 C5         -9.7150  -10.8720   -4.0390 C.3       1 EYH        -0.0345
     22 C6        -10.1530  -13.1020   -2.8610 C.3       1 EYH        -0.0345
     23 C7        -13.0590  -10.9140   -1.1700 C.ar      1 EYH         0.0943
     24 C8         -9.4630  -10.6630   -0.8270 C.2       1 EYH         0.1253
     25 C9         -9.8620  -10.1690    0.3440 C.2       1 EYH         0.0987
     26 C10        -8.7770   -9.7600    1.2120 C.2       1 EYH         0.2164
     27 N11        -7.6760  -10.0440    0.4920 N.am      1 EYH        -0.1987
     28 O13        -8.8820   -9.2880    2.3260 O.2       1 EYH        -0.3929
     29 CL2        -3.0700  -11.3890    2.6080 Cl        1 EYH        -0.0810
     30 CL3        -4.8940  -15.9080   -1.1720 Cl        1 EYH        -0.0786
     31 N31       -15.1680   -9.9660   -1.8410 N.ar      1 EYH        -0.2556
     32 C32       -15.7450  -11.1830   -1.8090 C.ar      1 EYH         0.2360
     33 N33       -15.0020  -12.2680   -1.4700 N.ar      1 EYH        -0.2142
     34 C34       -13.6840  -12.1720   -1.1610 C.ar      1 EYH         0.1864
     35 O35       -12.9490  -13.3150   -0.8070 O.3       1 EYH        -0.2924
     36 C36       -13.3680  -14.6170   -1.2320 C.3       1 EYH         0.0671
     37 O37       -17.1000  -11.3100   -2.1240 O.3       1 EYH        -0.2826
     38 C38       -17.5420  -12.5770   -2.6310 C.3       1 EYH         0.0681
     39 H1         -7.6231   -9.9414   -1.6664 H         1 EYH         0.0984
     40 H2         -4.4491  -13.3730   -2.4619 H         1 EYH         0.0543
     41 H3         -7.2611  -15.1391    0.2678 H         1 EYH         0.0549
     42 H4         -8.4760  -12.9787    0.4002 H         1 EYH         0.0544
     43 H5         -4.2819   -6.9916    0.9732 H         1 EYH         0.0514
     44 H6         -2.7451   -8.6520    1.9992 H         1 EYH         0.0476
     45 H7         -5.7890  -11.6967    1.6611 H         1 EYH         0.0485
     46 H8         -7.7677   -7.7411   -0.1460 H         1 EYH         0.0363
     47 H9         -6.3052   -6.9312   -0.8032 H         1 EYH         0.0363
     48 H10        -6.9217   -6.4889    0.8250 H         1 EYH         0.0363
     49 H11        -6.0812  -10.0075   -2.4952 H         1 EYH         0.0377
     50 H12        -5.4527  -11.1913   -3.6910 H         1 EYH         0.0377
     51 H13        -4.4255  -10.6788   -2.3093 H         1 EYH         0.0377
     52 H14       -13.4231   -8.8327   -1.5885 H         1 EYH         0.0874
     53 H15       -11.5715  -11.5380   -3.2417 H         1 EYH         0.0648
     54 H16        -9.8256  -11.4251   -4.9834 H         1 EYH         0.0259
     55 H17        -8.6519  -10.8334   -3.7591 H         1 EYH         0.0259
     56 H18       -10.0980   -9.8488   -4.1664 H         1 EYH         0.0259
     57 H19       -10.1657  -13.5205   -3.8782 H         1 EYH         0.0259
     58 H20       -10.8843  -13.6354   -2.2359 H         1 EYH         0.0259
     59 H21        -9.1479  -13.2179   -2.4294 H         1 EYH         0.0259
     60 H22       -12.6625  -15.3711   -0.8530 H         1 EYH         0.0592
     61 H23       -13.3895  -14.6547   -2.3311 H         1 EYH         0.0592
     62 H24       -14.3738  -14.8253   -0.8382 H         1 EYH         0.0592
     63 H25       -18.6222  -12.5339   -2.8345 H         1 EYH         0.0591
     64 H26       -17.3403  -13.3607   -1.8859 H         1 EYH         0.0591
     65 H27       -17.0026  -12.8080   -3.5614 H         1 EYH         0.0591
@<TRIPOS>BOND
     1    1   18 2  
     2   19    1 1  
     3    1   23 1  
     4    2    3 1  
     5   24    2 1  
     6    2   27 1  
     7    3    5 ar 
     8    3    9 ar 
     9    4   10 ar 
    10    4   14 ar 
    11   27    4 1  
    12    5    6 ar 
    13    5   16 1  
    14    6    7 ar 
    15    8    7 ar 
    16    7   30 1  
    17    9    8 ar 
    18   10   11 ar 
    19   10   15 1  
    20   11   12 ar 
    21   13   12 ar 
    22   14   13 ar 
    23   13   29 1  
    24   23   17 ar 
    25   17   31 ar 
    26   18   25 1  
    27   19   20 1  
    28   19   24 1  
    29   20   21 1  
    30   20   22 1  
    31   23   34 ar 
    32   24   25 2  
    33   25   26 1  
    34   26   27 am 
    35   26   28 2  
    36   31   32 ar 
    37   32   33 ar 
    38   32   37 1  
    39   33   34 ar 
    40   34   35 1  
    41   35   36 1  
    42   37   38 1  
    43    2   39 1  
    44    6   40 1  
    45    8   41 1  
    46    9   42 1  
    47   11   43 1  
    48   12   44 1  
    49   14   45 1  
    50   15   46 1  
    51   15   47 1  
    52   15   48 1  
    53   16   49 1  
    54   16   50 1  
    55   16   51 1  
    56   17   52 1  
    57   20   53 1  
    58   21   54 1  
    59   21   55 1  
    60   21   56 1  
    61   22   57 1  
    62   22   58 1  
    63   22   59 1  
    64   36   60 1  
    65   36   61 1  
    66   36   62 1  
    67   38   63 1  
    68   38   64 1  
    69   38   65 1  
@<TRIPOS>SUBSTRUCTURE
     1 EYH         1

