6ggn_ligand
  -I-interpret- 

 65 69  0  0  0  0  0  0  0  0999 V2000
  -11.5860  -10.7630   -0.8490 C   0  0  0  0  0
   -7.9550  -10.6120   -0.8600 C   0  0  0  0  0
   -7.1750  -11.9440   -0.9800 C   0  0  0  0  0
   -6.3480   -9.7380    0.9320 C   0  0  0  0  0
   -6.0180  -12.0570   -1.7820 C   0  0  0  0  0
   -5.3310  -13.2830   -1.8380 C   0  0  0  0  0
   -5.7700  -14.3900   -1.0990 C   0  0  0  0  0
   -6.9110  -14.2840   -0.2990 C   0  0  0  0  0
   -7.6010  -13.0630   -0.2340 C   0  0  0  0  0
   -5.9010   -8.4010    0.7400 C   0  0  0  0  0
   -4.6090   -8.0140    1.1240 C   0  0  0  0  0
   -3.7450   -8.9450    1.7000 C   0  0  0  0  0
   -4.1820  -10.2620    1.8880 C   0  0  0  0  0
   -5.4730  -10.6710    1.5090 C   0  0  0  0  0
   -6.7870   -7.3130    0.1090 C   0  0  0  0  0
   -5.4540  -10.9010   -2.6300 C   0  0  0  0  0
  -13.8660   -9.8210   -1.5420 C   0  0  0  0  0
  -11.2760  -10.2590    0.2640 N   0  0  0  0  0
  -10.5100  -11.0140   -1.5600 N   0  0  0  0  0
  -10.5220  -11.5930   -2.9170 C   0  0  0  0  0
   -9.7150  -10.8720   -4.0390 C   0  0  0  0  0
  -10.1530  -13.1020   -2.8610 C   0  0  0  0  0
  -13.0590  -10.9140   -1.1700 C   0  0  0  0  0
   -9.4630  -10.6630   -0.8270 C   0  0  0  0  0
   -9.8620  -10.1690    0.3440 C   0  0  0  0  0
   -8.7770   -9.7600    1.2120 C   0  0  0  0  0
   -7.6760  -10.0440    0.4920 N   0  0  0  0  0
   -8.8820   -9.2880    2.3260 O   0  0  0  0  0
   -3.0700  -11.3890    2.6080 Cl  0  0  0  0  0
   -4.8940  -15.9080   -1.1720 Cl  0  0  0  0  0
  -15.1680   -9.9660   -1.8410 N   0  0  0  0  0
  -15.7450  -11.1830   -1.8090 C   0  0  0  0  0
  -15.0020  -12.2680   -1.4700 N   0  0  0  0  0
  -13.6840  -12.1720   -1.1610 C   0  0  0  0  0
  -12.9490  -13.3150   -0.8070 O   0  0  0  0  0
  -13.3680  -14.6170   -1.2320 C   0  0  0  0  0
  -17.1000  -11.3100   -2.1240 O   0  0  0  0  0
  -17.5420  -12.5770   -2.6310 C   0  0  0  0  0
   -7.6317  -10.0737   -1.7509 H   0  0  0  0  0
   -4.4442  -13.3735   -2.4653 H   0  0  0  0  0
   -7.2630  -15.1439    0.2709 H   0  0  0  0  0
   -8.4809  -12.9782    0.4038 H   0  0  0  0  0
   -4.2801   -6.9859    0.9724 H   0  0  0  0  0
   -2.7396   -8.6504    2.0008 H   0  0  0  0  0
   -5.7908  -11.7024    1.6619 H   0  0  0  0  0
   -7.0701   -7.6162   -0.8990 H   0  0  0  0  0
   -7.6832   -7.1795    0.7149 H   0  0  0  0  0
   -6.2332   -6.3752    0.0656 H   0  0  0  0  0
   -6.2041  -10.5840   -3.3545 H   0  0  0  0  0
   -5.1998  -10.0648   -1.9787 H   0  0  0  0  0
   -4.5605  -11.2393   -3.1546 H   0  0  0  0  0
  -13.4207   -8.8272   -1.5887 H   0  0  0  0  0
  -11.5526  -11.4366   -3.2357 H   0  0  0  0  0
  -10.0954   -9.8583   -4.1642 H   0  0  0  0  0
   -8.6619  -10.8344   -3.7604 H   0  0  0  0  0
   -9.8254  -11.4210   -4.9742 H   0  0  0  0  0
   -9.1569  -13.2155   -2.4331 H   0  0  0  0  0
  -10.8783  -13.6293   -2.2413 H   0  0  0  0  0
  -10.1659  -13.5156   -3.8694 H   0  0  0  0  0
  -14.3647  -14.8221   -0.8412 H   0  0  0  0  0
  -13.3889  -14.6530   -2.3212 H   0  0  0  0  0
  -12.6682  -15.3633   -0.8559 H   0  0  0  0  0
  -17.0068  -12.8048   -3.5528 H   0  0  0  0  0
  -17.3415  -13.3526   -1.8919 H   0  0  0  0  0
  -18.6124  -12.5330   -2.8322 H   0  0  0  0  0
  1 18  4  0  0  0
 19  1  4  0  0  0
  1 23  1  0  0  0
  2  3  1  0  0  0
 24  2  1  0  0  0
  2 27  1  0  0  0
  3  5  4  0  0  0
  3  9  4  0  0  0
  4 10  4  0  0  0
  4 14  4  0  0  0
 27  4  1  0  0  0
  5  6  4  0  0  0
  5 16  1  0  0  0
  6  7  4  0  0  0
  8  7  4  0  0  0
  7 30  1  0  0  0
  9  8  4  0  0  0
 10 11  4  0  0  0
 10 15  1  0  0  0
 11 12  4  0  0  0
 13 12  4  0  0  0
 14 13  4  0  0  0
 13 29  1  0  0  0
 23 17  4  0  0  0
 17 31  4  0  0  0
 18 25  4  0  0  0
 19 20  1  0  0  0
 19 24  4  0  0  0
 20 21  1  0  0  0
 20 22  1  0  0  0
 23 34  4  0  0  0
 24 25  4  0  0  0
 25 26  1  0  0  0
 26 27  1  0  0  0
 26 28  2  0  0  0
 31 32  4  0  0  0
 32 33  4  0  0  0
 32 37  1  0  0  0
 33 34  4  0  0  0
 34 35  1  0  0  0
 35 36  1  0  0  0
 37 38  1  0  0  0
  2 39  1  0  0  0
  6 40  1  0  0  0
  8 41  1  0  0  0
  9 42  1  0  0  0
 11 43  1  0  0  0
 12 44  1  0  0  0
 14 45  1  0  0  0
 15 46  1  0  0  0
 15 47  1  0  0  0
 15 48  1  0  0  0
 16 49  1  0  0  0
 16 50  1  0  0  0
 16 51  1  0  0  0
 17 52  1  0  0  0
 20 53  1  0  0  0
 21 54  1  0  0  0
 21 55  1  0  0  0
 21 56  1  0  0  0
 22 57  1  0  0  0
 22 58  1  0  0  0
 22 59  1  0  0  0
 36 60  1  0  0  0
 36 61  1  0  0  0
 36 62  1  0  0  0
 38 63  1  0  0  0
 38 64  1  0  0  0
 38 65  1  0  0  0
M  END
$$$$
