1q3d_ligand
  -I-interpret- 

 62 69  0  0  0  0  0  0  0  0999 V2000
   37.4110   11.3740   33.2760 C   0  0  0  0  0
   36.4690   11.9420   32.4000 C   0  0  0  0  0
   36.2810   11.4040   31.0730 C   0  0  0  0  0
   37.0320   10.3000   30.6100 C   0  0  0  0  0
   38.0110    9.6980   31.4950 C   0  0  0  0  0
   38.8810    8.5890   31.3470 N   0  0  0  0  0
   39.5630    8.4540   32.5410 C   0  0  0  0  0
   40.5000    7.4290   32.9490 C   0  0  0  0  0
   41.0170    6.3890   32.2050 N   0  0  0  0  0
   41.8630    5.6530   33.0380 C   0  0  0  0  0
   42.6520    4.4930   32.6490 C   0  0  0  0  0
   43.4490    3.9950   33.7140 C   0  0  0  0  0
   43.4700    4.5600   35.0160 C   0  0  0  0  0
   42.6940    5.6880   35.3840 C   0  0  0  0  0
   41.8700    6.2410   34.3300 C   0  0  0  0  0
   41.0080    7.3750   34.2620 C   0  0  0  0  0
   40.5750    8.3860   35.1900 C   0  0  0  0  0
   40.9550    8.6580   36.5920 C   0  0  0  0  0
   40.1490    9.6710   37.0110 N   0  0  0  0  0
   39.3860   10.2770   35.9720 C   0  0  0  0  0
   39.6690    9.3810   34.7880 C   0  0  0  0  0
   39.1580    9.4250   33.4730 C   0  0  0  0  0
   38.1890   10.2330   32.8200 C   0  0  0  0  0
   39.0100    7.6130   30.1950 C   0  0  0  0  0
   38.0210    6.3510   30.3680 C   0  0  0  0  0
   38.5770    4.9940   29.7840 C   0  0  0  0  0
   39.9570    4.7650   30.4360 C   0  0  0  0  0
   40.7830    6.0300   30.8000 C   0  0  0  0  0
   40.4260    7.2110   30.1210 O   0  0  0  0  0
   41.8680    8.0920   37.2510 O   0  0  0  0  0
   37.5720    3.9090   29.9630 N   0  3  0  0  0
   36.4640    3.8880   28.9580 C   0  0  0  0  0
   37.9400    6.1060   31.8040 O   0  0  0  0  0
   36.6650    6.3720   32.4410 C   0  0  0  0  0
   38.8300    8.2060   28.7750 C   0  0  0  0  0
   37.5552   11.7808   34.2769 H   0  0  0  0  0
   35.8753   12.7962   32.7255 H   0  0  0  0  0
   35.5428   11.8600   30.4133 H   0  0  0  0  0
   36.8782    9.9075   29.6048 H   0  0  0  0  0
   42.6332    4.0552   31.6510 H   0  0  0  0  0
   44.0813    3.1285   33.5202 H   0  0  0  0  0
   44.1135    4.1049   35.7689 H   0  0  0  0  0
   42.7162    6.1090   36.3892 H   0  0  0  0  0
   40.0958    9.9704   37.9846 H   0  0  0  0  0
   39.6597   11.3169   35.7939 H   0  0  0  0  0
   38.3243   10.3469   36.2088 H   0  0  0  0  0
   37.0941    6.6006   29.8516 H   0  0  0  0  0
   38.7338    5.0141   28.7055 H   0  0  0  0  0
   40.5494    4.2247   29.6975 H   0  0  0  0  0
   39.7599    4.2562   31.3796 H   0  0  0  0  0
   41.7274    5.6240   30.4376 H   0  0  0  0  0
   37.1370    4.0623   30.8728 H   0  0  0  0  0
   38.0743    3.0271   29.8610 H   0  0  0  0  0
   35.9149    4.8285   29.0047 H   0  0  0  0  0
   36.8829    3.7595   27.9599 H   0  0  0  0  0
   35.7897    3.0608   29.1797 H   0  0  0  0  0
   36.4042    7.4215   32.3047 H   0  0  0  0  0
   35.8969    5.7439   31.9899 H   0  0  0  0  0
   36.7388    6.1499   33.5056 H   0  0  0  0  0
   39.0707    7.4457   28.0320 H   0  0  0  0  0
   37.7968    8.5282   28.6455 H   0  0  0  0  0
   39.4963    9.0598   28.6521 H   0  0  0  0  0
  1  2  4  0  0  0
  1 23  4  0  0  0
  2  3  4  0  0  0
  3  4  4  0  0  0
  4  5  4  0  0  0
  5  6  4  0  0  0
  5 23  4  0  0  0
  6  7  4  0  0  0
  6 24  1  0  0  0
  7  8  4  0  0  0
  7 22  4  0  0  0
  8  9  4  0  0  0
  8 16  4  0  0  0
  9 10  4  0  0  0
  9 28  1  0  0  0
 10 11  4  0  0  0
 10 15  4  0  0  0
 11 12  4  0  0  0
 12 13  4  0  0  0
 13 14  4  0  0  0
 14 15  4  0  0  0
 15 16  4  0  0  0
 16 17  4  0  0  0
 17 18  1  0  0  0
 17 21  4  0  0  0
 18 19  1  0  0  0
 18 30  2  0  0  0
 19 20  1  0  0  0
 20 21  1  0  0  0
 21 22  4  0  0  0
 22 23  4  0  0  0
 24 25  1  0  0  0
 24 29  1  0  0  0
 24 35  1  0  0  0
 25 26  1  0  0  0
 25 33  1  0  0  0
 26 27  1  0  0  0
 26 31  1  0  0  0
 27 28  1  0  0  0
 28 29  1  0  0  0
 31 32  1  0  0  0
 33 34  1  0  0  0
  1 36  1  0  0  0
  2 37  1  0  0  0
  3 38  1  0  0  0
  4 39  1  0  0  0
 11 40  1  0  0  0
 12 41  1  0  0  0
 13 42  1  0  0  0
 14 43  1  0  0  0
 19 44  1  0  0  0
 20 45  1  0  0  0
 20 46  1  0  0  0
 25 47  1  0  0  0
 26 48  1  0  0  0
 27 49  1  0  0  0
 27 50  1  0  0  0
 28 51  1  0  0  0
 31 52  1  0  0  0
 31 53  1  0  0  0
 32 54  1  0  0  0
 32 55  1  0  0  0
 32 56  1  0  0  0
 34 57  1  0  0  0
 34 58  1  0  0  0
 34 59  1  0  0  0
 35 60  1  0  0  0
 35 61  1  0  0  0
 35 62  1  0  0  0
M  END
$$$$
