1owj_ligand
  -I-interpret- 

 53 56  0  0  0  0  0  0  0  0999 V2000
   16.9940   19.3640   33.9700 N   0  0  0  0  0
   18.3390   19.5220   33.8470 C   0  0  0  0  0
   18.8700   20.7450   34.0460 N   0  0  0  0  0
   19.2140   18.3740   33.5180 C   0  0  0  0  0
   20.5230   18.4320   34.0230 C   0  0  0  0  0
   21.4790   17.4170   33.7980 C   0  0  0  0  0
   22.8110   17.6010   34.2710 C   0  0  0  0  0
   23.8200   16.6450   33.9990 C   0  0  0  0  0
   23.5200   15.4740   33.2540 C   0  0  0  0  0
   22.1640   15.2740   32.7570 C   0  0  0  0  0
   21.1230   16.2440   33.0190 C   0  0  0  0  0
   19.7810   16.1780   32.5020 C   0  0  0  0  0
   18.8270   17.2240   32.7360 C   0  0  0  0  0
   24.6030   14.5240   33.1280 C   0  0  0  0  0
   25.6470   14.5040   33.7740 O   0  0  0  0  0
   24.3870   13.6500   32.2380 N   0  0  0  0  0
   25.4120   13.3340   31.4890 C   0  0  0  0  0
   26.2970   12.3250   31.8630 C   0  0  0  0  0
   27.1750   11.8500   30.8780 C   0  0  0  0  0
   27.2290   12.4480   29.5920 C   0  0  0  0  0
   26.4010   13.5300   29.2700 C   0  0  0  0  0
   25.4790   13.9600   30.2360 C   0  0  0  0  0
   28.1780   11.8880   28.5710 C   0  0  0  0  0
   28.3580   10.3340   28.6940 C   0  0  0  0  0
   28.5270    9.9480   30.0860 N   0  0  0  0  0
   27.9770   10.6620   31.1000 C   0  0  0  0  0
   28.1660   10.1520   32.4700 C   0  0  0  0  0
   29.5320   10.6490   32.9620 C   0  0  0  0  0
   27.8690    8.6460   32.3810 C   0  0  0  0  0
   16.4064   20.1628   34.2088 H   0  0  0  0  0
   16.5727   18.4467   33.8234 H   0  0  0  0  0
   19.8779   20.8819   33.9701 H   0  0  0  0  0
   20.8144   19.2994   34.6153 H   0  0  0  0  0
   23.0567   18.4908   34.8507 H   0  0  0  0  0
   24.8338   16.8093   34.3641 H   0  0  0  0  0
   21.9309   14.3797   32.1790 H   0  0  0  0  0
   19.4812   15.3090   31.9163 H   0  0  0  0  0
   17.8193   17.1509   32.3270 H   0  0  0  0  0
   23.4710   13.2191   32.1127 H   0  0  0  0  0
   26.3065   11.9227   32.8760 H   0  0  0  0  0
   26.4705   14.0224   28.3001 H   0  0  0  0  0
   24.8081   14.7889   30.0103 H   0  0  0  0  0
   29.1519   12.3502   28.7323 H   0  0  0  0  0
   27.7677   12.0989   27.5835 H   0  0  0  0  0
   29.2442   10.0353   28.1341 H   0  0  0  0  0
   27.4702    9.8426   28.2961 H   0  0  0  0  0
   27.4990   10.5151   33.2519 H   0  0  0  0  0
   30.3136   10.2712   32.3028 H   0  0  0  0  0
   29.5446   11.7389   32.9553 H   0  0  0  0  0
   29.7046   10.2886   33.9761 H   0  0  0  0  0
   26.8461    8.4986   32.0346 H   0  0  0  0  0
   28.5620    8.1811   31.6797 H   0  0  0  0  0
   27.9891    8.1945   33.3658 H   0  0  0  0  0
  1  2  1  0  0  0
  2  3  2  0  0  0
  2  4  1  0  0  0
  4  5  4  0  0  0
  4 13  4  0  0  0
  5  6  4  0  0  0
  6  7  4  0  0  0
  6 11  4  0  0  0
  7  8  4  0  0  0
  8  9  4  0  0  0
  9 10  4  0  0  0
  9 14  1  0  0  0
 10 11  4  0  0  0
 11 12  4  0  0  0
 12 13  4  0  0  0
 14 15  2  0  0  0
 14 16  1  0  0  0
 16 17  1  0  0  0
 17 18  4  0  0  0
 17 22  4  0  0  0
 18 19  4  0  0  0
 19 20  4  0  0  0
 19 26  1  0  0  0
 20 21  4  0  0  0
 20 23  1  0  0  0
 21 22  4  0  0  0
 23 24  1  0  0  0
 24 25  1  0  0  0
 25 26  2  0  0  0
 26 27  1  0  0  0
 27 28  1  0  0  0
 27 29  1  0  0  0
  1 30  1  0  0  0
  1 31  1  0  0  0
  3 32  1  0  0  0
  5 33  1  0  0  0
  7 34  1  0  0  0
  8 35  1  0  0  0
 10 36  1  0  0  0
 12 37  1  0  0  0
 13 38  1  0  0  0
 16 39  1  0  0  0
 18 40  1  0  0  0
 21 41  1  0  0  0
 22 42  1  0  0  0
 23 43  1  0  0  0
 23 44  1  0  0  0
 24 45  1  0  0  0
 24 46  1  0  0  0
 27 47  1  0  0  0
 28 48  1  0  0  0
 28 49  1  0  0  0
 28 50  1  0  0  0
 29 51  1  0  0  0
 29 52  1  0  0  0
 29 53  1  0  0  0
M  END
$$$$
