1g7f_ligand
  -I-interpret- 

 72 73  0  0  0  0  0  0  0  0999 V2000
   16.6310   16.9120   13.4640 C   0  0  0  0  0
   17.1120   17.6660   14.4430 O   0  0  0  0  0
   17.2430   16.1470   12.7730 O   0  0  0  0  0
   13.6200   16.8450   11.3700 C   0  0  0  0  0
   13.5290   16.6220    9.9840 C   0  0  0  0  0
   12.3420   16.7780    9.2870 C   0  0  0  0  0
   11.1940   17.1850    9.9980 C   0  0  0  0  0
   11.2680   17.4300   11.3780 C   0  0  0  0  0
   12.4780   17.2570   12.0860 C   0  0  0  0  0
   15.1150   17.1000   13.2920 C   0  0  0  0  0
    9.9130   17.3420    9.2260 C   0  0  0  0  0
    9.2290   18.7380    9.4000 C   0  0  0  0  0
   14.8490   16.6270   11.9350 O   0  0  0  0  0
   14.4610   16.2480   14.3920 C   0  0  0  0  0
   14.3100   16.6620   15.5300 O   0  0  0  0  0
   14.1010   15.0110   14.0240 O   0  0  0  0  0
    7.9790   18.6660    8.6490 N   0  0  0  0  0
   10.0600   19.8290    8.6770 C   0  0  0  0  0
    6.9170   19.3130    9.1300 C   0  0  0  0  0
   10.0390   19.7240    7.3360 N   0  0  0  0  0
   10.8760   20.4850    9.3260 O   0  0  0  0  0
   10.9840   20.3800    6.4460 C   0  0  0  0  0
   11.3500   19.4360    5.2790 C   0  0  0  0  0
   11.5130   17.9500    5.7330 C   0  0  0  0  0
   11.7960   17.0300    4.5220 C   0  0  0  0  0
   13.2900   16.7550    4.4290 C   0  0  0  0  0
    7.0490   20.2070   10.0260 O   0  0  0  0  0
    5.7550   19.0040    8.5570 N   0  0  0  0  0
    4.5540   19.7560    8.9600 C   0  0  0  0  0
    4.4420   21.0060    8.0080 C   0  0  0  0  0
    3.3390   18.8360    8.8500 C   0  0  0  0  0
    3.6810   17.5840    8.5010 O   0  0  0  0  0
    2.2300   19.1760    9.1390 O   0  0  0  0  0
    4.1860   20.5930    6.5620 C   0  0  0  0  0
    5.2330   20.1830    5.7240 C   0  0  0  0  0
    4.9830   19.7950    4.3870 C   0  0  0  0  0
    3.6800   19.8200    3.8940 C   0  0  0  0  0
    2.6250   20.2300    4.7190 C   0  0  0  0  0
    2.8770   20.6170    6.0510 C   0  0  0  0  0
   16.3997   18.1824   14.8272 H   0  0  0  0  0
   14.4227   16.3161    9.4401 H   0  0  0  0  0
   12.2964   16.5906    8.2142 H   0  0  0  0  0
   10.3768   17.7593   11.9123 H   0  0  0  0  0
   12.5273   17.4377   13.1598 H   0  0  0  0  0
   14.7307   18.1148   13.3946 H   0  0  0  0  0
    9.2163   16.5926    9.6017 H   0  0  0  0  0
   10.1578   17.2324    8.1695 H   0  0  0  0  0
    9.1154   18.9689   10.4592 H   0  0  0  0  0
   14.3026   14.8836   13.0941 H   0  0  0  0  0
    7.9198   18.1352    7.7800 H   0  0  0  0  0
    9.3117   19.1457    6.9153 H   0  0  0  0  0
   11.8872   20.6306    7.0024 H   0  0  0  0  0
   10.5308   21.2870    6.0460 H   0  0  0  0  0
   12.3038   19.7666    4.8679 H   0  0  0  0  0
   10.5407   19.4761    4.5500 H   0  0  0  0  0
   10.5882   17.6261    6.2104 H   0  0  0  0  0
   12.3521   17.8854    6.4257 H   0  0  0  0  0
   11.4600   17.5200    3.6082 H   0  0  0  0  0
   11.2614   16.0887    4.6491 H   0  0  0  0  0
   13.8243   17.6966    4.3024 H   0  0  0  0  0
   13.6256   16.2654    5.3432 H   0  0  0  0  0
   13.4863   16.1067    3.5750 H   0  0  0  0  0
    5.6981   18.2649    7.8564 H   0  0  0  0  0
    4.6094   20.1026    9.9919 H   0  0  0  0  0
    5.3840   21.5530    8.0472 H   0  0  0  0  0
    3.6054   21.6191    8.3432 H   0  0  0  0  0
    4.6220   17.5510    8.3137 H   0  0  0  0  0
    6.2529   20.1631    6.1080 H   0  0  0  0  0
    5.8054   19.4781    3.7456 H   0  0  0  0  0
    3.4815   19.5201    2.8650 H   0  0  0  0  0
    1.6069   20.2499    4.3303 H   0  0  0  0  0
    2.0522   20.9365    6.6879 H   0  0  0  0  0
  1 10  1  0  0  0
  1  3  2  0  0  0
  1  2  1  0  0  0
 10 14  1  0  0  0
 10 13  1  0  0  0
 13  4  1  0  0  0
  4  9  4  0  0  0
  4  5  4  0  0  0
  5  6  4  0  0  0
  6  7  4  0  0  0
  7 11  1  0  0  0
  7  8  4  0  0  0
  8  9  4  0  0  0
 11 12  1  0  0  0
 12 17  1  0  0  0
 12 18  1  0  0  0
 18 20  1  0  0  0
 18 21  2  0  0  0
 20 22  1  0  0  0
 22 23  1  0  0  0
 23 24  1  0  0  0
 24 25  1  0  0  0
 25 26  1  0  0  0
 17 19  1  0  0  0
 19 28  1  0  0  0
 19 27  2  0  0  0
 28 29  1  0  0  0
 29 31  1  0  0  0
 29 30  1  0  0  0
 30 34  1  0  0  0
 34 39  4  0  0  0
 34 35  4  0  0  0
 35 36  4  0  0  0
 36 37  4  0  0  0
 37 38  4  0  0  0
 38 39  4  0  0  0
 31 33  2  0  0  0
 31 32  1  0  0  0
 14 16  1  0  0  0
 14 15  2  0  0  0
  2 40  1  0  0  0
  5 41  1  0  0  0
  6 42  1  0  0  0
  8 43  1  0  0  0
  9 44  1  0  0  0
 10 45  1  0  0  0
 11 46  1  0  0  0
 11 47  1  0  0  0
 12 48  1  0  0  0
 16 49  1  0  0  0
 17 50  1  0  0  0
 20 51  1  0  0  0
 22 52  1  0  0  0
 22 53  1  0  0  0
 23 54  1  0  0  0
 23 55  1  0  0  0
 24 56  1  0  0  0
 24 57  1  0  0  0
 25 58  1  0  0  0
 25 59  1  0  0  0
 26 60  1  0  0  0
 26 61  1  0  0  0
 26 62  1  0  0  0
 28 63  1  0  0  0
 29 64  1  0  0  0
 30 65  1  0  0  0
 30 66  1  0  0  0
 32 67  1  0  0  0
 35 68  1  0  0  0
 36 69  1  0  0  0
 37 70  1  0  0  0
 38 71  1  0  0  0
 39 72  1  0  0  0
M  END
$$$$
