1tys_ligand
  -I-interpret- 

 36 37  0  0  0  0  0  0  0  0999 V2000
   31.2330  -13.9030   31.1510 P   0  0  0  0  0
   32.5300  -13.4540   31.6760 O   0  0  0  0  0
   31.2950  -14.2760   29.6830 O   0  0  0  0  0
   30.1550  -12.9350   31.3870 O   0  0  0  0  0
   30.8500  -15.2290   31.8560 O   0  0  0  0  0
   30.6320  -15.4000   33.3100 C   0  0  0  0  0
   29.3170  -16.1720   33.4410 C   0  0  0  0  0
   29.2020  -16.6020   34.8250 O   0  0  0  0  0
   28.0490  -15.3470   33.1710 C   0  0  0  0  0
   27.0060  -16.2800   32.9330 O   0  0  0  0  0
   27.7970  -14.6490   34.5100 C   0  0  0  0  0
   28.4440  -15.5990   35.5210 C   0  0  0  0  0
   28.6700  -15.3910   36.9470 N   0  0  0  0  0
   27.6420  -15.0620   37.8160 C   0  0  0  0  0
   26.4700  -14.9020   37.4600 O   0  0  0  0  0
   28.0510  -14.8930   39.1300 N   0  0  0  0  0
   29.3570  -15.0120   39.6000 C   0  0  0  0  0
   29.6300  -14.7940   40.7770 O   0  0  0  0  0
   30.3580  -15.3550   38.6210 C   0  0  0  0  0
   31.7710  -15.4700   39.0080 C   0  0  0  0  0
   29.9500  -15.5310   37.3060 C   0  0  0  0  0
   33.1956  -14.1217   31.4952 H   0  0  0  0  0
   32.0036  -14.9087   29.5444 H   0  0  0  0  0
   30.5823  -14.4386   33.8212 H   0  0  0  0  0
   31.4577  -15.9375   33.7762 H   0  0  0  0  0
   29.3653  -16.9708   32.7010 H   0  0  0  0  0
   28.1192  -14.6492   32.3366 H   0  0  0  0  0
   26.1889  -15.8072   32.7584 H   0  0  0  0  0
   26.7380  -14.4812   34.7060 H   0  0  0  0  0
   28.2159  -13.6434   34.5475 H   0  0  0  0  0
   27.5473  -15.8242   36.0983 H   0  0  0  0  0
   27.3309  -14.6607   39.8140 H   0  0  0  0  0
   32.1323  -16.4696   38.7665 H   0  0  0  0  0
   32.3569  -14.7292   38.4639 H   0  0  0  0  0
   31.8682  -15.2962   40.0797 H   0  0  0  0  0
   30.6903  -15.7893   36.5488 H   0  0  0  0  0
  1  2  1  0  0  0
  1  3  1  0  0  0
  1  4  2  0  0  0
  1  5  1  0  0  0
  5  6  1  0  0  0
  6  7  1  0  0  0
  7  8  1  0  0  0
  7  9  1  0  0  0
  8 12  1  0  0  0
  9 10  1  0  0  0
  9 11  1  0  0  0
 11 12  1  0  0  0
 12 13  1  0  0  0
 13 14  1  0  0  0
 13 21  1  0  0  0
 14 15  2  0  0  0
 14 16  1  0  0  0
 16 17  1  0  0  0
 17 18  2  0  0  0
 17 19  1  0  0  0
 19 20  1  0  0  0
 19 21  2  0  0  0
  2 22  1  0  0  0
  3 23  1  0  0  0
  6 24  1  0  0  0
  6 25  1  0  0  0
  7 26  1  0  0  0
  9 27  1  0  0  0
 10 28  1  0  0  0
 11 29  1  0  0  0
 11 30  1  0  0  0
 12 31  1  0  0  0
 16 32  1  0  0  0
 20 33  1  0  0  0
 20 34  1  0  0  0
 20 35  1  0  0  0
 21 36  1  0  0  0
M  END
$$$$
