4lh3_ligand
  -I-interpret- 

 17 16  0  0  0  0  0  0  0  0999 V2000
   19.9340   -0.9460   -0.1760 C   0  0  0  0  0
   19.7730    0.4910   -0.5790 C   0  0  0  0  0
   19.6380    0.6390   -2.0680 C   0  0  0  0  0
   19.2930    2.0570   -2.3970 C   0  0  0  0  0
   19.2420    2.2690   -3.8830 C   0  0  0  0  0
   20.5240   -1.7610   -0.9300 O   0  0  0  0  0
   19.4850   -1.3550    0.9290 O   0  0  0  0  0
   20.0880    1.7280   -4.6490 O   0  0  0  0  0
   18.3450    2.9980   -4.3860 O   0  0  0  0  0
   20.6591    1.0388   -0.2585 H   0  0  0  0  0
   18.8679    0.8792   -0.1119 H   0  0  0  0  0
   18.8492   -0.0208   -2.4294 H   0  0  0  0  0
   20.5802    0.3730   -2.5472 H   0  0  0  0  0
   20.0589    2.7092   -1.9773 H   0  0  0  0  0
   18.3127    2.2842   -1.9780 H   0  0  0  0  0
   19.0639   -0.6266    1.3914 H   0  0  0  0  0
   20.7032    1.2072   -4.1275 H   0  0  0  0  0
  1  2  1  0  0  0
  1  6  2  0  0  0
  1  7  1  0  0  0
  2  3  1  0  0  0
  3  4  1  0  0  0
  4  5  1  0  0  0
  5  8  1  0  0  0
  5  9  2  0  0  0
  2 10  1  0  0  0
  2 11  1  0  0  0
  3 12  1  0  0  0
  3 13  1  0  0  0
  4 14  1  0  0  0
  4 15  1  0  0  0
  7 16  1  0  0  0
  8 17  1  0  0  0
M  END
$$$$
