3gi6_ligand
  -I-interpret- 

 82 85  0  0  0  0  0  0  0  0999 V2000
   18.5300   33.2210   13.7050 O   0  0  0  0  0
   18.0010   32.3800   14.7540 S   0  0  0  0  0
   17.1750   31.3540   14.2090 O   0  0  0  0  0
   17.1370   33.2760   15.7910 C   0  0  0  0  0
   17.3800   34.6460   15.9350 C   0  0  0  0  0
   16.6490   35.4220   16.8430 C   0  0  0  0  0
   15.6580   34.8230   17.6420 C   0  0  0  0  0
   14.9130   35.5120   18.5650 O   0  0  0  0  0
   15.0930   36.9090   18.8420 C   0  0  0  0  0
   15.4150   33.4640   17.5030 C   0  0  0  0  0
   16.1470   32.6980   16.5880 C   0  0  0  0  0
   19.3170   31.7420   15.4770 N   0  0  0  0  0
   20.0500   32.7400   16.2910 C   0  0  0  0  0
   21.5460   32.3940   16.3420 C   0  0  0  0  0
   22.1840   32.3320   14.9540 C   0  0  0  0  0
   22.2870   33.3940   17.2170 C   0  0  0  0  0
   19.0690   30.4740   16.1990 C   0  0  0  0  0
   19.9100   29.3340   15.6160 C   0  0  0  0  0
   19.8110   28.2180   16.5180 O   0  0  0  0  0
   19.4550   29.0090   14.1890 C   0  0  0  0  0
   18.1360   28.2200   14.1130 C   0  0  0  0  0
   17.7940   27.8910   12.6640 C   0  0  0  0  0
   17.9350   26.5870   12.1800 C   0  0  0  0  0
   17.6440   26.2860   10.8540 C   0  0  0  0  0
   17.2060   27.2780    9.9840 C   0  0  0  0  0
   17.0630   28.5730   10.4560 C   0  0  0  0  0
   17.3580   28.8830   11.7890 C   0  0  0  0  0
   20.3670   28.1510   13.4250 N   0  0  0  0  0
   21.0910   28.6000   12.3910 C   0  0  0  0  0
   21.1500   29.7720   12.0350 O   0  0  0  0  0
   21.8760   27.5810   11.6090 C   0  0  0  0  0
   21.8370   26.2600   12.1800 O   0  0  0  0  0
   21.4930   25.3600   11.1060 C   0  0  0  0  0
   21.6150   24.1610   11.2980 O   0  0  0  0  0
   21.2270   27.4750   10.2180 C   0  0  0  0  0
   21.1100   26.0400   10.0130 N   0  0  0  0  0
   20.7250   25.5220    8.7900 C   0  0  0  0  0
   21.1370   24.2520    8.3670 C   0  0  0  0  0
   20.7450   23.7380    7.1240 C   0  0  0  0  0
   19.9510   24.4880    6.2680 C   0  0  0  0  0
   19.9150   26.2700    7.9010 C   0  0  0  0  0
   19.5210   25.7590    6.6530 C   0  0  0  0  0
   18.6430   26.5690    5.7220 C   0  0  0  0  0
   17.3830   26.4820    6.0880 F   0  0  0  0  0
   18.7160   26.1280    4.4910 F   0  0  0  0  0
   18.9950   27.8380    5.7260 F   0  0  0  0  0
   18.1530   35.1185   15.3289 H   0  0  0  0  0
   16.8478   36.4901   16.9307 H   0  0  0  0  0
   16.1104   37.0802   19.1938 H   0  0  0  0  0
   14.9203   37.4837   17.9321 H   0  0  0  0  0
   14.3845   37.2201   19.6097 H   0  0  0  0  0
   14.6466   32.9881   18.1122 H   0  0  0  0  0
   15.9404   31.6317   16.4962 H   0  0  0  0  0
   19.6494   32.7348   17.3047 H   0  0  0  0  0
   19.9283   33.7248   15.8398 H   0  0  0  0  0
   21.6282   31.3972   16.7753 H   0  0  0  0  0
   21.6836   31.5677   14.3593 H   0  0  0  0  0
   22.0808   33.3004   14.4645 H   0  0  0  0  0
   23.2408   32.0838   15.0521 H   0  0  0  0  0
   22.1657   34.3956   16.8045 H   0  0  0  0  0
   21.8785   33.3637   18.2271 H   0  0  0  0  0
   23.3458   33.1366   17.2440 H   0  0  0  0  0
   18.0147   30.2161   16.0991 H   0  0  0  0  0
   19.3423   30.6092   17.2455 H   0  0  0  0  0
   20.9598   29.6138   15.5281 H   0  0  0  0  0
   20.3300   27.4857   16.1774 H   0  0  0  0  0
   19.3851   30.0163   13.7786 H   0  0  0  0  0
   17.3355   28.8262   14.5372 H   0  0  0  0  0
   18.2467   27.2901   14.6709 H   0  0  0  0  0
   18.2768   25.7976   12.8494 H   0  0  0  0  0
   17.7603   25.2639   10.4937 H   0  0  0  0  0
   16.9782   27.0404    8.9449 H   0  0  0  0  0
   16.7175   29.3578    9.7830 H   0  0  0  0  0
   17.2457   29.9073   12.1443 H   0  0  0  0  0
   20.4537   27.1705   13.6924 H   0  0  0  0  0
   22.9144   27.9123   11.5961 H   0  0  0  0  0
   21.8157   27.9636    9.4415 H   0  0  0  0  0
   20.2663   27.9869   10.1627 H   0  0  0  0  0
   21.7744   23.6524    9.0169 H   0  0  0  0  0
   21.0666   22.7399    6.8266 H   0  0  0  0  0
   19.6636   24.0854    5.2967 H   0  0  0  0  0
   19.5887   27.2683    8.1927 H   0  0  0  0  0
  1  2  2  0  0  0
  2  3  2  0  0  0
  2  4  1  0  0  0
  2 12  1  0  0  0
  4  5  4  0  0  0
  4 11  4  0  0  0
  5  6  4  0  0  0
  6  7  4  0  0  0
  7  8  1  0  0  0
  7 10  4  0  0  0
  8  9  1  0  0  0
 10 11  4  0  0  0
 12 13  1  0  0  0
 12 17  1  0  0  0
 13 14  1  0  0  0
 14 15  1  0  0  0
 14 16  1  0  0  0
 17 18  1  0  0  0
 18 19  1  0  0  0
 18 20  1  0  0  0
 20 21  1  0  0  0
 20 28  1  0  0  0
 21 22  1  0  0  0
 22 23  4  0  0  0
 22 27  4  0  0  0
 23 24  4  0  0  0
 24 25  4  0  0  0
 25 26  4  0  0  0
 26 27  4  0  0  0
 28 29  1  0  0  0
 29 30  2  0  0  0
 29 31  1  0  0  0
 31 32  1  0  0  0
 31 35  1  0  0  0
 32 33  1  0  0  0
 33 34  2  0  0  0
 33 36  1  0  0  0
 35 36  1  0  0  0
 36 37  1  0  0  0
 37 38  4  0  0  0
 37 41  4  0  0  0
 38 39  4  0  0  0
 39 40  4  0  0  0
 40 42  4  0  0  0
 41 42  4  0  0  0
 42 43  1  0  0  0
 43 44  1  0  0  0
 43 45  1  0  0  0
 43 46  1  0  0  0
  5 47  1  0  0  0
  6 48  1  0  0  0
  9 49  1  0  0  0
  9 50  1  0  0  0
  9 51  1  0  0  0
 10 52  1  0  0  0
 11 53  1  0  0  0
 13 54  1  0  0  0
 13 55  1  0  0  0
 14 56  1  0  0  0
 15 57  1  0  0  0
 15 58  1  0  0  0
 15 59  1  0  0  0
 16 60  1  0  0  0
 16 61  1  0  0  0
 16 62  1  0  0  0
 17 63  1  0  0  0
 17 64  1  0  0  0
 18 65  1  0  0  0
 19 66  1  0  0  0
 20 67  1  0  0  0
 21 68  1  0  0  0
 21 69  1  0  0  0
 23 70  1  0  0  0
 24 71  1  0  0  0
 25 72  1  0  0  0
 26 73  1  0  0  0
 27 74  1  0  0  0
 28 75  1  0  0  0
 31 76  1  0  0  0
 35 77  1  0  0  0
 35 78  1  0  0  0
 38 79  1  0  0  0
 39 80  1  0  0  0
 40 81  1  0  0  0
 41 82  1  0  0  0
M  END
$$$$
