4as9_ligand
  -I-interpret- 

 83 84  0  0  0  0  0  0  0  0999 V2000
  -18.7540   34.1500   -1.6530 C   0  0  0  0  0
  -19.8890   34.7320   -2.3450 O   0  0  0  0  0
  -20.7300   33.8530   -3.1350 C   0  0  0  0  0
  -21.9580   34.5110   -3.1650 C   0  0  0  0  0
  -22.6140   34.8910   -2.0050 C   0  0  0  0  0
  -23.9290   35.3310   -2.1110 C   0  0  0  0  0
  -24.9710   34.8140   -1.3430 C   0  0  0  0  0
  -25.4450   35.5630   -0.2750 C   0  0  0  0  0
  -25.3680   33.4840   -1.4590 C   0  0  0  0  0
  -25.6000   32.8360   -0.4370 O   0  0  0  0  0
  -26.1630   33.0910   -2.5160 N   0  0  0  0  0
  -25.9540   33.2960   -3.8760 C   0  0  0  0  0
  -26.3030   34.5590   -4.3810 C   0  0  0  0  0
  -26.7260   35.4240   -3.6030 O   0  0  0  0  0
  -25.4680   32.2710   -4.7220 C   0  0  0  0  0
  -25.1190   31.0050   -4.2450 C   0  0  0  0  0
  -25.3170   32.5450   -6.0890 C   0  0  0  0  0
  -24.8860   31.6850   -6.8550 O   0  0  0  0  0
  -25.6540   33.8110   -6.5820 C   0  0  0  0  0
  -25.4940   34.0370   -7.9180 O   0  0  0  0  0
  -26.7180   33.7820   -8.6270 C   0  0  0  0  0
  -26.1330   34.8400   -5.7550 C   0  0  0  0  0
  -26.4340   36.1230   -6.2660 C   0  0  0  0  0
  -25.1690   37.0800   -6.2400 C   0  0  0  0  0
  -24.6360   37.2800   -4.8160 C   0  0  0  0  0
  -24.0500   36.5870   -7.2180 C   0  0  0  0  0
  -22.6490   37.2540   -7.0610 C   0  0  0  0  0
  -22.7280   38.6990   -7.2570 O   0  0  0  0  0
  -21.4650   39.4310   -7.2750 C   0  0  0  0  0
  -21.6300   36.7100   -8.0770 C   0  0  0  0  0
  -22.2910   36.4380   -9.3830 O   0  0  0  0  0
  -20.6720   35.5520   -7.5460 C   0  0  0  0  0
  -21.5300   32.6630   -6.3100 C   0  0  0  0  0
  -20.9620   35.0180   -6.2460 C   0  0  0  0  0
  -20.8500   33.7120   -5.7150 C   0  0  0  0  0
  -20.5350   34.4740   -8.6230 C   0  0  0  0  0
  -20.1260   33.3880   -4.5510 C   0  0  0  0  0
  -18.7770   33.8110   -4.7640 O   0  0  0  0  0
  -17.7350   32.9170   -4.8730 C   0  0  0  0  0
  -16.7810   33.2140   -5.6040 O   0  0  0  0  0
  -17.7050   31.7740   -4.1770 N   0  0  0  0  0
  -19.1062   33.3912   -0.9542 H   0  0  0  0  0
  -18.0825   33.6928   -2.3797 H   0  0  0  0  0
  -18.2238   34.9304   -1.1071 H   0  0  0  0  0
  -20.8230   32.8637   -2.6869 H   0  0  0  0  0
  -22.4159   34.7332   -4.1289 H   0  0  0  0  0
  -22.1138   34.8463   -1.0376 H   0  0  0  0  0
  -24.2043   35.0433   -3.1257 H   0  0  0  0  0
  -23.8696   36.3678   -1.7800 H   0  0  0  0  0
  -26.1156   35.1086    0.4543 H   0  0  0  0  0
  -25.1467   36.6056   -0.1656 H   0  0  0  0  0
  -27.0134   32.5851   -2.2684 H   0  0  0  0  0
  -24.3227   31.1029   -3.5072 H   0  0  0  0  0
  -25.9894   30.5398   -3.7824 H   0  0  0  0  0
  -24.7736   30.3881   -5.0746 H   0  0  0  0  0
  -27.0132   32.7434   -8.4778 H   0  0  0  0  0
  -27.4995   34.4411   -8.2489 H   0  0  0  0  0
  -26.5663   33.9688   -9.6901 H   0  0  0  0  0
  -27.2112   36.5659   -5.6432 H   0  0  0  0  0
  -26.7581   36.0120   -7.3008 H   0  0  0  0  0
  -25.4973   38.0564   -6.5964 H   0  0  0  0  0
  -25.4152   37.7245   -4.1969 H   0  0  0  0  0
  -24.3452   36.3156   -4.3995 H   0  0  0  0  0
  -23.7701   37.9415   -4.8431 H   0  0  0  0  0
  -24.3935   36.8369   -8.2218 H   0  0  0  0  0
  -23.9066   35.5277   -7.0047 H   0  0  0  0  0
  -22.3210   37.0186   -6.0485 H   0  0  0  0  0
  -20.9509   39.2894   -6.3244 H   0  0  0  0  0
  -20.8409   39.0564   -8.0864 H   0  0  0  0  0
  -21.6635   40.4918   -7.4277 H   0  0  0  0  0
  -20.9052   37.5068   -8.2439 H   0  0  0  0  0
  -21.6422   36.0997  -10.0044 H   0  0  0  0  0
  -19.7066   36.0258   -7.3685 H   0  0  0  0  0
  -22.1512   32.8439   -7.1872 H   0  0  0  0  0
  -21.4441   31.6562   -5.9013 H   0  0  0  0  0
  -22.0471   35.1211   -6.2459 H   0  0  0  0  0
  -20.1835   35.5159   -5.6680 H   0  0  0  0  0
  -21.5179   34.0602   -8.8482 H   0  0  0  0  0
  -20.1098   34.9149   -9.5246 H   0  0  0  0  0
  -19.8800   33.6816   -8.2608 H   0  0  0  0  0
  -20.1975   32.3076   -4.4253 H   0  0  0  0  0
  -16.8991   31.1531   -4.2506 H   0  0  0  0  0
  -18.4880   31.5239   -3.5731 H   0  0  0  0  0
  2  1  1  0  0  0
  3  2  1  0  0  0
  4  3  1  0  0  0
  3 37  1  0  0  0
  5  4  2  0  0  0
  6  5  1  0  0  0
  7  6  1  0  0  0
  7  8  2  0  0  0
  9  7  1  0  0  0
  9 10  2  0  0  0
 11  9  1  0  0  0
 12 11  1  0  0  0
 13 12  1  0  0  0
 12 15  2  0  0  0
 13 14  2  0  0  0
 22 13  1  0  0  0
 15 16  1  0  0  0
 17 15  1  0  0  0
 17 18  2  0  0  0
 19 17  1  0  0  0
 19 20  1  0  0  0
 22 19  2  0  0  0
 20 21  1  0  0  0
 23 22  1  0  0  0
 24 23  1  0  0  0
 24 25  1  0  0  0
 26 24  1  0  0  0
 27 26  1  0  0  0
 27 28  1  0  0  0
 30 27  1  0  0  0
 28 29  1  0  0  0
 30 31  1  0  0  0
 32 30  1  0  0  0
 34 32  1  0  0  0
 32 36  1  0  0  0
 35 33  2  0  0  0
 34 35  1  0  0  0
 35 37  1  0  0  0
 37 38  1  0  0  0
 38 39  1  0  0  0
 39 40  2  0  0  0
 39 41  1  0  0  0
  1 42  1  0  0  0
  1 43  1  0  0  0
  1 44  1  0  0  0
  3 45  1  0  0  0
  4 46  1  0  0  0
  5 47  1  0  0  0
  6 48  1  0  0  0
  6 49  1  0  0  0
  8 50  1  0  0  0
  8 51  1  0  0  0
 11 52  1  0  0  0
 16 53  1  0  0  0
 16 54  1  0  0  0
 16 55  1  0  0  0
 21 56  1  0  0  0
 21 57  1  0  0  0
 21 58  1  0  0  0
 23 59  1  0  0  0
 23 60  1  0  0  0
 24 61  1  0  0  0
 25 62  1  0  0  0
 25 63  1  0  0  0
 25 64  1  0  0  0
 26 65  1  0  0  0
 26 66  1  0  0  0
 27 67  1  0  0  0
 29 68  1  0  0  0
 29 69  1  0  0  0
 29 70  1  0  0  0
 30 71  1  0  0  0
 31 72  1  0  0  0
 32 73  1  0  0  0
 33 74  1  0  0  0
 33 75  1  0  0  0
 34 76  1  0  0  0
 34 77  1  0  0  0
 36 78  1  0  0  0
 36 79  1  0  0  0
 36 80  1  0  0  0
 37 81  1  0  0  0
 41 82  1  0  0  0
 41 83  1  0  0  0
M  END
$$$$
