6oqd_ligand
  -I-interpret- 

 79 84  0  0  0  0  0  0  0  0999 V2000
   12.3990   -1.3710   11.9320 C   0  0  0  0  0
   10.9280   -1.3800   12.3410 C   0  0  0  0  0
   10.0960   -2.1540   11.3330 C   0  0  0  0  0
   10.7070   -3.5310   11.0730 C   0  0  0  0  0
    9.8870   -4.5190   10.5610 C   0  0  0  0  0
   10.3490   -5.8050   10.3010 C   0  0  0  0  0
    9.2510   -6.9820    9.6720 Cl  0  0  0  0  0
   11.6780   -6.1270   10.5430 C   0  0  0  0  0
   12.5270   -5.1400   11.0480 C   0  0  0  0  0
   12.0510   -3.8490   11.3210 C   0  0  0  0  0
   13.0180   -2.7770   11.8850 C   0  0  0  0  0
   13.4130   -3.1210   13.3160 C   0  0  0  0  0
   14.2840   -2.7140   11.0550 C   0  0  0  0  0
   15.2130   -3.7680   11.3990 O   0  0  0  0  0
   16.1050   -3.3840   12.3660 C   0  0  0  0  0
   17.4240   -3.7790   12.1060 C   0  0  0  0  0
   18.4340   -3.4730   12.9990 C   0  0  0  0  0
   18.1240   -2.7490   14.1480 C   0  0  0  0  0
   16.8240   -2.3640   14.4110 C   0  0  0  0  0
   15.8000   -2.6750   13.5220 C   0  0  0  0  0
   14.5470   -2.3500   13.8330 N   0  0  0  0  0
   14.2070   -1.5450   15.0450 C   0  0  0  0  0
   14.3650   -2.3910   16.3350 C   0  0  0  0  0
   13.0850   -3.1150   16.7950 C   0  0  0  0  0
   13.4100   -2.6280   18.2280 C   0  0  0  0  0
   14.2400   -1.5130   17.5920 C   0  0  0  0  0
   15.5910   -1.2140   18.3060 C   0  0  0  0  0
   15.3500   -0.4470   19.5080 O   0  0  0  0  0
   16.4710   -2.4330   18.6440 C   0  0  0  0  0
   17.8120   -1.9720   19.2450 C   0  0  0  0  0
   18.6970   -3.1360   19.6650 C   0  0  0  0  0
   19.4810   -3.7240   18.5000 C   0  0  0  0  0
   20.6220   -2.8040   18.0750 C   0  0  0  0  0
   21.7730   -2.8600   19.0810 C   0  0  0  0  0
   21.2330   -3.2540   16.4210 S   0  0  0  0  0
   22.1040   -2.1820   15.9430 O   0  0  0  0  0
   21.9580   -4.5750   16.4750 O   0  0  0  0  0
   20.0300   -3.4070   15.3660 N   0  0  0  0  0
   19.2010   -2.3960   15.1470 C   0  0  0  0  0
   19.1860   -1.3070   15.7290 O   0  0  0  0  0
   12.9467   -0.7918   12.6754 H   0  0  0  0  0
   12.4624   -0.9467   10.9300 H   0  0  0  0  0
   10.5669   -0.3523   12.3814 H   0  0  0  0  0
   10.8360   -1.8587   13.3159 H   0  0  0  0  0
   10.0693   -1.5974   10.3962 H   0  0  0  0  0
    9.0900   -2.2842   11.7319 H   0  0  0  0  0
    8.8433   -4.2824   10.3541 H   0  0  0  0  0
   12.0514   -7.1312   10.3425 H   0  0  0  0  0
   13.5749   -5.3762   11.2328 H   0  0  0  0  0
   13.7097   -4.1698   13.3226 H   0  0  0  0  0
   12.5554   -2.8917   13.9485 H   0  0  0  0  0
   14.7692   -1.7570   11.2470 H   0  0  0  0  0
   14.0095   -2.8314   10.0067 H   0  0  0  0  0
   17.6550   -4.3306   11.1947 H   0  0  0  0  0
   19.4579   -3.7936   12.8068 H   0  0  0  0  0
   16.5983   -1.8116   15.3231 H   0  0  0  0  0
   13.1709   -1.2156   14.9671 H   0  0  0  0  0
   14.8840   -0.6925   15.1003 H   0  0  0  0  0
   15.2595   -2.9613   16.0846 H   0  0  0  0  0
   12.9164   -4.1693   16.5758 H   0  0  0  0  0
   12.1192   -2.9157   16.3306 H   0  0  0  0  0
   13.8373   -3.2996   18.9726 H   0  0  0  0  0
   12.6197   -2.4085   18.9459 H   0  0  0  0  0
   13.8655   -0.4907   17.5389 H   0  0  0  0  0
   16.1664   -0.6517   17.5706 H   0  0  0  0  0
   16.1861   -0.2658   19.9436 H   0  0  0  0  0
   16.6645   -2.9969   17.7315 H   0  0  0  0  0
   15.9509   -3.0576   19.3703 H   0  0  0  0  0
   17.5948   -1.3787   20.1332 H   0  0  0  0  0
   18.3442   -1.4050   18.4812 H   0  0  0  0  0
   18.0538   -3.9192   20.0663 H   0  0  0  0  0
   19.4130   -2.7658   20.3988 H   0  0  0  0  0
   18.8038   -3.8483   17.6550 H   0  0  0  0  0
   19.9046   -4.6778   18.8145 H   0  0  0  0  0
   20.2314   -1.7869   18.0438 H   0  0  0  0  0
   21.4137   -2.5437   20.0603 H   0  0  0  0  0
   22.1501   -3.8808   19.1432 H   0  0  0  0  0
   22.5725   -2.1952   18.7538 H   0  0  0  0  0
   19.9040   -4.2854   14.8631 H   0  0  0  0  0
  1  2  1  0  0  0
  1 11  1  0  0  0
  2  3  1  0  0  0
  3  4  1  0  0  0
  4  5  4  0  0  0
  4 10  4  0  0  0
  5  6  4  0  0  0
  6  7  1  0  0  0
  6  8  4  0  0  0
  8  9  4  0  0  0
  9 10  4  0  0  0
 10 11  1  0  0  0
 11 12  1  0  0  0
 11 13  1  0  0  0
 12 21  1  0  0  0
 13 14  1  0  0  0
 14 15  1  0  0  0
 15 16  4  0  0  0
 15 20  4  0  0  0
 16 17  4  0  0  0
 17 18  4  0  0  0
 18 19  4  0  0  0
 18 39  1  0  0  0
 19 20  4  0  0  0
 20 21  1  0  0  0
 21 22  1  0  0  0
 22 23  1  0  0  0
 23 24  1  0  0  0
 23 26  1  0  0  0
 24 25  1  0  0  0
 25 26  1  0  0  0
 26 27  1  0  0  0
 27 28  1  0  0  0
 27 29  1  0  0  0
 29 30  1  0  0  0
 30 31  1  0  0  0
 31 32  1  0  0  0
 32 33  1  0  0  0
 33 34  1  0  0  0
 33 35  1  0  0  0
 35 36  2  0  0  0
 35 37  2  0  0  0
 35 38  1  0  0  0
 38 39  1  0  0  0
 39 40  2  0  0  0
  1 41  1  0  0  0
  1 42  1  0  0  0
  2 43  1  0  0  0
  2 44  1  0  0  0
  3 45  1  0  0  0
  3 46  1  0  0  0
  5 47  1  0  0  0
  8 48  1  0  0  0
  9 49  1  0  0  0
 12 50  1  0  0  0
 12 51  1  0  0  0
 13 52  1  0  0  0
 13 53  1  0  0  0
 16 54  1  0  0  0
 17 55  1  0  0  0
 19 56  1  0  0  0
 22 57  1  0  0  0
 22 58  1  0  0  0
 23 59  1  0  0  0
 24 60  1  0  0  0
 24 61  1  0  0  0
 25 62  1  0  0  0
 25 63  1  0  0  0
 26 64  1  0  0  0
 27 65  1  0  0  0
 28 66  1  0  0  0
 29 67  1  0  0  0
 29 68  1  0  0  0
 30 69  1  0  0  0
 30 70  1  0  0  0
 31 71  1  0  0  0
 31 72  1  0  0  0
 32 73  1  0  0  0
 32 74  1  0  0  0
 33 75  1  0  0  0
 34 76  1  0  0  0
 34 77  1  0  0  0
 34 78  1  0  0  0
 38 79  1  0  0  0
M  END
$$$$
