4f8j_ligand
  -I-interpret- 

 20 20  0  0  0  0  0  0  0  0999 V2000
   13.4750   45.3500   29.5800 C   0  0  0  0  0
   13.8040   46.4980   29.9150 O   0  0  0  0  0
   13.8430   44.3370   30.2400 O   0  0  0  0  0
   12.6480   45.0620   28.3760 C   0  0  0  0  0
   13.0750   44.1160   27.5410 C   0  0  0  0  0
   12.4460   43.8470   26.2110 C   0  0  0  0  0
   11.0730   44.0140   25.9430 C   0  0  0  0  0
   10.5820   43.8080   24.6630 C   0  0  0  0  0
   11.3870   43.4170   23.6100 C   0  0  0  0  0
   12.7410   43.2410   23.8700 C   0  0  0  0  0
   13.2250   43.4610   25.1470 C   0  0  0  0  0
   10.9230   43.1820   22.3380 O   0  0  0  0  0
   13.4919   43.5437   29.8288 H   0  0  0  0  0
   11.7238   45.6071   28.1841 H   0  0  0  0  0
   13.9268   43.5065   27.8426 H   0  0  0  0  0
   10.3946   44.3061   26.7446 H   0  0  0  0  0
    9.5184   43.9605   24.4798 H   0  0  0  0  0
   13.4170   42.9317   23.0729 H   0  0  0  0  0
   14.2918   43.3192   25.3202 H   0  0  0  0  0
   11.6555   42.9228   21.7742 H   0  0  0  0  0
  1  2  2  0  0  0
  1  3  1  0  0  0
  1  4  1  0  0  0
  4  5  2  0  0  0
  5  6  1  0  0  0
  6  7  4  0  0  0
  6 11  4  0  0  0
  7  8  4  0  0  0
  8  9  4  0  0  0
  9 10  4  0  0  0
  9 12  1  0  0  0
 10 11  4  0  0  0
  3 13  1  0  0  0
  4 14  1  0  0  0
  5 15  1  0  0  0
  7 16  1  0  0  0
  8 17  1  0  0  0
 10 18  1  0  0  0
 11 19  1  0  0  0
 12 20  1  0  0  0
M  END
$$$$
