1n51_ligand
  -I-interpret- 

 67 69  0  0  0  0  0  0  0  0999 V2000
   30.5070   56.4660   44.1810 O   0  0  0  0  0
   29.1140   56.2440   43.9060 C   0  0  0  0  0
   26.8820   55.6350   44.9100 C   0  0  0  0  0
   25.8750   55.9580   46.0010 C   0  0  0  0  0
   25.8720   57.2040   46.6320 C   0  0  0  0  0
   24.8820   55.0410   46.3410 C   0  0  0  0  0
   24.8920   57.5300   47.5780 C   0  0  0  0  0
   23.8970   55.3570   47.2850 C   0  0  0  0  0
   23.9040   56.6070   47.9030 C   0  0  0  0  0
   28.5640   57.3960   43.0800 C   0  0  0  0  0
   28.3830   58.5060   43.5830 O   0  0  0  0  0
   28.9930   55.1050   46.1170 N   0  3  0  0  0
   28.3200   56.0920   45.2160 C   0  0  0  0  0
   28.2930   57.1370   41.7900 N   0  0  0  0  0
   27.7680   58.1280   40.8520 C   0  0  0  0  0
   26.7750   59.1140   41.4470 C   0  0  0  0  0
   25.6580   58.7530   41.8120 O   0  0  0  0  0
   27.1690   57.2630   39.7590 C   0  0  0  0  0
   28.1680   56.1520   39.6790 C   0  0  0  0  0
   28.3830   55.8130   41.1430 C   0  0  0  0  0
   27.1770   60.3900   41.5290 N   0  0  0  0  0
   26.3950   61.5030   42.0650 C   0  0  0  0  0
   24.8920   61.3880   41.8010 C   0  0  0  0  0
   24.4480   61.4410   40.6590 O   0  0  0  0  0
   27.0150   62.7050   41.3670 C   0  0  0  0  0
   28.4480   62.3320   41.3110 C   0  0  0  0  0
   28.3780   60.9010   40.8430 C   0  0  0  0  0
   24.1190   61.2300   42.8700 N   0  0  0  0  0
   22.6710   61.1170   42.7670 C   0  0  0  0  0
   22.0220   62.4330   43.2010 C   0  0  0  0  0
   21.7630   63.3190   42.3760 O   0  0  0  0  0
   22.1730   59.9770   43.6270 C   0  0  0  0  0
   21.7690   62.5850   44.4940 N   0  0  0  0  0
   30.8493   55.7363   44.7025 H   0  0  0  0  0
   29.0097   55.3192   43.3385 H   0  0  0  0  0
   26.5622   56.1647   44.0126 H   0  0  0  0  0
   26.9061   54.5500   44.8081 H   0  0  0  0  0
   26.6435   57.9332   46.3847 H   0  0  0  0  0
   24.8719   54.0610   45.8639 H   0  0  0  0  0
   24.9038   58.5077   48.0597 H   0  0  0  0  0
   23.1268   54.6277   47.5360 H   0  0  0  0  0
   23.1389   56.8593   48.6372 H   0  0  0  0  0
   29.9439   55.4181   46.3124 H   0  0  0  0  0
   28.4712   55.0329   46.9905 H   0  0  0  0  0
   29.0211   54.1935   45.6601 H   0  0  0  0  0
   28.2845   57.0578   45.7200 H   0  0  0  0  0
   28.5459   58.8051   40.4992 H   0  0  0  0  0
   27.0242   57.7892   38.8155 H   0  0  0  0  0
   26.1557   56.9247   39.9755 H   0  0  0  0  0
   29.0855   56.4335   39.1623 H   0  0  0  0  0
   27.8238   55.3045   39.0862 H   0  0  0  0  0
   27.6566   55.0975   41.5283 H   0  0  0  0  0
   29.3302   55.3076   41.3312 H   0  0  0  0  0
   26.4385   61.5539   43.1529 H   0  0  0  0  0
   26.8362   63.6444   41.8900 H   0  0  0  0  0
   26.5838   62.9008   40.3853 H   0  0  0  0  0
   28.9638   62.4510   42.2638 H   0  0  0  0  0
   29.0369   62.9735   40.6554 H   0  0  0  0  0
   28.3165   60.8124   39.7584 H   0  0  0  0  0
   29.2767   60.3325   41.0821 H   0  0  0  0  0
   24.5536   61.1865   43.7918 H   0  0  0  0  0
   22.4006   60.9107   41.7314 H   0  0  0  0  0
   22.6287   59.0451   43.2923 H   0  0  0  0  0
   22.4437   60.1625   44.6664 H   0  0  0  0  0
   21.0889   59.9046   43.5400 H   0  0  0  0  0
   21.3494   63.4506   44.8333 H   0  0  0  0  0
   21.9940   61.8363   45.1492 H   0  0  0  0  0
  2  1  1  0  0  0
  2 10  1  0  0  0
 13  2  1  0  0  0
  3  4  1  0  0  0
 13  3  1  0  0  0
  4  5  4  0  0  0
  4  6  4  0  0  0
  5  7  4  0  0  0
  6  8  4  0  0  0
  7  9  4  0  0  0
  8  9  4  0  0  0
 10 11  2  0  0  0
 10 14  1  0  0  0
 14 15  1  0  0  0
 14 20  1  0  0  0
 15 16  1  0  0  0
 15 18  1  0  0  0
 16 17  2  0  0  0
 16 21  1  0  0  0
 18 19  1  0  0  0
 19 20  1  0  0  0
 21 22  1  0  0  0
 21 27  1  0  0  0
 22 23  1  0  0  0
 22 25  1  0  0  0
 23 24  2  0  0  0
 23 28  1  0  0  0
 25 26  1  0  0  0
 26 27  1  0  0  0
 28 29  1  0  0  0
 29 30  1  0  0  0
 29 32  1  0  0  0
 30 31  2  0  0  0
 30 33  1  0  0  0
 13 12  1  0  0  0
  1 34  1  0  0  0
  2 35  1  0  0  0
  3 36  1  0  0  0
  3 37  1  0  0  0
  5 38  1  0  0  0
  6 39  1  0  0  0
  7 40  1  0  0  0
  8 41  1  0  0  0
  9 42  1  0  0  0
 12 43  1  0  0  0
 12 44  1  0  0  0
 12 45  1  0  0  0
 13 46  1  0  0  0
 15 47  1  0  0  0
 18 48  1  0  0  0
 18 49  1  0  0  0
 19 50  1  0  0  0
 19 51  1  0  0  0
 20 52  1  0  0  0
 20 53  1  0  0  0
 22 54  1  0  0  0
 25 55  1  0  0  0
 25 56  1  0  0  0
 26 57  1  0  0  0
 26 58  1  0  0  0
 27 59  1  0  0  0
 27 60  1  0  0  0
 28 61  1  0  0  0
 29 62  1  0  0  0
 32 63  1  0  0  0
 32 64  1  0  0  0
 32 65  1  0  0  0
 33 66  1  0  0  0
 33 67  1  0  0  0
M  END
$$$$
