1epo_ligand
  -I-interpret- 

 95 97  0  0  0  0  0  0  0  0999 V2000
   30.9720   -7.3220   -7.5670 O   0  0  0  0  0
   30.7770   -6.5530   -6.3560 C   0  0  0  0  0
   32.0090   -6.3100   -5.7150 C   0  0  0  0  0
   32.8370   -7.4660   -5.6290 N   0  0  0  0  0
   32.8620   -8.4650   -6.6830 C   0  0  0  0  0
   31.4860   -8.6410   -7.1880 C   0  0  0  0  0
   33.6370   -7.6200   -4.5270 C   0  0  0  0  0
   34.3590   -8.5990   -4.4530 O   0  0  0  0  0
   33.6170   -6.7070   -3.5780 N   0  0  0  0  0
   34.4320   -6.8050   -2.3250 C   0  0  0  0  0
   33.8580   -7.8980   -1.3780 C   0  0  0  0  0
   32.7320   -8.1850   -1.2680 O   0  0  0  0  0
   34.2260   -5.4560   -1.5280 C   0  0  0  0  0
   35.0450   -4.3950   -2.2620 C   0  0  0  0  0
   36.3830   -4.5380   -2.4410 C   0  0  0  0  0
   34.3630   -3.2670   -2.8110 C   0  0  0  0  0
   37.1650   -3.6050   -3.1060 C   0  0  0  0  0
   35.1440   -2.3490   -3.4730 C   0  0  0  0  0
   36.4990   -2.4730   -3.6380 C   0  0  0  0  0
   34.8240   -8.5260   -0.6400 N   0  0  0  0  0
   34.4240   -9.6120    0.2950 C   0  0  0  0  0
   35.5270   -9.6380    1.4140 C   0  0  0  0  0
   36.5960  -10.1450    1.1750 O   0  0  0  0  0
   34.5110  -10.9620   -0.4720 C   0  0  0  0  0
   34.2020  -12.1490    0.4110 C   0  0  0  0  0
   33.4710  -13.3180   -0.1940 C   0  0  0  0  0
   34.0330  -13.8210   -1.4670 C   0  0  0  0  0
   35.1960   -9.0450    2.5090 N   0  0  0  0  0
   36.2070   -8.7560    3.5860 C   0  0  0  0  0
   36.6660   -7.3540    3.6360 C   0  0  0  0  0
   36.9750   -6.6040    2.3700 C   0  0  0  0  0
   38.2070   -7.0160    1.6900 C   0  0  0  0  0
   36.8100   -5.1140    2.4840 C   0  0  0  0  0
   38.6760   -6.2700    0.4530 C   0  0  0  0  0
   37.3100   -4.3430    1.2730 C   0  0  0  0  0
   38.6020   -4.7580    0.7240 C   0  0  0  0  0
   35.6750   -9.3170    4.9050 C   0  0  0  0  0
   34.3640   -8.7570    5.2470 O   0  0  0  0  0
   36.5070   -8.9240    5.9360 O   0  0  0  0  0
   35.5910  -10.8480    4.9370 C   0  0  0  0  0
   35.1040  -11.2960    3.8410 F   0  0  0  0  0
   34.7100  -11.2810    5.8530 F   0  0  0  0  0
   36.9100  -11.4650    5.2600 C   0  0  0  0  0
   37.7810  -11.8210    4.4160 O   0  0  0  0  0
   37.1720  -11.7830    6.5550 N   0  0  0  0  0
   38.5090  -12.4190    6.8120 C   0  0  0  0  0
   30.1340   -7.1172   -5.6805 H   0  0  0  0  0
   30.3207   -5.5977   -6.6153 H   0  0  0  0  0
   31.7924   -5.9835   -4.6979 H   0  0  0  0  0
   32.5445   -5.5641   -6.3024 H   0  0  0  0  0
   33.2409   -9.4099   -6.2935 H   0  0  0  0  0
   33.5178   -8.1399   -7.4906 H   0  0  0  0  0
   31.4830   -9.3087   -8.0496 H   0  0  0  0  0
   30.8553   -9.0843   -6.4174 H   0  0  0  0  0
   33.0163   -5.8921   -3.7025 H   0  0  0  0  0
   35.4650   -7.0194   -2.5988 H   0  0  0  0  0
   34.5536   -5.5579   -0.4934 H   0  0  0  0  0
   33.1721   -5.1805   -1.4893 H   0  0  0  0  0
   36.8667   -5.4299   -2.0426 H   0  0  0  0  0
   33.2850   -3.1408   -2.7111 H   0  0  0  0  0
   38.2416   -3.7365   -3.2143 H   0  0  0  0  0
   34.6558   -1.4691   -3.8920 H   0  0  0  0  0
   37.0596   -1.7072   -4.1740 H   0  0  0  0  0
   35.8030   -8.2539   -0.7294 H   0  0  0  0  0
   33.4214   -9.4609    0.6950 H   0  0  0  0  0
   35.5301  -11.0739   -0.8421 H   0  0  0  0  0
   33.7757  -10.9402   -1.2763 H   0  0  0  0  0
   33.5375  -11.7650    1.1850 H   0  0  0  0  0
   35.1729  -12.5428    0.7118 H   0  0  0  0  0
   32.4592  -12.9761   -0.4117 H   0  0  0  0  0
   33.5396  -14.1357    0.5235 H   0  0  0  0  0
   34.0153  -13.0242   -2.2105 H   0  0  0  0  0
   35.0607  -14.1463   -1.3056 H   0  0  0  0  0
   33.4355  -14.6618   -1.8194 H   0  0  0  0  0
   34.2254   -8.7646    2.6494 H   0  0  0  0  0
   37.1384   -9.2697    3.3480 H   0  0  0  0  0
   37.6219   -7.4039    4.1574 H   0  0  0  0  0
   35.8251   -6.8125    4.0692 H   0  0  0  0  0
   36.1863   -6.9214    1.6878 H   0  0  0  0  0
   37.9993   -8.0262    1.3372 H   0  0  0  0  0
   38.9940   -6.8475    2.4251 H   0  0  0  0  0
   37.3990   -4.7878    3.3412 H   0  0  0  0  0
   35.7428   -4.9128    2.5778 H   0  0  0  0  0
   38.0384   -6.5239   -0.3938 H   0  0  0  0  0
   39.7027   -6.5524    0.2200 H   0  0  0  0  0
   37.4388   -3.3122    1.6030 H   0  0  0  0  0
   36.5777   -4.5120    0.4835 H   0  0  0  0  0
   38.7429   -4.2413   -0.2254 H   0  0  0  0  0
   39.3707   -4.5120    1.4566 H   0  0  0  0  0
   34.0641   -9.1319    6.0783 H   0  0  0  0  0
   36.1748   -9.2752    6.7654 H   0  0  0  0  0
   36.5041  -11.6017    7.3043 H   0  0  0  0  0
   38.5822  -13.3486    6.2475 H   0  0  0  0  0
   39.3002  -11.7383    6.4977 H   0  0  0  0  0
   38.6110  -12.6299    7.8765 H   0  0  0  0  0
 10  9  1  0  0  0
 10 13  1  0  0  0
 11 10  1  0  0  0
 11 12  2  0  0  0
 13 14  1  0  0  0
 14 15  4  0  0  0
 14 16  4  0  0  0
 16 18  4  0  0  0
 18 19  4  0  0  0
 17 19  4  0  0  0
 15 17  4  0  0  0
 45 46  1  0  0  0
  2  1  1  0  0  0
  6  1  1  0  0  0
  3  2  1  0  0  0
  4  3  1  0  0  0
  4  5  1  0  0  0
  7  4  1  0  0  0
  5  6  1  0  0  0
  7  8  2  0  0  0
  9  7  1  0  0  0
 20 11  1  0  0  0
 21 20  1  0  0  0
 22 21  1  0  0  0
 21 24  1  0  0  0
 22 23  2  0  0  0
 28 22  1  0  0  0
 24 25  1  0  0  0
 25 26  1  0  0  0
 26 27  1  0  0  0
 29 28  1  0  0  0
 29 30  1  0  0  0
 37 29  1  0  0  0
 30 31  1  0  0  0
 31 32  1  0  0  0
 31 33  1  0  0  0
 32 34  1  0  0  0
 33 35  1  0  0  0
 34 36  1  0  0  0
 35 36  1  0  0  0
 37 38  1  0  0  0
 37 39  1  0  0  0
 40 37  1  0  0  0
 40 41  1  0  0  0
 40 42  1  0  0  0
 43 40  1  0  0  0
 43 44  2  0  0  0
 43 45  1  0  0  0
  2 47  1  0  0  0
  2 48  1  0  0  0
  3 49  1  0  0  0
  3 50  1  0  0  0
  5 51  1  0  0  0
  5 52  1  0  0  0
  6 53  1  0  0  0
  6 54  1  0  0  0
  9 55  1  0  0  0
 10 56  1  0  0  0
 13 57  1  0  0  0
 13 58  1  0  0  0
 15 59  1  0  0  0
 16 60  1  0  0  0
 17 61  1  0  0  0
 18 62  1  0  0  0
 19 63  1  0  0  0
 20 64  1  0  0  0
 21 65  1  0  0  0
 24 66  1  0  0  0
 24 67  1  0  0  0
 25 68  1  0  0  0
 25 69  1  0  0  0
 26 70  1  0  0  0
 26 71  1  0  0  0
 27 72  1  0  0  0
 27 73  1  0  0  0
 27 74  1  0  0  0
 28 75  1  0  0  0
 29 76  1  0  0  0
 30 77  1  0  0  0
 30 78  1  0  0  0
 31 79  1  0  0  0
 32 80  1  0  0  0
 32 81  1  0  0  0
 33 82  1  0  0  0
 33 83  1  0  0  0
 34 84  1  0  0  0
 34 85  1  0  0  0
 35 86  1  0  0  0
 35 87  1  0  0  0
 36 88  1  0  0  0
 36 89  1  0  0  0
 38 90  1  0  0  0
 39 91  1  0  0  0
 45 92  1  0  0  0
 46 93  1  0  0  0
 46 94  1  0  0  0
 46 95  1  0  0  0
M  END
$$$$
