4azp_ligand
  -I-interpret- 

 70 69  0  0  0  0  0  0  0  0999 V2000
   24.2370   14.7690    2.9330 C   0  0  0  0  0
   25.2250   15.2850    3.4570 O   0  0  0  0  0
   23.7310   15.2180    1.5640 C   0  0  0  0  0
   23.3350   16.6910    1.5790 C   0  0  0  0  0
   22.6240   16.9780    0.2620 C   0  0  0  0  0
   23.6330   16.8620   -0.8780 C   0  0  0  0  0
   23.1580   16.1790   -2.1670 C   0  0  0  0  0
   21.7200   15.6880   -2.2110 C   0  0  0  0  0
   21.5460   14.7880   -3.4290 C   0  0  0  0  0
   21.8640   15.4370   -4.7750 C   0  0  0  0  0
   21.6720   14.5370   -5.9940 C   0  0  0  0  0
   22.9480   14.5340   -6.8390 C   0  0  0  0  0
   23.4670   13.1590   -7.2890 C   0  0  0  0  0
   22.6410   11.9410   -6.8550 C   0  0  0  0  0
   23.2840   11.2100   -5.6690 C   0  0  0  0  0
   24.1350   12.0530   -4.7100 C   0  0  0  0  0
   24.7450   11.2850   -3.5320 C   0  0  0  0  0
   23.6410   10.8650   -2.5390 C   0  0  0  0  0
   23.4480   11.9120   -1.4270 C   0  0  0  0  0
   24.5100   11.7250   -0.3350 C   0  0  0  0  0
   23.9350   10.9400    0.8520 C   0  0  0  0  0
   24.2250   11.7520    4.5190 C   0  0  0  0  0
   23.8110   13.1790    4.7630 C   0  0  0  0  0
   25.5830   11.8040    4.1270 O   0  0  0  0  0
   23.5270   13.7620    3.4580 N   0  0  0  0  0
   22.8543   14.6244    1.3050 H   0  0  0  0  0
   24.5295   15.0795    0.8351 H   0  0  0  0  0
   24.2153   17.3247    1.6868 H   0  0  0  0  0
   22.6803   16.9046    2.4239 H   0  0  0  0  0
   22.2027   17.9831    0.2813 H   0  0  0  0  0
   21.8164   16.2610    0.1146 H   0  0  0  0  0
   24.4427   16.2410   -0.4948 H   0  0  0  0  0
   23.8811   17.8855   -1.1592 H   0  0  0  0  0
   23.7762   15.2874   -2.2720 H   0  0  0  0  0
   23.2334   16.9374   -2.9463 H   0  0  0  0  0
   21.0411   16.5380   -2.2795 H   0  0  0  0  0
   21.4922   15.1294   -1.3031 H   0  0  0  0  0
   20.4933   14.5070   -3.4602 H   0  0  0  0  0
   22.2474   13.9624   -3.3084 H   0  0  0  0  0
   22.9195   15.7078   -4.7497 H   0  0  0  0  0
   21.1724   16.2715   -4.8907 H   0  0  0  0  0
   20.8426   14.9125   -6.5933 H   0  0  0  0  0
   21.4556   13.5213   -5.6628 H   0  0  0  0  0
   23.7288   14.9608   -6.2094 H   0  0  0  0  0
   22.7080   15.0801   -7.7513 H   0  0  0  0  0
   24.4469   13.0398   -6.8268 H   0  0  0  0  0
   23.4419   13.1684   -8.3787 H   0  0  0  0  0
   22.5846   11.2483   -7.6947 H   0  0  0  0  0
   21.6538   12.2877   -6.5495 H   0  0  0  0  0
   23.9635   10.4770   -6.1040 H   0  0  0  0  0
   22.4568   10.8249   -5.0728 H   0  0  0  0  0
   23.4725   12.8060   -4.2832 H   0  0  0  0  0
   24.9683   12.4449   -5.2932 H   0  0  0  0  0
   25.4597   11.9285   -3.0189 H   0  0  0  0  0
   25.2438   10.3921   -3.9088 H   0  0  0  0  0
   23.9350    9.9227   -2.0766 H   0  0  0  0  0
   22.7038   10.7693   -3.0873 H   0  0  0  0  0
   22.4581   11.7884   -0.9877 H   0  0  0  0  0
   23.5469   12.9098   -1.8546 H   0  0  0  0  0
   24.8328   12.7058    0.0143 H   0  0  0  0  0
   25.3498   11.1689   -0.7517 H   0  0  0  0  0
   23.0897   11.4855    1.2715 H   0  0  0  0  0
   23.6030    9.9594    0.5109 H   0  0  0  0  0
   24.7054   10.8195    1.6137 H   0  0  0  0  0
   23.6086   11.2873    3.7495 H   0  0  0  0  0
   24.0946   11.1437    5.4140 H   0  0  0  0  0
   24.6016   13.7311    5.2712 H   0  0  0  0  0
   22.9332   13.2238    5.4076 H   0  0  0  0  0
   25.9003   10.9139    3.9576 H   0  0  0  0  0
   22.7488   13.3844    2.9175 H   0  0  0  0  0
  1  2  2  0  0  0
  1  3  1  0  0  0
 25  1  1  0  0  0
  3  4  1  0  0  0
  4  5  1  0  0  0
  5  6  1  0  0  0
  6  7  1  0  0  0
  7  8  1  0  0  0
  8  9  1  0  0  0
  9 10  1  0  0  0
 10 11  1  0  0  0
 11 12  1  0  0  0
 12 13  1  0  0  0
 13 14  1  0  0  0
 14 15  1  0  0  0
 15 16  1  0  0  0
 16 17  1  0  0  0
 17 18  1  0  0  0
 18 19  1  0  0  0
 19 20  1  0  0  0
 20 21  1  0  0  0
 23 22  1  0  0  0
 22 24  1  0  0  0
 23 25  1  0  0  0
  3 26  1  0  0  0
  3 27  1  0  0  0
  4 28  1  0  0  0
  4 29  1  0  0  0
  5 30  1  0  0  0
  5 31  1  0  0  0
  6 32  1  0  0  0
  6 33  1  0  0  0
  7 34  1  0  0  0
  7 35  1  0  0  0
  8 36  1  0  0  0
  8 37  1  0  0  0
  9 38  1  0  0  0
  9 39  1  0  0  0
 10 40  1  0  0  0
 10 41  1  0  0  0
 11 42  1  0  0  0
 11 43  1  0  0  0
 12 44  1  0  0  0
 12 45  1  0  0  0
 13 46  1  0  0  0
 13 47  1  0  0  0
 14 48  1  0  0  0
 14 49  1  0  0  0
 15 50  1  0  0  0
 15 51  1  0  0  0
 16 52  1  0  0  0
 16 53  1  0  0  0
 17 54  1  0  0  0
 17 55  1  0  0  0
 18 56  1  0  0  0
 18 57  1  0  0  0
 19 58  1  0  0  0
 19 59  1  0  0  0
 20 60  1  0  0  0
 20 61  1  0  0  0
 21 62  1  0  0  0
 21 63  1  0  0  0
 21 64  1  0  0  0
 22 65  1  0  0  0
 22 66  1  0  0  0
 23 67  1  0  0  0
 23 68  1  0  0  0
 24 69  1  0  0  0
 25 70  1  0  0  0
M  END
$$$$
