### 
### Created by X-TOOL on Mon Sep 10 21:13:14 2018
### 

@<TRIPOS>MOLECULE
4azp_ligand
   70    69     1     0     0
SMALL
GAST_HUCK


@<TRIPOS>ATOM
      1 C1         24.2370   14.7690    2.9330 C.2       1 A9M         0.1760
      2 O1         25.2250   15.2850    3.4570 O.2       1 A9M        -0.3971
      3 C2         23.7310   15.2180    1.5640 C.3       1 A9M         0.0372
      4 C3         23.3350   16.6910    1.5790 C.3       1 A9M        -0.0361
      5 C4         22.6240   16.9780    0.2620 C.3       1 A9M        -0.0510
      6 C5         23.6330   16.8620   -0.8780 C.3       1 A9M        -0.0529
      7 C6         23.1580   16.1790   -2.1670 C.3       1 A9M        -0.0531
      8 C7         21.7200   15.6880   -2.2110 C.3       1 A9M        -0.0531
      9 C8         21.5460   14.7880   -3.4290 C.3       1 A9M        -0.0531
     10 C9         21.8640   15.4370   -4.7750 C.3       1 A9M        -0.0531
     11 C10        21.6720   14.5370   -5.9940 C.3       1 A9M        -0.0531
     12 C11        22.9480   14.5340   -6.8390 C.3       1 A9M        -0.0531
     13 C12        23.4670   13.1590   -7.2890 C.3       1 A9M        -0.0531
     14 C13        22.6410   11.9410   -6.8550 C.3       1 A9M        -0.0531
     15 C14        23.2840   11.2100   -5.6690 C.3       1 A9M        -0.0531
     16 C15        24.1350   12.0530   -4.7100 C.3       1 A9M        -0.0531
     17 C16        24.7450   11.2850   -3.5320 C.3       1 A9M        -0.0531
     18 C17        23.6410   10.8650   -2.5390 C.3       1 A9M        -0.0531
     19 C18        23.4480   11.9120   -1.4270 C.3       1 A9M        -0.0533
     20 C19        24.5100   11.7250   -0.3350 C.3       1 A9M        -0.0559
     21 C20        23.9350   10.9400    0.8520 C.3       1 A9M        -0.0653
     22 C22        24.2250   11.7520    4.5190 C.3       1 A9M         0.0643
     23 C23        23.8110   13.1790    4.7630 C.3       1 A9M         0.0540
     24 OAC        25.5830   11.8040    4.1270 O.3       1 A9M        -0.3930
     25 NAX        23.5270   13.7620    3.4580 N.am      1 A9M        -0.2848
     26 H1         22.8540   14.6134    1.2894 H         1 A9M         0.0502
     27 H2         24.5273   15.0680    0.8201 H         1 A9M         0.0502
     28 H3         24.2317   17.3218    1.6688 H         1 A9M         0.0290
     29 H4         22.6596   16.8914    2.4237 H         1 A9M         0.0290
     30 H5         22.2046   17.9947    0.2823 H         1 A9M         0.0267
     31 H6         21.8131   16.2497    0.1134 H         1 A9M         0.0267
     32 H7         24.4953   16.2930   -0.5003 H         1 A9M         0.0265
     33 H8         23.9530   17.8808   -1.1418 H         1 A9M         0.0265
     34 H9         23.8088   15.3089   -2.3382 H         1 A9M         0.0265
     35 H10        23.2856   16.8996   -2.9883 H         1 A9M         0.0265
     36 H11        21.0378   16.5476   -2.2859 H         1 A9M         0.0265
     37 H12        21.4950   15.1199   -1.2963 H         1 A9M         0.0265
     38 H13        20.4996   14.4499   -3.4543 H         1 A9M         0.0265
     39 H14        22.2093   13.9191   -3.3063 H         1 A9M         0.0265
     40 H15        22.9143   15.7634   -4.7554 H         1 A9M         0.0265
     41 H16        21.2097   16.3134   -4.8930 H         1 A9M         0.0265
     42 H17        20.8340   14.9141   -6.5986 H         1 A9M         0.0265
     43 H18        21.4517   13.5121   -5.6608 H         1 A9M         0.0265
     44 H19        23.7418   15.0142   -6.2480 H         1 A9M         0.0265
     45 H20        22.7523   15.1298   -7.7427 H         1 A9M         0.0265
     46 H21        24.4823   13.0359   -6.8841 H         1 A9M         0.0265
     47 H22        23.5083   13.1605   -8.3882 H         1 A9M         0.0265
     48 H23        22.5620   11.2441   -7.7024 H         1 A9M         0.0265
     49 H24        21.6357   12.2783   -6.5627 H         1 A9M         0.0265
     50 H25        23.9297   10.4187   -6.0774 H         1 A9M         0.0265
     51 H26        22.4736   10.7548   -5.0807 H         1 A9M         0.0265
     52 H27        23.4979   12.8516   -4.3022 H         1 A9M         0.0265
     53 H28        24.9577   12.4993   -5.2878 H         1 A9M         0.0265
     54 H29        25.4717   11.9294   -3.0157 H         1 A9M         0.0265
     55 H30        25.2549   10.3864   -3.9094 H         1 A9M         0.0265
     56 H31        23.9203    9.9050   -2.0803 H         1 A9M         0.0265
     57 H32        22.6943   10.7480   -3.0868 H         1 A9M         0.0265
     58 H33        22.4476   11.7932   -0.9854 H         1 A9M         0.0265
     59 H34        23.5419   12.9203   -1.8566 H         1 A9M         0.0265
     60 H35        24.8467   12.7123    0.0141 H         1 A9M         0.0263
     61 H36        25.3646   11.1728   -0.7531 H         1 A9M         0.0263
     62 H37        24.7116   10.8178    1.6214 H         1 A9M         0.0230
     63 H38        23.5996    9.9501    0.5091 H         1 A9M         0.0230
     64 H39        23.0818   11.4895    1.2763 H         1 A9M         0.0230
     65 H40        23.6131   11.3073    3.7204 H         1 A9M         0.0577
     66 H41        24.1148   11.1590    5.4389 H         1 A9M         0.0577
     67 H42        24.6251   13.7309    5.2556 H         1 A9M         0.0542
     68 H43        22.9117   13.2099    5.3957 H         1 A9M         0.0542
     69 H44        26.0972   12.1978    4.8220 H         1 A9M         0.2095
     70 H45        22.7640   13.3918    2.9281 H         1 A9M         0.1851
@<TRIPOS>BOND
     1    1    2 2  
     2    1    3 1  
     3   25    1 am 
     4    3    4 1  
     5    4    5 1  
     6    5    6 1  
     7    6    7 1  
     8    7    8 1  
     9    8    9 1  
    10    9   10 1  
    11   10   11 1  
    12   11   12 1  
    13   12   13 1  
    14   13   14 1  
    15   14   15 1  
    16   15   16 1  
    17   16   17 1  
    18   17   18 1  
    19   18   19 1  
    20   19   20 1  
    21   20   21 1  
    22   23   22 1  
    23   22   24 1  
    24   23   25 1  
    25    3   26 1  
    26    3   27 1  
    27    4   28 1  
    28    4   29 1  
    29    5   30 1  
    30    5   31 1  
    31    6   32 1  
    32    6   33 1  
    33    7   34 1  
    34    7   35 1  
    35    8   36 1  
    36    8   37 1  
    37    9   38 1  
    38    9   39 1  
    39   10   40 1  
    40   10   41 1  
    41   11   42 1  
    42   11   43 1  
    43   12   44 1  
    44   12   45 1  
    45   13   46 1  
    46   13   47 1  
    47   14   48 1  
    48   14   49 1  
    49   15   50 1  
    50   15   51 1  
    51   16   52 1  
    52   16   53 1  
    53   17   54 1  
    54   17   55 1  
    55   18   56 1  
    56   18   57 1  
    57   19   58 1  
    58   19   59 1  
    59   20   60 1  
    60   20   61 1  
    61   21   62 1  
    62   21   63 1  
    63   21   64 1  
    64   22   65 1  
    65   22   66 1  
    66   23   67 1  
    67   23   68 1  
    68   24   69 1  
    69   25   70 1  
@<TRIPOS>SUBSTRUCTURE
     1 A9M         1

