1hs6_ligand
  -I-interpret- 

 47 47  0  0  0  0  0  0  0  0999 V2000
   13.7120   41.1860   63.1450 N   0  3  0  0  0
   14.4500   41.7330   64.2550 C   0  0  0  0  0
   13.7490   42.9390   64.8800 C   0  0  0  0  0
   12.3000   42.7270   65.2830 C   0  0  0  0  0
   11.2970   43.5710   64.7990 C   0  0  0  0  0
   11.9340   41.7170   66.1700 C   0  0  0  0  0
    9.9900   43.4540   65.2270 C   0  0  0  0  0
   10.6140   41.5800   66.6000 C   0  0  0  0  0
    9.6390   42.4510   66.1350 C   0  0  0  0  0
   15.8810   42.0650   63.7950 C   0  0  0  0  0
   16.3690   41.0040   62.9990 O   0  0  0  0  0
   16.7410   42.1560   65.0630 C   0  0  0  0  0
   16.9320   41.1850   65.8030 O   0  0  0  0  0
   17.2800   43.3760   65.2500 N   0  0  0  0  0
   18.1570   43.6130   66.3900 C   0  0  0  0  0
   19.5680   43.5950   65.8550 C   0  0  0  0  0
   20.6690   42.8120   66.5760 C   0  0  0  0  0
   20.2100   41.7700   67.5770 C   0  0  0  0  0
   21.6920   42.2870   65.5900 C   0  0  0  0  0
   17.8400   45.0000   67.0530 C   0  0  0  0  0
   17.1600   45.8480   66.3480 O   0  0  0  0  0
   18.2060   45.2260   68.1920 O   0  0  0  0  0
   12.7628   40.9645   63.4455 H   0  0  0  0  0
   13.6797   41.8704   62.3894 H   0  0  0  0  0
   14.1729   40.3372   62.8171 H   0  0  0  0  0
   14.4993   40.9845   65.0458 H   0  0  0  0  0
   13.7456   43.7205   64.1202 H   0  0  0  0  0
   14.2924   43.1696   65.7963 H   0  0  0  0  0
   11.5522   44.3381   64.0679 H   0  0  0  0  0
   12.6913   41.0226   66.5339 H   0  0  0  0  0
    9.2315   44.1438   64.8569 H   0  0  0  0  0
   10.3485   40.7888   67.3012 H   0  0  0  0  0
    8.6080   42.3538   66.4750 H   0  0  0  0  0
   15.9055   42.9914   63.2212 H   0  0  0  0  0
   15.8400   40.9347   62.2009 H   0  0  0  0  0
   17.0752   44.1316   64.5961 H   0  0  0  0  0
   18.0159   42.8515   67.1570 H   0  0  0  0  0
   19.8918   44.6336   65.9229 H   0  0  0  0  0
   19.4797   43.1007   64.8875 H   0  0  0  0  0
   21.1539   43.5437   67.2222 H   0  0  0  0  0
   19.6244   42.2528   68.3594 H   0  0  0  0  0
   19.5966   41.0257   67.0693 H   0  0  0  0  0
   21.0801   41.2850   68.0195 H   0  0  0  0  0
   21.2007   41.6259   64.8761 H   0  0  0  0  0
   22.1460   43.1238   65.0593 H   0  0  0  0  0
   22.4628   41.7348   66.1276 H   0  0  0  0  0
   16.9771   45.4706   65.4845 H   0  0  0  0  0
  1  2  1  0  0  0
  2  3  1  0  0  0
  2 10  1  0  0  0
  3  4  1  0  0  0
  4  5  4  0  0  0
  4  6  4  0  0  0
  5  7  4  0  0  0
  6  8  4  0  0  0
  7  9  4  0  0  0
  8  9  4  0  0  0
 10 11  1  0  0  0
 10 12  1  0  0  0
 12 13  2  0  0  0
 12 14  1  0  0  0
 14 15  1  0  0  0
 15 16  1  0  0  0
 15 20  1  0  0  0
 16 17  1  0  0  0
 17 18  1  0  0  0
 17 19  1  0  0  0
 20 21  1  0  0  0
 20 22  2  0  0  0
  1 23  1  0  0  0
  1 24  1  0  0  0
  1 25  1  0  0  0
  2 26  1  0  0  0
  3 27  1  0  0  0
  3 28  1  0  0  0
  5 29  1  0  0  0
  6 30  1  0  0  0
  7 31  1  0  0  0
  8 32  1  0  0  0
  9 33  1  0  0  0
 10 34  1  0  0  0
 11 35  1  0  0  0
 14 36  1  0  0  0
 15 37  1  0  0  0
 16 38  1  0  0  0
 16 39  1  0  0  0
 17 40  1  0  0  0
 18 41  1  0  0  0
 18 42  1  0  0  0
 18 43  1  0  0  0
 19 44  1  0  0  0
 19 45  1  0  0  0
 19 46  1  0  0  0
 21 47  1  0  0  0
M  END
$$$$
