4gpl_ligand
  -I-interpret- 

 93 95  0  0  0  0  0  0  0  0999 V2000
   58.7040  -41.9200   -4.7940 C   0  0  0  0  0
   58.6360  -42.9020   -5.5290 O   0  0  0  0  0
   58.8440  -42.0950   -3.2940 C   0  0  0  0  0
   58.1870  -40.7710   -5.2340 N   0  0  0  0  0
   57.6700  -40.7530   -6.6500 C   0  0  0  0  0
   58.7760  -40.3040   -7.5650 C   0  0  0  0  0
   59.7200  -39.6440   -7.1450 O   0  0  0  0  0
   56.4350  -39.8590   -6.7870 C   0  0  0  0  0
   55.3260  -40.3920   -5.8960 C   0  0  0  0  0
   54.4700  -41.3820   -6.3590 C   0  0  0  0  0
   55.1480  -39.9170   -4.6010 C   0  0  0  0  0
   53.4610  -41.8640   -5.5420 C   0  0  0  0  0
   54.1410  -40.4240   -3.7750 C   0  0  0  0  0
   53.2800  -41.4010   -4.2450 C   0  0  0  0  0
   52.2630  -41.9700   -3.4900 O   0  0  0  0  0
   51.6920  -41.5610   -2.0300 P   0  0  0  0  0
   52.8000  -41.6930   -1.0080 O   0  0  0  0  0
   50.6170  -42.5820   -1.8300 O   0  0  0  0  0
   51.1730  -40.1600   -2.2850 O   0  0  0  0  0
   58.6940  -40.6550   -8.8310 N   0  0  0  0  0
   59.7930  -40.3670   -9.7410 C   0  0  0  0  0
   59.1630  -39.9020  -11.0520 C   0  0  0  0  0
   57.9880  -40.1570  -11.2810 O   0  0  0  0  0
   60.7230  -41.6170   -9.9600 C   0  0  0  0  0
   59.9440  -42.7190  -10.4240 O   0  0  0  0  0
   61.4070  -42.0680   -8.7070 C   0  0  0  0  0
   59.9390  -39.2020  -11.9030 N   0  0  0  0  0
   59.5010  -38.6880  -13.2210 C   0  0  0  0  0
   58.8490  -39.7390  -14.1070 C   0  0  0  0  0
   59.2690  -40.8760  -14.0780 O   0  0  0  0  0
   60.8170  -38.2630  -13.8630 C   0  0  0  0  0
   61.6420  -37.8040  -12.7120 C   0  0  0  0  0
   61.3010  -38.7390  -11.5680 C   0  0  0  0  0
   57.8340  -39.3670  -14.8890 N   0  0  0  0  0
   57.1850  -40.2910  -15.8440 C   0  0  0  0  0
   58.2100  -40.9330  -16.7950 C   0  0  0  0  0
   59.1420  -40.2650  -17.1700 O   0  0  0  0  0
   56.1860  -39.5220  -16.6930 C   0  0  0  0  0
   55.1530  -38.7150  -15.9460 C   0  0  0  0  0
   53.8730  -38.6250  -16.7480 C   0  0  0  0  0
   53.3820  -39.7140  -17.1090 O   0  0  0  0  0
   53.3620  -37.5050  -17.0320 O   0  0  0  0  0
   58.0360  -42.2080  -17.2100 N   0  0  0  0  0
   59.0310  -42.8930  -18.0660 C   0  0  0  0  0
   59.2500  -42.2720  -19.4460 C   0  0  0  0  0
   58.3220  -42.2250  -20.2450 O   0  0  0  0  0
   58.4570  -44.2950  -18.2420 C   0  0  0  0  0
   57.6030  -44.4740  -17.0680 C   0  0  0  0  0
   56.9910  -43.1390  -16.7730 C   0  0  0  0  0
   60.5000  -42.4870  -19.5900 N   0  0  0  0  0
   57.9857  -42.6479   -2.9123 H   0  0  0  0  0
   59.7587  -42.6469   -3.0777 H   0  0  0  0  0
   58.8879  -41.1155   -2.8177 H   0  0  0  0  0
   58.1437  -39.9432   -4.6396 H   0  0  0  0  0
   57.3563  -41.7589   -6.9289 H   0  0  0  0  0
   56.0998  -39.8572   -7.8242 H   0  0  0  0  0
   56.6865  -38.8418   -6.4867 H   0  0  0  0  0
   54.5921  -41.7802   -7.3663 H   0  0  0  0  0
   55.8062  -39.1346   -4.2232 H   0  0  0  0  0
   52.7885  -42.6299   -5.9285 H   0  0  0  0  0
   54.0331  -40.0489   -2.7573 H   0  0  0  0  0
   53.4665  -41.0217   -1.1717 H   0  0  0  0  0
   51.9145  -39.5619   -2.4033 H   0  0  0  0  0
   57.8591  -41.1295   -9.1749 H   0  0  0  0  0
   60.4396  -39.5954   -9.3231 H   0  0  0  0  0
   61.4779  -41.3073  -10.6827 H   0  0  0  0  0
   60.5146  -43.4796  -10.5564 H   0  0  0  0  0
   62.0268  -41.2585   -8.3214 H   0  0  0  0  0
   60.6579  -42.3397   -7.9633 H   0  0  0  0  0
   62.0326  -42.9330   -8.9273 H   0  0  0  0  0
   58.7496  -37.9070  -13.1043 H   0  0  0  0  0
   60.6803  -37.4835  -14.6125 H   0  0  0  0  0
   61.2904  -39.0748  -14.4152 H   0  0  0  0  0
   61.4273  -36.7664  -12.4563 H   0  0  0  0  0
   62.7059  -37.8334  -12.9473 H   0  0  0  0  0
   62.0115  -39.5599  -11.4706 H   0  0  0  0  0
   61.3505  -38.2486  -10.5958 H   0  0  0  0  0
   57.4924  -38.4080  -14.8257 H   0  0  0  0  0
   56.6948  -41.0720  -15.2628 H   0  0  0  0  0
   55.6331  -40.2695  -17.2619 H   0  0  0  0  0
   56.7687  -38.8060  -17.2726 H   0  0  0  0  0
   55.5397  -37.7094  -15.7805 H   0  0  0  0  0
   54.9420  -39.2024  -14.9941 H   0  0  0  0  0
   53.9003  -36.8045  -16.6563 H   0  0  0  0  0
   60.0102  -42.8384  -17.5903 H   0  0  0  0  0
   59.2347  -45.0558  -18.3086 H   0  0  0  0  0
   57.9055  -44.4028  -19.1760 H   0  0  0  0  0
   58.1826  -44.8320  -16.2171 H   0  0  0  0  0
   56.8323  -45.2208  -17.2587 H   0  0  0  0  0
   56.0398  -42.9832  -17.2820 H   0  0  0  0  0
   56.7200  -43.0155  -15.7245 H   0  0  0  0  0
   60.8836  -42.6629  -20.5186 H   0  0  0  0  0
   61.1152  -42.4829  -18.7765 H   0  0  0  0  0
  1  2  2  0  0  0
  1  3  1  0  0  0
  1  4  1  0  0  0
  4  5  1  0  0  0
  5  6  1  0  0  0
  5  8  1  0  0  0
  6  7  2  0  0  0
  6 20  1  0  0  0
  8  9  1  0  0  0
  9 10  4  0  0  0
  9 11  4  0  0  0
 10 12  4  0  0  0
 11 13  4  0  0  0
 12 14  4  0  0  0
 13 14  4  0  0  0
 14 15  1  0  0  0
 15 16  1  0  0  0
 16 17  1  0  0  0
 16 18  2  0  0  0
 16 19  1  0  0  0
 20 21  1  0  0  0
 21 22  1  0  0  0
 21 24  1  0  0  0
 22 23  2  0  0  0
 22 27  1  0  0  0
 24 25  1  0  0  0
 24 26  1  0  0  0
 27 28  1  0  0  0
 27 33  1  0  0  0
 28 29  1  0  0  0
 28 31  1  0  0  0
 29 30  2  0  0  0
 29 34  1  0  0  0
 31 32  1  0  0  0
 32 33  1  0  0  0
 34 35  1  0  0  0
 35 36  1  0  0  0
 35 38  1  0  0  0
 36 37  2  0  0  0
 36 43  1  0  0  0
 38 39  1  0  0  0
 39 40  1  0  0  0
 40 41  2  0  0  0
 40 42  1  0  0  0
 43 44  1  0  0  0
 43 49  1  0  0  0
 44 45  1  0  0  0
 44 47  1  0  0  0
 45 46  2  0  0  0
 45 50  1  0  0  0
 47 48  1  0  0  0
 48 49  1  0  0  0
  3 51  1  0  0  0
  3 52  1  0  0  0
  3 53  1  0  0  0
  4 54  1  0  0  0
  5 55  1  0  0  0
  8 56  1  0  0  0
  8 57  1  0  0  0
 10 58  1  0  0  0
 11 59  1  0  0  0
 12 60  1  0  0  0
 13 61  1  0  0  0
 17 62  1  0  0  0
 19 63  1  0  0  0
 20 64  1  0  0  0
 21 65  1  0  0  0
 24 66  1  0  0  0
 25 67  1  0  0  0
 26 68  1  0  0  0
 26 69  1  0  0  0
 26 70  1  0  0  0
 28 71  1  0  0  0
 31 72  1  0  0  0
 31 73  1  0  0  0
 32 74  1  0  0  0
 32 75  1  0  0  0
 33 76  1  0  0  0
 33 77  1  0  0  0
 34 78  1  0  0  0
 35 79  1  0  0  0
 38 80  1  0  0  0
 38 81  1  0  0  0
 39 82  1  0  0  0
 39 83  1  0  0  0
 42 84  1  0  0  0
 44 85  1  0  0  0
 47 86  1  0  0  0
 47 87  1  0  0  0
 48 88  1  0  0  0
 48 89  1  0  0  0
 49 90  1  0  0  0
 49 91  1  0  0  0
 50 92  1  0  0  0
 50 93  1  0  0  0
M  END
$$$$
