### 
### Created by X-TOOL on Mon Sep 10 21:13:14 2018
### 

@<TRIPOS>MOLECULE
4gpl_ligand
   90    92     1     0     0
SMALL
GAST_HUCK


@<TRIPOS>ATOM
      1 C          58.7040  -41.9200   -4.7940 C.2       1 ACE         0.1753
      2 O          58.6360  -42.9020   -5.5290 O.2       1 ACE        -0.3972
      3 CH3        58.8440  -42.0950   -3.2940 C.3       1 ACE         0.0258
      4 N          58.1870  -40.7710   -5.2340 N.am      1 PTR        -0.2628
      5 CA         57.6700  -40.7530   -6.6500 C.3       1 PTR         0.1468
      6 C          58.7760  -40.3040   -7.5650 C.2       1 PTR         0.2075
      7 O          59.7200  -39.6440   -7.1450 O.2       1 PTR        -0.3941
      8 CB         56.4350  -39.8590   -6.7870 C.3       1 PTR         0.0400
      9 CG         55.3260  -40.3920   -5.8960 C.ar      1 PTR        -0.0004
     10 CD1        54.4700  -41.3820   -6.3590 C.ar      1 PTR        -0.0239
     11 CD2        55.1480  -39.9170   -4.6010 C.ar      1 PTR        -0.0239
     12 CE1        53.4610  -41.8640   -5.5420 C.ar      1 PTR         0.0115
     13 CE2        54.1410  -40.4240   -3.7750 C.ar      1 PTR         0.0115
     14 CZ         53.2800  -41.4010   -4.2450 C.ar      1 PTR         0.1728
     15 OH         52.2630  -41.9700   -3.4900 O.3       1 PTR        -0.2040
     16 P          51.6920  -41.5610   -2.0300 P.3       1 PTR         0.1348
     17 O1P        52.8000  -41.6930   -1.0080 O.co2     1 PTR        -0.6653
     18 O2P        50.6170  -42.5820   -1.8300 O.co2     1 PTR        -0.6653
     19 O3P        51.1730  -40.1600   -2.2850 O.co2     1 PTR        -0.6653
     20 N          58.6940  -40.6550   -8.8310 N.am      1 THR        -0.2611
     21 CA         59.7930  -40.3670   -9.7410 C.3       1 THR         0.1567
     22 C          59.1630  -39.9020  -11.0520 C.2       1 THR         0.2090
     23 O          57.9880  -40.1570  -11.2810 O.2       1 THR        -0.3941
     24 CB         60.7230  -41.6170   -9.9600 C.3       1 THR         0.0924
     25 OG1        59.9440  -42.7190  -10.4240 O.3       1 THR        -0.3874
     26 CG2        61.4070  -42.0680   -8.7070 C.3       1 THR        -0.0346
     27 N          59.9390  -39.2020  -11.9030 N.am      1 PRO        -0.2498
     28 CA         59.5010  -38.6880  -13.2210 C.3       1 PRO         0.1338
     29 C          58.8490  -39.7390  -14.1070 C.2       1 PRO         0.2041
     30 O          59.2690  -40.8760  -14.0780 O.2       1 PRO        -0.3944
     31 CB         60.8170  -38.2630  -13.8630 C.3       1 PRO        -0.0104
     32 CG         61.6420  -37.8040  -12.7120 C.3       1 PRO        -0.0281
     33 CD         61.3010  -38.7390  -11.5680 C.3       1 PRO         0.0369
     34 N          57.8340  -39.3670  -14.8890 N.am      1 GLU        -0.2636
     35 CA         57.1850  -40.2910  -15.8440 C.3       1 GLU         0.1327
     36 C          58.2100  -40.9330  -16.7950 C.2       1 GLU         0.2065
     37 O          59.1420  -40.2650  -17.1700 O.2       1 GLU        -0.3942
     38 CB         56.1860  -39.5220  -16.6930 C.3       1 GLU        -0.0008
     39 CG         55.1530  -38.7150  -15.9460 C.3       1 GLU         0.0044
     40 CD         53.8730  -38.6250  -16.7480 C.2       1 GLU         0.0350
     41 OE1        53.3820  -39.7140  -17.1090 O.co2     1 GLU        -0.5690
     42 OE2        53.3620  -37.5050  -17.0320 O.co2     1 GLU        -0.5690
     43 N          58.0360  -42.2080  -17.2100 N.am      1 PRO        -0.2498
     44 CA         59.0310  -42.8930  -18.0660 C.3       1 PRO         0.1334
     45 C          59.2500  -42.2720  -19.4460 C.2       1 PRO         0.1994
     46 O          58.3220  -42.2250  -20.2450 O.2       1 PRO        -0.3947
     47 CB         58.4570  -44.2950  -18.2420 C.3       1 PRO        -0.0104
     48 CG         57.6030  -44.4740  -17.0680 C.3       1 PRO        -0.0281
     49 CD         56.9910  -43.1390  -16.7730 C.3       1 PRO         0.0369
     50 N          60.5000  -42.4870  -19.5900 N.am      1 NH2        -0.2990
     51 H1         58.8884  -41.1071   -2.8122 H         1 ACE         0.0467
     52 H2         59.7668  -42.6518   -3.0743 H         1 ACE         0.0467
     53 H3         57.9783  -42.6528   -2.9075 H         1 ACE         0.0467
     54 H4         58.1445  -39.9594   -4.6513 H         1 PTR         0.1885
     55 H5         57.3803  -41.7770   -6.9284 H         1 PTR         0.0840
     56 H6         56.0966  -39.8582   -7.8336 H         1 PTR         0.0584
     57 H7         56.6890  -38.8328   -6.4829 H         1 PTR         0.0584
     58 H8         54.5915  -41.7780   -7.3607 H         1 PTR         0.0703
     59 H9         55.8026  -39.1389   -4.2253 H         1 PTR         0.0703
     60 H10        52.7922  -42.6257   -5.9263 H         1 PTR         0.0736
     61 H11        54.0337  -40.0510   -2.7629 H         1 PTR         0.0736
     62 H12        57.8755  -41.1202   -9.1681 H         1 THR         0.1884
     63 H13        60.4040  -39.5534   -9.3230 H         1 THR         0.0826
     64 H14        61.4842  -41.3579  -10.7106 H         1 THR         0.0639
     65 H15        59.2789  -42.9292   -9.7789 H         1 THR         0.2101
     66 H16        62.0387  -42.9410   -8.9280 H         1 THR         0.0257
     67 H17        60.6520  -42.3426   -7.9556 H         1 THR         0.0257
     68 H18        62.0329  -41.2519   -8.3168 H         1 THR         0.0257
     69 H19        58.8149  -37.8373  -13.0963 H         1 PRO         0.0802
     70 H20        60.6566  -37.4452  -14.5809 H         1 PRO         0.0313
     71 H21        61.2955  -39.1113  -14.3744 H         1 PRO         0.0313
     72 H22        61.3896  -36.7664  -12.4482 H         1 PRO         0.0287
     73 H23        62.7125  -37.8703  -12.9561 H         1 PRO         0.0287
     74 H24        62.0050  -39.5831  -11.5257 H         1 PRO         0.0524
     75 H25        61.3104  -38.2050  -10.6064 H         1 PRO         0.0524
     76 H26        57.4991  -38.4268  -14.8269 H         1 GLU         0.1883
     77 H27        56.6653  -41.0806  -15.2815 H         1 GLU         0.0801
     78 H28        55.6519  -40.2490  -17.3224 H         1 GLU         0.0330
     79 H29        56.7531  -38.8298  -17.3328 H         1 GLU         0.0330
     80 H30        55.5425  -37.7014  -15.7702 H         1 GLU         0.0433
     81 H31        54.9428  -39.1995  -14.9811 H         1 GLU         0.0433
     82 H32        59.9984  -42.9302  -17.5437 H         1 PRO         0.0802
     83 H33        59.2594  -45.0472  -18.2608 H         1 PRO         0.0313
     84 H34        57.8682  -44.3636  -19.1686 H         1 PRO         0.0313
     85 H35        58.2031  -44.8135  -16.2109 H         1 PRO         0.0287
     86 H36        56.8164  -45.2129  -17.2806 H         1 PRO         0.0287
     87 H37        56.0629  -42.9920  -17.3449 H         1 PRO         0.0524
     88 H38        56.7817  -43.0262  -15.6990 H         1 PRO         0.0524
     89 H39        60.9660  -42.1883  -20.4228 H         1 NH2         0.1815
     90 H40        61.0132  -42.9541  -18.8700 H         1 NH2         0.1815
@<TRIPOS>BOND
     1    1    2 2  
     2    1    3 1  
     3    1    4 am 
     4    4    5 1  
     5    5    6 1  
     6    5    8 1  
     7    6    7 2  
     8    6   20 am 
     9    8    9 1  
    10    9   10 ar 
    11    9   11 ar 
    12   10   12 ar 
    13   11   13 ar 
    14   12   14 ar 
    15   13   14 ar 
    16   14   15 1  
    17   15   16 1  
    18   16   17 ar 
    19   16   18 ar 
    20   16   19 ar 
    21   20   21 1  
    22   21   22 1  
    23   21   24 1  
    24   22   23 2  
    25   22   27 am 
    26   24   25 1  
    27   24   26 1  
    28   27   28 1  
    29   27   33 1  
    30   28   29 1  
    31   28   31 1  
    32   29   30 2  
    33   29   34 am 
    34   31   32 1  
    35   32   33 1  
    36   34   35 1  
    37   35   36 1  
    38   35   38 1  
    39   36   37 2  
    40   36   43 am 
    41   38   39 1  
    42   39   40 1  
    43   40   41 ar 
    44   40   42 ar 
    45   43   44 1  
    46   43   49 1  
    47   44   45 1  
    48   44   47 1  
    49   45   46 2  
    50   45   50 am 
    51   47   48 1  
    52   48   49 1  
    53    3   51 1  
    54    3   52 1  
    55    3   53 1  
    56    4   54 1  
    57    5   55 1  
    58    8   56 1  
    59    8   57 1  
    60   10   58 1  
    61   11   59 1  
    62   12   60 1  
    63   13   61 1  
    64   20   62 1  
    65   21   63 1  
    66   24   64 1  
    67   25   65 1  
    68   26   66 1  
    69   26   67 1  
    70   26   68 1  
    71   28   69 1  
    72   31   70 1  
    73   31   71 1  
    74   32   72 1  
    75   32   73 1  
    76   33   74 1  
    77   33   75 1  
    78   34   76 1  
    79   35   77 1  
    80   38   78 1  
    81   38   79 1  
    82   39   80 1  
    83   39   81 1  
    84   44   82 1  
    85   47   83 1  
    86   47   84 1  
    87   48   85 1  
    88   48   86 1  
    89   49   87 1  
    90   49   88 1  
    91   50   89 1  
    92   50   90 1  
@<TRIPOS>SUBSTRUCTURE
     1 ACE         1

