#	Name:			6e5b_ligand
#	Creating user name:	wangrx
#	Creation time:		Thu Aug  5 18:21:55 2021

#	Modifying user name:	wangrx
#	Modification time:	Thu Aug  5 18:22:18 2021

@<TRIPOS>MOLECULE
6e5b_ligand
   65    66     1     0     0
SMALL
GAST_HUCK


@<TRIPOS>ATOM
      1 C1         -3.2160   21.2130   -0.5310 C.3       1 HUJ        -0.1586 
      2 C2         -2.3650   20.4330   -1.5490 C.3       1 HUJ        -0.0721 
      3 C3         -1.0610   19.9000   -0.9590 C.3       1 HUJ        -0.0649 
      4 C4         -2.0700   21.2890   -2.7750 C.3       1 HUJ        -0.0649 
      5 C5         -3.7160   17.9990    1.1200 C.2       1 HUJ         0.1725 
      6 C6         -4.1790   16.6840    0.5820 C.2       1 HUJ         0.1321 
      7 C7         -4.3110   15.4920    1.2800 C.2       1 HUJ         0.0992 
      8 C8         -5.0440   13.1270    0.5310 C.3       1 HUJ         0.1007 
      9 C11        -9.1340   14.1940    2.8540 C.ar      1 HUJ         0.0593 
     10 C12        -9.7850   14.3930    1.6200 C.ar      1 HUJ        -0.0689 
     11 C15       -11.2930   14.4190    3.9810 C.ar      1 HUJ         0.1532 
     12 C16        -9.9010   14.2120    4.0440 C.ar      1 HUJ         0.1328 
     13 C17        -9.0550   15.1380    6.1380 C.3       1 HUJ         0.0581 
     14 C18       -12.4550   13.2150    5.7660 C.3       1 HUJ         0.0541 
     15 C19       -13.8380   16.1440    2.9530 C.3       1 HUJ         0.0576 
     16 N          -4.0070   19.1220    0.4460 N.am      1 HUJ        -0.4407 
     17 C          -3.5740   20.4890    0.7870 C.3       1 HUJ        -0.2273 
     18 O          -3.0660   17.9810    2.1470 O.2       1 HUJ        -0.3986 
     19 N1         -4.7160   14.5540    0.4200 N.pl3     1 HUJ        -0.1616 
     20 O1         -6.9630   14.6180    3.6620 O.2       1 HUJ        -0.3958 
     21 N2         -4.8310   15.0910   -0.8620 N.2       1 HUJ        -0.0882 
     22 O2         -9.3160   14.0260    5.2790 O.3       1 HUJ        -0.3227 
     23 N3         -4.4680   16.4410   -0.7170 N.2       1 HUJ        -0.2065 
     24 O3        -12.0420   14.4350    5.1330 O.3       1 HUJ        -0.3287 
     25 N4         -7.0950   13.0970    1.9880 N.am      1 HUJ        -0.2867 
     26 O4        -13.2850   14.8160    2.6760 O.3       1 HUJ        -0.3248 
     27 O5         -4.7050   20.8200    3.0780 O.3       1 HUJ        -0.4105 
     28 O6         -6.0130   21.2630    0.9390 O.3       1 HUJ        -0.4105 
     29 C9         -5.6740   12.7690    1.8780 C.3       1 HUJ         0.0609 
     30 C10        -7.6330   13.9740    2.8620 C.2       1 HUJ         0.1891 
     31 C13       -11.1730   14.5980    1.5630 C.ar      1 HUJ        -0.0456 
     32 C14       -11.9290   14.6120    2.7450 C.ar      1 HUJ         0.1167 
     33 B          -4.6450   21.3600    1.6360 B         1 HUJ         3.0000 
     34 H1         -4.1595   21.4850   -1.0267 H         1 HUJ        -0.0063 
     35 H2         -2.6633   22.1269   -0.2677 H         1 HUJ        -0.0063 
     36 H3         -2.9582   19.5662   -1.8757 H         1 HUJ         0.0272 
     37 H4         -0.5032   19.3553   -1.7349 H         1 HUJ         0.0232 
     38 H5         -1.2871   19.2201   -0.1244 H         1 HUJ         0.0232 
     39 H6         -0.4535   20.7408   -0.5928 H         1 HUJ         0.0232 
     40 H7         -3.0141   21.6684   -3.1931 H         1 HUJ         0.0232 
     41 H8         -1.5525   20.6805   -3.5312 H         1 HUJ         0.0232 
     42 H9         -1.4306   22.1360   -2.4856 H         1 HUJ         0.0232 
     43 H10        -4.1183   15.3470    2.3420 H         1 HUJ         0.1132 
     44 H11        -4.1200   12.5430    0.4085 H         1 HUJ         0.0677 
     45 H12        -5.7520   12.8654   -0.2692 H         1 HUJ         0.0677 
     46 H13        -9.2068   14.3877    0.7031 H         1 HUJ         0.0524 
     47 H14        -8.5889   14.7812    7.0683 H         1 HUJ         0.0576 
     48 H15       -10.0002   15.6488    6.3740 H         1 HUJ         0.0576 
     49 H16        -8.3750   15.8398    5.6330 H         1 HUJ         0.0576 
     50 H17       -13.0406   13.4495    6.6671 H         1 HUJ         0.0568 
     51 H18       -11.5675   12.6293    6.0477 H         1 HUJ         0.0568 
     52 H19       -13.0735   12.6311    5.0685 H         1 HUJ         0.0568 
     53 H20       -14.9327   16.1142    2.8496 H         1 HUJ         0.0575 
     54 H21       -13.4220   16.8706    2.2395 H         1 HUJ         0.0575 
     55 H22       -13.5746   16.4444    3.9779 H         1 HUJ         0.0575 
     56 H23        -4.5754   19.0213   -0.3706 H         1 HUJ         0.1447 
     57 H25        -2.6925   20.4495    1.4438 H         1 HUJ        -0.1823 
     58 H26        -7.7215   12.6320    1.3625 H         1 HUJ         0.1838 
     59 H27        -3.8468   20.8941    3.4787 H         1 HUJ         0.2052 
     60 H28        -3.8469   20.8941    3.4787 H         1 HUJ         0.2052 
     61 H29        -6.2880   20.3542    0.9087 H         1 HUJ         0.2052 
     62 H30        -6.2880   20.3542    0.9087 H         1 HUJ         0.2052 
     63 H31        -5.1335   13.3138    2.6660 H         1 HUJ         0.0549 
     64 H32        -5.5579   11.6865    2.0350 H         1 HUJ         0.0549 
     65 H33       -11.6604   14.7454    0.6060 H         1 HUJ         0.0442 
@<TRIPOS>BOND
     1    1    2 1    
     2   17    1 1    
     3    2    3 1    
     4    2    4 1    
     5    6    5 1    
     6    5   16 am   
     7    5   18 2    
     8    7    6 2    
     9   23    6 1    
    10   19    7 1    
    11    8   19 1    
    12   29    8 1    
    13    9   10 ar   
    14   12    9 ar   
    15    9   30 1    
    16   10   31 ar   
    17   11   12 ar   
    18   11   24 1    
    19   32   11 ar   
    20   12   22 1    
    21   22   13 1    
    22   24   14 1    
    23   26   15 1    
    24   16   17 1    
    25   17   33 1    
    26   19   21 1    
    27   30   20 2    
    28   21   23 2    
    29   25   29 1    
    30   30   25 am   
    31   26   32 1    
    32   33   27 1    
    33   33   28 1    
    34   31   32 ar   
    35    1   34 1    
    36    1   35 1    
    37    2   36 1    
    38    3   37 1    
    39    3   38 1    
    40    3   39 1    
    41    4   40 1    
    42    4   41 1    
    43    4   42 1    
    44    7   43 1    
    45    8   44 1    
    46    8   45 1    
    47   10   46 1    
    48   13   47 1    
    49   13   48 1    
    50   13   49 1    
    51   14   50 1    
    52   14   51 1    
    53   14   52 1    
    54   15   53 1    
    55   15   54 1    
    56   15   55 1    
    57   16   56 1    
    58   17   57 1    
    59   25   58 1    
    60   27   59 1    
    61   27   60 1    
    62   28   61 1    
    63   28   62 1    
    64   29   63 1    
    65   29   64 1    
    66   31   65 1    
@<TRIPOS>SUBSTRUCTURE
     1 HUJ         1 PERM              0 ****  ****    0 ROOT 
