6e5b_ligand

Created by X-TOOL on Mon Aug  2 16:10:24 2021
 66 67  0  0  0  0  0  0  0  0999 V2000
   -3.2160   21.2130   -0.5310  C 0  0  0  3  0  4
   -2.3650   20.4330   -1.5490  C 0  0  0  2  0  4
   -1.0610   19.9000   -0.9590  C 0  0  0  4  0  4
   -2.0700   21.2890   -2.7750  C 0  0  0  4  0  4
   -3.7160   17.9990    1.1200  C 0  0  0  1  0  3
   -4.1790   16.6840    0.5820  C 0  0  0  1  0  3
   -4.3110   15.4920    1.2800  C 0  0  0  2  0  3
   -5.0440   13.1270    0.5310  C 0  0  0  3  0  4
   -9.1340   14.1940    2.8540  C 0  0  0  1  0  3
   -9.7850   14.3930    1.6200  C 0  0  0  2  0  3
  -11.2930   14.4190    3.9810  C 0  0  0  1  0  3
   -9.9010   14.2120    4.0440  C 0  0  0  1  0  3
   -9.0550   15.1380    6.1380  C 0  0  0  4  0  4
  -12.4550   13.2150    5.7660  C 0  0  0  4  0  4
  -13.8380   16.1440    2.9530  C 0  0  0  4  0  4
   -4.0070   19.1220    0.4460  N 0  0  0  2  0  3
   -3.5740   20.4890    0.7870  C 0  0  0  3  0  5
   -3.0660   17.9810    2.1470  O 0  0  0  1  0  1
   -4.7160   14.5540    0.4200  N 0  0  0  1  0  3
   -6.9630   14.6180    3.6620  O 0  0  0  1  0  1
   -4.8310   15.0910   -0.8620  N 0  0  0  1  0  2
   -9.3160   14.0260    5.2790  O 0  0  0  1  0  2
   -4.4680   16.4410   -0.7170  N 0  0  0  1  0  2
  -12.0420   14.4350    5.1330  O 0  0  0  1  0  2
   -7.0950   13.0970    1.9880  N 0  0  0  2  0  3
  -13.2850   14.8160    2.6760  O 0  0  0  1  0  2
   -4.7050   20.8200    3.0780  O 0  0  0  3  0  3
   -6.0130   21.2630    0.9390  O 0  0  0  3  0  3
   -5.6740   12.7690    1.8780  C 0  0  0  3  0  4
   -7.6330   13.9740    2.8620  C 0  0  0  1  0  3
  -11.1730   14.5980    1.5630  C 0  0  0  2  0  3
  -11.9290   14.6120    2.7450  C 0  0  0  1  0  3
   -4.6450   21.3600    1.6360  B 0  0  0  1  0  3
   -4.1595   21.4850   -1.0267  H 0  0  0  1  0  1
   -2.6633   22.1269   -0.2677  H 0  0  0  1  0  1
   -2.9582   19.5662   -1.8757  H 0  0  0  1  0  1
   -0.5032   19.3553   -1.7349  H 0  0  0  1  0  1
   -1.2871   19.2201   -0.1244  H 0  0  0  1  0  1
   -0.4535   20.7408   -0.5928  H 0  0  0  1  0  1
   -3.0141   21.6684   -3.1931  H 0  0  0  1  0  1
   -1.5525   20.6805   -3.5312  H 0  0  0  1  0  1
   -1.4306   22.1360   -2.4856  H 0  0  0  1  0  1
   -4.1183   15.3470    2.3420  H 0  0  0  1  0  1
   -4.1200   12.5430    0.4085  H 0  0  0  1  0  1
   -5.7520   12.8654   -0.2692  H 0  0  0  1  0  1
   -9.2068   14.3877    0.7031  H 0  0  0  1  0  1
   -8.5889   14.7812    7.0683  H 0  0  0  1  0  1
  -10.0002   15.6488    6.3740  H 0  0  0  1  0  1
   -8.3750   15.8398    5.6330  H 0  0  0  1  0  1
  -13.0406   13.4495    6.6671  H 0  0  0  1  0  1
  -11.5675   12.6293    6.0477  H 0  0  0  1  0  1
  -13.0735   12.6311    5.0685  H 0  0  0  1  0  1
  -14.9327   16.1142    2.8496  H 0  0  0  1  0  1
  -13.4220   16.8706    2.2395  H 0  0  0  1  0  1
  -13.5746   16.4444    3.9779  H 0  0  0  1  0  1
   -4.5754   19.0213   -0.3706  H 0  0  0  1  0  1
   -4.3885   21.0231    1.2982  H 0  0  0  1  0  1
   -2.6925   20.4495    1.4438  H 0  0  0  1  0  1
   -7.7215   12.6320    1.3625  H 0  0  0  1  0  1
   -3.8468   20.8941    3.4787  H 0  0  0  1  0  1
   -3.8469   20.8941    3.4787  H 0  0  0  1  0  1
   -6.2880   20.3542    0.9087  H 0  0  0  1  0  1
   -6.2880   20.3542    0.9087  H 0  0  0  1  0  1
   -5.1335   13.3138    2.6660  H 0  0  0  1  0  1
   -5.5579   11.6865    2.0350  H 0  0  0  1  0  1
  -11.6604   14.7454    0.6060  H 0  0  0  1  0  1
  1  2  1  0  0  2
 17  1  1  0  0  2
  2  3  1  0  0  2
  2  4  1  0  0  2
  6  5  1  0  0  2
  5 16  1  0  0  2
  5 18  2  0  0  2
  7  6  2  0  0  1
 23  6  1  0  0  1
 19  7  1  0  0  1
  8 19  1  0  0  2
 29  8  1  0  0  2
  9 10  4  0  0  1
 12  9  4  0  0  1
  9 30  1  0  0  2
 10 31  4  0  0  1
 11 12  4  0  0  1
 11 24  1  0  0  2
 32 11  4  0  0  1
 12 22  1  0  0  2
 22 13  1  0  0  2
 24 14  1  0  0  2
 26 15  1  0  0  2
 16 17  1  0  0  2
 17 33  1  0  0  2
 19 21  1  0  0  1
 30 20  2  0  0  2
 21 23  2  0  0  1
 25 29  1  0  0  2
 30 25  1  0  0  2
 26 32  1  0  0  2
 33 27  1  0  0  2
 33 28  1  0  0  2
 31 32  4  0  0  1
  1 34  1  0  0  2
  1 35  1  0  0  2
  2 36  1  0  0  2
  3 37  1  0  0  2
  3 38  1  0  0  2
  3 39  1  0  0  2
  4 40  1  0  0  2
  4 41  1  0  0  2
  4 42  1  0  0  2
  7 43  1  0  0  2
  8 44  1  0  0  2
  8 45  1  0  0  2
 10 46  1  0  0  2
 13 47  1  0  0  2
 13 48  1  0  0  2
 13 49  1  0  0  2
 14 50  1  0  0  2
 14 51  1  0  0  2
 14 52  1  0  0  2
 15 53  1  0  0  2
 15 54  1  0  0  2
 15 55  1  0  0  2
 16 56  1  0  0  2
 17 57  1  0  0  2
 17 58  1  0  0  2
 25 59  1  0  0  2
 27 60  1  0  0  2
 27 61  1  0  0  2
 28 62  1  0  0  2
 28 63  1  0  0  2
 29 64  1  0  0  2
 29 65  1  0  0  2
 31 66  1  0  0  2
M  END
> <MOLECULAR_FORMULA>
C20H33N5O7B

> <MOLECULAR_WEIGHT>
466.1

> <NUM_HB_ATOMS>
12 

> <NUM_ROTOR>
10 

> <XLOGP2>
0.34 

$$$$
