5oq5_ligand
  -I-interpret- 

 82 87  0  0  0  0  0  0  0  0999 V2000
    4.7250   -5.0490   18.8780 C   0  0  0  0  0
    5.8140   -4.1400   18.9560 C   0  0  0  0  0
    5.5610   -2.9680   19.6580 C   0  0  0  0  0
    4.3370   -2.7080   20.2540 N   0  0  0  0  0
    3.5700   -4.8080   19.4640 N   0  0  0  0  0
   -8.4380   -2.0250   21.5930 C   0  0  0  0  0
   -9.2950   -0.7810   21.9100 C   0  0  0  0  0
   -9.1170    0.2530   20.8380 N   0  3  0  0  0
   -9.8960    1.4750   21.1670 C   0  0  0  0  0
   -7.6710    0.6050   20.6470 C   0  0  0  0  0
   -6.8550   -0.6660   20.3530 C   0  0  0  0  0
   -7.0260   -1.6000   21.4830 N   0  3  0  0  0
   -6.0090   -2.7450   21.5110 C   0  0  0  0  0
   -6.5450   -4.0730   20.9890 C   0  0  0  0  0
   -5.5030   -5.2280   21.3350 C   0  0  0  0  0
   -4.8070   -2.4060   20.7520 C   0  0  0  0  0
   -3.6840   -3.2990   21.2120 C   0  0  0  0  0
   -4.0590   -4.7860   21.0850 N   0  0  0  0  0
   -3.0210   -5.7680   20.9260 C   0  0  0  0  0
   -3.1830   -6.9940   20.9680 O   0  0  0  0  0
   -1.5910   -5.2470   20.8270 C   0  0  0  0  0
   -1.1360   -4.4060   21.8210 C   0  0  0  0  0
    0.1120   -3.8210   21.7930 C   0  0  0  0  0
    0.6100   -3.0090   22.7700 O   0  0  0  0  0
   -0.2750   -2.8380   23.9950 C   0  0  0  0  0
   -0.7340   -5.5260   19.7570 C   0  0  0  0  0
    0.5480   -4.9690   19.7420 C   0  0  0  0  0
    1.0120   -4.0700   20.7380 C   0  0  0  0  0
    2.2220   -3.3620   20.7890 N   0  0  0  0  0
    3.3960   -3.6100   20.1700 C   0  0  0  0  0
    4.7390   -6.2010   18.1580 N   0  0  0  0  0
    3.9370   -7.3290   18.5050 C   0  0  0  0  0
    5.1180   -6.0990   16.7490 C   0  0  0  0  0
    4.1970   -6.6710   15.8450 C   0  0  0  0  0
    4.5290   -6.4950   14.4810 C   0  0  0  0  0
    5.7060   -5.9580   14.0860 C   0  0  0  0  0
    6.6350   -5.3930   14.9560 C   0  0  0  0  0
    6.3290   -5.5440   16.3330 C   0  0  0  0  0
    7.3740   -5.0080   17.2580 C   0  0  0  0  0
    8.5280   -5.0890   16.8850 O   0  0  0  0  0
    7.0420   -4.3670   18.4770 N   0  0  0  0  0
    8.2260   -3.7780   19.1320 C   0  0  0  0  0
    6.3545   -2.2255   19.7432 H   0  0  0  0  0
   -8.7665   -2.4768   20.6571 H   0  0  0  0  0
   -8.5451   -2.7649   22.3862 H   0  0  0  0  0
   -8.9800   -0.3633   22.8663 H   0  0  0  0  0
  -10.3445   -1.0716   21.9566 H   0  0  0  0  0
   -9.4635   -0.1439   19.9646 H   0  0  0  0  0
  -10.9530    1.2204   21.2452 H   0  0  0  0  0
   -9.5477    1.8817   22.1164 H   0  0  0  0  0
   -9.7567    2.2160   20.3798 H   0  0  0  0  0
   -7.2923    1.0722   21.5561 H   0  0  0  0  0
   -7.5772    1.2938   19.8074 H   0  0  0  0  0
   -5.8014   -0.4138   20.2332 H   0  0  0  0  0
   -7.2043   -1.1288   19.4300 H   0  0  0  0  0
   -6.8037   -1.0893   22.3375 H   0  0  0  0  0
   -5.7770   -2.8750   22.5681 H   0  0  0  0  0
   -6.6820   -4.0142   19.9093 H   0  0  0  0  0
   -7.5040   -4.2915   21.4588 H   0  0  0  0  0
   -5.7149   -6.0835   20.6936 H   0  0  0  0  0
   -5.6066   -5.4773   22.3910 H   0  0  0  0  0
   -4.5439   -1.3614   20.9184 H   0  0  0  0  0
   -4.9860   -2.5517   19.6867 H   0  0  0  0  0
   -3.4779   -3.0829   22.2603 H   0  0  0  0  0
   -2.8121   -3.1078   20.5864 H   0  0  0  0  0
   -1.7918   -4.1947   22.6656 H   0  0  0  0  0
   -1.2302   -2.4075   23.6943 H   0  0  0  0  0
   -0.4430   -3.8100   24.4588 H   0  0  0  0  0
    0.2162   -2.1744   24.7067 H   0  0  0  0  0
   -1.0629   -6.1716   18.9427 H   0  0  0  0  0
    1.2221   -5.2371   18.9285 H   0  0  0  0  0
    2.2136   -2.5338   21.3843 H   0  0  0  0  0
    3.0056   -7.2986   17.9397 H   0  0  0  0  0
    4.4781   -8.2448   18.2673 H   0  0  0  0  0
    3.7168   -7.3022   19.5722 H   0  0  0  0  0
    3.3039   -7.2042   16.1709 H   0  0  0  0  0
    3.8107   -6.8031   13.7213 H   0  0  0  0  0
    5.9416   -5.9681   13.0218 H   0  0  0  0  0
    7.5279   -4.8750   14.6062 H   0  0  0  0  0
    8.9499   -4.5642   19.3462 H   0  0  0  0  0
    8.6760   -3.0387   18.4694 H   0  0  0  0  0
    7.9235   -3.2975   20.0625 H   0  0  0  0  0
  1  2  4  0  0  0
  5  1  4  0  0  0
  1 31  1  0  0  0
  3  2  4  0  0  0
  2 41  1  0  0  0
  4  3  4  0  0  0
 30  4  4  0  0  0
 30  5  4  0  0  0
  6  7  1  0  0  0
 12  6  1  0  0  0
  7  8  1  0  0  0
  8  9  1  0  0  0
 10  8  1  0  0  0
 11 10  1  0  0  0
 12 11  1  0  0  0
 13 12  1  0  0  0
 14 13  1  0  0  0
 16 13  1  0  0  0
 15 14  1  0  0  0
 18 15  1  0  0  0
 17 16  1  0  0  0
 18 17  1  0  0  0
 19 18  1  0  0  0
 19 20  2  0  0  0
 21 19  1  0  0  0
 22 21  4  0  0  0
 26 21  4  0  0  0
 23 22  4  0  0  0
 23 24  1  0  0  0
 28 23  4  0  0  0
 24 25  1  0  0  0
 27 26  4  0  0  0
 28 27  4  0  0  0
 29 28  1  0  0  0
 29 30  1  0  0  0
 31 32  1  0  0  0
 31 33  1  0  0  0
 33 34  4  0  0  0
 33 38  4  0  0  0
 34 35  4  0  0  0
 35 36  4  0  0  0
 36 37  4  0  0  0
 37 38  4  0  0  0
 38 39  1  0  0  0
 39 40  2  0  0  0
 39 41  1  0  0  0
 41 42  1  0  0  0
  3 43  1  0  0  0
  6 44  1  0  0  0
  6 45  1  0  0  0
  7 46  1  0  0  0
  7 47  1  0  0  0
  8 48  1  0  0  0
  9 49  1  0  0  0
  9 50  1  0  0  0
  9 51  1  0  0  0
 10 52  1  0  0  0
 10 53  1  0  0  0
 11 54  1  0  0  0
 11 55  1  0  0  0
 12 56  1  0  0  0
 13 57  1  0  0  0
 14 58  1  0  0  0
 14 59  1  0  0  0
 15 60  1  0  0  0
 15 61  1  0  0  0
 16 62  1  0  0  0
 16 63  1  0  0  0
 17 64  1  0  0  0
 17 65  1  0  0  0
 22 66  1  0  0  0
 25 67  1  0  0  0
 25 68  1  0  0  0
 25 69  1  0  0  0
 26 70  1  0  0  0
 27 71  1  0  0  0
 29 72  1  0  0  0
 32 73  1  0  0  0
 32 74  1  0  0  0
 32 75  1  0  0  0
 34 76  1  0  0  0
 35 77  1  0  0  0
 36 78  1  0  0  0
 37 79  1  0  0  0
 42 80  1  0  0  0
 42 81  1  0  0  0
 42 82  1  0  0  0
M  END
$$$$
