4jsr_ligand
  -I-interpret- 

 59 62  0  0  0  0  0  0  0  0999 V2000
   21.1630   54.2790   -6.4830 C   0  0  0  0  0
   21.3500   53.3760   -7.7050 C   0  0  0  0  0
   21.9500   52.1010   -7.2860 N   0  0  0  0  0
   22.1560   51.8070   -6.0050 C   0  0  0  0  0
   21.8720   52.5560   -5.0720 O   0  0  0  0  0
   22.7890   50.4370   -5.7510 C   0  0  0  0  0
   23.2900   49.8570   -4.2580 S   0  0  0  0  0
   23.0320   49.5080   -6.6850 C   0  0  0  0  0
   23.5990   48.3780   -6.2060 C   0  0  0  0  0
   23.8160   48.3910   -4.8850 C   0  0  0  0  0
   24.4430   47.2530   -4.0770 C   0  0  0  0  0
   24.7330   47.4040   -2.8910 O   0  0  0  0  0
   24.6380   46.1250   -4.7530 N   0  0  0  0  0
   25.2300   44.9340   -4.1270 C   0  0  0  0  0
   24.1200   44.0600   -3.5400 C   0  0  0  0  0
   23.7960   44.4750   -2.1040 C   0  0  0  0  0
   22.8210   43.4690   -1.4890 C   0  0  0  0  0
   22.4780   43.8490   -0.0470 C   0  0  0  0  0
   25.0840   44.5090   -1.2790 C   0  0  0  0  0
   24.7990   44.9150    0.1690 C   0  0  0  0  0
   23.7260   44.0560    0.7200 N   0  0  0  0  0
   23.8940   43.4400    1.9650 C   0  0  0  0  0
   24.7080   43.9750    2.8840 N   0  0  0  0  0
   24.8640   43.3910    4.0590 C   0  0  0  0  0
   24.2340   42.2710    4.3740 N   0  0  0  0  0
   23.3990   41.6660    3.5150 C   0  0  0  0  0
   22.6840   40.5300    3.6770 C   0  0  0  0  0
   23.2190   42.2670    2.2650 C   0  0  0  0  0
   22.1380   41.3090    1.4050 S   0  0  0  0  0
   21.9360   40.1800    2.6250 C   0  0  0  0  0
   21.0380   38.9440    2.5490 C   0  0  0  0  0
   20.5150   38.6050    1.4890 O   0  0  0  0  0
   20.8800   38.2920    3.6980 N   0  0  0  0  0
   20.5064   53.7864   -5.7659 H   0  0  0  0  0
   22.1318   54.4676   -6.0205 H   0  0  0  0  0
   20.7181   55.2237   -6.7956 H   0  0  0  0  0
   22.0067   53.8677   -8.4227 H   0  0  0  0  0
   20.3816   53.1867   -8.1681 H   0  0  0  0  0
   22.2163   51.4216   -7.9986 H   0  0  0  0  0
   22.7935   49.6506   -7.7390 H   0  0  0  0  0
   23.8571   47.5300   -6.8403 H   0  0  0  0  0
   24.3686   46.0847   -5.7360 H   0  0  0  0  0
   25.9087   45.2416   -3.3315 H   0  0  0  0  0
   25.7811   44.3660   -4.8765 H   0  0  0  0  0
   24.4566   43.0233   -3.5366 H   0  0  0  0  0
   23.2235   44.1783   -4.1486 H   0  0  0  0  0
   23.3410   45.4655   -2.1065 H   0  0  0  0  0
   23.2881   42.4842   -1.4894 H   0  0  0  0  0
   21.9036   43.4664   -2.0776 H   0  0  0  0  0
   21.8990   43.0474    0.4116 H   0  0  0  0  0
   21.8931   44.7688   -0.0435 H   0  0  0  0  0
   25.7618   45.2401   -1.7197 H   0  0  0  0  0
   25.5268   43.5130   -1.2817 H   0  0  0  0  0
   24.4814   45.9573    0.1985 H   0  0  0  0  0
   25.7035   44.7941    0.7651 H   0  0  0  0  0
   25.5318   43.8456    4.7908 H   0  0  0  0  0
   22.7148   39.9438    4.5954 H   0  0  0  0  0
   20.2957   37.4567    3.7342 H   0  0  0  0  0
   21.3432   38.6274    4.5426 H   0  0  0  0  0
  1  2  1  0  0  0
  2  3  1  0  0  0
  3  4  1  0  0  0
  4  5  2  0  0  0
  4  6  1  0  0  0
  6  7  4  0  0  0
  6  8  4  0  0  0
  7 10  4  0  0  0
  8  9  4  0  0  0
  9 10  4  0  0  0
 10 11  1  0  0  0
 11 12  2  0  0  0
 11 13  1  0  0  0
 13 14  1  0  0  0
 14 15  1  0  0  0
 15 16  1  0  0  0
 16 17  1  0  0  0
 16 19  1  0  0  0
 17 18  1  0  0  0
 18 21  1  0  0  0
 19 20  1  0  0  0
 20 21  1  0  0  0
 21 22  1  0  0  0
 22 23  4  0  0  0
 22 28  4  0  0  0
 23 24  4  0  0  0
 24 25  4  0  0  0
 25 26  4  0  0  0
 26 27  4  0  0  0
 26 28  4  0  0  0
 27 30  4  0  0  0
 28 29  4  0  0  0
 29 30  4  0  0  0
 30 31  1  0  0  0
 31 32  2  0  0  0
 31 33  1  0  0  0
  1 34  1  0  0  0
  1 35  1  0  0  0
  1 36  1  0  0  0
  2 37  1  0  0  0
  2 38  1  0  0  0
  3 39  1  0  0  0
  8 40  1  0  0  0
  9 41  1  0  0  0
 13 42  1  0  0  0
 14 43  1  0  0  0
 14 44  1  0  0  0
 15 45  1  0  0  0
 15 46  1  0  0  0
 16 47  1  0  0  0
 17 48  1  0  0  0
 17 49  1  0  0  0
 18 50  1  0  0  0
 18 51  1  0  0  0
 19 52  1  0  0  0
 19 53  1  0  0  0
 20 54  1  0  0  0
 20 55  1  0  0  0
 24 56  1  0  0  0
 27 57  1  0  0  0
 33 58  1  0  0  0
 33 59  1  0  0  0
M  END
$$$$
