3kmc_ligand
  -I-interpret- 

 44 45  0  0  0  0  0  0  0  0999 V2000
   50.1700   35.0610   39.7340 C   0  0  0  0  0
   51.1230   35.3060   38.5120 C   0  0  0  0  0
   50.1750   33.5450   39.9650 C   0  0  0  0  0
   50.6320   34.8160   37.2750 N   0  0  0  0  0
   49.8600   33.7040   34.7390 N   0  3  0  0  0
   49.0500   33.1380   40.9330 C   0  0  0  0  0
   51.1020   31.0630   43.9900 S   0  0  0  0  0
   49.6020   31.4350   44.8280 C   0  0  0  0  0
   52.2700   35.8240   38.6690 O   0  0  0  0  0
   49.1840   34.6830   36.9550 C   0  0  0  0  0
   51.3780   35.2310   36.0750 C   0  0  0  0  0
   51.2830   34.0440   35.0860 C   0  0  0  0  0
   49.0190   33.4960   35.9580 C   0  0  0  0  0
   51.9010   30.6680   45.5260 C   0  0  0  0  0
   47.9020   33.0160   40.5410 O   0  0  0  0  0
   49.7150   31.2670   46.2140 C   0  0  0  0  0
   51.0220   30.8360   46.6020 C   0  0  0  0  0
   49.4190   33.0310   42.2570 N   0  0  0  0  0
   50.7290   35.7880   40.8420 O   0  0  0  0  0
   51.4910   33.1930   40.3890 O   0  0  0  0  0
   48.3640   31.8560   44.0590 C   0  0  0  0  0
   48.5080   33.1960   43.3710 C   0  0  0  0  0
   49.1434   35.3969   39.5880 H   0  0  0  0  0
   49.9545   32.9854   39.0559 H   0  0  0  0  0
   49.8617   32.8371   34.2015 H   0  0  0  0  0
   49.4666   34.4821   34.2097 H   0  0  0  0  0
   48.8104   35.6047   36.5089 H   0  0  0  0  0
   48.6129   34.4939   37.8640 H   0  0  0  0  0
   52.4153   35.4646   36.3147 H   0  0  0  0  0
   50.9597   36.1404   35.6435 H   0  0  0  0  0
   51.7971   34.3268   34.1674 H   0  0  0  0  0
   51.7335   33.1718   35.5597 H   0  0  0  0  0
   49.3363   32.5770   36.4508 H   0  0  0  0  0
   47.9734   33.4335   35.6566 H   0  0  0  0  0
   52.9361   30.3392   45.6183 H   0  0  0  0  0
   48.9003   31.4444   46.9160 H   0  0  0  0  0
   51.3070   30.6553   47.6385 H   0  0  0  0  0
   50.3955   32.8224   42.4654 H   0  0  0  0  0
   50.7041   36.7286   40.6514 H   0  0  0  0  0
   52.1264   33.4825   39.7302 H   0  0  0  0  0
   47.5466   31.9413   44.7750 H   0  0  0  0  0
   48.1881   31.1079   43.2860 H   0  0  0  0  0
   47.5378   33.5435   43.0160 H   0  0  0  0  0
   48.8964   33.9379   44.0687 H   0  0  0  0  0
  1  2  1  0  0  0
  3  1  1  0  0  0
  1 19  1  0  0  0
  2  4  1  0  0  0
  2  9  2  0  0  0
  6  3  1  0  0  0
  3 20  1  0  0  0
  4 10  1  0  0  0
  4 11  1  0  0  0
 12  5  1  0  0  0
 13  5  1  0  0  0
  6 15  2  0  0  0
 18  6  1  0  0  0
  8  7  4  0  0  0
  7 14  4  0  0  0
  8 16  4  0  0  0
 21  8  1  0  0  0
 10 13  1  0  0  0
 11 12  1  0  0  0
 17 14  4  0  0  0
 16 17  4  0  0  0
 22 18  1  0  0  0
 21 22  1  0  0  0
  1 23  1  0  0  0
  3 24  1  0  0  0
  5 25  1  0  0  0
  5 26  1  0  0  0
 10 27  1  0  0  0
 10 28  1  0  0  0
 11 29  1  0  0  0
 11 30  1  0  0  0
 12 31  1  0  0  0
 12 32  1  0  0  0
 13 33  1  0  0  0
 13 34  1  0  0  0
 14 35  1  0  0  0
 16 36  1  0  0  0
 17 37  1  0  0  0
 18 38  1  0  0  0
 19 39  1  0  0  0
 20 40  1  0  0  0
 21 41  1  0  0  0
 21 42  1  0  0  0
 22 43  1  0  0  0
 22 44  1  0  0  0
M  END
$$$$
