6n3f_ligand
  -I-interpret- 

 74 75  0  0  0  0  0  0  0  0999 V2000
   17.2980   -7.8040  -14.9480 N   0  3  0  0  0
   16.5810   -7.2580  -13.8060 C   0  0  0  0  0
   15.1340   -6.8570  -14.1290 C   0  0  0  0  0
   14.8560   -6.3120  -15.1690 O   0  0  0  0  0
   17.3200   -6.0430  -13.2890 C   0  0  0  0  0
   16.7760   -5.6090  -12.0790 O   0  0  0  0  0
   14.2200   -7.0680  -13.2190 N   0  0  0  0  0
   12.8590   -6.7060  -13.4910 C   0  0  0  0  0
   12.4180   -5.3650  -12.8950 C   0  0  0  0  0
   11.3210   -4.9390  -13.0930 O   0  0  0  0  0
   11.9960   -7.8130  -12.9200 C   0  0  0  0  0
   12.5530   -9.1870  -13.1450 C   0  0  0  0  0
   11.8090  -10.2010  -12.3620 C   0  0  0  0  0
   11.3920  -11.3340  -13.1480 N   0  0  0  0  0
   12.2110  -12.1530  -13.7570 C   0  0  0  0  0
   13.5030  -11.9470  -13.6990 N   0  0  0  0  0
   11.7250  -13.1650  -14.4320 N   0  0  0  0  0
   13.3200   -4.6770  -12.2200 N   0  0  0  0  0
   12.9720   -3.4980  -11.4760 C   0  0  0  0  0
   12.5090   -2.3520  -12.3480 C   0  0  0  0  0
   13.1330   -2.0680  -13.3270 O   0  0  0  0  0
   14.1160   -3.0590  -10.5730 C   0  0  0  0  0
   14.0910   -3.8470   -9.3740 C   0  0  0  0  0
   14.9360   -4.8400   -9.0350 C   0  0  0  0  0
   13.0970   -3.8090   -8.3920 C   0  0  0  0  0
   14.5490   -5.3990   -7.8760 N   0  0  0  0  0
   13.4130   -4.7800   -7.4550 C   0  0  0  0  0
   11.9820   -3.0240   -8.1900 C   0  0  0  0  0
   12.6590   -4.9830   -6.3450 C   0  0  0  0  0
   11.2480   -3.2320   -7.1060 C   0  0  0  0  0
   11.5740   -4.2010   -6.1900 C   0  0  0  0  0
   11.4540   -1.6660  -11.9130 N   0  0  0  0  0
   10.7660   -0.5960  -12.6170 C   0  0  0  0  0
   10.4640   -0.7450  -14.1180 C   0  0  0  0  0
   10.4530    0.2140  -14.8590 O   0  0  0  0  0
   11.3040    0.7800  -12.2790 C   0  0  0  0  0
   10.2170    1.6680  -11.6770 C   0  0  0  0  0
    9.2040    1.1190  -11.1880 O   0  0  0  0  0
   10.3570    2.9090  -11.7200 O   0  0  0  0  0
   10.2270   -1.8260  -14.6110 O   0  0  0  0  0
   16.8023   -8.6234  -15.2990 H   0  0  0  0  0
   17.3533   -7.0982  -15.6823 H   0  0  0  0  0
   18.2393   -8.0718  -14.6606 H   0  0  0  0  0
   16.5361   -8.0480  -13.0563 H   0  0  0  0  0
   17.2323   -5.2405  -14.0214 H   0  0  0  0  0
   18.3648   -6.3091  -13.1290 H   0  0  0  0  0
   17.2591   -4.8390  -11.7701 H   0  0  0  0  0
   14.4722   -7.4863  -12.3235 H   0  0  0  0  0
   12.7557   -6.5844  -14.5693 H   0  0  0  0  0
   11.0301   -7.7661  -13.4229 H   0  0  0  0  0
   11.9363   -7.6575  -11.8428 H   0  0  0  0  0
   13.5952   -9.1967  -12.8259 H   0  0  0  0  0
   12.4631   -9.4300  -14.2038 H   0  0  0  0  0
   10.9109   -9.7222  -11.9717 H   0  0  0  0  0
   12.4752  -10.5686  -11.5815 H   0  0  0  0  0
   10.3911  -11.5096  -13.2357 H   0  0  0  0  0
   13.8694  -11.1492  -13.1797 H   0  0  0  0  0
   12.3547  -13.8024  -14.9194 H   0  0  0  0  0
   10.7169  -13.3156  -14.4702 H   0  0  0  0  0
   14.2905   -4.9909  -12.2268 H   0  0  0  0  0
   12.1204   -3.7773  -10.8556 H   0  0  0  0  0
   14.0037   -2.0041  -10.3228 H   0  0  0  0  0
   15.0665   -3.2010  -11.0873 H   0  0  0  0  0
   15.8063   -5.1453   -9.6159 H   0  0  0  0  0
   11.7097   -2.2488   -8.9063 H   0  0  0  0  0
   12.9203   -5.7455   -5.6113 H   0  0  0  0  0
   10.3632   -2.6181   -6.9377 H   0  0  0  0  0
   10.9387   -4.3408   -5.3154 H   0  0  0  0  0
   11.0919   -1.9164  -10.9929 H   0  0  0  0  0
    9.7688   -0.7145  -12.1932 H   0  0  0  0  0
   10.6533    1.0073  -14.3568 H   0  0  0  0  0
   11.6650    1.2463  -13.1957 H   0  0  0  0  0
   12.1057    0.6695  -11.5489 H   0  0  0  0  0
    9.2952    0.1656  -11.2532 H   0  0  0  0  0
  1  2  1  0  0  0
  2  3  1  0  0  0
  2  5  1  0  0  0
  3  4  2  0  0  0
  3  7  1  0  0  0
  5  6  1  0  0  0
  7  8  1  0  0  0
  8  9  1  0  0  0
  8 11  1  0  0  0
  9 10  2  0  0  0
  9 18  1  0  0  0
 11 12  1  0  0  0
 12 13  1  0  0  0
 13 14  1  0  0  0
 14 15  1  0  0  0
 15 16  2  0  0  0
 15 17  1  0  0  0
 18 19  1  0  0  0
 19 20  1  0  0  0
 19 22  1  0  0  0
 20 21  2  0  0  0
 20 32  1  0  0  0
 22 23  1  0  0  0
 23 24  4  0  0  0
 23 25  4  0  0  0
 24 26  4  0  0  0
 25 27  4  0  0  0
 25 28  4  0  0  0
 26 27  4  0  0  0
 27 29  4  0  0  0
 28 30  4  0  0  0
 29 31  4  0  0  0
 30 31  4  0  0  0
 32 33  1  0  0  0
 33 34  1  0  0  0
 33 36  1  0  0  0
 34 35  1  0  0  0
 34 40  2  0  0  0
 36 37  1  0  0  0
 37 38  1  0  0  0
 37 39  2  0  0  0
  1 41  1  0  0  0
  1 42  1  0  0  0
  1 43  1  0  0  0
  2 44  1  0  0  0
  5 45  1  0  0  0
  5 46  1  0  0  0
  6 47  1  0  0  0
  7 48  1  0  0  0
  8 49  1  0  0  0
 11 50  1  0  0  0
 11 51  1  0  0  0
 12 52  1  0  0  0
 12 53  1  0  0  0
 13 54  1  0  0  0
 13 55  1  0  0  0
 14 56  1  0  0  0
 16 57  1  0  0  0
 17 58  1  0  0  0
 17 59  1  0  0  0
 18 60  1  0  0  0
 19 61  1  0  0  0
 22 62  1  0  0  0
 22 63  1  0  0  0
 24 64  1  0  0  0
 28 65  1  0  0  0
 29 66  1  0  0  0
 30 67  1  0  0  0
 31 68  1  0  0  0
 32 69  1  0  0  0
 33 70  1  0  0  0
 35 71  1  0  0  0
 36 72  1  0  0  0
 36 73  1  0  0  0
 38 74  1  0  0  0
M  END
$$$$
