1qj7_ligand
  -I-interpret- 

 68 70  0  0  0  0  0  0  0  0999 V2000
   -0.0220   18.9140   46.0580 N   0  0  0  0  0
    0.4920   19.1970   44.7140 C   0  0  0  0  0
    0.0380   17.7300   47.9150 O   0  0  0  0  0
    4.2010   18.4430   48.0310 C   0  0  0  0  0
    4.8540   17.5470   47.1820 C   0  0  0  0  0
    8.9150   22.3590   51.3240 C   0  0  0  0  0
    8.5070   23.3770   50.2730 C   0  0  0  0  0
    9.5770   23.5050   49.1860 C   0  0  0  0  0
   10.4240   22.2550   49.0040 C   0  0  0  0  0
   11.1670   22.1630   47.7180 C   0  0  0  0  0
   11.7540   21.0040   47.4630 N   0  0  0  0  0
   11.2610   23.1960   46.8330 N   0  0  0  0  0
    8.9630   23.5140   53.9740 O   0  0  0  0  0
    5.2750   21.9470   54.4700 O   0  0  0  0  0
    6.4330   21.8150   52.1000 C   0  0  0  0  0
    4.8280   20.3780   51.1870 C   0  0  0  0  0
    6.0970   20.8660   50.9740 C   0  0  0  0  0
    5.5880   21.1700   53.2740 C   0  0  0  0  0
    4.2960   20.7630   52.5390 C   0  0  0  0  0
    6.8270   20.4890   49.8590 C   0  0  0  0  0
    6.2010   19.6610   48.9460 C   0  0  0  0  0
    4.8790   19.2240   49.1130 C   0  0  0  0  0
    4.1860   19.5670   50.2750 C   0  0  0  0  0
    4.1430   16.9000   46.1710 C   0  0  0  0  0
    2.7770   17.1270   46.0010 C   0  0  0  0  0
    0.6490   18.1920   46.9640 C   0  0  0  0  0
    2.1340   18.0010   46.8700 C   0  0  0  0  0
    2.8500   18.6460   47.8590 C   0  0  0  0  0
    1.3460   20.4410   44.7030 C   0  0  0  0  0
   -1.2930   19.5070   46.5470 C   0  0  0  0  0
   -2.4480   18.5390   46.8690 C   0  0  0  0  0
    7.9020   22.1530   52.4290 C   0  0  0  0  0
    7.9780   23.4190   53.2990 C   0  0  0  0  0
   -0.3543   19.3517   44.0448 H   0  0  0  0  0
    1.1035   18.3540   44.3922 H   0  0  0  0  0
    5.9191   17.3532   47.3092 H   0  0  0  0  0
    9.8251   22.7333   51.7928 H   0  0  0  0  0
    9.0274   21.4026   50.8134 H   0  0  0  0  0
    8.3823   24.3462   50.7558 H   0  0  0  0  0
    7.5770   23.0471   49.8101 H   0  0  0  0  0
   10.2480   24.3103   49.4851 H   0  0  0  0  0
    9.0610   23.6868   48.2433 H   0  0  0  0  0
    9.7364   21.4095   49.0252 H   0  0  0  0  0
   11.1744   22.2720   49.7944 H   0  0  0  0  0
   11.6814   20.2374   48.1320 H   0  0  0  0  0
   11.7866   23.0792   45.9667 H   0  0  0  0  0
   10.8057   24.0856   47.0373 H   0  0  0  0  0
    4.7605   21.4077   55.0750 H   0  0  0  0  0
    6.1859   22.8435   51.8367 H   0  0  0  0  0
    6.1896   20.3875   53.7365 H   0  0  0  0  0
    3.7456   19.9634   53.0349 H   0  0  0  0  0
    3.5468   21.5539   52.5037 H   0  0  0  0  0
    7.8510   20.8305   49.7079 H   0  0  0  0  0
    6.7546   19.3363   48.0650 H   0  0  0  0  0
    3.1732   19.2066   50.4552 H   0  0  0  0  0
    4.6609   16.2089   45.5060 H   0  0  0  0  0
    2.2254   16.6294   45.2034 H   0  0  0  0  0
    2.3302   19.3364   48.5233 H   0  0  0  0  0
    0.7502   21.2921   45.0329 H   0  0  0  0  0
    2.1922   20.3052   45.3766 H   0  0  0  0  0
    1.7103   20.6211   43.6916 H   0  0  0  0  0
   -1.6551   20.1382   45.7354 H   0  0  0  0  0
   -1.0467   19.9957   47.4896 H   0  0  0  0  0
   -2.7143   17.9816   45.9709 H   0  0  0  0  0
   -2.1325   17.8454   47.6484 H   0  0  0  0  0
   -3.3113   19.1077   47.2146 H   0  0  0  0  0
    8.1965   21.2183   52.9061 H   0  0  0  0  0
    7.1926   24.1748   53.3012 H   0  0  0  0  0
  1  2  1  0  0  0
 26  1  1  0  0  0
  1 30  1  0  0  0
  2 29  1  0  0  0
 26  3  2  0  0  0
  4  5  4  0  0  0
 22  4  1  0  0  0
  4 28  4  0  0  0
  5 24  4  0  0  0
  6  7  1  0  0  0
 32  6  1  0  0  0
  7  8  1  0  0  0
  8  9  1  0  0  0
  9 10  1  0  0  0
 10 11  2  0  0  0
 10 12  1  0  0  0
 33 13  2  0  0  0
 18 14  1  0  0  0
 15 17  1  0  0  0
 15 18  1  0  0  0
 32 15  1  0  0  0
 17 16  4  0  0  0
 19 16  1  0  0  0
 16 23  4  0  0  0
 17 20  4  0  0  0
 18 19  1  0  0  0
 20 21  4  0  0  0
 21 22  4  0  0  0
 23 22  4  0  0  0
 24 25  4  0  0  0
 27 25  4  0  0  0
 27 26  1  0  0  0
 28 27  4  0  0  0
 30 31  1  0  0  0
 32 33  1  0  0  0
  2 34  1  0  0  0
  2 35  1  0  0  0
  5 36  1  0  0  0
  6 37  1  0  0  0
  6 38  1  0  0  0
  7 39  1  0  0  0
  7 40  1  0  0  0
  8 41  1  0  0  0
  8 42  1  0  0  0
  9 43  1  0  0  0
  9 44  1  0  0  0
 11 45  1  0  0  0
 12 46  1  0  0  0
 12 47  1  0  0  0
 14 48  1  0  0  0
 15 49  1  0  0  0
 18 50  1  0  0  0
 19 51  1  0  0  0
 19 52  1  0  0  0
 20 53  1  0  0  0
 21 54  1  0  0  0
 23 55  1  0  0  0
 24 56  1  0  0  0
 25 57  1  0  0  0
 28 58  1  0  0  0
 29 59  1  0  0  0
 29 60  1  0  0  0
 29 61  1  0  0  0
 30 62  1  0  0  0
 30 63  1  0  0  0
 31 64  1  0  0  0
 31 65  1  0  0  0
 31 66  1  0  0  0
 32 67  1  0  0  0
 33 68  1  0  0  0
M  END
$$$$
