### 
### Created by X-TOOL on Mon Sep 10 21:13:12 2018
### 

@<TRIPOS>MOLECULE
4dhn_ligand
   36    37     1     0     0
SMALL
GAST_HUCK


@<TRIPOS>ATOM
      1 CAS        22.0450    8.2410   -8.9050 C.3       1 0KC        -0.0299
      2 CAR        20.9120    7.2950   -9.3110 C.3       1 0KC        -0.0509
      3 CAQ        20.9890    7.1440  -10.8120 C.3       1 0KC        -0.0509
      4 CAT        22.1530    7.9790  -11.3180 C.3       1 0KC        -0.0299
      5 CAP        23.0020    8.2550  -10.1070 C.3       1 0KC         0.0421
      6 NAN        23.6070    9.6000  -10.2700 N.am      1 0KC        -0.2817
      7 CAM        24.9270    9.7320  -10.4890 C.2       1 0KC         0.2074
      8 OAO        25.6890    8.7700  -10.6380 O.2       1 0KC        -0.3941
      9 CAL        25.5820   11.1120  -10.6200 C.3       1 0KC         0.1602
     10 OAK        24.4700   12.0250  -10.8160 O.3       1 0KC        -0.2931
     11 CAB        24.6680   13.3690  -10.6060 C.ar      1 0KC         0.1158
     12 CAA        25.9430   13.9550  -10.5830 C.ar      1 0KC        -0.0277
     13 CAF        26.0320   15.3580  -10.3670 C.ar      1 0KC        -0.0672
     14 CAE        24.8760   16.1250  -10.1810 C.ar      1 0KC        -0.0681
     15 CAD        23.6020   15.5170  -10.2100 C.ar      1 0KC        -0.0499
     16 CAC        23.5280   14.1350  -10.4250 C.ar      1 0KC         0.0641
     17 PAG        21.8300   13.4050  -10.4070 P.3       1 0KC         0.0783
     18 OAI        21.8300   12.1700   -9.4600 O.co2     1 0KC        -0.5643
     19 OAJ        21.6210   12.9540  -11.8810 O.co2     1 0KC        -0.5643
     20 OAH        20.8330   14.4520   -9.9030 O.co2     1 0KC        -0.5643
     21 H1         22.5580    7.8666   -8.0069 H         1 0KC         0.0287
     22 H2         21.6544    9.2507   -8.7102 H         1 0KC         0.0287
     23 H3         19.9401    7.7217   -9.0224 H         1 0KC         0.0266
     24 H4         21.0421    6.3170   -8.8245 H         1 0KC         0.0266
     25 H5         20.0526    7.4960  -11.2695 H         1 0KC         0.0266
     26 H6         21.1493    6.0871  -11.0715 H         1 0KC         0.0266
     27 H7         21.7898    8.9203  -11.7561 H         1 0KC         0.0287
     28 H8         22.7278    7.4213  -12.0721 H         1 0KC         0.0287
     29 H9         23.7872    7.4938   -9.9888 H         1 0KC         0.0556
     30 H10        23.0288   10.4142  -10.2166 H         1 0KC         0.1855
     31 H11        26.2636   11.1386  -11.4830 H         1 0KC         0.0862
     32 H12        26.1379   11.3670   -9.7057 H         1 0KC         0.0862
     33 H13        26.8347   13.3554  -10.7258 H         1 0KC         0.0552
     34 H14        27.0039   15.8376  -10.3462 H         1 0KC         0.0616
     35 H15        24.9594   17.1927  -10.0136 H         1 0KC         0.0533
     36 H16        22.7027   16.1057  -10.0692 H         1 0KC         0.0634
@<TRIPOS>BOND
     1    1    2 1  
     2    1    5 1  
     3    2    3 1  
     4    3    4 1  
     5    4    5 1  
     6    5    6 1  
     7    6    7 am 
     8    7    8 2  
     9    7    9 1  
    10    9   10 1  
    11   10   11 1  
    12   11   12 ar 
    13   11   16 ar 
    14   12   13 ar 
    15   13   14 ar 
    16   14   15 ar 
    17   15   16 ar 
    18   16   17 1  
    19   17   18 ar 
    20   17   19 ar 
    21   17   20 ar 
    22    1   21 1  
    23    1   22 1  
    24    2   23 1  
    25    2   24 1  
    26    3   25 1  
    27    3   26 1  
    28    4   27 1  
    29    4   28 1  
    30    5   29 1  
    31    6   30 1  
    32    9   31 1  
    33    9   32 1  
    34   12   33 1  
    35   13   34 1  
    36   14   35 1  
    37   15   36 1  
@<TRIPOS>SUBSTRUCTURE
     1 0KC         1

