4dhn_ligand
  -I-interpret- 

 38 39  0  0  0  0  0  0  0  0999 V2000
   22.0450    8.2410   -8.9050 C   0  0  0  0  0
   20.9120    7.2950   -9.3110 C   0  0  0  0  0
   20.9890    7.1440  -10.8120 C   0  0  0  0  0
   22.1530    7.9790  -11.3180 C   0  0  0  0  0
   23.0020    8.2550  -10.1070 C   0  0  0  0  0
   23.6070    9.6000  -10.2700 N   0  0  0  0  0
   24.9270    9.7320  -10.4890 C   0  0  0  0  0
   25.6890    8.7700  -10.6380 O   0  0  0  0  0
   25.5820   11.1120  -10.6200 C   0  0  0  0  0
   24.4700   12.0250  -10.8160 O   0  0  0  0  0
   24.6680   13.3690  -10.6060 C   0  0  0  0  0
   25.9430   13.9550  -10.5830 C   0  0  0  0  0
   26.0320   15.3580  -10.3670 C   0  0  0  0  0
   24.8760   16.1250  -10.1810 C   0  0  0  0  0
   23.6020   15.5170  -10.2100 C   0  0  0  0  0
   23.5280   14.1350  -10.4250 C   0  0  0  0  0
   21.8300   13.4050  -10.4070 P   0  0  0  0  0
   21.8300   12.1700   -9.4600 O   0  0  0  0  0
   21.6210   12.9540  -11.8810 O   0  0  0  0  0
   20.8330   14.4520   -9.9030 O   0  0  0  0  0
   22.5440    7.9064   -7.9955 H   0  0  0  0  0
   21.6739    9.2392   -8.6727 H   0  0  0  0  0
   19.9443    7.6966   -9.0103 H   0  0  0  0  0
   21.0174    6.3288   -8.8177 H   0  0  0  0  0
   20.0596    7.4832  -11.2695 H   0  0  0  0  0
   21.1388    6.0968  -11.0746 H   0  0  0  0  0
   21.8103    8.9020  -11.7857 H   0  0  0  0  0
   22.7157    7.4551  -12.0907 H   0  0  0  0  0
   23.7995    7.5245   -9.9714 H   0  0  0  0  0
   23.0173   10.4304  -10.2155 H   0  0  0  0  0
   26.2925   11.1503  -11.4457 H   0  0  0  0  0
   26.1719   11.3695   -9.7403 H   0  0  0  0  0
   26.8396   13.3520  -10.7266 H   0  0  0  0  0
   27.0093   15.8403  -10.3461 H   0  0  0  0  0
   24.9598   17.1987  -10.0127 H   0  0  0  0  0
   22.6978   16.1090  -10.0685 H   0  0  0  0  0
   22.4576   11.5198   -9.7840 H   0  0  0  0  0
   22.2855   12.3008  -12.1119 H   0  0  0  0  0
  1  2  1  0  0  0
  1  5  1  0  0  0
  2  3  1  0  0  0
  3  4  1  0  0  0
  4  5  1  0  0  0
  5  6  1  0  0  0
  6  7  1  0  0  0
  7  8  2  0  0  0
  7  9  1  0  0  0
  9 10  1  0  0  0
 10 11  1  0  0  0
 11 12  4  0  0  0
 11 16  4  0  0  0
 12 13  4  0  0  0
 13 14  4  0  0  0
 14 15  4  0  0  0
 15 16  4  0  0  0
 16 17  1  0  0  0
 17 18  1  0  0  0
 17 19  1  0  0  0
 17 20  2  0  0  0
  1 21  1  0  0  0
  1 22  1  0  0  0
  2 23  1  0  0  0
  2 24  1  0  0  0
  3 25  1  0  0  0
  3 26  1  0  0  0
  4 27  1  0  0  0
  4 28  1  0  0  0
  5 29  1  0  0  0
  6 30  1  0  0  0
  9 31  1  0  0  0
  9 32  1  0  0  0
 12 33  1  0  0  0
 13 34  1  0  0  0
 14 35  1  0  0  0
 15 36  1  0  0  0
 18 37  1  0  0  0
 19 38  1  0  0  0
M  END
$$$$
