3fzr_ligand
  -I-interpret- 

 56 59  0  0  0  0  0  0  0  0999 V2000
   20.6360   65.5610   19.5510 C   0  0  0  0  0
   19.9640   66.9550   21.8930 C   0  0  0  0  0
   25.9610   69.2740   15.9400 N   0  0  0  0  0
   26.8210   69.6040   16.9380 C   0  0  0  0  0
   26.5190   69.1450   18.2570 C   0  0  0  0  0
   23.9200   65.8990   20.0810 C   0  0  0  0  0
   22.8840   65.0480   20.4410 C   0  0  0  0  0
   21.1130   65.1460   15.7460 C   0  0  0  0  0
   27.4490   69.5790   19.3080 C   0  0  0  0  0
   25.3980   63.9070   20.0150 C   0  0  0  0  0
   23.1480   66.0260   16.6370 C   0  0  0  0  0
   24.4060   63.0670   20.3780 C   0  0  0  0  0
   22.1110   66.3530   23.0020 O   0  0  0  0  0
   21.1060   65.7730   22.2750 S   0  0  0  0  0
   20.6420   64.4890   22.7570 O   0  0  0  0  0
   21.5440   65.5130   20.6530 N   0  0  0  0  0
   25.1910   65.2880   19.8320 C   0  0  0  0  0
   23.1590   63.6110   20.5900 C   0  0  0  0  0
   23.6200   67.3390   19.9680 C   0  0  0  0  0
   24.9960   68.0170   19.9480 N   0  0  0  0  0
   25.4350   68.3860   18.6230 C   0  0  0  0  0
   28.0710   68.4490   20.0010 F   0  0  0  0  0
   26.7250   70.1790   20.2680 F   0  0  0  0  0
   28.4510   70.2960   18.5600 F   0  0  0  0  0
   24.6350   68.0320   17.6060 N   0  0  0  0  0
   25.0140   68.4350   16.3440 C   0  0  0  0  0
   24.2490   67.9980   15.3890 N   0  0  0  0  0
   23.2020   66.9850   15.6350 C   0  0  0  0  0
   22.1990   66.9370   14.6810 C   0  0  0  0  0
   21.1850   66.0520   14.7500 C   0  0  0  0  0
   20.0120   65.8750   13.7710 C   0  0  0  0  0
   22.0940   65.1280   16.7040 C   0  0  0  0  0
   19.9940   64.3550   15.5650 N   0  0  0  0  0
   19.2550   64.7220   14.4000 C   0  0  0  0  0
   18.1730   64.2240   13.9210 O   0  0  0  0  0
   19.8581   64.8103   19.6899 H   0  0  0  0  0
   20.1824   66.5507   19.4985 H   0  0  0  0  0
   21.1773   65.3585   18.6268 H   0  0  0  0  0
   19.5600   67.3786   22.8124 H   0  0  0  0  0
   20.4393   67.7417   21.3071 H   0  0  0  0  0
   19.1576   66.5055   21.3135 H   0  0  0  0  0
   27.7122   70.1993   16.7393 H   0  0  0  0  0
   26.3973   63.5012   19.8575 H   0  0  0  0  0
   23.9439   65.9784   17.3802 H   0  0  0  0  0
   24.5852   61.9986   20.4988 H   0  0  0  0  0
   26.0203   65.9082   19.4918 H   0  0  0  0  0
   22.3425   62.9497   20.8800 H   0  0  0  0  0
   23.0015   67.6936   20.7925 H   0  0  0  0  0
   23.0391   67.5666   19.0742 H   0  0  0  0  0
   25.5470   68.1902   20.7887 H   0  0  0  0  0
   24.3745   68.3637   14.4451 H   0  0  0  0  0
   22.2309   67.6381   13.8470 H   0  0  0  0  0
   20.3281   65.6788   12.7464 H   0  0  0  0  0
   19.4090   66.7748   13.6495 H   0  0  0  0  0
   22.0450   64.4064   17.5195 H   0  0  0  0  0
   19.7269   63.5961   16.1920 H   0  0  0  0  0
 16  1  1  0  0  0
 14  2  1  0  0  0
  3  4  4  0  0  0
 26  3  4  0  0  0
  4  5  4  0  0  0
  5  9  1  0  0  0
 21  5  4  0  0  0
  6  7  4  0  0  0
  6 17  4  0  0  0
 19  6  1  0  0  0
  7 16  1  0  0  0
  7 18  4  0  0  0
  8 30  4  0  0  0
 32  8  4  0  0  0
  8 33  1  0  0  0
  9 22  1  0  0  0
  9 23  1  0  0  0
  9 24  1  0  0  0
 10 12  4  0  0  0
 17 10  4  0  0  0
 28 11  4  0  0  0
 11 32  4  0  0  0
 18 12  4  0  0  0
 14 13  2  0  0  0
 14 15  2  0  0  0
 16 14  1  0  0  0
 20 19  1  0  0  0
 21 20  1  0  0  0
 25 21  4  0  0  0
 26 25  4  0  0  0
 27 26  1  0  0  0
 27 28  1  0  0  0
 28 29  4  0  0  0
 29 30  4  0  0  0
 30 31  1  0  0  0
 31 34  1  0  0  0
 33 34  1  0  0  0
 34 35  2  0  0  0
  1 36  1  0  0  0
  1 37  1  0  0  0
  1 38  1  0  0  0
  2 39  1  0  0  0
  2 40  1  0  0  0
  2 41  1  0  0  0
  4 42  1  0  0  0
 10 43  1  0  0  0
 11 44  1  0  0  0
 12 45  1  0  0  0
 17 46  1  0  0  0
 18 47  1  0  0  0
 19 48  1  0  0  0
 19 49  1  0  0  0
 20 50  1  0  0  0
 27 51  1  0  0  0
 29 52  1  0  0  0
 31 53  1  0  0  0
 31 54  1  0  0  0
 32 55  1  0  0  0
 33 56  1  0  0  0
M  END
$$$$
