5eis_ligand
  -I-interpret- 

 34 36  0  0  0  0  0  0  0  0999 V2000
  -24.3850   -6.8270   77.2430 C   0  0  0  0  0
  -23.5160   -5.9160   77.8260 C   0  0  0  0  0
  -22.2810   -5.7500   77.3260 C   0  0  0  0  0
  -25.4180   -5.9510   78.9080 C   0  0  0  0  0
  -21.9470   -6.4940   76.1620 N   0  0  0  0  0
  -24.0260   -7.5420   76.1510 N   0  0  0  0  0
  -23.8360   -3.0070   79.1690 C   0  0  0  0  0
  -23.6640   -4.3800   79.7970 C   0  0  0  0  0
  -24.1870   -5.3950   78.8750 N   0  0  0  0  0
  -25.5590   -6.8330   77.9290 N   0  0  0  0  0
  -21.3590   -4.9840   77.7400 O   0  0  0  0  0
  -22.8470   -7.3760   75.5890 C   0  0  0  0  0
  -22.4350   -7.9640   74.6070 O   0  0  0  0  0
  -25.0290   -8.4230   75.5320 C   0  0  0  0  0
  -25.8260   -7.6720   74.6100 C   0  0  0  0  0
  -26.9960   -7.0400   75.0140 C   0  0  0  0  0
  -27.7240   -6.2960   74.0890 C   0  0  0  0  0
  -27.3410   -6.1140   72.7820 C   0  0  0  0  0
  -28.3810   -5.1370   71.6230 Cl  0  0  0  0  0
  -26.1610   -6.7120   72.3650 C   0  0  0  0  0
  -25.3920   -7.4850   73.2920 C   0  0  0  0  0
  -26.1889   -5.7076   79.6391 H   0  0  0  0  0
  -21.0258   -6.3757   75.7404 H   0  0  0  0  0
  -23.2872   -2.9679   78.2281 H   0  0  0  0  0
  -24.8942   -2.8245   78.9817 H   0  0  0  0  0
  -23.4496   -2.2472   79.8483 H   0  0  0  0  0
  -24.2087   -4.4241   80.7401 H   0  0  0  0  0
  -22.6075   -4.5670   79.9891 H   0  0  0  0  0
  -25.6707   -8.8414   76.3074 H   0  0  0  0  0
  -24.5234   -9.2290   75.0001 H   0  0  0  0  0
  -27.3403   -7.1258   76.0446 H   0  0  0  0  0
  -28.6520   -5.8307   74.4212 H   0  0  0  0  0
  -25.8210   -6.5938   71.3362 H   0  0  0  0  0
  -24.4540   -7.9351   72.9670 H   0  0  0  0  0
  2  1  4  0  0  0
  1  6  1  0  0  0
 10  1  4  0  0  0
  2  3  1  0  0  0
  9  2  4  0  0  0
  3  5  1  0  0  0
  3 11  2  0  0  0
  9  4  4  0  0  0
  4 10  4  0  0  0
  5 12  1  0  0  0
  6 12  1  0  0  0
  6 14  1  0  0  0
  8  7  1  0  0  0
  8  9  1  0  0  0
 12 13  2  0  0  0
 14 15  1  0  0  0
 15 16  4  0  0  0
 15 21  4  0  0  0
 16 17  4  0  0  0
 17 18  4  0  0  0
 18 19  1  0  0  0
 18 20  4  0  0  0
 20 21  4  0  0  0
  4 22  1  0  0  0
  5 23  1  0  0  0
  7 24  1  0  0  0
  7 25  1  0  0  0
  7 26  1  0  0  0
  8 27  1  0  0  0
  8 28  1  0  0  0
 14 29  1  0  0  0
 14 30  1  0  0  0
 16 31  1  0  0  0
 17 32  1  0  0  0
 20 33  1  0  0  0
 21 34  1  0  0  0
M  END
$$$$
