2ph8_ligand
  -I-interpret- 

 66 68  0  0  0  0  0  0  0  0999 V2000
   28.6480   41.9880    0.6210 C   0  0  0  0  0
   29.8060   42.9190    0.7930 C   0  0  0  0  0
   33.3860   41.3570   -0.4010 C   0  0  0  0  0
   32.9880   39.9990    0.0830 C   0  0  0  0  0
   29.6800   39.8810    1.5750 O   0  0  0  0  0
   28.7290   40.4780    0.6530 C   0  0  0  0  0
   32.9350   39.7370    1.3860 C   0  0  0  0  0
   32.5530   38.3690    1.8910 C   0  0  0  0  0
   31.1140   38.1670    2.3560 C   0  0  0  0  0
   33.6880   42.3190    0.4660 C   0  0  0  0  0
   33.6230   42.0430    1.9360 C   0  0  0  0  0
   33.2740   40.8310    2.3430 C   0  0  0  0  0
   31.0910   45.6780    2.2900 C   0  0  0  0  0
   31.8070   44.6160    3.1390 C   0  0  0  0  0
   33.2830   44.4680    2.7270 C   0  0  0  0  0
   33.9680   43.1170    2.9620 C   0  0  0  0  0
   29.6050   44.2420    0.7230 C   0  0  0  0  0
   30.7470   45.2320    0.8780 C   0  0  0  0  0
   28.3820   44.7920    0.4910 N   0  0  0  0  0
   27.4610   42.5320    0.3930 C   0  0  0  0  0
   27.3630   44.0120    0.3530 C   0  0  0  0  0
   26.1320   44.5290    0.0920 N   0  0  0  0  0
   25.4760   45.6950    1.1270 S   0  0  0  0  0
   25.9950   47.2230    0.5280 C   0  0  0  0  0
   23.8160   45.6250    0.9680 O   0  0  0  0  0
   26.1120   45.5140    2.6530 O   0  0  0  0  0
   25.6970   44.5070   -1.3130 C   0  0  0  0  0
   31.6490   44.9280    4.6290 C   0  0  0  0  0
   30.1830   38.6610    1.2800 C   0  0  0  0  0
   30.0050   38.0210    0.2570 O   0  0  0  0  0
   30.8590   36.6700    2.6030 C   0  0  0  0  0
   30.8490   38.8790    3.6430 N   0  3  0  0  0
   30.8058   42.5243    0.9739 H   0  0  0  0  0
   33.4288   41.5595   -1.4712 H   0  0  0  0  0
   32.7398   39.2189   -0.6367 H   0  0  0  0  0
   29.0560   40.1789   -0.3428 H   0  0  0  0  0
   27.7469   40.1368    0.9802 H   0  0  0  0  0
   33.1728   38.1973    2.7710 H   0  0  0  0  0
   32.6851   37.6959    1.0439 H   0  0  0  0  0
   33.9820   43.3055    0.1075 H   0  0  0  0  0
   33.2332   40.6262    3.4128 H   0  0  0  0  0
   31.7712   46.5249    2.1995 H   0  0  0  0  0
   30.1496   45.9042    2.7907 H   0  0  0  0  0
   31.3362   43.6506    2.9536 H   0  0  0  0  0
   33.8278   45.1787    3.3484 H   0  0  0  0  0
   33.2961   44.6132    1.6468 H   0  0  0  0  0
   35.0422   43.2889    2.8935 H   0  0  0  0  0
   33.6275   42.7521    3.9310 H   0  0  0  0  0
   31.6345   44.7218    0.5038 H   0  0  0  0  0
   30.4321   46.1327    0.3510 H   0  0  0  0  0
   26.5802   41.9086    0.2390 H   0  0  0  0  0
   25.7096   47.3170   -0.5198 H   0  0  0  0  0
   25.5243   48.0177    1.1068 H   0  0  0  0  0
   27.0786   47.2985    0.6190 H   0  0  0  0  0
   26.3976   45.0826   -1.9180 H   0  0  0  0  0
   25.6700   43.4766   -1.6676 H   0  0  0  0  0
   24.7022   44.9456   -1.3909 H   0  0  0  0  0
   32.0825   45.9051    4.8423 H   0  0  0  0  0
   30.5900   44.9348    4.8872 H   0  0  0  0  0
   32.1623   44.1656    5.2150 H   0  0  0  0  0
   31.0231   36.1173    1.6780 H   0  0  0  0  0
   31.5433   36.3080    3.3703 H   0  0  0  0  0
   29.8306   36.5279    2.9351 H   0  0  0  0  0
   29.8808   38.7229    3.9234 H   0  0  0  0  0
   31.4751   38.5202    4.3639 H   0  0  0  0  0
   31.0108   39.8782    3.5170 H   0  0  0  0  0
  1  2  4  0  0  0
  6  1  1  0  0  0
  1 20  4  0  0  0
  2 17  4  0  0  0
  3  4  4  0  0  0
 10  3  4  0  0  0
  7  4  4  0  0  0
  5  6  1  0  0  0
 29  5  1  0  0  0
  7  8  1  0  0  0
 12  7  4  0  0  0
  8  9  1  0  0  0
  9 29  1  0  0  0
  9 31  1  0  0  0
  9 32  1  0  0  0
 11 10  4  0  0  0
 11 12  4  0  0  0
 16 11  1  0  0  0
 14 13  1  0  0  0
 13 18  1  0  0  0
 15 14  1  0  0  0
 14 28  1  0  0  0
 15 16  1  0  0  0
 17 18  1  0  0  0
 17 19  4  0  0  0
 19 21  4  0  0  0
 20 21  4  0  0  0
 21 22  1  0  0  0
 22 23  1  0  0  0
 22 27  1  0  0  0
 23 24  1  0  0  0
 23 25  2  0  0  0
 23 26  2  0  0  0
 29 30  2  0  0  0
  2 33  1  0  0  0
  3 34  1  0  0  0
  4 35  1  0  0  0
  6 36  1  0  0  0
  6 37  1  0  0  0
  8 38  1  0  0  0
  8 39  1  0  0  0
 10 40  1  0  0  0
 12 41  1  0  0  0
 13 42  1  0  0  0
 13 43  1  0  0  0
 14 44  1  0  0  0
 15 45  1  0  0  0
 15 46  1  0  0  0
 16 47  1  0  0  0
 16 48  1  0  0  0
 18 49  1  0  0  0
 18 50  1  0  0  0
 20 51  1  0  0  0
 24 52  1  0  0  0
 24 53  1  0  0  0
 24 54  1  0  0  0
 27 55  1  0  0  0
 27 56  1  0  0  0
 27 57  1  0  0  0
 28 58  1  0  0  0
 28 59  1  0  0  0
 28 60  1  0  0  0
 31 61  1  0  0  0
 31 62  1  0  0  0
 31 63  1  0  0  0
 32 64  1  0  0  0
 32 65  1  0  0  0
 32 66  1  0  0  0
M  END
$$$$
