1uou_ligand
  -I-interpret- 

 27 28  0  0  0  0  0  0  0  0999 V2000
   -4.8020    4.5290   30.6010 Cl  0  0  0  0  0
   -3.5890    3.2930   30.6160 C   0  0  0  0  0
   -3.1120    2.7640   29.4620 C   0  0  0  0  0
   -3.6290    3.1660   28.0780 C   0  0  0  0  0
   -4.2650    1.9450   27.4960 N   0  0  0  0  0
   -5.2940    1.1310   28.1790 C   0  0  0  0  0
   -5.8240    0.1420   27.1130 C   0  0  0  0  0
   -4.7920    0.1450   25.9440 C   0  0  0  0  0
   -3.9760    1.3960   26.2670 C   0  0  0  0  0
   -3.1160    1.9270   25.4500 N   0  0  0  0  0
   -2.1490    1.7930   29.5710 N   0  0  0  0  0
   -1.6730    1.3490   30.7550 C   0  0  0  0  0
   -0.8200    0.4700   30.7610 O   0  0  0  0  0
   -2.1450    1.8640   31.9070 N   0  0  0  0  0
   -3.0730    2.8300   31.8600 C   0  0  0  0  0
   -3.4740    3.3130   32.8930 O   0  0  0  0  0
   -2.8169    3.5242   27.4453 H   0  0  0  0  0
   -4.3453    3.9844   28.1499 H   0  0  0  0  0
   -6.0954    1.7549   28.5747 H   0  0  0  0  0
   -4.8776    0.6037   29.0373 H   0  0  0  0  0
   -6.8103    0.4438   26.7604 H   0  0  0  0  0
   -5.9324   -0.8584   27.5320 H   0  0  0  0  0
   -4.6821   -0.5573   25.1177 H   0  0  0  0  0
   -2.9556    1.5068   24.5345 H   0  0  0  0  0
   -2.6014    2.7639   25.7243 H   0  0  0  0  0
   -1.7733    1.3856   28.7147 H   0  0  0  0  0
   -1.8002    1.5228   32.8043 H   0  0  0  0  0
  1  2  1  0  0  0
  2  3  2  0  0  0
  2 15  1  0  0  0
  3  4  1  0  0  0
  3 11  1  0  0  0
  4  5  1  0  0  0
  5  6  1  0  0  0
  5  9  1  0  0  0
  6  7  1  0  0  0
  7  8  1  0  0  0
  8  9  2  0  0  0
  9 10  1  0  0  0
 11 12  1  0  0  0
 12 13  2  0  0  0
 12 14  1  0  0  0
 14 15  1  0  0  0
 15 16  2  0  0  0
  4 17  1  0  0  0
  4 18  1  0  0  0
  6 19  1  0  0  0
  6 20  1  0  0  0
  7 21  1  0  0  0
  7 22  1  0  0  0
  8 23  1  0  0  0
 10 24  1  0  0  0
 10 25  1  0  0  0
 11 26  1  0  0  0
 14 27  1  0  0  0
M  END
$$$$
