5tq5_ligand
  -I-interpret- 

 47 50  0  0  0  0  0  0  0  0999 V2000
    3.6550    4.5080    9.5370 C   0  0  0  0  0
    1.7050    2.5500    9.3260 C   0  0  0  0  0
    1.5500    3.7520    8.6540 C   0  0  0  0  0
    3.0700    0.9290   10.6170 C   0  0  0  0  0
    2.4740   -0.9130   12.0470 C   0  0  0  0  0
    4.8660   -6.4420   12.4850 C   0  0  0  0  0
    2.8440    2.3030   10.0970 C   0  0  0  0  0
    4.3110   -4.1110   11.8310 C   0  0  0  0  0
    6.0450   -6.5920   11.7600 C   0  0  0  0  0
    4.6430    2.9530   12.6380 C   0  0  0  0  0
    5.0230    3.1120   11.1220 C   0  0  0  0  0
    3.8180    3.3060   10.2220 C   0  0  0  0  0
    2.5270    4.7330    8.7580 C   0  0  0  0  0
    4.0730    0.1320   10.0620 C   0  0  0  0  0
    4.2810   -1.1690   10.4780 C   0  0  0  0  0
    3.4770   -1.7150   11.4760 C   0  0  0  0  0
    2.2640    0.4000   11.6320 C   0  0  0  0  0
    1.8520   -1.6840   12.9690 N   0  0  0  0  0
    2.3750   -2.9380   13.0190 N   0  0  0  0  0
    3.3670   -3.0010   12.1180 C   0  0  0  0  0
    5.3190   -3.9080   11.1800 O   0  0  0  0  0
    4.0440   -5.2870   12.4310 N   0  0  0  0  0
    4.5200   -7.4780   13.3380 C   0  0  0  0  0
    5.3410   -8.5860   13.4450 C   0  0  0  0  0
    6.5150   -8.6460   12.6930 C   0  0  0  0  0
    6.8630   -7.6450   11.8640 N   0  0  0  0  0
    7.4150   -9.8450   12.7310 C   0  0  0  0  0
    2.3790    5.9200    8.0900 O   0  0  0  0  0
    4.4206    5.2801    9.6130 H   0  0  0  0  0
    0.9291    1.7880    9.2523 H   0  0  0  0  0
    0.6630    3.9269    8.0451 H   0  0  0  0  0
    6.3191   -5.8003   11.0627 H   0  0  0  0  0
    4.1193    3.8473   12.9757 H   0  0  0  0  0
    3.9965    2.0839   12.7600 H   0  0  0  0  0
    5.5505    2.8178   13.2265 H   0  0  0  0  0
    5.5252    2.1965   10.8093 H   0  0  0  0  0
    5.6506    3.9984   11.0297 H   0  0  0  0  0
    4.7087    0.5471    9.2799 H   0  0  0  0  0
    5.0725   -1.7669   10.0262 H   0  0  0  0  0
    1.4834    1.0068   12.0909 H   0  0  0  0  0
    3.1425   -5.3553   12.9033 H   0  0  0  0  0
    3.6025   -7.4198   13.9236 H   0  0  0  0  0
    5.0731   -9.4058   14.1115 H   0  0  0  0  0
    7.7666  -10.0016   13.7508 H   0  0  0  0  0
    6.8625  -10.7232   12.3969 H   0  0  0  0  0
    8.2678   -9.6786   12.0728 H   0  0  0  0  0
    1.5514    5.9111    7.6035 H   0  0  0  0  0
 12  1  4  0  0  0
  1 13  4  0  0  0
  2  3  4  0  0  0
  7  2  4  0  0  0
  3 13  4  0  0  0
  4  7  1  0  0  0
 14  4  4  0  0  0
 17  4  4  0  0  0
 16  5  4  0  0  0
  5 17  4  0  0  0
  5 18  4  0  0  0
  6  9  4  0  0  0
 22  6  1  0  0  0
  6 23  4  0  0  0
  7 12  4  0  0  0
 20  8  1  0  0  0
  8 21  2  0  0  0
  8 22  1  0  0  0
  9 26  4  0  0  0
 11 10  1  0  0  0
 12 11  1  0  0  0
 13 28  1  0  0  0
 15 14  4  0  0  0
 16 15  4  0  0  0
 16 20  4  0  0  0
 18 19  4  0  0  0
 19 20  4  0  0  0
 23 24  4  0  0  0
 24 25  4  0  0  0
 25 26  4  0  0  0
 25 27  1  0  0  0
  1 29  1  0  0  0
  2 30  1  0  0  0
  3 31  1  0  0  0
  9 32  1  0  0  0
 10 33  1  0  0  0
 10 34  1  0  0  0
 10 35  1  0  0  0
 11 36  1  0  0  0
 11 37  1  0  0  0
 14 38  1  0  0  0
 15 39  1  0  0  0
 17 40  1  0  0  0
 22 41  1  0  0  0
 23 42  1  0  0  0
 24 43  1  0  0  0
 27 44  1  0  0  0
 27 45  1  0  0  0
 27 46  1  0  0  0
 28 47  1  0  0  0
M  END
$$$$
