5clm_ligand
  -I-interpret- 

 41 43  0  0  0  0  0  0  0  0999 V2000
   69.0250   49.3620    9.2580 C   0  0  0  0  0
   69.4340   50.3400    8.1430 C   0  0  0  0  0
   68.3380   47.6900    7.6800 C   0  0  0  0  0
   68.0490   48.8760    6.7650 C   0  0  0  0  0
   69.1140   51.7750    8.5720 C   0  0  0  0  0
   71.9160   50.6770    8.6470 C   0  0  0  0  0
   72.7080   49.2580    6.3860 C   0  0  0  0  0
   74.0650   47.8480    4.6810 C   0  0  0  0  0
   73.9470   47.0820    3.4240 C   0  0  0  0  0
   72.7330   46.6820    1.3800 C   0  0  0  0  0
   73.5970   45.6560    1.0460 C   0  0  0  0  0
   73.3540   44.8170   -0.4340 Cl  0  0  0  0  0
   72.9040   47.3890    2.5610 N   0  0  0  0  0
   74.6430   45.3370    1.9040 C   0  0  0  0  0
   74.8160   46.0380    3.0940 C   0  0  0  0  0
   75.1370   47.9060    5.2460 O   0  0  0  0  0
   72.9510   48.4940    5.2170 N   0  0  0  0  0
   71.3650   49.4210    6.6860 C   0  0  0  0  0
   73.6690   49.7980    7.2350 C   0  0  0  0  0
   73.2670   50.5050    8.3600 C   0  0  0  0  0
   70.9330   50.1410    7.8060 C   0  0  0  0  0
   68.6070   50.0360    6.9520 N   0  0  0  0  0
   67.1800   48.7370    5.7210 N   0  0  0  0  0
   69.1640   48.0170    8.8050 O   0  0  0  0  0
   67.9847   49.5427    9.5287 H   0  0  0  0  0
   69.6693   49.5165   10.1235 H   0  0  0  0  0
   68.8720   46.9456    7.0894 H   0  0  0  0  0
   67.3824   47.3384    8.0689 H   0  0  0  0  0
   69.6941   52.0252    9.4602 H   0  0  0  0  0
   69.3705   52.4602    7.7640 H   0  0  0  0  0
   68.0504   51.8573    8.7960 H   0  0  0  0  0
   71.6201   51.2347    9.5356 H   0  0  0  0  0
   71.9115   46.9372    0.7106 H   0  0  0  0  0
   75.3317   44.5333    1.6435 H   0  0  0  0  0
   75.6297   45.7727    3.7690 H   0  0  0  0  0
   72.1203   48.3935    4.6337 H   0  0  0  0  0
   70.6201   48.9736    6.0279 H   0  0  0  0  0
   74.7292   49.6669    7.0185 H   0  0  0  0  0
   74.0178   50.9302    9.0260 H   0  0  0  0  0
   68.4699   50.7646    6.2515 H   0  0  0  0  0
   66.9833   49.5312    5.1120 H   0  0  0  0  0
  2  1  1  0  0  0
  1 24  1  0  0  0
  2  5  1  0  0  0
 21  2  1  0  0  0
  2 22  1  0  0  0
  4  3  1  0  0  0
 24  3  1  0  0  0
 22  4  1  0  0  0
  4 23  2  0  0  0
  6 20  4  0  0  0
 21  6  4  0  0  0
  7 17  1  0  0  0
 18  7  4  0  0  0
  7 19  4  0  0  0
  8  9  1  0  0  0
  8 16  2  0  0  0
 17  8  1  0  0  0
  9 13  4  0  0  0
  9 15  4  0  0  0
 10 11  4  0  0  0
 13 10  4  0  0  0
 11 12  1  0  0  0
 14 11  4  0  0  0
 15 14  4  0  0  0
 18 21  4  0  0  0
 19 20  4  0  0  0
  1 25  1  0  0  0
  1 26  1  0  0  0
  3 27  1  0  0  0
  3 28  1  0  0  0
  5 29  1  0  0  0
  5 30  1  0  0  0
  5 31  1  0  0  0
  6 32  1  0  0  0
 10 33  1  0  0  0
 14 34  1  0  0  0
 15 35  1  0  0  0
 17 36  1  0  0  0
 18 37  1  0  0  0
 19 38  1  0  0  0
 20 39  1  0  0  0
 22 40  1  0  0  0
 23 41  1  0  0  0
M  END
$$$$
