4u0e_ligand
  -I-interpret- 

 58 61  0  0  0  0  0  0  0  0999 V2000
  -15.2730  -27.3070   -0.4430 O   0  0  0  0  0
  -14.9200  -26.1580   -0.6390 C   0  0  0  0  0
  -13.9860  -25.5460    0.0820 N   0  0  0  0  0
  -13.2990  -26.1910    1.1910 C   0  0  0  0  0
  -14.0230  -25.8360    2.4620 C   0  0  0  0  0
  -14.1660  -26.7200    3.4580 N   0  0  0  0  0
  -13.6600  -28.0180    3.3180 C   0  0  0  0  0
  -12.4200  -28.3540    3.8510 C   0  0  0  0  0
  -11.9350  -29.6500    3.7000 C   0  0  0  0  0
  -12.6860  -30.6060    3.0170 C   0  0  0  0  0
  -13.9300  -30.2660    2.4830 C   0  0  0  0  0
  -14.4170  -28.9750    2.6370 C   0  0  0  0  0
  -14.8440  -26.4220    4.7140 C   0  0  0  0  0
  -14.4580  -24.7010    2.5600 O   0  0  0  0  0
  -11.8770  -25.6300    1.2690 C   0  0  0  0  0
  -10.9870  -26.1990    0.1840 C   0  0  0  0  0
  -10.3520  -27.4210    0.3700 C   0  0  0  0  0
   -9.5470  -27.9440   -0.6400 C   0  0  0  0  0
   -9.3680  -27.2400   -1.8270 C   0  0  0  0  0
  -10.0020  -26.0200   -2.0140 C   0  0  0  0  0
  -10.8110  -25.5020   -1.0100 C   0  0  0  0  0
  -15.5590  -25.3310   -1.7260 C   0  0  0  0  0
  -15.4400  -25.9040   -3.1170 C   0  0  0  0  0
  -16.3910  -26.7890   -3.8270 C   0  0  0  0  0
  -17.5890  -27.3520   -3.3990 C   0  0  0  0  0
  -18.2910  -28.1750   -4.2740 C   0  0  0  0  0
  -17.7920  -28.4260   -5.5540 C   0  0  0  0  0
  -16.5850  -27.8590   -5.9650 C   0  0  0  0  0
  -15.8760  -27.0310   -5.0960 C   0  0  0  0  0
  -14.7010  -26.3620   -5.2390 N   0  0  0  0  0
  -14.3740  -25.6680   -4.1180 C   0  0  0  0  0
  -13.1470  -24.8180   -3.9370 C   0  0  0  0  0
  -13.7405  -24.5840   -0.1518 H   0  0  0  0  0
  -13.2741  -27.2720    1.0532 H   0  0  0  0  0
  -11.8316  -27.6070    4.3837 H   0  0  0  0  0
  -10.9645  -29.9186    4.1172 H   0  0  0  0  0
  -12.3014  -31.6192    2.9001 H   0  0  0  0  0
  -14.5172  -31.0116    1.9469 H   0  0  0  0  0
  -15.3907  -28.7077    2.2263 H   0  0  0  0  0
  -15.6964  -27.0908    4.8328 H   0  0  0  0  0
  -14.1503  -26.5647    5.5426 H   0  0  0  0  0
  -15.1903  -25.3885    4.7022 H   0  0  0  0  0
  -11.4543  -25.9019    2.2362 H   0  0  0  0  0
  -11.9277  -24.5490    1.1383 H   0  0  0  0  0
  -10.4832  -27.9688    1.3032 H   0  0  0  0  0
   -9.0562  -28.9071   -0.5000 H   0  0  0  0  0
   -8.7291  -27.6474   -2.6106 H   0  0  0  0  0
   -9.8659  -25.4699   -2.9451 H   0  0  0  0  0
  -11.3110  -24.5447   -1.1571 H   0  0  0  0  0
  -15.0424  -24.3712   -1.7359 H   0  0  0  0  0
  -16.6234  -25.2791   -1.4972 H   0  0  0  0  0
  -17.9703  -27.1522   -2.3976 H   0  0  0  0  0
  -19.2327  -28.6250   -3.9597 H   0  0  0  0  0
  -18.3487  -29.0686   -6.2361 H   0  0  0  0  0
  -16.1975  -28.0630   -6.9631 H   0  0  0  0  0
  -13.4458  -23.7921   -3.7218 H   0  0  0  0  0
  -12.5560  -25.2072   -3.1079 H   0  0  0  0  0
  -12.5528  -24.8407   -4.8505 H   0  0  0  0  0
  1  2  2  0  0  0
  2  3  1  0  0  0
  2 22  1  0  0  0
  3  4  1  0  0  0
  4  5  1  0  0  0
  4 15  1  0  0  0
  5  6  1  0  0  0
  5 14  2  0  0  0
  6  7  1  0  0  0
  6 13  1  0  0  0
  7  8  4  0  0  0
  7 12  4  0  0  0
  8  9  4  0  0  0
  9 10  4  0  0  0
 10 11  4  0  0  0
 11 12  4  0  0  0
 15 16  1  0  0  0
 16 17  4  0  0  0
 16 21  4  0  0  0
 17 18  4  0  0  0
 18 19  4  0  0  0
 19 20  4  0  0  0
 20 21  4  0  0  0
 22 23  1  0  0  0
 23 24  4  0  0  0
 23 31  4  0  0  0
 24 25  4  0  0  0
 24 29  4  0  0  0
 25 26  4  0  0  0
 26 27  4  0  0  0
 27 28  4  0  0  0
 28 29  4  0  0  0
 29 30  4  0  0  0
 30 31  4  0  0  0
 31 32  1  0  0  0
  3 33  1  0  0  0
  4 34  1  0  0  0
  8 35  1  0  0  0
  9 36  1  0  0  0
 10 37  1  0  0  0
 11 38  1  0  0  0
 12 39  1  0  0  0
 13 40  1  0  0  0
 13 41  1  0  0  0
 13 42  1  0  0  0
 15 43  1  0  0  0
 15 44  1  0  0  0
 17 45  1  0  0  0
 18 46  1  0  0  0
 19 47  1  0  0  0
 20 48  1  0  0  0
 21 49  1  0  0  0
 22 50  1  0  0  0
 22 51  1  0  0  0
 25 52  1  0  0  0
 26 53  1  0  0  0
 27 54  1  0  0  0
 28 55  1  0  0  0
 32 56  1  0  0  0
 32 57  1  0  0  0
 32 58  1  0  0  0
M  END
$$$$
