### 
### Created by X-TOOL on Mon Sep 10 21:13:29 2018
### 

@<TRIPOS>MOLECULE
5swf_ligand
  128   128     1     0     0
SMALL
GAST_HUCK


@<TRIPOS>ATOM
      1 N          -9.8810   -7.3460   26.9570 N.4       1 LYS         0.2379
      2 CA        -10.3140   -7.9730   28.2000 C.3       1 LYS         0.0647
      3 C         -11.1650   -9.2120   27.9290 C.2       1 LYS         0.2267
      4 O         -12.0590   -9.1890   27.0840 O.2       1 LYS        -0.3907
      5 CB        -11.0960   -6.9740   29.0570 C.3       1 LYS         0.0050
      6 CG        -11.4910   -7.4980   30.4290 C.3       1 LYS        -0.0580
      7 N         -10.8760  -10.2920   28.6480 N.am      1 LEU        -0.2610
      8 CA        -11.6370  -11.5270   28.5140 C.3       1 LEU         0.1313
      9 C         -13.0570  -11.3540   29.0400 C.2       1 LEU         0.2040
     10 O         -13.2700  -10.7730   30.1050 O.2       1 LEU        -0.3944
     11 CB        -10.9380  -12.6730   29.2510 C.3       1 LEU        -0.0101
     12 CG         -9.5750  -13.1190   28.7120 C.3       1 LEU        -0.0425
     13 CD1        -8.9440  -14.1520   29.6330 C.3       1 LEU        -0.0625
     14 CD2        -9.7150  -13.6720   27.3040 C.3       1 LEU        -0.0625
     15 N         -14.0250  -11.8590   28.2810 N.am      1 SEP        -0.2613
     16 CA        -15.4300  -11.8070   28.6720 C.3       1 SEP         0.1588
     17 CB        -16.3180  -12.2670   27.5090 C.3       1 SEP         0.1184
     18 OG        -15.8220  -13.4540   26.9140 O.3       1 SEP        -0.2714
     19 C         -15.6840  -12.6670   29.9080 C.2       1 SEP         0.2090
     20 O         -15.0550  -13.7120   30.0710 O.2       1 SEP        -0.3941
     21 P         -16.8730  -14.0080   25.8280 P.3       1 SEP         0.2010
     22 O1P       -16.1230  -14.2410   24.4210 O.co2     1 SEP        -0.5537
     23 O2P       -17.4780  -15.4100   26.3500 O.co2     1 SEP        -0.5537
     24 O3P       -18.0610  -12.9370   25.6370 O.co2     1 SEP        -0.5537
     25 N         -16.6030  -12.2260   30.7850 N.am      1 PRO        -0.2498
     26 CA        -16.9380  -12.9350   32.0270 C.3       1 PRO         0.1338
     27 C         -17.4250  -14.3650   31.8000 C.2       1 PRO         0.2041
     28 O         -17.9140  -14.6910   30.7200 O.2       1 PRO        -0.3944
     29 CB        -18.0560  -12.0780   32.6270 C.3       1 PRO        -0.0104
     30 CG        -17.8490  -10.7280   32.0450 C.3       1 PRO        -0.0281
     31 CD        -17.3470  -10.9610   30.6580 C.3       1 PRO         0.0369
     32 N         -17.2870  -15.2050   32.8200 N.am      1 ILE        -0.2635
     33 CA        -17.7450  -16.5880   32.7480 C.3       1 ILE         0.1335
     34 C         -18.6750  -16.8940   33.9210 C.2       1 ILE         0.2042
     35 O         -18.2230  -17.0480   35.0540 O.2       1 ILE        -0.3944
     36 CB        -16.5580  -17.5770   32.7450 C.3       1 ILE        -0.0037
     37 CG1       -15.5840  -17.2330   31.6170 C.3       1 ILE        -0.0491
     38 CG2       -17.0450  -19.0140   32.6150 C.3       1 ILE        -0.0582
     39 CD1       -14.3480  -18.0990   31.5860 C.3       1 ILE        -0.0648
     40 N         -19.9740  -16.9740   33.6440 N.am      1 ILE        -0.2635
     41 CA        -20.9750  -17.2070   34.6850 C.3       1 ILE         0.1335
     42 C         -20.8080  -18.5790   35.3430 C.2       1 ILE         0.2042
     43 O         -20.7760  -19.6070   34.6660 O.2       1 ILE        -0.3944
     44 CB        -22.4140  -17.0800   34.1270 C.3       1 ILE        -0.0037
     45 CG1       -22.7790  -15.6100   33.8890 C.3       1 ILE        -0.0491
     46 CG2       -23.4220  -17.6880   35.0890 C.3       1 ILE        -0.0582
     47 CD1       -22.2690  -15.0330   32.5830 C.3       1 ILE        -0.0648
     48 N         -20.6950  -18.5790   36.6700 N.am      1 GLU        -0.2636
     49 CA        -20.5220  -19.8070   37.4420 C.3       1 GLU         0.1324
     50 C         -21.7980  -20.6470   37.4110 C.2       1 GLU         0.2035
     51 O         -22.8970  -20.1130   37.2580 O.2       1 GLU        -0.3944
     52 CB        -20.1320  -19.4750   38.8890 C.3       1 GLU        -0.0008
     53 CG        -19.6390  -20.6620   39.7120 C.3       1 GLU         0.0044
     54 CD        -19.3180  -20.2880   41.1480 C.2       1 GLU         0.0350
     55 OE1       -19.7050  -19.1800   41.5770 O.co2     1 GLU        -0.5690
     56 OE2       -18.6760  -21.1000   41.8480 O.co2     1 GLU        -0.5690
     57 N         -21.6460  -21.9600   37.5490 N.am      1 ASP        -0.2679
     58 CA        -22.7880  -22.8690   37.5590 C.3       1 ASP         0.1057
     59 C         -23.0170  -23.4630   38.9470 C.2       1 ASP         0.0618
     60 O         -23.6570  -22.8480   39.8010 O.co2     1 ASP        -0.5665
     61 CB        -22.5860  -23.9920   36.5390 C.3       1 ASP         0.0351
     62 CG        -23.6110  -23.9570   35.4210 C.2       1 ASP         0.0387
     63 OD1       -23.5570  -23.0220   34.5940 O.co2     1 ASP        -0.5688
     64 OD2       -24.4640  -24.8680   35.3620 O.co2     1 ASP        -0.5688
     65 OXT       -22.5670  -24.5700   39.2440 O.co2     1 ASP        -0.5665
     66 H1         -9.3229   -6.5334   27.1673 H         1 LYS         0.2015
     67 H2        -10.6886   -7.0694   26.4210 H         1 LYS         0.2015
     68 H3         -9.3320   -8.0017   26.4234 H         1 LYS         0.2015
     69 H4         -9.4188   -8.2847   28.7581 H         1 LYS         0.1098
     70 H5        -12.0138   -6.7007   28.5158 H         1 LYS         0.0343
     71 H6        -10.4725   -6.0787   29.1971 H         1 LYS         0.0343
     72 H7        -12.0457   -6.7194   30.9731 H         1 LYS         0.0233
     73 H8        -10.5859   -7.7657   30.9938 H         1 LYS         0.0233
     74 H9        -12.1272   -8.3878   30.3125 H         1 LYS         0.0233
     75 H10       -10.1166  -10.2558   29.2976 H         1 LEU         0.1884
     76 H11       -11.6924  -11.7833   27.4457 H         1 LEU         0.0800
     77 H12       -11.6081  -13.5447   29.2202 H         1 LEU         0.0315
     78 H13       -10.7946  -12.3574   30.2949 H         1 LEU         0.0315
     79 H14        -8.9140  -12.2406   28.6744 H         1 LEU         0.0298
     80 H15        -7.9682  -14.4574   29.2274 H         1 LEU         0.0232
     81 H16        -9.6024  -15.0303   29.7046 H         1 LEU         0.0232
     82 H17        -8.8050  -13.7154   30.6330 H         1 LEU         0.0232
     83 H18       -10.1725  -12.9108   26.6550 H         1 LEU         0.0232
     84 H19       -10.3525  -14.5682   27.3237 H         1 LEU         0.0232
     85 H20        -8.7214  -13.9373   26.9138 H         1 LEU         0.0232
     86 H21       -13.7817  -12.2895   27.4118 H         1 SEP         0.1884
     87 H22       -15.6850  -10.7652   28.9160 H         1 SEP         0.0827
     88 H23       -16.3507  -11.4729   26.7486 H         1 SEP         0.0662
     89 H24       -17.3337  -12.4545   27.8874 H         1 SEP         0.0662
     90 H25       -16.0649  -12.9612   32.6955 H         1 PRO         0.0802
     91 H26       -17.9734  -12.0446   33.7234 H         1 PRO         0.0313
     92 H27       -19.0426  -12.4747   32.3455 H         1 PRO         0.0313
     93 H28       -17.1077  -10.1663   32.6323 H         1 PRO         0.0287
     94 H29       -18.7970  -10.1705   32.0216 H         1 PRO         0.0287
     95 H30       -18.1805  -11.0618   29.9473 H         1 PRO         0.0524
     96 H31       -16.6857  -10.1438   30.3341 H         1 PRO         0.0524
     97 H32       -16.8565  -14.8796   33.6619 H         1 ILE         0.1883
     98 H33       -18.3065  -16.7181   31.8111 H         1 ILE         0.0803
     99 H34       -16.0261  -17.4801   33.7030 H         1 ILE         0.0345
    100 H35       -15.2695  -16.1860   31.7391 H         1 ILE         0.0267
    101 H36       -16.1108  -17.3482   30.6583 H         1 ILE         0.0267
    102 H37       -17.7430  -19.2401   33.4346 H         1 ILE         0.0235
    103 H38       -16.1855  -19.6985   32.6661 H         1 ILE         0.0235
    104 H39       -17.5584  -19.1414   31.6505 H         1 ILE         0.0235
    105 H40       -13.7036  -17.7884   30.7504 H         1 ILE         0.0230
    106 H41       -14.6405  -19.1509   31.4520 H         1 ILE         0.0230
    107 H42       -13.7992  -17.9888   32.5329 H         1 ILE         0.0230
    108 H43       -20.2750  -16.8718   32.6959 H         1 ILE         0.1883
    109 H44       -20.8374  -16.4375   35.4589 H         1 ILE         0.0803
    110 H45       -22.4659  -17.6191   33.1696 H         1 ILE         0.0345
    111 H46       -22.3590  -15.0150   34.7134 H         1 ILE         0.0267
    112 H47       -23.8756  -15.5239   33.8963 H         1 ILE         0.0267
    113 H48       -23.1688  -18.7436   35.2665 H         1 ILE         0.0235
    114 H49       -24.4303  -17.6209   34.6544 H         1 ILE         0.0235
    115 H50       -23.3963  -17.1395   36.0421 H         1 ILE         0.0235
    116 H51       -22.5783  -13.9805   32.5016 H         1 ILE         0.0230
    117 H52       -22.6877  -15.6043   31.7414 H         1 ILE         0.0230
    118 H53       -21.1711  -15.0954   32.5585 H         1 ILE         0.0230
    119 H54       -20.7299  -17.7058   37.1561 H         1 GLU         0.1883
    120 H55       -19.7094  -20.3926   36.9874 H         1 GLU         0.0801
    121 H56       -21.0147  -19.0537   39.3924 H         1 GLU         0.0330
    122 H57       -19.3307  -18.7218   38.8624 H         1 GLU         0.0330
    123 H58       -18.7292  -21.0627   39.2412 H         1 GLU         0.0433
    124 H59       -20.4208  -21.4358   39.7165 H         1 GLU         0.0433
    125 H60       -20.7245  -22.3353   37.6487 H         1 ASP         0.1876
    126 H61       -23.6842  -22.2975   37.2759 H         1 ASP         0.0745
    127 H62       -22.6647  -24.9582   37.0588 H         1 ASP         0.0471
    128 H63       -21.5824  -23.8926   36.0998 H         1 ASP         0.0471
@<TRIPOS>BOND
     1    1    2 1  
     2    2    3 1  
     3    2    5 1  
     4    3    4 2  
     5    3    7 am 
     6    5    6 1  
     7    7    8 1  
     8    8    9 1  
     9    8   11 1  
    10    9   10 2  
    11    9   15 am 
    12   11   12 1  
    13   12   13 1  
    14   12   14 1  
    15   15   16 1  
    16   16   17 1  
    17   16   19 1  
    18   17   18 1  
    19   18   21 1  
    20   19   20 2  
    21   19   25 am 
    22   21   22 ar 
    23   21   23 ar 
    24   21   24 ar 
    25   25   26 1  
    26   25   31 1  
    27   26   27 1  
    28   26   29 1  
    29   27   28 2  
    30   27   32 am 
    31   29   30 1  
    32   30   31 1  
    33   32   33 1  
    34   33   34 1  
    35   33   36 1  
    36   34   35 2  
    37   34   40 am 
    38   36   37 1  
    39   36   38 1  
    40   37   39 1  
    41   40   41 1  
    42   41   42 1  
    43   41   44 1  
    44   42   43 2  
    45   42   48 am 
    46   44   45 1  
    47   44   46 1  
    48   45   47 1  
    49   48   49 1  
    50   49   50 1  
    51   49   52 1  
    52   50   51 2  
    53   50   57 am 
    54   52   53 1  
    55   53   54 1  
    56   54   55 ar 
    57   54   56 ar 
    58   57   58 1  
    59   58   59 1  
    60   58   61 1  
    61   59   60 ar 
    62   59   65 ar 
    63   61   62 1  
    64   62   63 ar 
    65   62   64 ar 
    66    1   66 1  
    67    1   67 1  
    68    1   68 1  
    69    2   69 1  
    70    5   70 1  
    71    5   71 1  
    72    6   72 1  
    73    6   73 1  
    74    6   74 1  
    75    7   75 1  
    76    8   76 1  
    77   11   77 1  
    78   11   78 1  
    79   12   79 1  
    80   13   80 1  
    81   13   81 1  
    82   13   82 1  
    83   14   83 1  
    84   14   84 1  
    85   14   85 1  
    86   15   86 1  
    87   16   87 1  
    88   17   88 1  
    89   17   89 1  
    90   26   90 1  
    91   29   91 1  
    92   29   92 1  
    93   30   93 1  
    94   30   94 1  
    95   31   95 1  
    96   31   96 1  
    97   32   97 1  
    98   33   98 1  
    99   36   99 1  
   100   37  100 1  
   101   37  101 1  
   102   38  102 1  
   103   38  103 1  
   104   38  104 1  
   105   39  105 1  
   106   39  106 1  
   107   39  107 1  
   108   40  108 1  
   109   41  109 1  
   110   44  110 1  
   111   45  111 1  
   112   45  112 1  
   113   46  113 1  
   114   46  114 1  
   115   46  115 1  
   116   47  116 1  
   117   47  117 1  
   118   47  118 1  
   119   48  119 1  
   120   49  120 1  
   121   52  121 1  
   122   52  122 1  
   123   53  123 1  
   124   53  124 1  
   125   57  125 1  
   126   58  126 1  
   127   61  127 1  
   128   61  128 1  
@<TRIPOS>SUBSTRUCTURE
     1 LYS         1

