5swf_ligand
  -I-interpret- 

133133  0  0  0  0  0  0  0  0999 V2000
   -9.8810   -7.3460   26.9570 N   0  3  0  0  0
  -10.3140   -7.9730   28.2000 C   0  0  0  0  0
  -11.1650   -9.2120   27.9290 C   0  0  0  0  0
  -12.0590   -9.1890   27.0840 O   0  0  0  0  0
  -11.0960   -6.9740   29.0570 C   0  0  0  0  0
  -11.4910   -7.4980   30.4290 C   0  0  0  0  0
  -10.8760  -10.2920   28.6480 N   0  0  0  0  0
  -11.6370  -11.5270   28.5140 C   0  0  0  0  0
  -13.0570  -11.3540   29.0400 C   0  0  0  0  0
  -13.2700  -10.7730   30.1050 O   0  0  0  0  0
  -10.9380  -12.6730   29.2510 C   0  0  0  0  0
   -9.5750  -13.1190   28.7120 C   0  0  0  0  0
   -8.9440  -14.1520   29.6330 C   0  0  0  0  0
   -9.7150  -13.6720   27.3040 C   0  0  0  0  0
  -14.0250  -11.8590   28.2810 N   0  0  0  0  0
  -15.4300  -11.8070   28.6720 C   0  0  0  0  0
  -16.3180  -12.2670   27.5090 C   0  0  0  0  0
  -15.8220  -13.4540   26.9140 O   0  0  0  0  0
  -15.6840  -12.6670   29.9080 C   0  0  0  0  0
  -15.0550  -13.7120   30.0710 O   0  0  0  0  0
  -16.8730  -14.0080   25.8280 P   0  0  0  0  0
  -16.1230  -14.2410   24.4210 O   0  0  0  0  0
  -17.4780  -15.4100   26.3500 O   0  0  0  0  0
  -18.0610  -12.9370   25.6370 O   0  0  0  0  0
  -16.6030  -12.2260   30.7850 N   0  0  0  0  0
  -16.9380  -12.9350   32.0270 C   0  0  0  0  0
  -17.4250  -14.3650   31.8000 C   0  0  0  0  0
  -17.9140  -14.6910   30.7200 O   0  0  0  0  0
  -18.0560  -12.0780   32.6270 C   0  0  0  0  0
  -17.8490  -10.7280   32.0450 C   0  0  0  0  0
  -17.3470  -10.9610   30.6580 C   0  0  0  0  0
  -17.2870  -15.2050   32.8200 N   0  0  0  0  0
  -17.7450  -16.5880   32.7480 C   0  0  0  0  0
  -18.6750  -16.8940   33.9210 C   0  0  0  0  0
  -18.2230  -17.0480   35.0540 O   0  0  0  0  0
  -16.5580  -17.5770   32.7450 C   0  0  0  0  0
  -15.5840  -17.2330   31.6170 C   0  0  0  0  0
  -17.0450  -19.0140   32.6150 C   0  0  0  0  0
  -14.3480  -18.0990   31.5860 C   0  0  0  0  0
  -19.9740  -16.9740   33.6440 N   0  0  0  0  0
  -20.9750  -17.2070   34.6850 C   0  0  0  0  0
  -20.8080  -18.5790   35.3430 C   0  0  0  0  0
  -20.7760  -19.6070   34.6660 O   0  0  0  0  0
  -22.4140  -17.0800   34.1270 C   0  0  0  0  0
  -22.7790  -15.6100   33.8890 C   0  0  0  0  0
  -23.4220  -17.6880   35.0890 C   0  0  0  0  0
  -22.2690  -15.0330   32.5830 C   0  0  0  0  0
  -20.6950  -18.5790   36.6700 N   0  0  0  0  0
  -20.5220  -19.8070   37.4420 C   0  0  0  0  0
  -21.7980  -20.6470   37.4110 C   0  0  0  0  0
  -22.8970  -20.1130   37.2580 O   0  0  0  0  0
  -20.1320  -19.4750   38.8890 C   0  0  0  0  0
  -19.6390  -20.6620   39.7120 C   0  0  0  0  0
  -19.3180  -20.2880   41.1480 C   0  0  0  0  0
  -19.7050  -19.1800   41.5770 O   0  0  0  0  0
  -18.6760  -21.1000   41.8480 O   0  0  0  0  0
  -21.6460  -21.9600   37.5490 N   0  0  0  0  0
  -22.7880  -22.8690   37.5590 C   0  0  0  0  0
  -23.0170  -23.4630   38.9470 C   0  0  0  0  0
  -23.6570  -22.8480   39.8010 O   0  0  0  0  0
  -22.5860  -23.9920   36.5390 C   0  0  0  0  0
  -23.6110  -23.9570   35.4210 C   0  0  0  0  0
  -23.5570  -23.0220   34.5940 O   0  0  0  0  0
  -24.4640  -24.8680   35.3620 O   0  0  0  0  0
  -22.5670  -24.5700   39.2440 O   0  0  0  0  0
   -9.3623   -8.0237   26.3984 H   0  0  0  0  0
  -10.6979   -7.0279   26.4355 H   0  0  0  0  0
   -9.2810   -6.5493   27.1705 H   0  0  0  0  0
   -9.4228   -8.2867   28.7436 H   0  0  0  0  0
  -12.0189   -6.7478   28.5229 H   0  0  0  0  0
  -10.4468   -6.1134   29.2179 H   0  0  0  0  0
  -12.1212   -8.3796   30.3122 H   0  0  0  0  0
  -10.5933   -7.7630   30.9876 H   0  0  0  0  0
  -12.0406   -6.7256   30.9671 H   0  0  0  0  0
  -10.1014  -10.2551   29.3106 H   0  0  0  0  0
  -11.6915  -11.7729   27.4535 H   0  0  0  0  0
  -11.5951  -13.5367   29.1489 H   0  0  0  0  0
  -10.7531  -12.3077   30.2612 H   0  0  0  0  0
   -8.9192  -12.2491   28.6767 H   0  0  0  0  0
   -8.8068  -13.7182   30.6235 H   0  0  0  0  0
   -9.5973  -15.0217   29.7031 H   0  0  0  0  0
   -7.9772  -14.4538   29.2301 H   0  0  0  0  0
  -10.3890  -14.5285   27.3168 H   0  0  0  0  0
  -10.1196  -12.8994   26.6501 H   0  0  0  0  0
   -8.7365  -13.9834   26.9384 H   0  0  0  0  0
  -13.7768  -12.2981   27.3944 H   0  0  0  0  0
  -15.6796  -10.7755   28.9207 H   0  0  0  0  0
  -16.3311  -11.4816   26.7533 H   0  0  0  0  0
  -17.3173  -12.4664   27.8958 H   0  0  0  0  0
  -15.4159  -14.8796   24.5385 H   0  0  0  0  0
  -16.7651  -16.0431   26.4616 H   0  0  0  0  0
  -16.0639  -13.0482   32.6683 H   0  0  0  0  0
  -18.0163  -12.0619   33.7162 H   0  0  0  0  0
  -19.0436  -12.4752   32.3923 H   0  0  0  0  0
  -17.1397  -10.1453   32.6327 H   0  0  0  0  0
  -18.7728  -10.1494   32.0423 H   0  0  0  0  0
  -18.1486  -11.0137   29.9212 H   0  0  0  0  0
  -16.7296  -10.1423   30.2884 H   0  0  0  0  0
  -16.8479  -14.8730   33.6787 H   0  0  0  0  0
  -18.2890  -16.7118   31.8116 H   0  0  0  0  0
  -16.0348  -17.4859   33.6968 H   0  0  0  0  0
  -15.2549  -16.2062   31.7765 H   0  0  0  0  0
  -16.1115  -17.3893   30.6760 H   0  0  0  0  0
  -17.6973  -19.2526   33.4550 H   0  0  0  0  0
  -17.5966  -19.1263   31.6816 H   0  0  0  0  0
  -16.1884  -19.6880   32.6157 H   0  0  0  0  0
  -13.8051  -17.9889   32.5248 H   0  0  0  0  0
  -14.6392  -19.1410   31.4532 H   0  0  0  0  0
  -13.7103  -17.7903   30.7577 H   0  0  0  0  0
  -20.2810  -16.8697   32.6769 H   0  0  0  0  0
  -20.8153  -16.4370   35.4398 H   0  0  0  0  0
  -22.4458  -17.6189   33.1801 H   0  0  0  0  0
  -22.3170  -15.0348   34.6914 H   0  0  0  0  0
  -23.8671  -15.5549   33.8563 H   0  0  0  0  0
  -23.1928  -18.7437   35.2341 H   0  0  0  0  0
  -23.3684  -17.1684   36.0457 H   0  0  0  0  0
  -24.4250  -17.5863   34.6745 H   0  0  0  0  0
  -21.1810  -15.0955   32.5599 H   0  0  0  0  0
  -22.6845  -15.6000   31.7499 H   0  0  0  0  0
  -22.5761  -13.9902   32.5035 H   0  0  0  0  0
  -20.7306  -17.6883   37.1658 H   0  0  0  0  0
  -19.7191  -20.3892   36.9898 H   0  0  0  0  0
  -21.0312  -19.1031   39.3801 H   0  0  0  0  0
  -19.3079  -18.7634   38.8377 H   0  0  0  0  0
  -18.7234  -21.0316   39.2502 H   0  0  0  0  0
  -20.4329  -21.4086   39.7306 H   0  0  0  0  0
  -18.4790  -21.8829   41.3285 H   0  0  0  0  0
  -20.7060  -22.3428   37.6507 H   0  0  0  0  0
  -23.6713  -22.2913   37.2867 H   0  0  0  0  0
  -23.9464  -22.0074   39.4387 H   0  0  0  0  0
  -22.6924  -24.9426   37.0616 H   0  0  0  0  0
  -21.5993  -23.8663   36.0932 H   0  0  0  0  0
  -22.8319  -22.4358   34.8224 H   0  0  0  0  0
  1  2  1  0  0  0
  2  3  1  0  0  0
  2  5  1  0  0  0
  3  4  2  0  0  0
  3  7  1  0  0  0
  5  6  1  0  0  0
  7  8  1  0  0  0
  8  9  1  0  0  0
  8 11  1  0  0  0
  9 10  2  0  0  0
  9 15  1  0  0  0
 11 12  1  0  0  0
 12 13  1  0  0  0
 12 14  1  0  0  0
 15 16  1  0  0  0
 16 17  1  0  0  0
 16 19  1  0  0  0
 17 18  1  0  0  0
 18 21  1  0  0  0
 19 20  2  0  0  0
 19 25  1  0  0  0
 21 22  1  0  0  0
 21 23  1  0  0  0
 21 24  2  0  0  0
 25 26  1  0  0  0
 25 31  1  0  0  0
 26 27  1  0  0  0
 26 29  1  0  0  0
 27 28  2  0  0  0
 27 32  1  0  0  0
 29 30  1  0  0  0
 30 31  1  0  0  0
 32 33  1  0  0  0
 33 34  1  0  0  0
 33 36  1  0  0  0
 34 35  2  0  0  0
 34 40  1  0  0  0
 36 37  1  0  0  0
 36 38  1  0  0  0
 37 39  1  0  0  0
 40 41  1  0  0  0
 41 42  1  0  0  0
 41 44  1  0  0  0
 42 43  2  0  0  0
 42 48  1  0  0  0
 44 45  1  0  0  0
 44 46  1  0  0  0
 45 47  1  0  0  0
 48 49  1  0  0  0
 49 50  1  0  0  0
 49 52  1  0  0  0
 50 51  2  0  0  0
 50 57  1  0  0  0
 52 53  1  0  0  0
 53 54  1  0  0  0
 54 55  2  0  0  0
 54 56  1  0  0  0
 57 58  1  0  0  0
 58 59  1  0  0  0
 58 61  1  0  0  0
 59 60  1  0  0  0
 59 65  2  0  0  0
 61 62  1  0  0  0
 62 63  1  0  0  0
 62 64  2  0  0  0
  1 66  1  0  0  0
  1 67  1  0  0  0
  1 68  1  0  0  0
  2 69  1  0  0  0
  5 70  1  0  0  0
  5 71  1  0  0  0
  6 72  1  0  0  0
  6 73  1  0  0  0
  6 74  1  0  0  0
  7 75  1  0  0  0
  8 76  1  0  0  0
 11 77  1  0  0  0
 11 78  1  0  0  0
 12 79  1  0  0  0
 13 80  1  0  0  0
 13 81  1  0  0  0
 13 82  1  0  0  0
 14 83  1  0  0  0
 14 84  1  0  0  0
 14 85  1  0  0  0
 15 86  1  0  0  0
 16 87  1  0  0  0
 17 88  1  0  0  0
 17 89  1  0  0  0
 22 90  1  0  0  0
 23 91  1  0  0  0
 26 92  1  0  0  0
 29 93  1  0  0  0
 29 94  1  0  0  0
 30 95  1  0  0  0
 30 96  1  0  0  0
 31 97  1  0  0  0
 31 98  1  0  0  0
 32 99  1  0  0  0
 33100  1  0  0  0
 36101  1  0  0  0
 37102  1  0  0  0
 37103  1  0  0  0
 38104  1  0  0  0
 38105  1  0  0  0
 38106  1  0  0  0
 39107  1  0  0  0
 39108  1  0  0  0
 39109  1  0  0  0
 40110  1  0  0  0
 41111  1  0  0  0
 44112  1  0  0  0
 45113  1  0  0  0
 45114  1  0  0  0
 46115  1  0  0  0
 46116  1  0  0  0
 46117  1  0  0  0
 47118  1  0  0  0
 47119  1  0  0  0
 47120  1  0  0  0
 48121  1  0  0  0
 49122  1  0  0  0
 52123  1  0  0  0
 52124  1  0  0  0
 53125  1  0  0  0
 53126  1  0  0  0
 56127  1  0  0  0
 57128  1  0  0  0
 58129  1  0  0  0
 60130  1  0  0  0
 61131  1  0  0  0
 61132  1  0  0  0
 63133  1  0  0  0
M  END
$$$$
