### 
### Created by X-TOOL on Wed Jan  1 15:39:34 2020
### 

@<TRIPOS>MOLECULE
6g2l_ligand
   52    55     1     0     0
SMALL
GAST_HUCK


@<TRIPOS>ATOM
      1 C2'        -5.1360   27.2930   28.2640 C.3       1 EJ8         0.0301
      2 C1'        -3.6410   27.6900   28.0440 C.3       1 EJ8         0.1756
      3 O2         -1.3600   28.3620   26.7050 O.2       1 EJ8        -0.3843
      4 O9         -5.4390   20.1380   22.7400 O.co2     1 EJ8        -0.5616
      5 P2         -4.1180   20.0290   23.3490 P.3       1 EJ8         0.0679
      6 O10        -2.9660   20.6410   22.6820 O.co2     1 EJ8        -0.5616
      7 O11        -3.9100   18.7690   24.1400 O.co2     1 EJ8        -0.5616
      8 C18        -4.3450   21.1390   24.8070 C.3       1 EJ8         0.0662
      9 S1         -3.0270   22.3790   25.1870 S.3       1 EJ8        -0.1376
     10 C17        -3.9340   23.8990   24.7180 C.3       1 EJ8         0.0167
     11 C5         -3.2690   25.0320   25.2220 C.2       1 EJ8         0.0352
     12 C4         -3.7550   25.7210   26.3130 C.2       1 EJ8         0.0535
     13 C6         -2.1420   25.5280   24.6150 C.2       1 EJ8         0.1940
     14 O6         -1.6700   24.9930   23.6170 O.2       1 EJ8        -0.4079
     15 N1         -1.5330   26.6630   25.1340 N.am      1 EJ8        -0.1859
     16 C8         -1.9780   27.3550   26.2750 C.2       1 EJ8         0.3265
     17 N9         -3.0900   26.9090   26.8590 N.am      1 EJ8        -0.1736
     18 O4'        -2.9770   27.5630   29.2690 O.3       1 EJ8        -0.3399
     19 C3'        -5.1670   26.8000   29.6950 C.3       1 EJ8         0.0853
     20 O3'        -4.9560   25.3830   29.6280 O.3       1 EJ8        -0.3659
     21 C4'        -3.9720   27.5180   30.3140 C.3       1 EJ8         0.1097
     22 C5'        -3.3410   26.8200   31.4550 C.3       1 EJ8         0.0697
     23 O7         -3.2700   25.3400   31.2290 O.3       1 EJ8        -0.3694
     24 CAB        -4.4850   24.7240   30.8270 C.3       1 EJ8         0.2365
     25 P          -5.7450   24.7590   32.2110 P.3       1 EJ8         0.0922
     26 OP1        -6.2020   26.1470   32.5300 O.co2     1 EJ8        -0.5660
     27 OP2        -6.8310   23.8520   31.8420 O.co2     1 EJ8        -0.5660
     28 OP3        -4.9150   24.1070   33.3560 O.co2     1 EJ8        -0.5660
     29 C2         -4.2290   23.3530   30.4330 C.ar      1 EJ8         0.0228
     30 CAA        -4.9400   22.7530   29.3880 C.ar      1 EJ8        -0.0333
     31 C9         -4.7220   21.4260   29.0470 C.ar      1 EJ8        -0.0322
     32 C10        -3.7810   20.6990   29.7160 C.ar      1 EJ8        -0.0340
     33 C11        -3.0180   21.2660   30.7330 C.ar      1 EJ8        -0.0322
     34 C12        -3.2730   22.5950   31.0850 C.ar      1 EJ8        -0.0333
     35 H1         -5.4373   26.4965   27.5677 H         1 EJ8         0.0344
     36 H2         -5.7965   28.1629   28.1341 H         1 EJ8         0.0344
     37 H3         -3.5981   28.7538   27.7673 H         1 EJ8         0.0959
     38 H4         -4.4492   20.4946   25.6924 H         1 EJ8         0.0566
     39 H5         -5.2794   21.6971   24.6476 H         1 EJ8         0.0566
     40 H6         -4.9515   23.8589   25.1341 H         1 EJ8         0.0443
     41 H7         -3.9887   23.9667   23.6215 H         1 EJ8         0.0443
     42 H8         -4.6693   25.3690   26.7884 H         1 EJ8         0.1011
     43 H9         -0.7223   27.0124   24.6643 H         1 EJ8         0.2259
     44 H10        -6.1060   27.0396   30.2154 H         1 EJ8         0.0615
     45 H11        -4.2718   28.5292   30.6264 H         1 EJ8         0.0645
     46 H12        -3.9317   27.0140   32.3624 H         1 EJ8         0.0577
     47 H13        -2.3212   27.2091   31.5911 H         1 EJ8         0.0577
     48 H14        -5.6714   23.3331   28.8371 H         1 EJ8         0.0852
     49 H15        -5.2979   20.9679   28.2510 H         1 EJ8         0.0698
     50 H16        -3.6245   19.6597   29.4505 H         1 EJ8         0.0856
     51 H17        -2.2481   20.6935   31.2376 H         1 EJ8         0.0698
     52 H18        -2.7053   23.0442   31.8919 H         1 EJ8         0.0852
@<TRIPOS>BOND
     1    2    1 1  
     2    1   19 1  
     3   17    2 1  
     4    2   18 1  
     5   16    3 2  
     6    5    4 ar 
     7    5    6 ar 
     8    5    7 ar 
     9    8    5 1  
    10    9    8 1  
    11   10    9 1  
    12   11   10 1  
    13   11   12 2  
    14   13   11 1  
    15   12   17 1  
    16   13   14 2  
    17   15   13 am 
    18   15   16 am 
    19   16   17 am 
    20   18   21 1  
    21   19   20 1  
    22   19   21 1  
    23   20   24 1  
    24   21   22 1  
    25   22   23 1  
    26   23   24 1  
    27   24   25 1  
    28   24   29 1  
    29   25   26 ar 
    30   25   27 ar 
    31   25   28 ar 
    32   29   30 ar 
    33   29   34 ar 
    34   30   31 ar 
    35   31   32 ar 
    36   32   33 ar 
    37   33   34 ar 
    38    1   35 1  
    39    1   36 1  
    40    2   37 1  
    41    8   38 1  
    42    8   39 1  
    43   10   40 1  
    44   10   41 1  
    45   12   42 1  
    46   15   43 1  
    47   19   44 1  
    48   21   45 1  
    49   22   46 1  
    50   22   47 1  
    51   30   48 1  
    52   31   49 1  
    53   32   50 1  
    54   33   51 1  
    55   34   52 1  
@<TRIPOS>SUBSTRUCTURE
     1 EJ8         1

