6g2l_ligand
  -I-interpret- 

 56 59  0  0  0  0  0  0  0  0999 V2000
   -5.1360   27.2930   28.2640 C   0  0  0  0  0
   -3.6410   27.6900   28.0440 C   0  0  0  0  0
   -1.3600   28.3620   26.7050 O   0  0  0  0  0
   -5.4390   20.1380   22.7400 O   0  0  0  0  0
   -4.1180   20.0290   23.3490 P   0  0  0  0  0
   -2.9660   20.6410   22.6820 O   0  0  0  0  0
   -3.9100   18.7690   24.1400 O   0  0  0  0  0
   -4.3450   21.1390   24.8070 C   0  0  0  0  0
   -3.0270   22.3790   25.1870 S   0  0  0  0  0
   -3.9340   23.8990   24.7180 C   0  0  0  0  0
   -3.2690   25.0320   25.2220 C   0  0  0  0  0
   -3.7550   25.7210   26.3130 C   0  0  0  0  0
   -2.1420   25.5280   24.6150 C   0  0  0  0  0
   -1.6700   24.9930   23.6170 O   0  0  0  0  0
   -1.5330   26.6630   25.1340 N   0  0  0  0  0
   -1.9780   27.3550   26.2750 C   0  0  0  0  0
   -3.0900   26.9090   26.8590 N   0  0  0  0  0
   -2.9770   27.5630   29.2690 O   0  0  0  0  0
   -5.1670   26.8000   29.6950 C   0  0  0  0  0
   -4.9560   25.3830   29.6280 O   0  0  0  0  0
   -3.9720   27.5180   30.3140 C   0  0  0  0  0
   -3.3410   26.8200   31.4550 C   0  0  0  0  0
   -3.2700   25.3400   31.2290 O   0  0  0  0  0
   -4.4850   24.7240   30.8270 C   0  0  0  0  0
   -5.7450   24.7590   32.2110 P   0  0  0  0  0
   -6.2020   26.1470   32.5300 O   0  0  0  0  0
   -6.8310   23.8520   31.8420 O   0  0  0  0  0
   -4.9150   24.1070   33.3560 O   0  0  0  0  0
   -4.2290   23.3530   30.4330 C   0  0  0  0  0
   -4.9400   22.7530   29.3880 C   0  0  0  0  0
   -4.7220   21.4260   29.0470 C   0  0  0  0  0
   -3.7810   20.6990   29.7160 C   0  0  0  0  0
   -3.0180   21.2660   30.7330 C   0  0  0  0  0
   -3.2730   22.5950   31.0850 C   0  0  0  0  0
   -5.4750   26.5373   27.5555 H   0  0  0  0  0
   -5.8176   28.1267   28.0957 H   0  0  0  0  0
   -3.4949   28.7309   27.7553 H   0  0  0  0  0
   -2.1752   20.4835   23.2029 H   0  0  0  0  0
   -3.0237   18.7668   24.5089 H   0  0  0  0  0
   -4.3675   20.4739   25.6703 H   0  0  0  0  0
   -5.2335   21.7284   24.5804 H   0  0  0  0  0
   -4.9402   23.8590   25.1352 H   0  0  0  0  0
   -3.9829   23.9661   23.6312 H   0  0  0  0  0
   -4.6702   25.3687   26.7889 H   0  0  0  0  0
   -0.7061   27.0194   24.6549 H   0  0  0  0  0
   -6.0815   26.9843   30.2587 H   0  0  0  0  0
   -4.3224   28.4786   30.6915 H   0  0  0  0  0
   -3.9431   27.0030   32.3450 H   0  0  0  0  0
   -2.3255   27.1989   31.5703 H   0  0  0  0  0
   -5.4431   26.6870   32.7627 H   0  0  0  0  0
   -4.1988   24.6955   33.6056 H   0  0  0  0  0
   -5.6755   23.3363   28.8340 H   0  0  0  0  0
   -5.3010   20.9654   28.2466 H   0  0  0  0  0
   -3.6236   19.6540   29.4490 H   0  0  0  0  0
   -2.2439   20.6904   31.2404 H   0  0  0  0  0
   -2.7022   23.0466   31.8963 H   0  0  0  0  0
  2  1  1  0  0  0
  1 19  1  0  0  0
 17  2  1  0  0  0
  2 18  1  0  0  0
 16  3  2  0  0  0
  5  4  2  0  0  0
  5  6  1  0  0  0
  5  7  1  0  0  0
  8  5  1  0  0  0
  9  8  1  0  0  0
 10  9  1  0  0  0
 11 10  1  0  0  0
 11 12  2  0  0  0
 13 11  1  0  0  0
 12 17  1  0  0  0
 13 14  2  0  0  0
 15 13  1  0  0  0
 15 16  1  0  0  0
 16 17  1  0  0  0
 18 21  1  0  0  0
 19 20  1  0  0  0
 19 21  1  0  0  0
 20 24  1  0  0  0
 21 22  1  0  0  0
 22 23  1  0  0  0
 23 24  1  0  0  0
 24 25  1  0  0  0
 24 29  1  0  0  0
 25 26  1  0  0  0
 25 27  2  0  0  0
 25 28  1  0  0  0
 29 30  4  0  0  0
 29 34  4  0  0  0
 30 31  4  0  0  0
 31 32  4  0  0  0
 32 33  4  0  0  0
 33 34  4  0  0  0
  1 35  1  0  0  0
  1 36  1  0  0  0
  2 37  1  0  0  0
  6 38  1  0  0  0
  7 39  1  0  0  0
  8 40  1  0  0  0
  8 41  1  0  0  0
 10 42  1  0  0  0
 10 43  1  0  0  0
 12 44  1  0  0  0
 15 45  1  0  0  0
 19 46  1  0  0  0
 21 47  1  0  0  0
 22 48  1  0  0  0
 22 49  1  0  0  0
 26 50  1  0  0  0
 28 51  1  0  0  0
 30 52  1  0  0  0
 31 53  1  0  0  0
 32 54  1  0  0  0
 33 55  1  0  0  0
 34 56  1  0  0  0
M  END
$$$$
