3voz_ligand
  -I-interpret- 

 29 30  0  0  0  0  0  0  0  0999 V2000
    1.5630  -10.0220   -0.4510 O   0  0  0  0  0
   -2.9230   -7.2310   -0.5400 C   0  0  0  0  0
   -2.8340   -8.6300   -0.1950 C   0  0  0  0  0
   -1.9750   -6.6350   -1.4720 C   0  0  0  0  0
   -1.8170   -9.4630   -0.7570 C   0  0  0  0  0
   -0.9070   -7.5160   -2.0620 C   0  0  0  0  0
    7.6520   -8.9740    0.5870 C   0  0  0  0  0
    7.3990  -10.4570    0.2070 C   0  0  0  0  0
    0.2190   -9.8940   -2.2540 C   0  0  0  0  0
    5.1090  -10.3020    0.5010 N   0  0  0  0  0
    3.9260  -10.2050    0.0090 N   0  0  0  0  0
    2.8150  -10.0730   -2.3510 N   0  0  0  0  0
    7.8500   -7.8500    0.0000 S   0  0  0  0  0
    5.4590  -10.2710   -1.9700 S   0  0  0  0  0
    1.6020  -10.0010   -1.6710 C   0  0  0  0  0
   -0.8330   -8.9020   -1.7090 C   0  0  0  0  0
    6.0760  -10.3500   -0.4670 C   0  0  0  0  0
    3.8450  -10.1680   -1.3920 C   0  0  0  0  0
   -3.7067   -6.6149   -0.0991 H   0  0  0  0  0
   -3.5527   -9.0575    0.5042 H   0  0  0  0  0
   -2.0376   -5.5791   -1.7350 H   0  0  0  0  0
   -1.7663  -10.5167   -0.4828 H   0  0  0  0  0
   -0.1850   -7.0965   -2.7626 H   0  0  0  0  0
    7.6655   -8.8507    1.6699 H   0  0  0  0  0
    7.4095  -11.1400    1.0564 H   0  0  0  0  0
    8.1795  -10.8941   -0.4158 H   0  0  0  0  0
   -0.2203  -10.8695   -2.0453 H   0  0  0  0  0
    0.3985   -9.5407   -3.2694 H   0  0  0  0  0
    2.9371  -10.0594   -3.3636 H   0  0  0  0  0
 15  1  2  0  0  0
  3  2  4  0  0  0
  4  2  4  0  0  0
  5  3  4  0  0  0
  6  4  4  0  0  0
 16  5  4  0  0  0
 16  6  4  0  0  0
  8  7  1  0  0  0
  7 13  2  0  0  0
 17  8  1  0  0  0
 15  9  1  0  0  0
  9 16  1  0  0  0
 11 10  4  0  0  0
 10 17  4  0  0  0
 18 11  4  0  0  0
 12 15  1  0  0  0
 12 18  1  0  0  0
 17 14  4  0  0  0
 14 18  4  0  0  0
  2 19  1  0  0  0
  3 20  1  0  0  0
  4 21  1  0  0  0
  5 22  1  0  0  0
  6 23  1  0  0  0
  7 24  1  0  0  0
  8 25  1  0  0  0
  8 26  1  0  0  0
  9 27  1  0  0  0
  9 28  1  0  0  0
 12 29  1  0  0  0
M  END
$$$$
