6f96_ligand
  -I-interpret- 

 52 54  0  0  0  0  0  0  0  0999 V2000
   59.6020   24.8950   57.7630 C   0  0  0  0  0
   60.8390   24.6830   58.4760 O   0  0  0  0  0
   61.0020   25.3640   59.6530 C   0  0  0  0  0
   59.9410   25.5780   60.5420 C   0  0  0  0  0
   60.1460   26.2730   61.7350 C   0  0  0  0  0
   62.2710   25.8490   59.9880 C   0  0  0  0  0
   62.4740   26.5390   61.1910 C   0  0  0  0  0
   61.4010   26.7810   62.0580 C   0  0  0  0  0
   61.5280   27.4000   63.2390 N   0  0  0  0  0
   61.9100   28.6970   63.4200 C   0  0  0  0  0
   62.3950   29.5480   62.3960 C   0  0  0  0  0
   62.7860   30.8760   62.6740 C   0  0  0  0  0
   63.2500   31.7940   61.8040 N   0  0  0  0  0
   63.9700   31.5010   60.6900 C   0  0  0  0  0
   64.2210   30.3560   60.3120 O   0  0  0  0  0
   64.3910   32.5640   59.9850 N   0  0  0  0  0
   65.1650   32.4540   58.7400 C   0  0  0  0  0
   66.2220   33.5540   58.6780 C   0  0  0  0  0
   62.6890   31.3300   63.9320 N   0  0  0  0  0
   62.2230   30.5270   64.9700 C   0  0  0  0  0
   61.8350   29.1880   64.7590 C   0  0  0  0  0
   61.3500   28.4180   65.8570 C   0  0  0  0  0
   60.4910   27.5680   65.6560 O   0  0  0  0  0
   61.8590   28.6780   67.0940 N   0  0  0  0  0
   61.4260   28.0680   68.2110 C   0  0  0  0  0
   60.0650   27.9390   68.5210 C   0  0  0  0  0
   59.6470   27.3410   69.7060 C   0  0  0  0  0
   60.5890   26.8820   70.6180 C   0  0  0  0  0
   61.9530   27.0230   70.3360 N   0  0  0  0  0
   62.3680   27.6270   69.1430 C   0  0  0  0  0
   58.7647   24.5964   58.3938 H   0  0  0  0  0
   59.5077   25.9504   57.5075 H   0  0  0  0  0
   59.6027   24.2978   56.8512 H   0  0  0  0  0
   58.9480   25.1990   60.3004 H   0  0  0  0  0
   59.3128   26.4198   62.4223 H   0  0  0  0  0
   63.1080   25.6890   59.3083 H   0  0  0  0  0
   63.4724   26.8892   61.4532 H   0  0  0  0  0
   61.3212   26.8543   64.0755 H   0  0  0  0  0
   62.4675   29.1709   61.3759 H   0  0  0  0  0
   63.0470   32.7752   61.9946 H   0  0  0  0  0
   64.1618   33.4956   60.3313 H   0  0  0  0  0
   64.4907   32.5585   57.8900 H   0  0  0  0  0
   65.6586   31.4826   58.7111 H   0  0  0  0  0
   65.7334   34.5278   58.7105 H   0  0  0  0  0
   66.8968   33.4561   59.5284 H   0  0  0  0  0
   66.7877   33.4606   57.7510 H   0  0  0  0  0
   62.1563   30.9456   65.9742 H   0  0  0  0  0
   62.6047   29.3690   67.1764 H   0  0  0  0  0
   59.3195   28.3145   67.8201 H   0  0  0  0  0
   58.5833   27.2330   69.9180 H   0  0  0  0  0
   60.2677   26.4143   71.5487 H   0  0  0  0  0
   63.4315   27.7537   68.9406 H   0  0  0  0  0
  1  2  1  0  0  0
  2  3  1  0  0  0
  3  4  4  0  0  0
  3  6  4  0  0  0
  4  5  4  0  0  0
  5  8  4  0  0  0
  6  7  4  0  0  0
  7  8  4  0  0  0
  8  9  1  0  0  0
  9 10  1  0  0  0
 10 11  4  0  0  0
 10 21  4  0  0  0
 11 12  4  0  0  0
 12 13  1  0  0  0
 12 19  4  0  0  0
 13 14  1  0  0  0
 14 15  2  0  0  0
 14 16  1  0  0  0
 16 17  1  0  0  0
 17 18  1  0  0  0
 19 20  4  0  0  0
 20 21  4  0  0  0
 21 22  1  0  0  0
 22 23  2  0  0  0
 22 24  1  0  0  0
 24 25  1  0  0  0
 25 26  4  0  0  0
 25 30  4  0  0  0
 26 27  4  0  0  0
 27 28  4  0  0  0
 28 29  4  0  0  0
 29 30  4  0  0  0
  1 31  1  0  0  0
  1 32  1  0  0  0
  1 33  1  0  0  0
  4 34  1  0  0  0
  5 35  1  0  0  0
  6 36  1  0  0  0
  7 37  1  0  0  0
  9 38  1  0  0  0
 11 39  1  0  0  0
 13 40  1  0  0  0
 16 41  1  0  0  0
 17 42  1  0  0  0
 17 43  1  0  0  0
 18 44  1  0  0  0
 18 45  1  0  0  0
 18 46  1  0  0  0
 20 47  1  0  0  0
 24 48  1  0  0  0
 26 49  1  0  0  0
 27 50  1  0  0  0
 28 51  1  0  0  0
 30 52  1  0  0  0
M  END
$$$$
