5ieo_ligand
  -I-interpret- 

 75 77  0  0  0  0  0  0  0  0999 V2000
   17.3670   59.6940   -6.5420 O   0  0  0  0  0
   15.7000   72.8230    3.3680 O   0  0  0  0  0
   19.7750   62.3340   -5.6080 C   0  0  0  0  0
   19.1730   61.2450   -6.4690 C   0  0  0  0  0
   17.8020   60.9010   -5.9320 C   0  0  0  0  0
   16.9000   62.0930   -6.2360 C   0  0  0  0  0
   17.4300   63.2570   -5.4510 C   0  0  0  0  0
   16.7160   63.8720   -4.5110 C   0  0  0  0  0
   17.1880   65.1060   -3.8920 C   0  0  0  0  0
   16.3560   65.9320   -3.2870 C   0  0  0  0  0
   14.8930   65.7900   -3.4560 C   0  0  0  0  0
   18.8560   63.5270   -5.6230 C   0  0  0  0  0
   14.1630   66.3570   -2.2760 C   0  0  0  0  0
   14.6130   67.7700   -1.9470 C   0  0  0  0  0
   16.0610   67.7860   -1.6560 C   0  0  0  0  0
   16.7670   67.3200   -2.9560 C   0  0  0  0  0
   18.2340   67.5080   -2.6050 C   0  0  0  0  0
   18.2410   68.7270   -1.6590 C   0  0  0  0  0
   16.7700   69.0940   -1.4290 C   0  0  0  0  0
   16.3810   66.8310   -0.5400 C   0  0  0  0  0
   19.2730   64.6280   -6.1950 C   0  0  0  0  0
   16.5880   69.7300   -0.0690 C   0  0  0  0  0
   15.1370   69.9560    0.1300 C   0  0  0  0  0
   17.3050   71.0600   -0.0550 C   0  0  0  0  0
   16.8990   72.0320    1.0330 C   0  0  0  0  0
   17.5340   71.6780    2.3510 C   0  0  0  0  0
   17.0550   72.5870    3.4700 C   0  0  0  0  0
   17.3720   71.8880    4.7630 C   0  0  0  0  0
   17.7590   73.9150    3.4230 C   0  0  0  0  0
   17.9728   58.9851   -6.3140 H   0  0  0  0  0
   15.4217   73.3984    4.0843 H   0  0  0  0  0
   20.7529   62.6157   -5.9984 H   0  0  0  0  0
   19.8959   61.9733   -4.5865 H   0  0  0  0  0
   19.8108   60.3614   -6.4464 H   0  0  0  0  0
   19.0898   61.5921   -7.4989 H   0  0  0  0  0
   17.7920   60.7268   -4.8561 H   0  0  0  0  0
   15.8689   61.8771   -5.9563 H   0  0  0  0  0
   16.9017   62.3152   -7.3031 H   0  0  0  0  0
   15.7624   63.4465   -4.1983 H   0  0  0  0  0
   18.2496   65.3504   -3.9302 H   0  0  0  0  0
   14.6506   64.7309   -3.5434 H   0  0  0  0  0
   14.5885   66.3322   -4.3512 H   0  0  0  0  0
   19.0059   63.9609   -4.6344 H   0  0  0  0  0
   14.3718   65.7252   -1.4127 H   0  0  0  0  0
   13.1005   66.3872   -2.5173 H   0  0  0  0  0
   14.0681   68.1246   -1.0721 H   0  0  0  0  0
   14.4122   68.4175   -2.8005 H   0  0  0  0  0
   16.5168   67.8681   -3.8643 H   0  0  0  0  0
   18.8520   67.6683   -3.4885 H   0  0  0  0  0
   18.6630   66.6214   -2.1381 H   0  0  0  0  0
   18.7919   69.5607   -2.0944 H   0  0  0  0  0
   18.7407   68.4935   -0.7188 H   0  0  0  0  0
   16.3622   69.8566   -2.0925 H   0  0  0  0  0
   15.8346   67.1252    0.3561 H   0  0  0  0  0
   16.0876   65.8224   -0.8313 H   0  0  0  0  0
   17.4519   66.8554   -0.3385 H   0  0  0  0  0
   18.8822   64.6785   -7.2113 H   0  0  0  0  0
   18.9202   65.4879   -5.6256 H   0  0  0  0  0
   20.3626   64.6313   -6.2228 H   0  0  0  0  0
   16.9886   69.0919    0.7187 H   0  0  0  0  0
   14.7629   70.6168   -0.6520 H   0  0  0  0  0
   14.6122   69.0018    0.0830 H   0  0  0  0  0
   14.9724   70.4151    1.1048 H   0  0  0  0  0
   17.0620   71.5450   -1.0004 H   0  0  0  0  0
   18.3575   70.8348    0.1174 H   0  0  0  0  0
   15.8159   71.9898    1.1483 H   0  0  0  0  0
   17.2300   73.0302    0.7464 H   0  0  0  0  0
   18.6134   71.7941    2.2535 H   0  0  0  0  0
   17.2581   70.6533    2.6001 H   0  0  0  0  0
   16.8534   70.9298    4.7932 H   0  0  0  0  0
   18.4473   71.7229    4.8312 H   0  0  0  0  0
   17.0444   72.5064    5.5987 H   0  0  0  0  0
   18.8323   73.7599    3.5326 H   0  0  0  0  0
   17.5562   74.3987    2.4675 H   0  0  0  0  0
   17.3969   74.5457    4.2350 H   0  0  0  0  0
  5  1  1  0  0  0
 27  2  1  0  0  0
  3  4  1  0  0  0
 12  3  1  0  0  0
  5  4  1  0  0  0
  6  5  1  0  0  0
  7  6  1  0  0  0
  8  7  2  0  0  0
  7 12  1  0  0  0
  9  8  1  0  0  0
 10  9  2  0  0  0
 10 11  1  0  0  0
 16 10  1  0  0  0
 13 11  1  0  0  0
 12 21  1  0  0  0
 14 13  1  0  0  0
 15 14  1  0  0  0
 15 16  1  0  0  0
 19 15  1  0  0  0
 15 20  1  0  0  0
 17 16  1  0  0  0
 18 17  1  0  0  0
 19 18  1  0  0  0
 22 19  1  0  0  0
 22 23  1  0  0  0
 24 22  1  0  0  0
 25 24  1  0  0  0
 26 25  1  0  0  0
 26 27  1  0  0  0
 27 28  1  0  0  0
 27 29  1  0  0  0
  1 30  1  0  0  0
  2 31  1  0  0  0
  3 32  1  0  0  0
  3 33  1  0  0  0
  4 34  1  0  0  0
  4 35  1  0  0  0
  5 36  1  0  0  0
  6 37  1  0  0  0
  6 38  1  0  0  0
  8 39  1  0  0  0
  9 40  1  0  0  0
 11 41  1  0  0  0
 11 42  1  0  0  0
 12 43  1  0  0  0
 13 44  1  0  0  0
 13 45  1  0  0  0
 14 46  1  0  0  0
 14 47  1  0  0  0
 16 48  1  0  0  0
 17 49  1  0  0  0
 17 50  1  0  0  0
 18 51  1  0  0  0
 18 52  1  0  0  0
 19 53  1  0  0  0
 20 54  1  0  0  0
 20 55  1  0  0  0
 20 56  1  0  0  0
 21 57  1  0  0  0
 21 58  1  0  0  0
 21 59  1  0  0  0
 22 60  1  0  0  0
 23 61  1  0  0  0
 23 62  1  0  0  0
 23 63  1  0  0  0
 24 64  1  0  0  0
 24 65  1  0  0  0
 25 66  1  0  0  0
 25 67  1  0  0  0
 26 68  1  0  0  0
 26 69  1  0  0  0
 28 70  1  0  0  0
 28 71  1  0  0  0
 28 72  1  0  0  0
 29 73  1  0  0  0
 29 74  1  0  0  0
 29 75  1  0  0  0
M  END
$$$$
