1uze_ligand
  -I-interpret- 

 48 49  0  0  0  0  0  0  0  0999 V2000
   40.1920   34.0940   44.9270 O   0  0  0  0  0
   43.2850   36.5220   48.1860 O   0  0  0  0  0
   41.9880   37.6940   46.9090 O   0  0  0  0  0
   38.8040   33.6840   41.7050 O   0  0  0  0  0
   40.6740   32.5860   42.1270 O   0  0  0  0  0
   41.7710   34.4720   47.1180 N   0  3  0  0  0
   41.7570   34.8740   43.4350 N   0  0  0  0  0
   41.4150   34.3910   44.6760 C   0  0  0  0  0
   42.4920   34.1960   45.8130 C   0  0  0  0  0
   42.2070   36.6640   47.5300 C   0  0  0  0  0
   41.1980   35.5090   47.4850 C   0  0  0  0  0
   40.6840   35.0230   42.3630 C   0  0  0  0  0
   41.5090   35.5880   41.1790 C   0  0  0  0  0
   42.8210   35.7280   41.5570 C   0  0  0  0  0
   43.0940   35.3080   42.9330 C   0  0  0  0  0
   40.0410   33.6030   42.0400 C   0  0  0  0  0
   43.0740   32.7750   45.7120 C   0  0  0  0  0
   40.5060   35.7720   48.7790 C   0  0  0  0  0
   39.3030   36.6650   49.0290 C   0  0  0  0  0
   38.7470   36.7910   50.4110 C   0  0  0  0  0
   38.5240   35.6000   51.2570 C   0  0  0  0  0
   37.9710   35.7450   52.5950 C   0  0  0  0  0
   37.6300   37.0810   53.1110 C   0  0  0  0  0
   37.8500   38.2740   52.2740 C   0  0  0  0  0
   38.4070   38.1300   50.9260 C   0  0  0  0  0
   43.2899   35.6600   48.6086 H   0  0  0  0  0
   38.5321   34.6047   41.7095 H   0  0  0  0  0
   42.5498   34.4416   47.7760 H   0  0  0  0  0
   40.9784   33.8352   47.0361 H   0  0  0  0  0
   43.3439   34.8710   45.7315 H   0  0  0  0  0
   40.3993   35.3955   46.7520 H   0  0  0  0  0
   39.8391   35.6576   42.6304 H   0  0  0  0  0
   41.1085   35.8363   40.1961 H   0  0  0  0  0
   43.5916   36.1174   40.8917 H   0  0  0  0  0
   43.8393   34.5145   42.9881 H   0  0  0  0  0
   43.5283   36.1058   43.5355 H   0  0  0  0  0
   42.2729   32.0461   45.8343 H   0  0  0  0  0
   43.5407   32.6434   44.7358 H   0  0  0  0  0
   43.8192   32.6325   46.4946 H   0  0  0  0  0
   41.2819   36.3060   49.3276 H   0  0  0  0  0
   40.0875   34.7895   48.9971 H   0  0  0  0  0
   38.4989   36.2109   48.4499 H   0  0  0  0  0
   39.6492   37.6681   48.7798 H   0  0  0  0  0
   38.7747   34.6095   50.8773 H   0  0  0  0  0
   37.8091   34.8638   53.2158 H   0  0  0  0  0
   37.2144   37.1879   54.1130 H   0  0  0  0  0
   37.5986   39.2629   52.6573 H   0  0  0  0  0
   38.5696   39.0112   50.3054 H   0  0  0  0  0
  8  1  2  0  0  0
 10  2  1  0  0  0
 10  3  2  0  0  0
 16  4  1  0  0  0
 16  5  2  0  0  0
  9  6  1  0  0  0
  6 11  1  0  0  0
  7  8  1  0  0  0
 12  7  1  0  0  0
  7 15  1  0  0  0
  8  9  1  0  0  0
  9 17  1  0  0  0
 11 10  1  0  0  0
 11 18  1  0  0  0
 12 13  1  0  0  0
 12 16  1  0  0  0
 13 14  2  0  0  0
 14 15  1  0  0  0
 18 19  1  0  0  0
 19 20  1  0  0  0
 20 21  4  0  0  0
 20 25  4  0  0  0
 21 22  4  0  0  0
 22 23  4  0  0  0
 23 24  4  0  0  0
 24 25  4  0  0  0
  2 26  1  0  0  0
  4 27  1  0  0  0
  6 28  1  0  0  0
  6 29  1  0  0  0
  9 30  1  0  0  0
 11 31  1  0  0  0
 12 32  1  0  0  0
 13 33  1  0  0  0
 14 34  1  0  0  0
 15 35  1  0  0  0
 15 36  1  0  0  0
 17 37  1  0  0  0
 17 38  1  0  0  0
 17 39  1  0  0  0
 18 40  1  0  0  0
 18 41  1  0  0  0
 19 42  1  0  0  0
 19 43  1  0  0  0
 21 44  1  0  0  0
 22 45  1  0  0  0
 23 46  1  0  0  0
 24 47  1  0  0  0
 25 48  1  0  0  0
M  END
$$$$
