5d3p_ligand
  -I-interpret- 

 47 49  0  0  0  0  0  0  0  0999 V2000
  -11.0100    7.6050   -1.9270 C   0  0  0  0  0
  -10.6620    8.1050   -0.5440 C   0  0  0  0  0
  -10.5520    6.9390    0.4030 C   0  0  0  0  0
  -11.5570    6.0660    0.8270 C   0  0  0  0  0
  -10.9730    5.0890    1.7780 C   0  0  0  0  0
   -9.3500    6.4350    1.1250 C   0  0  0  0  0
   -6.3190    8.5160    0.2300 C   0  0  0  0  0
   -5.7240    9.0190    1.4090 C   0  0  0  0  0
   -4.6750    9.9490    1.3130 C   0  0  0  0  0
   -4.2260   10.3270    0.0440 C   0  0  0  0  0
   -4.8110    9.8090   -1.1250 C   0  0  0  0  0
   -6.6250    8.2220   -2.1030 C   0  0  0  0  0
   -3.5340    8.2340    3.8910 C   0  0  0  0  0
  -11.6500    3.9500    2.4900 C   0  0  0  0  0
  -13.0120    6.0630    0.4910 C   0  0  0  0  0
  -13.6390    5.0200    0.4620 O   0  0  0  0  0
   -7.9750    7.0150    1.1120 C   0  0  0  0  0
  -13.7190    7.3720    0.2980 C   0  0  0  0  0
   -9.6790    5.3850    1.8880 N   0  0  0  0  0
   -7.3490    7.5700    0.0680 N   0  0  0  0  0
   -7.4330    6.9270    2.2150 O   0  0  0  0  0
   -7.4910    7.2060   -1.3470 C   0  0  0  0  0
   -5.8620    8.9060   -1.0010 C   0  0  0  0  0
   -3.9930   10.5450    2.6570 S   0  0  0  0  0
   -4.9920   10.8500    3.6230 O   0  0  0  0  0
   -3.2090   11.7250    2.3400 O   0  0  0  0  0
   -3.0150    9.4360    3.2600 N   0  0  0  0  0
  -10.2293    6.9283   -2.2744 H   0  0  0  0  0
  -11.9622    7.0757   -1.8917 H   0  0  0  0  0
  -11.0886    8.4517   -2.6089 H   0  0  0  0  0
  -11.4433    8.7810   -0.1964 H   0  0  0  0  0
   -9.7094    8.6335   -0.5794 H   0  0  0  0  0
   -6.0763    8.6879    2.3859 H   0  0  0  0  0
   -3.4047   11.0386   -0.0409 H   0  0  0  0  0
   -4.4484   10.1088   -2.1082 H   0  0  0  0  0
   -6.5747    8.4040   -3.1765 H   0  0  0  0  0
   -4.1546    8.5115    4.7430 H   0  0  0  0  0
   -4.1322    7.6762    3.1704 H   0  0  0  0  0
   -2.7031    7.6160    4.2311 H   0  0  0  0  0
  -12.4557    4.3397    3.1122 H   0  0  0  0  0
  -12.0594    3.2562    1.7557 H   0  0  0  0  0
  -10.9238    3.4317    3.1162 H   0  0  0  0  0
  -14.2014    7.3823   -0.6794 H   0  0  0  0  0
  -14.4711    7.4956    1.0772 H   0  0  0  0  0
  -12.9963    8.1859    0.3565 H   0  0  0  0  0
   -8.0819    6.3926   -1.7681 H   0  0  0  0  0
   -2.0061    9.5739    3.2012 H   0  0  0  0  0
  2  1  1  0  0  0
  3  2  1  0  0  0
  3  4  4  0  0  0
  6  3  4  0  0  0
  5  4  4  0  0  0
  4 15  1  0  0  0
  5 14  1  0  0  0
 19  5  4  0  0  0
 17  6  1  0  0  0
  6 19  4  0  0  0
  8  7  4  0  0  0
  7 20  4  0  0  0
  7 23  4  0  0  0
  9  8  4  0  0  0
  9 10  4  0  0  0
 24  9  1  0  0  0
 10 11  4  0  0  0
 11 23  4  0  0  0
 12 22  4  0  0  0
 23 12  4  0  0  0
 27 13  1  0  0  0
 15 16  2  0  0  0
 15 18  1  0  0  0
 20 17  1  0  0  0
 17 21  2  0  0  0
 20 22  4  0  0  0
 24 25  2  0  0  0
 24 26  2  0  0  0
 24 27  1  0  0  0
  1 28  1  0  0  0
  1 29  1  0  0  0
  1 30  1  0  0  0
  2 31  1  0  0  0
  2 32  1  0  0  0
  8 33  1  0  0  0
 10 34  1  0  0  0
 11 35  1  0  0  0
 12 36  1  0  0  0
 13 37  1  0  0  0
 13 38  1  0  0  0
 13 39  1  0  0  0
 14 40  1  0  0  0
 14 41  1  0  0  0
 14 42  1  0  0  0
 18 43  1  0  0  0
 18 44  1  0  0  0
 18 45  1  0  0  0
 22 46  1  0  0  0
 27 47  1  0  0  0
M  END
$$$$
