2bw7_ligand
  -I-interpret- 

 45 48  0  0  0  0  0  0  0  0999 V2000
    2.5700   -4.3650    5.9530 C   0  0  0  0  0
    2.1620   -3.0840    6.5380 C   0  0  0  0  0
    0.2660   -2.7630    4.7600 C   0  0  0  0  0
   -0.6560   -1.7860    3.9710 C   0  0  0  0  0
   -1.5100   -0.9160    4.9340 C   0  0  0  0  0
   -0.5110   -0.1550    5.9370 C   0  0  0  0  0
   -1.4770    0.8210    6.6110 C   0  0  0  0  0
   -2.2240    1.4360    5.3710 C   0  0  0  0  0
   -2.2240    0.3080    4.2830 C   0  0  0  0  0
   -2.6170   -1.8270    5.6410 C   0  0  0  0  0
    3.3940   -5.2880    6.6780 C   0  0  0  0  0
    3.8460   -4.9590    8.0040 C   0  0  0  0  0
    3.4730   -3.7120    8.6220 C   0  0  0  0  0
    2.6380   -2.7560    7.9160 C   0  0  0  0  0
    2.2490   -1.4200    8.6070 C   0  0  0  0  0
    1.3410   -0.4470    7.7660 C   0  0  0  0  0
    0.3860   -1.1730    6.7820 C   0  0  0  0  0
    1.2570   -2.0570    5.7620 C   0  0  0  0  0
   -3.5880    0.0820    3.8290 O   0  0  0  0  0
    4.6340   -5.8490    8.6820 O   0  0  0  0  0
    3.7470   -6.4780    6.0940 O   0  0  0  0  0
    2.2402   -4.6211    4.9462 H   0  0  0  0  0
    0.8752   -3.2907    4.0262 H   0  0  0  0  0
   -0.3834   -3.4070    5.3529 H   0  0  0  0  0
   -1.3280   -2.3723    3.3443 H   0  0  0  0  0
   -0.0299   -1.1265    3.3700 H   0  0  0  0  0
    0.3213    0.4132    5.5217 H   0  0  0  0  0
   -0.9797    1.5657    7.2324 H   0  0  0  0  0
   -2.1450    0.3455    7.3292 H   0  0  0  0  0
   -1.7282    2.3380    5.0122 H   0  0  0  0  0
   -3.2375    1.7448    5.6272 H   0  0  0  0  0
   -1.6786    0.5588    3.3732 H   0  0  0  0  0
   -3.1313   -1.2442    6.4052 H   0  0  0  0  0
   -3.3363   -2.1666    4.8958 H   0  0  0  0  0
   -2.1356   -2.6892    6.1025 H   0  0  0  0  0
    3.8210   -3.4838    9.6294 H   0  0  0  0  0
    3.1820   -0.8868    8.7896 H   0  0  0  0  0
    1.6718   -1.6895    9.4915 H   0  0  0  0  0
    2.0033    0.1818    7.1710 H   0  0  0  0  0
    0.7209    0.1079    8.4700 H   0  0  0  0  0
   -0.2834   -1.7952    7.3761 H   0  0  0  0  0
    1.9414   -1.4248    5.1963 H   0  0  0  0  0
   -3.5918   -0.6086    3.1622 H   0  0  0  0  0
    4.8515   -5.4892    9.5450 H   0  0  0  0  0
    4.2950   -6.9809    6.7010 H   0  0  0  0  0
  2  1  4  0  0  0
  1 11  4  0  0  0
  2 14  4  0  0  0
 18  2  1  0  0  0
  3  4  1  0  0  0
  3 18  1  0  0  0
  4  5  1  0  0  0
  5  6  1  0  0  0
  5  9  1  0  0  0
  5 10  1  0  0  0
  6  7  1  0  0  0
  6 17  1  0  0  0
  7  8  1  0  0  0
  8  9  1  0  0  0
  9 19  1  0  0  0
 11 12  4  0  0  0
 11 21  1  0  0  0
 12 13  4  0  0  0
 12 20  1  0  0  0
 13 14  4  0  0  0
 14 15  1  0  0  0
 15 16  1  0  0  0
 16 17  1  0  0  0
 17 18  1  0  0  0
  1 22  1  0  0  0
  3 23  1  0  0  0
  3 24  1  0  0  0
  4 25  1  0  0  0
  4 26  1  0  0  0
  6 27  1  0  0  0
  7 28  1  0  0  0
  7 29  1  0  0  0
  8 30  1  0  0  0
  8 31  1  0  0  0
  9 32  1  0  0  0
 10 33  1  0  0  0
 10 34  1  0  0  0
 10 35  1  0  0  0
 13 36  1  0  0  0
 15 37  1  0  0  0
 15 38  1  0  0  0
 16 39  1  0  0  0
 16 40  1  0  0  0
 17 41  1  0  0  0
 18 42  1  0  0  0
 19 43  1  0  0  0
 20 44  1  0  0  0
 21 45  1  0  0  0
M  END
$$$$
