1jil_ligand
  -I-interpret- 

 52 53  0  0  0  0  0  0  0  0999 V2000
   25.3940    7.2340   83.6780 O   0  0  0  0  0
   26.5770    7.7550   83.3260 C   0  0  0  0  0
   27.2530    8.6040   84.2080 C   0  0  0  0  0
   28.5160    9.1540   83.8180 C   0  0  0  0  0
   29.0530    8.8310   82.5570 C   0  0  0  0  0
   28.3420    7.9560   81.6770 C   0  0  0  0  0
   27.1200    7.4330   82.0720 C   0  0  0  0  0
   30.3740    9.4080   82.1210 C   0  0  0  0  0
   30.3560   10.9040   81.8700 C   0  0  0  0  0
   29.2130   11.3250   80.9800 N   0  3  0  0  0
   31.7220   11.3520   81.3210 C   0  0  0  0  0
   31.8770   11.5220   80.1490 O   0  0  0  0  0
   32.7040   11.5320   82.2170 N   0  0  0  0  0
   34.1280   11.9840   81.9310 C   0  0  0  0  0
   35.0240   10.8290   81.3040 C   0  0  0  0  0
   34.4000    9.5790   81.3100 O   0  0  0  0  0
   36.1870   11.0400   80.8280 O   0  0  0  0  0
   34.7180   12.5970   83.1920 C   0  0  0  0  0
   34.0090   13.8940   83.5760 C   0  0  0  0  0
   34.6110   14.4620   84.8880 C   0  0  0  0  0
   34.5260   13.4490   86.0500 C   0  0  0  0  0
   35.2370   12.0900   85.6240 C   0  0  0  0  0
   34.5810   11.6560   84.3650 O   0  0  0  0  0
   34.1700   14.8400   82.5490 O   0  0  0  0  0
   33.8810   15.6110   85.2070 O   0  0  0  0  0
   33.1260   13.2250   86.2990 O   0  0  0  0  0
   35.1070   10.9150   86.6270 C   0  0  0  0  0
   25.1573    7.5441   84.5551 H   0  0  0  0  0
   26.8235    8.8441   85.1806 H   0  0  0  0  0
   29.0577    9.8176   84.4920 H   0  0  0  0  0
   28.7580    7.7019   80.7021 H   0  0  0  0  0
   26.5762    6.7660   81.4030 H   0  0  0  0  0
   30.6346    8.9296   81.1769 H   0  0  0  0  0
   31.0824    9.2291   82.9299 H   0  0  0  0  0
   30.1835   11.4098   82.8200 H   0  0  0  0  0
   29.2451   12.3352   80.8424 H   0  0  0  0  0
   29.2948   10.8550   80.0784 H   0  0  0  0  0
   28.3291   11.0684   81.4196 H   0  0  0  0  0
   32.4714   11.3463   83.1926 H   0  0  0  0  0
   34.1094   12.7531   81.1588 H   0  0  0  0  0
   33.5337    9.6570   81.7162 H   0  0  0  0  0
   35.7669   12.7938   82.9703 H   0  0  0  0  0
   32.9495   13.6859   83.7254 H   0  0  0  0  0
   35.6683   14.6816   84.7401 H   0  0  0  0  0
   35.0235   13.8222   86.9452 H   0  0  0  0  0
   36.3030   12.3054   85.5511 H   0  0  0  0  0
   33.7236   15.6542   82.7926 H   0  0  0  0  0
   34.2258   15.9931   86.0174 H   0  0  0  0  0
   33.0265   12.5974   87.0186 H   0  0  0  0  0
   35.5478   11.2031   87.5813 H   0  0  0  0  0
   34.0532   10.6756   86.7696 H   0  0  0  0  0
   35.6289   10.0430   86.2328 H   0  0  0  0  0
  1  2  1  0  0  0
  2  7  4  0  0  0
  2  3  4  0  0  0
  3  4  4  0  0  0
  4  5  4  0  0  0
  5  8  1  0  0  0
  5  6  4  0  0  0
  6  7  4  0  0  0
  8  9  1  0  0  0
  9 11  1  0  0  0
  9 10  1  0  0  0
 11 13  1  0  0  0
 11 12  2  0  0  0
 13 14  1  0  0  0
 14 18  1  0  0  0
 14 15  1  0  0  0
 15 17  2  0  0  0
 15 16  1  0  0  0
 18 23  1  0  0  0
 18 19  1  0  0  0
 19 24  1  0  0  0
 19 20  1  0  0  0
 20 25  1  0  0  0
 20 21  1  0  0  0
 21 26  1  0  0  0
 21 22  1  0  0  0
 22 27  1  0  0  0
 22 23  1  0  0  0
  1 28  1  0  0  0
  3 29  1  0  0  0
  4 30  1  0  0  0
  6 31  1  0  0  0
  7 32  1  0  0  0
  8 33  1  0  0  0
  8 34  1  0  0  0
  9 35  1  0  0  0
 10 36  1  0  0  0
 10 37  1  0  0  0
 10 38  1  0  0  0
 13 39  1  0  0  0
 14 40  1  0  0  0
 16 41  1  0  0  0
 18 42  1  0  0  0
 19 43  1  0  0  0
 20 44  1  0  0  0
 21 45  1  0  0  0
 22 46  1  0  0  0
 24 47  1  0  0  0
 25 48  1  0  0  0
 26 49  1  0  0  0
 27 50  1  0  0  0
 27 51  1  0  0  0
 27 52  1  0  0  0
M  END
$$$$
