3w2o_ligand
  -I-interpret- 

 63 66  0  0  0  0  0  0  0  0999 V2000
  -52.1510    2.1220  -22.8700 N   0  0  0  0  0
  -47.8660   -1.1650  -21.8410 N   0  0  0  0  0
  -50.5690    1.1850  -18.7860 C   0  0  0  0  0
  -51.7780    1.8470  -18.8100 C   0  0  0  0  0
  -48.7720    0.2360  -20.0680 C   0  0  0  0  0
  -47.9830    0.1950  -21.3570 C   0  0  0  0  0
  -47.1420   -1.4080  -22.9260 C   0  0  0  0  0
  -50.0240    1.3660  -24.5580 C   0  0  0  0  0
  -49.8610    1.9510  -27.3330 C   0  0  0  0  0
  -49.7870    0.3510  -25.4890 C   0  0  0  0  0
  -50.4560    1.0930  -30.6780 C   0  0  0  0  0
  -47.9420   -0.1420  -30.7920 C   0  0  0  0  0
  -48.2450    0.7630  -29.7700 C   0  0  0  0  0
  -46.5730   -0.7950  -30.8410 C   0  0  0  0  0
  -44.5230   -0.3080  -22.4320 C   0  0  0  0  0
  -46.1250   -1.0680  -29.6150 F   0  0  0  0  0
  -46.6170   -1.9150  -31.5580 F   0  0  0  0  0
  -45.7220    0.0380  -31.4200 F   0  0  0  0  0
  -48.9080   -0.4120  -31.7680 C   0  0  0  0  0
  -50.1610    0.2010  -31.7110 C   0  0  0  0  0
  -49.5020    1.3810  -29.6990 C   0  0  0  0  0
  -49.7910    2.2800  -28.6820 O   0  0  0  0  0
  -50.1080    2.9710  -26.4140 C   0  0  0  0  0
  -50.3160    4.6520  -27.0380 Cl  0  0  0  0  0
  -50.1760    2.6820  -25.0400 C   0  0  0  0  0
  -49.7060    0.6330  -26.8590 C   0  0  0  0  0
  -50.1010    1.0380  -23.2180 N   0  0  0  0  0
  -51.0320    1.5180  -22.3550 C   0  0  0  0  0
  -53.1400    2.6330  -22.1080 C   0  0  0  0  0
  -50.9470    1.4420  -20.9520 C   0  0  0  0  0
  -51.9750    1.9830  -20.2100 C   0  0  0  0  0
  -53.0580    2.5730  -20.7680 N   0  0  0  0  0
  -50.0630    0.9450  -20.0260 N   0  0  0  0  0
  -47.3620   -0.8710  -24.0020 O   0  0  0  0  0
  -45.9910   -2.3740  -22.7610 C   0  0  0  0  0
  -44.6500   -1.6960  -23.0550 C   0  0  0  0  0
  -43.6160   -2.4950  -22.4780 O   0  0  0  0  0
  -44.4170   -1.6260  -24.5630 C   0  0  0  0  0
  -48.3352   -1.9279  -21.3529 H   0  0  0  0  0
  -50.0685    0.8840  -17.8657 H   0  0  0  0  0
  -52.4082    2.1752  -17.9834 H   0  0  0  0  0
  -48.1350    0.7823  -19.3724 H   0  0  0  0  0
  -49.0228   -0.8052  -19.8654 H   0  0  0  0  0
  -48.5008    0.7931  -22.1068 H   0  0  0  0  0
  -46.9844    0.5909  -21.1722 H   0  0  0  0  0
  -49.6633   -0.6756  -25.1441 H   0  0  0  0  0
  -51.4364    1.5674  -30.6353 H   0  0  0  0  0
  -47.4918    0.9919  -29.0161 H   0  0  0  0  0
  -45.3096    0.3376  -22.8227 H   0  0  0  0  0
  -44.6203   -0.3869  -21.3492 H   0  0  0  0  0
  -43.5488    0.1128  -22.6809 H   0  0  0  0  0
  -48.6806   -1.1053  -32.5778 H   0  0  0  0  0
  -50.9092   -0.0168  -32.4731 H   0  0  0  0  0
  -50.3499    3.4926  -24.3323 H   0  0  0  0  0
  -49.5211   -0.1759  -27.5659 H   0  0  0  0  0
  -49.4070    0.3872  -22.8503 H   0  0  0  0  0
  -54.0070    3.0953  -22.5799 H   0  0  0  0  0
  -46.1252   -3.1971  -23.4629 H   0  0  0  0  0
  -45.9815   -2.7301  -21.7309 H   0  0  0  0  0
  -43.6575   -3.3821  -22.8426 H   0  0  0  0  0
  -45.1574   -0.9649  -25.0134 H   0  0  0  0  0
  -43.4166   -1.2392  -24.7572 H   0  0  0  0  0
  -44.5113   -2.6242  -24.9906 H   0  0  0  0  0
 28  1  4  0  0  0
  1 29  4  0  0  0
  2  6  1  0  0  0
  7  2  1  0  0  0
  3  4  4  0  0  0
 33  3  4  0  0  0
 31  4  4  0  0  0
  6  5  1  0  0  0
  5 33  1  0  0  0
  7 34  2  0  0  0
 35  7  1  0  0  0
  8 10  4  0  0  0
  8 25  4  0  0  0
 27  8  1  0  0  0
  9 22  1  0  0  0
 23  9  4  0  0  0
 26  9  4  0  0  0
 10 26  4  0  0  0
 11 20  4  0  0  0
 21 11  4  0  0  0
 13 12  4  0  0  0
 12 14  1  0  0  0
 12 19  4  0  0  0
 21 13  4  0  0  0
 14 16  1  0  0  0
 14 17  1  0  0  0
 14 18  1  0  0  0
 36 15  1  0  0  0
 20 19  4  0  0  0
 22 21  1  0  0  0
 23 24  1  0  0  0
 25 23  4  0  0  0
 28 27  1  0  0  0
 30 28  4  0  0  0
 32 29  4  0  0  0
 30 31  4  0  0  0
 33 30  4  0  0  0
 31 32  4  0  0  0
 35 36  1  0  0  0
 36 37  1  0  0  0
 36 38  1  0  0  0
  2 39  1  0  0  0
  3 40  1  0  0  0
  4 41  1  0  0  0
  5 42  1  0  0  0
  5 43  1  0  0  0
  6 44  1  0  0  0
  6 45  1  0  0  0
 10 46  1  0  0  0
 11 47  1  0  0  0
 13 48  1  0  0  0
 15 49  1  0  0  0
 15 50  1  0  0  0
 15 51  1  0  0  0
 19 52  1  0  0  0
 20 53  1  0  0  0
 25 54  1  0  0  0
 26 55  1  0  0  0
 27 56  1  0  0  0
 29 57  1  0  0  0
 35 58  1  0  0  0
 35 59  1  0  0  0
 37 60  1  0  0  0
 38 61  1  0  0  0
 38 62  1  0  0  0
 38 63  1  0  0  0
M  END
$$$$
