3rv9_ligand
  -I-interpret- 

 30 30  0  0  0  0  0  0  0  0999 V2000
   37.2590    4.7980   32.1600 C   0  0  0  0  0
   37.0250   -0.4870   31.3540 O   0  0  0  0  0
   39.3270    0.0110   25.9770 O   0  0  0  0  0
   37.5760   -0.1140   33.3900 O   0  0  0  0  0
   41.2400   -0.8880   26.2080 O   0  0  0  0  0
   38.2490    1.0310   28.0600 O   0  0  0  0  0
   38.1540    2.6060   32.4680 C   0  0  0  0  0
   41.6320    0.3240   30.1750 C   0  0  0  0  0
   40.5570    0.9350   30.7840 C   0  0  0  0  0
   41.5490   -0.0470   28.8490 C   0  0  0  0  0
   38.3240    3.8090   31.7960 C   0  0  0  0  0
   38.4030    1.7260   30.5140 O   0  0  0  0  0
   37.5550    0.1970   32.2160 C   0  0  0  0  0
   40.3260   -0.2440   26.6360 C   0  0  0  0  0
   38.2340    1.4950   31.7830 C   0  0  0  0  0
   39.3660    0.7770   28.7130 C   0  0  0  0  0
   39.4410    1.1440   30.0250 C   0  0  0  0  0
   40.4260    0.1860   28.0930 C   0  0  0  0  0
   36.2823    4.3912   31.8978 H   0  0  0  0  0
   37.2970    4.9930   33.2317 H   0  0  0  0  0
   37.4256    5.7267   31.6143 H   0  0  0  0  0
   37.1242   -0.0581   30.5009 H   0  0  0  0  0
   38.7214    0.5355   26.5059 H   0  0  0  0  0
   37.9587    2.5881   33.5402 H   0  0  0  0  0
   42.5450    0.1345   30.7395 H   0  0  0  0  0
   40.5960    1.2393   31.8299 H   0  0  0  0  0
   42.4028   -0.5414   28.3857 H   0  0  0  0  0
   39.2917    4.2260   32.0749 H   0  0  0  0  0
   38.2646    3.6169   30.7247 H   0  0  0  0  0
   40.2543    0.5907   30.4945 H   0  0  0  0  0
 11  1  1  0  0  0
 13  2  1  0  0  0
 14  3  1  0  0  0
 13  4  2  0  0  0
 14  5  2  0  0  0
 16  6  2  0  0  0
  7 11  1  0  0  0
 15  7  2  0  0  0
  9  8  2  0  0  0
  8 10  1  0  0  0
 17  9  1  0  0  0
 10 18  2  0  0  0
 12 15  1  0  0  0
 17 12  1  0  0  0
 15 13  1  0  0  0
 18 14  1  0  0  0
 16 17  1  0  0  0
 16 18  1  0  0  0
  1 19  1  0  0  0
  1 20  1  0  0  0
  1 21  1  0  0  0
  2 22  1  0  0  0
  3 23  1  0  0  0
  7 24  1  0  0  0
  8 25  1  0  0  0
  9 26  1  0  0  0
 10 27  1  0  0  0
 11 28  1  0  0  0
 11 29  1  0  0  0
 17 30  1  0  0  0
M  END
$$$$
