5wb6_ligand
  -I-interpret- 

 72 77  0  0  0  0  0  0  0  0999 V2000
   39.6660  -15.2840   24.4030 N   0  0  0  0  0
   38.4710  -14.9730   24.8270 C   0  0  0  0  0
   39.3490  -21.0270   28.2210 C   0  0  0  0  0
   38.8740  -21.8740   27.0260 C   0  0  0  0  0
   40.8520  -20.9840   28.3050 C   0  0  0  0  0
   42.9430  -20.9070   27.6670 C   0  0  0  0  0
   42.8980  -21.2110   28.9970 C   0  0  0  0  0
   35.8150  -15.5350   28.7660 C   0  0  0  0  0
   46.1860  -20.9430   30.7930 C   0  0  0  0  0
   33.7990  -14.0150   29.7500 Cl  0  0  0  0  0
   38.8150  -19.6670   28.1840 N   0  0  0  0  0
   38.8850  -18.8750   29.2740 C   0  0  0  0  0
   38.1820  -17.5750   29.1790 C   0  0  0  0  0
   37.6330  -17.0650   28.0790 C   0  0  0  0  0
   36.9490  -15.7700   27.9720 C   0  0  0  0  0
   37.3950  -14.7590   27.1060 C   0  0  0  0  0
   36.7310  -13.5320   27.0660 C   0  0  0  0  0
   35.6090  -13.3130   27.8570 C   0  0  0  0  0
   35.1720  -14.3140   28.7030 C   0  0  0  0  0
   38.4440  -15.0060   26.1660 N   0  0  0  0  0
   40.4020  -15.5070   25.5220 N   0  0  0  0  0
   39.6830  -15.3450   26.5900 N   0  0  0  0  0
   39.5480  -19.1940   30.2740 O   0  0  0  0  0
   41.6540  -20.7700   27.2420 N   0  0  0  0  0
   41.5510  -21.2490   29.3970 N   0  0  0  0  0
   43.9750  -21.4890   29.9630 C   0  0  0  0  0
   45.1360  -20.7110   29.9200 C   0  0  0  0  0
   46.1070  -21.9740   31.7300 C   0  0  0  0  0
   44.9670  -22.7720   31.7740 C   0  0  0  0  0
   43.8950  -22.5300   30.9200 C   0  0  0  0  0
   47.1100  -22.2770   32.6930 N   0  0  0  0  0
   48.4300  -21.9750   32.6280 C   0  0  0  0  0
   48.9640  -21.3040   31.7700 O   0  0  0  0  0
   49.0540  -22.4630   33.7130 O   0  0  0  0  0
   50.4870  -22.2430   33.7820 C   0  0  0  0  0
   39.3620  -23.2960   26.9550 C   0  0  0  0  0
   39.6840  -23.9160   28.1120 N   0  0  0  0  0
   40.1570  -25.1740   28.0630 C   0  0  0  0  0
   40.3060  -25.8470   26.8490 C   0  0  0  0  0
   39.9490  -25.2230   25.6760 C   0  0  0  0  0
   39.4790  -23.9210   25.7210 C   0  0  0  0  0
   40.5320  -25.8300   29.3650 C   0  0  0  0  0
   40.9450  -24.8290   30.4440 C   0  0  0  0  0
   42.2760  -24.1910   30.1140 C   0  0  0  0  0
   42.7210  -23.3120   31.0310 N   0  0  0  0  0
   42.8790  -24.4440   29.0750 O   0  0  0  0  0
   40.8520  -27.0850   26.8010 F   0  0  0  0  0
   37.6236  -14.7242   24.1882 H   0  0  0  0  0
   38.9607  -21.5169   29.1140 H   0  0  0  0  0
   39.2685  -21.3806   26.1377 H   0  0  0  0  0
   37.7899  -21.9371   27.1198 H   0  0  0  0  0
   43.8405  -20.7948   27.0587 H   0  0  0  0  0
   35.4428  -16.3145   29.4308 H   0  0  0  0  0
   47.0776  -20.3177   30.7479 H   0  0  0  0  0
   38.3865  -19.3142   27.3283 H   0  0  0  0  0
   38.1075  -16.9831   30.0912 H   0  0  0  0  0
   37.6972  -17.6655   27.1716 H   0  0  0  0  0
   37.0944  -12.7406   26.4105 H   0  0  0  0  0
   35.0795  -12.3614   27.8102 H   0  0  0  0  0
   45.2161  -19.9083   29.1870 H   0  0  0  0  0
   44.9134  -23.5959   32.4856 H   0  0  0  0  0
   46.8009  -22.7779   33.5261 H   0  0  0  0  0
   50.9670  -22.7111   32.9226 H   0  0  0  0  0
   50.6897  -21.1720   33.7743 H   0  0  0  0  0
   50.8767  -22.6812   34.7008 H   0  0  0  0  0
   40.0349  -25.7464   24.7238 H   0  0  0  0  0
   39.2062  -23.3970   24.8050 H   0  0  0  0  0
   41.3847  -26.4816   29.1740 H   0  0  0  0  0
   39.6564  -26.3672   29.7294 H   0  0  0  0  0
   41.0371  -25.3573   31.3930 H   0  0  0  0  0
   40.1881  -24.0468   30.5022 H   0  0  0  0  0
   42.1644  -23.2000   31.8784 H   0  0  0  0  0
  2  1  4  0  0  0
 21  1  4  0  0  0
 20  2  4  0  0  0
  3  4  1  0  0  0
  5  3  1  0  0  0
  3 11  1  0  0  0
  4 36  1  0  0  0
  5 24  4  0  0  0
 25  5  4  0  0  0
  7  6  4  0  0  0
  6 24  4  0  0  0
  7 25  4  0  0  0
 26  7  1  0  0  0
 15  8  4  0  0  0
  8 19  4  0  0  0
 27  9  4  0  0  0
  9 28  4  0  0  0
 19 10  1  0  0  0
 11 12  1  0  0  0
 12 13  1  0  0  0
 12 23  2  0  0  0
 13 14  2  0  0  0
 14 15  1  0  0  0
 15 16  4  0  0  0
 16 17  4  0  0  0
 16 20  1  0  0  0
 17 18  4  0  0  0
 19 18  4  0  0  0
 20 22  4  0  0  0
 22 21  4  0  0  0
 26 27  4  0  0  0
 26 30  4  0  0  0
 28 29  4  0  0  0
 28 31  1  0  0  0
 29 30  4  0  0  0
 30 45  1  0  0  0
 31 32  1  0  0  0
 32 33  2  0  0  0
 32 34  1  0  0  0
 34 35  1  0  0  0
 36 37  4  0  0  0
 36 41  4  0  0  0
 37 38  4  0  0  0
 38 39  4  0  0  0
 38 42  1  0  0  0
 39 40  4  0  0  0
 39 47  1  0  0  0
 40 41  4  0  0  0
 42 43  1  0  0  0
 43 44  1  0  0  0
 44 45  1  0  0  0
 44 46  2  0  0  0
  2 48  1  0  0  0
  3 49  1  0  0  0
  4 50  1  0  0  0
  4 51  1  0  0  0
  6 52  1  0  0  0
  8 53  1  0  0  0
  9 54  1  0  0  0
 11 55  1  0  0  0
 13 56  1  0  0  0
 14 57  1  0  0  0
 17 58  1  0  0  0
 18 59  1  0  0  0
 27 60  1  0  0  0
 29 61  1  0  0  0
 31 62  1  0  0  0
 35 63  1  0  0  0
 35 64  1  0  0  0
 35 65  1  0  0  0
 40 66  1  0  0  0
 41 67  1  0  0  0
 42 68  1  0  0  0
 42 69  1  0  0  0
 43 70  1  0  0  0
 43 71  1  0  0  0
 45 72  1  0  0  0
M  END
$$$$
