3n9r_ligand
  -I-interpret- 

 29 28  0  0  0  0  0  0  0  0999 V2000
   -9.5240   -9.0850  -42.2390 O   0  0  0  0  0
  -10.2210   -7.8690  -42.2900 N   0  0  0  0  0
   -9.4450   -6.6370  -42.2840 C   0  0  0  0  0
   -8.4630   -6.4400  -43.4440 C   0  0  0  0  0
   -8.2020   -5.0360  -43.9880 C   0  0  0  0  0
   -7.6040   -4.9690  -45.3960 C   0  0  0  0  0
   -6.3470   -4.3750  -45.5680 O   0  0  0  0  0
  -11.6610   -7.8410  -42.5150 C   0  0  0  0  0
  -12.2240   -8.8590  -42.8040 O   0  0  0  0  0
  -12.2600   -6.4980  -42.9470 C   0  0  0  0  0
  -11.9740   -6.1530  -44.2650 O   0  0  0  0  0
  -12.2690   -4.6480  -44.8810 P   0  0  0  0  0
  -13.6490   -4.7520  -45.7370 O   0  0  0  0  0
  -10.9950   -4.2320  -45.8140 O   0  0  0  0  0
  -12.3940   -3.6650  -43.8060 O   0  0  0  0  0
   -8.5924   -8.9123  -42.0843 H   0  0  0  0  0
   -8.8393   -6.6668  -41.3783 H   0  0  0  0  0
  -10.1682   -5.8250  -42.3602 H   0  0  0  0  0
   -8.9129   -6.9781  -44.2784 H   0  0  0  0  0
   -7.5009   -6.7633  -43.0466 H   0  0  0  0  0
   -7.4720   -4.5776  -43.3208 H   0  0  0  0  0
   -9.1715   -4.5407  -44.0409 H   0  0  0  0  0
   -8.2919   -4.3441  -45.9655 H   0  0  0  0  0
   -7.4684   -6.0084  -45.6950 H   0  0  0  0  0
   -6.1041   -4.4057  -46.4963 H   0  0  0  0  0
  -11.8266   -5.7284  -42.3083 H   0  0  0  0  0
  -13.3433   -6.5826  -42.8610 H   0  0  0  0  0
  -13.5428   -5.4021  -46.4354 H   0  0  0  0  0
  -10.8995   -4.8691  -46.5258 H   0  0  0  0  0
  1  2  1  0  0  0
  2  3  1  0  0  0
  2  8  1  0  0  0
  3  4  1  0  0  0
  4  5  1  0  0  0
  5  6  1  0  0  0
  6  7  1  0  0  0
  8  9  2  0  0  0
  8 10  1  0  0  0
 10 11  1  0  0  0
 11 12  1  0  0  0
 12 13  1  0  0  0
 12 14  1  0  0  0
 12 15  2  0  0  0
  1 16  1  0  0  0
  3 17  1  0  0  0
  3 18  1  0  0  0
  4 19  1  0  0  0
  4 20  1  0  0  0
  5 21  1  0  0  0
  5 22  1  0  0  0
  6 23  1  0  0  0
  6 24  1  0  0  0
  7 25  1  0  0  0
 10 26  1  0  0  0
 10 27  1  0  0  0
 13 28  1  0  0  0
 14 29  1  0  0  0
M  END
$$$$
