4uin_ligand
  -I-interpret- 

 49 52  0  0  0  0  0  0  0  0999 V2000
    4.7180   -7.6830  -57.3950 O   0  0  0  0  0
    4.4460   -7.3750  -56.0490 C   0  0  0  0  0
    5.6570   -7.7890  -55.1600 C   0  0  0  0  0
    5.7700   -9.3150  -54.9680 N   0  3  0  0  0
    6.3790  -10.0130  -56.1950 C   0  0  0  0  0
    7.7790   -9.4530  -56.4460 C   0  0  0  0  0
    6.7500   -9.5690  -53.7020 C   0  0  0  0  0
    8.1110   -8.9300  -54.0080 C   0  0  0  0  0
    8.5890   -7.8670  -53.0450 C   0  0  0  0  0
    7.9860   -7.3890  -51.9520 C   0  0  0  0  0
    8.0940   -8.3440  -55.4390 C   0  0  0  0  0
    7.0220   -7.2660  -55.6220 C   0  0  0  0  0
    4.1130   -5.9300  -55.8220 C   0  0  0  0  0
    4.5680   -4.9560  -56.7420 C   0  0  0  0  0
    4.2650   -3.6210  -56.5350 C   0  0  0  0  0
    3.5430   -3.1530  -55.4830 N   0  0  0  0  0
    3.0920   -4.0950  -54.5670 C   0  0  0  0  0
    3.3560   -5.5120  -54.6930 C   0  0  0  0  0
    2.8550   -6.3920  -53.7070 C   0  0  0  0  0
    2.3410   -3.6190  -53.4690 C   0  0  0  0  0
    1.8610   -4.5170  -52.5190 C   0  0  0  0  0
    2.1110   -5.8770  -52.6410 C   0  0  0  0  0
    1.6260   -6.7630  -51.6730 O   0  0  0  0  0
    1.4730   -8.1560  -51.8770 C   0  0  0  0  0
    4.9228   -8.6176  -57.4732 H   0  0  0  0  0
    3.5582   -7.9428  -55.7707 H   0  0  0  0  0
    5.4206   -7.3040  -54.2129 H   0  0  0  0  0
    4.8350   -9.6969  -54.8252 H   0  0  0  0  0
    5.7509   -9.8342  -57.0677 H   0  0  0  0  0
    6.4406  -11.0860  -56.0133 H   0  0  0  0  0
    7.8230   -9.0418  -57.4545 H   0  0  0  0  0
    8.5090  -10.2546  -56.3335 H   0  0  0  0  0
    6.8699  -10.6389  -53.5316 H   0  0  0  0  0
    6.3222   -9.1238  -52.8037 H   0  0  0  0  0
    8.8248   -9.7465  -53.8988 H   0  0  0  0  0
    9.5607   -7.4294  -53.2739 H   0  0  0  0  0
    7.0109   -7.7748  -51.6547 H   0  0  0  0  0
    8.4694   -6.6134  -51.3580 H   0  0  0  0  0
    9.0782   -7.9047  -55.6018 H   0  0  0  0  0
    7.2892   -6.3936  -55.0256 H   0  0  0  0  0
    6.9622   -6.9992  -56.6771 H   0  0  0  0  0
    5.1548   -5.2556  -57.6104 H   0  0  0  0  0
    4.6297   -2.8974  -57.2641 H   0  0  0  0  0
    3.0469   -7.4627  -53.7770 H   0  0  0  0  0
    2.1381   -2.5530  -53.3659 H   0  0  0  0  0
    1.2833   -4.1484  -51.6713 H   0  0  0  0  0
    0.7815   -8.3273  -52.7020 H   0  0  0  0  0
    2.4415   -8.5955  -52.1158 H   0  0  0  0  0
    1.0786   -8.6136  -50.9697 H   0  0  0  0  0
  1  2  1  0  0  0
  2  3  1  0  0  0
  2 13  1  0  0  0
  3  4  1  0  0  0
  3 12  1  0  0  0
  4  5  1  0  0  0
  4  7  1  0  0  0
  5  6  1  0  0  0
  6 11  1  0  0  0
  7  8  1  0  0  0
  8  9  1  0  0  0
  8 11  1  0  0  0
  9 10  2  0  0  0
 11 12  1  0  0  0
 13 14  4  0  0  0
 13 18  4  0  0  0
 14 15  4  0  0  0
 15 16  4  0  0  0
 16 17  4  0  0  0
 17 18  4  0  0  0
 17 20  4  0  0  0
 18 19  4  0  0  0
 19 22  4  0  0  0
 20 21  4  0  0  0
 21 22  4  0  0  0
 22 23  1  0  0  0
 23 24  1  0  0  0
  1 25  1  0  0  0
  2 26  1  0  0  0
  3 27  1  0  0  0
  4 28  1  0  0  0
  5 29  1  0  0  0
  5 30  1  0  0  0
  6 31  1  0  0  0
  6 32  1  0  0  0
  7 33  1  0  0  0
  7 34  1  0  0  0
  8 35  1  0  0  0
  9 36  1  0  0  0
 10 37  1  0  0  0
 10 38  1  0  0  0
 11 39  1  0  0  0
 12 40  1  0  0  0
 12 41  1  0  0  0
 14 42  1  0  0  0
 15 43  1  0  0  0
 19 44  1  0  0  0
 20 45  1  0  0  0
 21 46  1  0  0  0
 24 47  1  0  0  0
 24 48  1  0  0  0
 24 49  1  0  0  0
M  END
$$$$
