5w7j_ligand
  -I-interpret- 

131131  0  0  0  0  0  0  0  0999 V2000
  -24.9500   16.3330    2.3950 N   0  3  0  0  0
  -24.5900   15.5830    1.2030 C   0  0  0  0  0
  -25.2470   16.0380   -0.0900 C   0  0  0  0  0
  -26.1860   16.8490   -0.0960 O   0  0  0  0  0
  -24.7160   15.5150   -1.1940 N   0  0  0  0  0
  -25.2550   15.7010   -2.5320 C   0  0  0  0  0
  -26.2940   14.6060   -2.7650 C   0  0  0  0  0
  -26.4010   13.6650   -1.9720 O   0  0  0  0  0
  -24.1290   15.6590   -3.5840 C   0  0  0  0  0
  -22.9880   16.5760   -3.1860 C   0  0  0  0  0
  -23.6040   14.2490   -3.7500 C   0  0  0  0  0
  -27.0760   14.7170   -3.8350 N   0  0  0  0  0
  -28.1130   13.7320   -4.1450 C   0  0  0  0  0
  -27.5090   12.7300   -5.1170 C   0  0  0  0  0
  -27.2170   13.0750   -6.2670 O   0  0  0  0  0
  -29.3650   14.3870   -4.7470 C   0  0  0  0  0
  -30.4780   13.3530   -4.9480 C   0  0  0  0  0
  -29.8440   15.5670   -3.8870 C   0  0  0  0  0
  -27.3140   11.4880   -4.6650 N   0  0  0  0  0
  -26.7360   10.4670   -5.5340 C   0  0  0  0  0
  -27.6480    9.2610   -5.6810 C   0  0  0  0  0
  -27.1950    8.2020   -6.1210 O   0  0  0  0  0
  -25.3610   10.0290   -5.0350 C   0  0  0  0  0
  -28.9240    9.4040   -5.3250 N   0  0  0  0  0
  -29.9320    8.3770   -5.5360 C   0  0  0  0  0
  -31.1290    8.9920   -6.2400 C   0  0  0  0  0
  -31.5260   10.1150   -5.9320 O   0  0  0  0  0
  -30.3870    7.7570   -4.2150 C   0  0  0  0  0
  -29.2960    7.6140   -3.3280 O   0  0  0  0  0
  -31.7140    8.2560   -7.1730 N   0  0  0  0  0
  -32.8360    8.7950   -7.9120 C   0  0  0  0  0
  -34.0790    8.8440   -7.0260 C   0  0  0  0  0
  -34.2110    8.0520   -6.0910 O   0  0  0  0  0
  -33.1080    7.9480   -9.1470 C   0  0  0  0  0
  -33.3460    6.4830   -8.8590 C   0  0  0  0  0
  -33.7350    5.7130  -10.1090 C   0  0  0  0  0
  -34.6790    6.0750  -10.8100 O   0  0  0  0  0
  -32.9900    4.6570  -10.4050 N   0  0  0  0  0
  -35.0050    9.7710   -7.2970 N   0  0  0  0  0
  -36.2720    9.7900   -6.5510 C   0  0  0  0  0
  -37.0040    8.4650   -6.6890 C   0  0  0  0  0
  -37.0090    7.8520   -7.7570 O   0  0  0  0  0
  -37.0570   10.9320   -7.2040 C   0  0  0  0  0
  -36.0440   11.7750   -7.8690 C   0  0  0  0  0
  -34.9150   10.8720   -8.2670 C   0  0  0  0  0
  -37.6340    8.0370   -5.5970 N   0  0  0  0  0
  -38.2720    6.7290   -5.5010 C   0  0  0  0  0
  -39.7040    6.8480   -4.9850 C   0  0  0  0  0
  -40.1100    7.8730   -4.4260 O   0  0  0  0  0
  -37.4770    5.7970   -4.5830 C   0  0  0  0  0
  -40.4730    5.7800   -5.2060 N   0  0  0  0  0
  -41.8190    5.6820   -4.6610 C   0  0  0  0  0
  -41.7680    5.9050   -3.1580 C   0  0  0  0  0
  -40.7980    5.5390   -2.4880 O   0  0  0  0  0
  -42.4350    4.3100   -4.9760 C   0  0  0  0  0
  -42.7990    6.5480   -2.6260 N   0  0  0  0  0
  -42.8430    6.7830   -1.1850 C   0  0  0  0  0
  -42.8850    5.4460   -0.4330 C   0  0  0  0  0
  -43.5350    4.4810   -0.8610 O   0  0  0  0  0
  -44.0310    7.6680   -0.7980 C   0  0  0  0  0
  -44.2550    7.6100    0.7060 C   0  0  0  0  0
  -43.7810    9.1050   -1.2470 C   0  0  0  0  0
  -42.2480    5.2930    0.6180 O   0  0  0  0  0
  -24.4564   15.9473    3.1999 H   0  0  0  0  0
  -24.6891   17.3113    2.2714 H   0  0  0  0  0
  -25.9563   16.2649    2.5471 H   0  0  0  0  0
  -24.9218   14.5587    1.3725 H   0  0  0  0  0
  -23.5171   15.7187    1.0669 H   0  0  0  0  0
  -23.8753   14.9461   -1.0944 H   0  0  0  0  0
  -25.7269   16.6789   -2.6273 H   0  0  0  0  0
  -24.5471   15.9991   -4.5314 H   0  0  0  0  0
  -22.5592   16.2327   -2.2445 H   0  0  0  0  0
  -22.2231   16.5601   -3.9624 H   0  0  0  0  0
  -23.3648   17.5918   -3.0661 H   0  0  0  0  0
  -22.8381   14.2368   -4.5255 H   0  0  0  0  0
  -23.1742   13.9094   -2.8076 H   0  0  0  0  0
  -24.4230   13.5890   -4.0360 H   0  0  0  0  0
  -26.9490   15.5137   -4.4592 H   0  0  0  0  0
  -28.4379   13.2390   -3.2288 H   0  0  0  0  0
  -29.0990   14.7849   -5.7263 H   0  0  0  0  0
  -30.1294   12.5728   -5.6247 H   0  0  0  0  0
  -30.7399   12.9115   -3.9865 H   0  0  0  0  0
  -31.3535   13.8419   -5.3753 H   0  0  0  0  0
  -30.0850   15.2107   -2.8855 H   0  0  0  0  0
  -29.0541   16.3157   -3.8274 H   0  0  0  0  0
  -30.7315   16.0086   -4.3403 H   0  0  0  0  0
  -27.5706   11.2515   -3.7065 H   0  0  0  0  0
  -26.6219   10.9218   -6.5180 H   0  0  0  0  0
  -24.6918   10.8892   -5.0162 H   0  0  0  0  0
  -25.4547    9.6178   -4.0299 H   0  0  0  0  0
  -24.9584    9.2684   -5.7040 H   0  0  0  0  0
  -29.2082   10.2778   -4.8822 H   0  0  0  0  0
  -29.4927    7.5880   -6.1464 H   0  0  0  0  0
  -30.8097    6.7724   -4.4151 H   0  0  0  0  0
  -31.1301    8.4097   -3.7570 H   0  0  0  0  0
  -29.6023    7.2237   -2.5061 H   0  0  0  0  0
  -31.3756    7.3141   -7.3698 H   0  0  0  0  0
  -32.5901    9.8089   -8.2277 H   0  0  0  0  0
  -32.2222    8.0101   -9.7791 H   0  0  0  0  0
  -34.0170    8.3355   -9.6070 H   0  0  0  0  0
  -34.1637    6.4051   -8.1425 H   0  0  0  0  0
  -32.4207    6.0574   -8.4708 H   0  0  0  0  0
  -33.1906    4.1098  -11.2421 H   0  0  0  0  0
  -32.2162    4.3918   -9.7956 H   0  0  0  0  0
  -36.1336    9.9355   -5.4797 H   0  0  0  0  0
  -37.6271   11.4979   -6.4673 H   0  0  0  0  0
  -37.7934   10.5562   -7.9143 H   0  0  0  0  0
  -35.6929   12.5583   -7.1973 H   0  0  0  0  0
  -36.4678   12.2706   -8.7425 H   0  0  0  0  0
  -34.9948   10.5299   -9.2989 H   0  0  0  0  0
  -33.9478   11.3740   -8.2437 H   0  0  0  0  0
  -37.6724    8.6551   -4.7865 H   0  0  0  0  0
  -38.2937    6.3072   -6.5059 H   0  0  0  0  0
  -36.4710    5.6675   -4.9820 H   0  0  0  0  0
  -37.4203    6.2330   -3.5856 H   0  0  0  0  0
  -37.9756    4.8292   -4.5300 H   0  0  0  0  0
  -40.1083    5.0131   -5.7711 H   0  0  0  0  0
  -42.4460    6.4456   -5.1212 H   0  0  0  0  0
  -42.4813    4.1734   -6.0564 H   0  0  0  0  0
  -41.8184    3.5265   -4.5355 H   0  0  0  0  0
  -43.4408    4.2603   -4.5588 H   0  0  0  0  0
  -43.5589    6.8774   -3.2214 H   0  0  0  0  0
  -41.9360    7.3157   -0.8991 H   0  0  0  0  0
  -43.9783    4.7310   -1.6750 H   0  0  0  0  0
  -44.9273    7.2999   -1.2972 H   0  0  0  0  0
  -44.4618    6.5815    1.0019 H   0  0  0  0  0
  -43.3610    7.9642    1.2191 H   0  0  0  0  0
  -45.1021    8.2429    0.9706 H   0  0  0  0  0
  -42.8796    9.4834   -0.7648 H   0  0  0  0  0
  -43.6531    9.1291   -2.3292 H   0  0  0  0  0
  -44.6323    9.7253   -0.9665 H   0  0  0  0  0
  1  2  1  0  0  0
  2  3  1  0  0  0
  3  4  2  0  0  0
  3  5  1  0  0  0
  5  6  1  0  0  0
  6  7  1  0  0  0
  6  9  1  0  0  0
  7  8  2  0  0  0
  7 12  1  0  0  0
  9 10  1  0  0  0
  9 11  1  0  0  0
 12 13  1  0  0  0
 13 14  1  0  0  0
 13 16  1  0  0  0
 14 15  2  0  0  0
 14 19  1  0  0  0
 16 17  1  0  0  0
 16 18  1  0  0  0
 19 20  1  0  0  0
 20 21  1  0  0  0
 20 23  1  0  0  0
 21 22  2  0  0  0
 21 24  1  0  0  0
 24 25  1  0  0  0
 25 26  1  0  0  0
 25 28  1  0  0  0
 26 27  2  0  0  0
 26 30  1  0  0  0
 28 29  1  0  0  0
 30 31  1  0  0  0
 31 32  1  0  0  0
 31 34  1  0  0  0
 32 33  2  0  0  0
 32 39  1  0  0  0
 34 35  1  0  0  0
 35 36  1  0  0  0
 36 37  2  0  0  0
 36 38  1  0  0  0
 39 40  1  0  0  0
 39 45  1  0  0  0
 40 41  1  0  0  0
 40 43  1  0  0  0
 41 42  2  0  0  0
 41 46  1  0  0  0
 43 44  1  0  0  0
 44 45  1  0  0  0
 46 47  1  0  0  0
 47 48  1  0  0  0
 47 50  1  0  0  0
 48 49  2  0  0  0
 48 51  1  0  0  0
 51 52  1  0  0  0
 52 53  1  0  0  0
 52 55  1  0  0  0
 53 54  2  0  0  0
 53 56  1  0  0  0
 56 57  1  0  0  0
 57 58  1  0  0  0
 57 60  1  0  0  0
 58 59  1  0  0  0
 58 63  2  0  0  0
 60 61  1  0  0  0
 60 62  1  0  0  0
  1 64  1  0  0  0
  1 65  1  0  0  0
  1 66  1  0  0  0
  2 67  1  0  0  0
  2 68  1  0  0  0
  5 69  1  0  0  0
  6 70  1  0  0  0
  9 71  1  0  0  0
 10 72  1  0  0  0
 10 73  1  0  0  0
 10 74  1  0  0  0
 11 75  1  0  0  0
 11 76  1  0  0  0
 11 77  1  0  0  0
 12 78  1  0  0  0
 13 79  1  0  0  0
 16 80  1  0  0  0
 17 81  1  0  0  0
 17 82  1  0  0  0
 17 83  1  0  0  0
 18 84  1  0  0  0
 18 85  1  0  0  0
 18 86  1  0  0  0
 19 87  1  0  0  0
 20 88  1  0  0  0
 23 89  1  0  0  0
 23 90  1  0  0  0
 23 91  1  0  0  0
 24 92  1  0  0  0
 25 93  1  0  0  0
 28 94  1  0  0  0
 28 95  1  0  0  0
 29 96  1  0  0  0
 30 97  1  0  0  0
 31 98  1  0  0  0
 34 99  1  0  0  0
 34100  1  0  0  0
 35101  1  0  0  0
 35102  1  0  0  0
 38103  1  0  0  0
 38104  1  0  0  0
 40105  1  0  0  0
 43106  1  0  0  0
 43107  1  0  0  0
 44108  1  0  0  0
 44109  1  0  0  0
 45110  1  0  0  0
 45111  1  0  0  0
 46112  1  0  0  0
 47113  1  0  0  0
 50114  1  0  0  0
 50115  1  0  0  0
 50116  1  0  0  0
 51117  1  0  0  0
 52118  1  0  0  0
 55119  1  0  0  0
 55120  1  0  0  0
 55121  1  0  0  0
 56122  1  0  0  0
 57123  1  0  0  0
 59124  1  0  0  0
 60125  1  0  0  0
 61126  1  0  0  0
 61127  1  0  0  0
 61128  1  0  0  0
 62129  1  0  0  0
 62130  1  0  0  0
 62131  1  0  0  0
M  END
$$$$
