### 
### Created by X-TOOL on Mon Sep 10 21:13:31 2018
### 

@<TRIPOS>MOLECULE
5w7j_ligand
  130   130     1     0     0
SMALL
GAST_HUCK


@<TRIPOS>ATOM
      1 N         -24.9500   16.3330    2.3950 N.4       1 GLY         0.2357
      2 CA        -24.5900   15.5830    1.2030 C.3       1 GLY         0.0545
      3 C         -25.2470   16.0380   -0.0900 C.2       1 GLY         0.2236
      4 O         -26.1860   16.8490   -0.0960 O.2       1 GLY        -0.3910
      5 N         -24.7160   15.5150   -1.1940 N.am      1 VAL        -0.2610
      6 CA        -25.2550   15.7010   -2.5320 C.3       1 VAL         0.1334
      7 C         -26.2940   14.6060   -2.7650 C.2       1 VAL         0.2042
      8 O         -26.4010   13.6650   -1.9720 O.2       1 VAL        -0.3944
      9 CB        -24.1290   15.6590   -3.5840 C.3       1 VAL        -0.0063
     10 CG1       -22.9880   16.5760   -3.1860 C.3       1 VAL        -0.0584
     11 CG2       -23.6040   14.2490   -3.7500 C.3       1 VAL        -0.0584
     12 N         -27.0760   14.7170   -3.8350 N.am      1 VAL        -0.2635
     13 CA        -28.1130   13.7320   -4.1450 C.3       1 VAL         0.1332
     14 C         -27.5090   12.7300   -5.1170 C.2       1 VAL         0.2041
     15 O         -27.2170   13.0750   -6.2670 O.2       1 VAL        -0.3944
     16 CB        -29.3650   14.3870   -4.7470 C.3       1 VAL        -0.0063
     17 CG1       -30.4780   13.3530   -4.9480 C.3       1 VAL        -0.0584
     18 CG2       -29.8440   15.5670   -3.8870 C.3       1 VAL        -0.0584
     19 N         -27.3140   11.4880   -4.6650 N.am      1 ALA        -0.2640
     20 CA        -26.7360   10.4670   -5.5340 C.3       1 ALA         0.1282
     21 C         -27.6480    9.2610   -5.6810 C.2       1 ALA         0.2037
     22 O         -27.1950    8.2020   -6.1210 O.2       1 ALA        -0.3944
     23 CB        -25.3610   10.0290   -5.0350 C.3       1 ALA        -0.0244
     24 N         -28.9240    9.4040   -5.3250 N.am      1 SER        -0.2616
     25 CA        -29.9320    8.3770   -5.5360 C.3       1 SER         0.1539
     26 C         -31.1290    8.9920   -6.2400 C.2       1 SER         0.2062
     27 O         -31.5260   10.1150   -5.9320 O.2       1 SER        -0.3943
     28 CB        -30.3870    7.7570   -4.2150 C.3       1 SER         0.0843
     29 OG        -29.2960    7.6140   -3.3280 O.3       1 SER        -0.3903
     30 N         -31.7140    8.2560   -7.1730 N.am      1 GLN        -0.2635
     31 CA        -32.8360    8.7950   -7.9120 C.3       1 GLN         0.1332
     32 C         -34.0790    8.8440   -7.0260 C.2       1 GLN         0.2065
     33 O         -34.2110    8.0520   -6.0910 O.2       1 GLN        -0.3942
     34 CB        -33.1080    7.9480   -9.1470 C.3       1 GLN         0.0045
     35 CG        -33.3460    6.4830   -8.8590 C.3       1 GLN         0.0412
     36 CD        -33.7350    5.7130  -10.1090 C.2       1 GLN         0.1737
     37 OE1       -34.6790    6.0750  -10.8100 O.2       1 GLN        -0.3973
     38 NE2       -32.9900    4.6570  -10.4050 N.am      1 GLN        -0.3009
     39 N         -35.0050    9.7710   -7.2970 N.am      1 PRO        -0.2498
     40 CA        -36.2720    9.7900   -6.5510 C.3       1 PRO         0.1338
     41 C         -37.0040    8.4650   -6.6890 C.2       1 PRO         0.2041
     42 O         -37.0090    7.8520   -7.7570 O.2       1 PRO        -0.3944
     43 CB        -37.0570   10.9320   -7.2040 C.3       1 PRO        -0.0104
     44 CG        -36.0440   11.7750   -7.8690 C.3       1 PRO        -0.0281
     45 CD        -34.9150   10.8720   -8.2670 C.3       1 PRO         0.0369
     46 N         -37.6340    8.0370   -5.5970 N.am      1 ALA        -0.2640
     47 CA        -38.2720    6.7290   -5.5010 C.3       1 ALA         0.1282
     48 C         -39.7040    6.8480   -4.9850 C.2       1 ALA         0.2036
     49 O         -40.1100    7.8730   -4.4260 O.2       1 ALA        -0.3944
     50 CB        -37.4770    5.7970   -4.5830 C.3       1 ALA        -0.0244
     51 N         -40.4730    5.7800   -5.2060 N.am      1 ARG        -0.2640
     52 CA        -41.8190    5.6820   -4.6610 C.3       1 ARG         0.1282
     53 C         -41.7680    5.9050   -3.1580 C.2       1 ARG         0.2031
     54 O         -40.7980    5.5390   -2.4880 O.2       1 ARG        -0.3944
     55 CB        -42.4350    4.3100   -4.9760 C.3       1 ARG        -0.0244
     56 N         -42.7990    6.5480   -2.6260 N.am      1 VAL        -0.2692
     57 CA        -42.8430    6.7830   -1.1850 C.3       1 VAL         0.0967
     58 C         -42.8850    5.4460   -0.4330 C.2       1 VAL         0.0603
     59 O         -43.5350    4.4810   -0.8610 O.co2     1 VAL        -0.5666
     60 CB        -44.0310    7.6680   -0.7980 C.3       1 VAL        -0.0118
     61 CG1       -44.2550    7.6100    0.7060 C.3       1 VAL        -0.0590
     62 CG2       -43.7810    9.1050   -1.2470 C.3       1 VAL        -0.0590
     63 OXT       -42.2480    5.2930    0.6180 O.co2     1 VAL        -0.5666
     64 H1        -24.4627   15.9526    3.1912 H         1 GLY         0.2012
     65 H2        -25.9443   16.2664    2.5464 H         1 GLY         0.2012
     66 H3        -24.6926   17.3000    2.2741 H         1 GLY         0.2012
     67 H4        -24.8665   14.5315    1.3698 H         1 GLY         0.1061
     68 H5        -23.5004   15.6595    1.0727 H         1 GLY         0.1061
     69 H6        -23.8918   14.9573   -1.0963 H         1 VAL         0.1884
     70 H7        -25.7488   16.6822   -2.5912 H         1 VAL         0.0802
     71 H8        -24.5378   16.0000   -4.5466 H         1 VAL         0.0343
     72 H9        -22.1974   16.5302   -3.9495 H         1 VAL         0.0234
     73 H10       -22.5803   16.2544   -2.2163 H         1 VAL         0.0234
     74 H11       -23.3588   17.6083   -3.1037 H         1 VAL         0.0234
     75 H12       -24.4297   13.5820   -4.0387 H         1 VAL         0.0234
     76 H13       -23.1700   13.9050   -2.7996 H         1 VAL         0.0234
     77 H14       -22.8309   14.2353   -4.5324 H         1 VAL         0.0234
     78 H15       -26.9515   15.4981   -4.4469 H         1 VAL         0.1883
     79 H16       -28.4035   13.2123   -3.2201 H         1 VAL         0.0802
     80 H17       -29.0936   14.7838   -5.7364 H         1 VAL         0.0343
     81 H18       -31.3622   13.8452   -5.3793 H         1 VAL         0.0234
     82 H19       -30.7433   12.9066   -3.9783 H         1 VAL         0.0234
     83 H20       -30.1275   12.5650   -5.6308 H         1 VAL         0.0234
     84 H21       -29.0224   16.2879   -3.7633 H         1 VAL         0.0234
     85 H22       -30.1591   15.1973   -2.9001 H         1 VAL         0.0234
     86 H23       -30.6933   16.0605   -4.3820 H         1 VAL         0.0234
     87 H24       -27.5656   11.2561   -3.7253 H         1 ALA         0.1883
     88 H25       -26.6075   10.9140   -6.5308 H         1 ALA         0.0797
     89 H26       -24.9536    9.2614   -5.7094 H         1 ALA         0.0277
     90 H27       -25.4542    9.6138   -4.0207 H         1 ALA         0.0277
     91 H28       -24.6846   10.8962   -5.0155 H         1 ALA         0.0277
     92 H29       -29.2026   10.2607   -4.8908 H         1 SER         0.1884
     93 H30       -29.5051    7.5859   -6.1699 H         1 SER         0.0823
     94 H31       -30.8239    6.7670   -4.4124 H         1 SER         0.0606
     95 H32       -31.1449    8.4069   -3.7532 H         1 SER         0.0606
     96 H33       -29.5991    7.2278   -2.5147 H         1 SER         0.2097
     97 H34       -31.3822    7.3326   -7.3659 H         1 GLN         0.1883
     98 H35       -32.5893    9.8181   -8.2320 H         1 GLN         0.0801
     99 H36       -32.2407    8.0302   -9.8185 H         1 GLN         0.0337
    100 H37       -34.0003    8.3492   -9.6498 H         1 GLN         0.0337
    101 H38       -34.1561    6.3934   -8.1203 H         1 GLN         0.0504
    102 H39       -32.4238    6.0478   -8.4465 H         1 GLN         0.0504
    103 H40       -33.1974    4.1103  -11.2162 H         1 GLN         0.1814
    104 H41       -32.2206    4.4072   -9.8170 H         1 GLN         0.1814
    105 H42       -36.0954    9.9983   -5.4854 H         1 PRO         0.0802
    106 H43       -37.5992   11.5111   -6.4420 H         1 PRO         0.0313
    107 H44       -37.7714   10.5358   -7.9406 H         1 PRO         0.0313
    108 H45       -35.6824   12.5488   -7.1759 H         1 PRO         0.0287
    109 H46       -36.4767   12.2538   -8.7598 H         1 PRO         0.0287
    110 H47       -35.0486   10.5036   -9.2948 H         1 PRO         0.0524
    111 H48       -33.9483   11.3906   -8.1860 H         1 PRO         0.0524
    112 H49       -37.6717    8.6430   -4.8024 H         1 ALA         0.1883
    113 H50       -38.3001    6.2869   -6.5078 H         1 ALA         0.0797
    114 H51       -37.9792    4.8199   -4.5287 H         1 ALA         0.0277
    115 H52       -37.4191    6.2359   -3.5760 H         1 ALA         0.0277
    116 H53       -36.4614    5.6654   -4.9846 H         1 ALA         0.0277
    117 H54       -40.1155    5.0281   -5.7600 H         1 ARG         0.1883
    118 H55       -42.4456    6.4624   -5.1173 H         1 ARG         0.0797
    119 H56       -43.4501    4.2586   -4.5554 H         1 ARG         0.0277
    120 H57       -41.8136    3.5184   -4.5319 H         1 ARG         0.0277
    121 H58       -42.4823    4.1709   -6.0661 H         1 ARG         0.0277
    122 H59       -43.5440    6.8709   -3.2097 H         1 VAL         0.1875
    123 H60       -41.9212    7.3096   -0.8968 H         1 VAL         0.0729
    124 H61       -44.9327    7.2924   -1.3038 H         1 VAL         0.0336
    125 H62       -45.1097    8.2483    0.9743 H         1 VAL         0.0234
    126 H63       -43.3534    7.9673    1.2251 H         1 VAL         0.0234
    127 H64       -44.4639    6.5725    1.0059 H         1 VAL         0.0234
    128 H65       -43.6216    9.1266   -2.3352 H         1 VAL         0.0234
    129 H66       -42.8888    9.4983   -0.7378 H         1 VAL         0.0234
    130 H67       -44.6524    9.7258   -0.9917 H         1 VAL         0.0234
@<TRIPOS>BOND
     1    1    2 1  
     2    2    3 1  
     3    3    4 2  
     4    3    5 am 
     5    5    6 1  
     6    6    7 1  
     7    6    9 1  
     8    7    8 2  
     9    7   12 am 
    10    9   10 1  
    11    9   11 1  
    12   12   13 1  
    13   13   14 1  
    14   13   16 1  
    15   14   15 2  
    16   14   19 am 
    17   16   17 1  
    18   16   18 1  
    19   19   20 1  
    20   20   21 1  
    21   20   23 1  
    22   21   22 2  
    23   21   24 am 
    24   24   25 1  
    25   25   26 1  
    26   25   28 1  
    27   26   27 2  
    28   26   30 am 
    29   28   29 1  
    30   30   31 1  
    31   31   32 1  
    32   31   34 1  
    33   32   33 2  
    34   32   39 am 
    35   34   35 1  
    36   35   36 1  
    37   36   37 2  
    38   36   38 am 
    39   39   40 1  
    40   39   45 1  
    41   40   41 1  
    42   40   43 1  
    43   41   42 2  
    44   41   46 am 
    45   43   44 1  
    46   44   45 1  
    47   46   47 1  
    48   47   48 1  
    49   47   50 1  
    50   48   49 2  
    51   48   51 am 
    52   51   52 1  
    53   52   53 1  
    54   52   55 1  
    55   53   54 2  
    56   53   56 am 
    57   56   57 1  
    58   57   58 1  
    59   57   60 1  
    60   58   59 ar 
    61   58   63 ar 
    62   60   61 1  
    63   60   62 1  
    64    1   64 1  
    65    1   65 1  
    66    1   66 1  
    67    2   67 1  
    68    2   68 1  
    69    5   69 1  
    70    6   70 1  
    71    9   71 1  
    72   10   72 1  
    73   10   73 1  
    74   10   74 1  
    75   11   75 1  
    76   11   76 1  
    77   11   77 1  
    78   12   78 1  
    79   13   79 1  
    80   16   80 1  
    81   17   81 1  
    82   17   82 1  
    83   17   83 1  
    84   18   84 1  
    85   18   85 1  
    86   18   86 1  
    87   19   87 1  
    88   20   88 1  
    89   23   89 1  
    90   23   90 1  
    91   23   91 1  
    92   24   92 1  
    93   25   93 1  
    94   28   94 1  
    95   28   95 1  
    96   29   96 1  
    97   30   97 1  
    98   31   98 1  
    99   34   99 1  
   100   34  100 1  
   101   35  101 1  
   102   35  102 1  
   103   38  103 1  
   104   38  104 1  
   105   40  105 1  
   106   43  106 1  
   107   43  107 1  
   108   44  108 1  
   109   44  109 1  
   110   45  110 1  
   111   45  111 1  
   112   46  112 1  
   113   47  113 1  
   114   50  114 1  
   115   50  115 1  
   116   50  116 1  
   117   51  117 1  
   118   52  118 1  
   119   55  119 1  
   120   55  120 1  
   121   55  121 1  
   122   56  122 1  
   123   57  123 1  
   124   60  124 1  
   125   61  125 1  
   126   61  126 1  
   127   61  127 1  
   128   62  128 1  
   129   62  129 1  
   130   62  130 1  
@<TRIPOS>SUBSTRUCTURE
     1 GLY         1

