1x7r_ligand
  -I-interpret- 

 30 32  0  0  0  0  0  0  0  0999 V2000
   17.1540   31.9200   25.8150 C   0  0  0  0  0
   17.7070   33.1970   26.1030 C   0  0  0  0  0
   18.2780   33.3320   27.3670 O   0  0  0  0  0
   17.7040   34.3040   25.1930 C   0  0  0  0  0
   17.1140   34.1500   23.8990 C   0  0  0  0  0
   17.0820   35.1890   22.9880 O   0  0  0  0  0
   16.5400   32.8450   23.5790 C   0  0  0  0  0
   15.9120   32.6250   22.2390 C   0  0  0  0  0
   15.8430   33.4840   21.3710 O   0  0  0  0  0
   15.3580   31.2140   22.0270 C   0  0  0  0  0
   15.4410   30.2340   23.0300 C   0  0  0  0  0
   16.0360   30.4740   24.2960 O   0  0  0  0  0
   16.5550   31.7350   24.5220 C   0  0  0  0  0
   14.6820   30.7120   20.7190 C   0  0  0  0  0
   15.2530   31.1030   19.4560 C   0  0  0  0  0
   14.6080   30.5730   18.2940 C   0  0  0  0  0
   13.5010   29.7340   18.4320 C   0  0  0  0  0
   12.9460   29.2580   17.2410 O   0  0  0  0  0
   12.8950   29.3240   19.6740 C   0  0  0  0  0
   13.5350   29.8510   20.8720 C   0  0  0  0  0
   17.1831   31.1123   26.5464 H   0  0  0  0  0
   18.6221   34.2225   27.4680 H   0  0  0  0  0
   18.1478   35.2559   25.4846 H   0  0  0  0  0
   16.6488   34.8945   22.1835 H   0  0  0  0  0
   15.0301   29.2451   22.8269 H   0  0  0  0  0
   16.1202   31.7600   19.3896 H   0  0  0  0  0
   14.9810   30.8244   17.3011 H   0  0  0  0  0
   12.1956   28.6940   17.4419 H   0  0  0  0  0
   12.0243   28.6695   19.7138 H   0  0  0  0  0
   13.1553   29.6001   21.8624 H   0  0  0  0  0
  1  2  4  0  0  0
  1 13  4  0  0  0
  2  3  1  0  0  0
  2  4  4  0  0  0
  4  5  4  0  0  0
  5  6  1  0  0  0
  5  7  4  0  0  0
  7  8  1  0  0  0
  7 13  4  0  0  0
  8  9  2  0  0  0
  8 10  1  0  0  0
 10 11  2  0  0  0
 10 14  1  0  0  0
 11 12  1  0  0  0
 12 13  1  0  0  0
 14 15  4  0  0  0
 14 20  4  0  0  0
 15 16  4  0  0  0
 16 17  4  0  0  0
 17 18  1  0  0  0
 17 19  4  0  0  0
 19 20  4  0  0  0
  1 21  1  0  0  0
  3 22  1  0  0  0
  4 23  1  0  0  0
  6 24  1  0  0  0
 11 25  1  0  0  0
 15 26  1  0  0  0
 16 27  1  0  0  0
 18 28  1  0  0  0
 19 29  1  0  0  0
 20 30  1  0  0  0
M  END
$$$$
