### 
### Created by X-TOOL on Mon Sep 10 21:12:56 2018
### 

@<TRIPOS>MOLECULE
2hiz_ligand
   97    99     1     0     0
SMALL
GAST_HUCK


@<TRIPOS>ATOM
      1 C4        -28.9720   61.4700   68.9070 C.3       1 LIJ        -0.0652
      2 C5        -27.6370   60.8600   68.3590 C.3       1 LIJ        -0.0542
      3 C6        -26.9190   59.8190   69.3230 C.3       1 LIJ        -0.0310
      4 C7        -25.7110   58.8680   68.8600 C.3       1 LIJ         0.0771
      5 C10       -25.0580   56.8600   64.9690 C.3       1 LIJ         0.1518
      6 N12       -22.6760   56.8680   64.3170 N.am      1 LIJ        -0.2773
      7 C13       -21.4930   57.0370   63.4830 C.3       1 LIJ         0.0823
      8 C15       -21.2070   59.3930   64.5900 C.ar      1 LIJ        -0.0408
      9 C17       -21.4870   61.3910   66.1680 C.ar      1 LIJ        -0.0686
     10 C20       -22.1690   60.0390   63.6610 C.ar      1 LIJ        -0.0603
     11 C21       -20.8110   55.6870   63.2010 C.3       1 LIJ         0.1193
     12 C22       -21.7130   54.7810   62.3930 C.3       1 LIJ        -0.0033
     13 C24       -21.8660   52.6050   61.2140 C.3       1 LIJ        -0.0023
     14 C26       -20.7150   53.9260   59.2390 C.ar      1 LIJ        -0.0272
     15 C28       -22.0490   54.8190   57.2770 C.ar      1 LIJ        -0.0401
     16 C1        -21.8530   59.5650   69.3610 C.3       1 LIJ        -0.0652
     17 C2        -23.1920   58.8050   69.4790 C.3       1 LIJ        -0.0542
     18 C3        -24.3340   59.5460   68.7380 C.3       1 LIJ        -0.0310
     19 S8        -26.0970   57.7740   67.4080 S.o2      1 LIJ        -0.0239
     20 O8B       -26.1500   56.4120   67.8580 O.2       1 LIJ        -0.1739
     21 O8A       -27.3460   58.2550   66.8690 O.2       1 LIJ        -0.1739
     22 C9        -24.8120   57.8290   66.1200 C.3       1 LIJ         0.1061
     23 C11       -23.9550   57.0510   63.9640 C.2       1 LIJ         0.2037
     24 O11       -24.3390   57.3950   62.8220 O.2       1 LIJ        -0.3945
     25 C14       -20.5750   58.0180   64.2650 C.3       1 LIJ         0.0066
     26 C16       -20.8750   60.0900   65.8510 C.ar      1 LIJ        -0.0603
     27 C18       -22.4370   62.0070   65.2310 C.ar      1 LIJ        -0.0687
     28 C19       -22.7710   61.3280   63.9860 C.ar      1 LIJ        -0.0686
     29 O21       -19.6610   55.8900   62.4240 O.3       1 LIJ        -0.3841
     30 N23       -21.0450   53.4740   62.0710 N.4       1 LIJ         0.2408
     31 C25       -21.9330   53.3520   59.8510 C.ar      1 LIJ        -0.0075
     32 C27       -20.7340   54.6610   57.9640 C.ar      1 LIJ         0.0842
     33 O27       -19.5370   55.1800   57.4810 O.3       1 LIJ        -0.3230
     34 C29       -23.2700   54.2550   57.8690 C.ar      1 LIJ        -0.0770
     35 C30       -23.2160   53.5290   59.1470 C.ar      1 LIJ        -0.0664
     36 C31       -18.2640   54.4780   57.4980 C.3       1 LIJ         0.0592
     37 N40       -26.3740   57.0980   64.5110 N.am      1 LIJ        -0.2395
     38 C41       -27.4630   56.2270   64.6180 C.2       1 LIJ         0.3240
     39 O42       -27.3850   55.1220   65.1530 O.2       1 LIJ        -0.3773
     40 O43       -28.6140   56.7470   64.0870 O.3       1 LIJ        -0.2506
     41 C44       -29.8500   56.0100   64.1020 C.3       1 LIJ         0.1113
     42 C45       -30.9340   56.8310   63.4650 C.ar      1 LIJ        -0.0130
     43 C46       -31.0260   56.9230   62.0210 C.ar      1 LIJ        -0.0578
     44 C47       -32.0630   57.7160   61.4060 C.ar      1 LIJ        -0.0685
     45 C48       -33.0280   58.4310   62.2310 C.ar      1 LIJ        -0.0687
     46 C49       -32.9470   58.3460   63.6750 C.ar      1 LIJ        -0.0685
     47 C50       -31.9090   57.5520   64.2990 C.ar      1 LIJ        -0.0578
     48 H1        -29.3844   62.1728   68.1681 H         1 LIJ         0.0230
     49 H2        -28.7724   62.0029   69.8483 H         1 LIJ         0.0230
     50 H3        -29.6965   60.6626   69.0892 H         1 LIJ         0.0230
     51 H4        -26.9372   61.6876   68.1711 H         1 LIJ         0.0263
     52 H5        -27.8612   60.3473   67.4120 H         1 LIJ         0.0263
     53 H6        -27.7113   59.1452   69.6811 H         1 LIJ         0.0283
     54 H7        -26.5305   60.4089   70.1662 H         1 LIJ         0.0283
     55 H8        -25.5922   58.1701   69.7019 H         1 LIJ         0.0536
     56 H9        -25.0059   55.8241   65.3352 H         1 LIJ         0.0816
     57 H10       -22.5143   56.5825   65.2616 H         1 LIJ         0.1857
     58 H11       -21.7775   57.4885   62.5211 H         1 LIJ         0.0606
     59 H12       -21.2364   61.8954   67.0942 H         1 LIJ         0.0599
     60 H13       -22.4271   59.5470   62.7302 H         1 LIJ         0.0557
     61 H14       -20.5479   55.2050   64.1541 H         1 LIJ         0.0672
     62 H15       -21.9769   55.2874   61.4528 H         1 LIJ         0.0840
     63 H16       -22.6273   54.5810   62.9710 H         1 LIJ         0.0840
     64 H17       -22.8730   52.4798   61.6385 H         1 LIJ         0.0978
     65 H18       -21.3935   51.6190   61.0940 H         1 LIJ         0.0978
     66 H19       -19.7680   53.8000   59.7513 H         1 LIJ         0.0480
     67 H20       -22.1040   55.3531   56.3353 H         1 LIJ         0.0486
     68 H21       -21.0685   59.0110   69.8973 H         1 LIJ         0.0230
     69 H22       -21.9602   60.5673   69.8013 H         1 LIJ         0.0230
     70 H23       -21.5764   59.6580   68.3004 H         1 LIJ         0.0230
     71 H24       -23.4575   58.7120   70.5424 H         1 LIJ         0.0263
     72 H25       -23.0737   57.8027   69.0415 H         1 LIJ         0.0263
     73 H26       -24.4119   60.5618   69.1528 H         1 LIJ         0.0283
     74 H27       -24.0718   59.6045   67.6713 H         1 LIJ         0.0283
     75 H28       -24.7721   58.8499   65.7124 H         1 LIJ         0.0549
     76 H29       -23.8454   57.5808   66.5827 H         1 LIJ         0.0549
     77 H30       -19.6715   58.1925   63.6624 H         1 LIJ         0.0449
     78 H31       -20.2954   57.5388   65.2148 H         1 LIJ         0.0449
     79 H32       -20.1762   59.6400   66.5469 H         1 LIJ         0.0557
     80 H33       -22.8881   62.9643   65.4657 H         1 LIJ         0.0559
     81 H34       -23.4719   61.7837   63.2960 H         1 LIJ         0.0599
     82 H35       -19.0597   56.4570   62.8924 H         1 LIJ         0.2101
     83 H36       -20.8563   52.9884   62.9339 H         1 LIJ         0.2029
     84 H37       -20.1766   53.6654   61.5963 H         1 LIJ         0.2029
     85 H38       -24.2191   54.3751   57.3592 H         1 LIJ         0.0572
     86 H39       -24.1253   53.1216   59.5739 H         1 LIJ         0.0466
     87 H40       -17.4863   55.1182   57.0560 H         1 LIJ         0.0577
     88 H41       -18.3496   53.5493   56.9148 H         1 LIJ         0.0577
     89 H42       -17.9928   54.2354   58.5361 H         1 LIJ         0.0577
     90 H43       -26.5433   57.9773   64.0659 H         1 LIJ         0.1900
     91 H44       -30.1272   55.7812   65.1416 H         1 LIJ         0.0776
     92 H45       -29.7238   55.0721   63.5412 H         1 LIJ         0.0776
     93 H46       -30.3123   56.3935   61.4003 H         1 LIJ         0.0557
     94 H47       -32.1243   57.7800   60.3256 H         1 LIJ         0.0599
     95 H48       -33.8054   59.0257   61.7650 H         1 LIJ         0.0559
     96 H49       -33.6646   58.8776   64.2894 H         1 LIJ         0.0599
     97 H50       -31.8502   57.4888   65.3796 H         1 LIJ         0.0557
@<TRIPOS>BOND
     1    2    1 1  
     2    3    2 1  
     3    4    3 1  
     4    4   18 1  
     5   19    4 1  
     6   22    5 1  
     7    5   23 1  
     8    5   37 1  
     9    6    7 1  
    10   23    6 am 
    11    7   11 1  
    12    7   25 1  
    13    8   10 ar 
    14   25    8 1  
    15    8   26 ar 
    16   26    9 ar 
    17    9   27 ar 
    18   10   28 ar 
    19   11   12 1  
    20   11   29 1  
    21   12   30 1  
    22   30   13 1  
    23   13   31 1  
    24   31   14 ar 
    25   14   32 ar 
    26   32   15 ar 
    27   15   34 ar 
    28   17   16 1  
    29   18   17 1  
    30   19   20 2  
    31   19   21 2  
    32   19   22 1  
    33   23   24 2  
    34   27   28 ar 
    35   31   35 ar 
    36   32   33 1  
    37   33   36 1  
    38   34   35 ar 
    39   37   38 am 
    40   38   39 2  
    41   38   40 1  
    42   40   41 1  
    43   41   42 1  
    44   42   43 ar 
    45   42   47 ar 
    46   43   44 ar 
    47   44   45 ar 
    48   45   46 ar 
    49   46   47 ar 
    50    1   48 1  
    51    1   49 1  
    52    1   50 1  
    53    2   51 1  
    54    2   52 1  
    55    3   53 1  
    56    3   54 1  
    57    4   55 1  
    58    5   56 1  
    59    6   57 1  
    60    7   58 1  
    61    9   59 1  
    62   10   60 1  
    63   11   61 1  
    64   12   62 1  
    65   12   63 1  
    66   13   64 1  
    67   13   65 1  
    68   14   66 1  
    69   15   67 1  
    70   16   68 1  
    71   16   69 1  
    72   16   70 1  
    73   17   71 1  
    74   17   72 1  
    75   18   73 1  
    76   18   74 1  
    77   22   75 1  
    78   22   76 1  
    79   25   77 1  
    80   25   78 1  
    81   26   79 1  
    82   27   80 1  
    83   28   81 1  
    84   29   82 1  
    85   30   83 1  
    86   30   84 1  
    87   34   85 1  
    88   35   86 1  
    89   36   87 1  
    90   36   88 1  
    91   36   89 1  
    92   37   90 1  
    93   41   91 1  
    94   41   92 1  
    95   43   93 1  
    96   44   94 1  
    97   45   95 1  
    98   46   96 1  
    99   47   97 1  
@<TRIPOS>SUBSTRUCTURE
     1 LIJ         1

