2hiz_ligand
  -I-interpret- 

 97 99  0  0  0  0  0  0  0  0999 V2000
  -28.9720   61.4700   68.9070 C   0  0  0  0  0
  -27.6370   60.8600   68.3590 C   0  0  0  0  0
  -26.9190   59.8190   69.3230 C   0  0  0  0  0
  -25.7110   58.8680   68.8600 C   0  0  0  0  0
  -25.0580   56.8600   64.9690 C   0  0  0  0  0
  -22.6760   56.8680   64.3170 N   0  0  0  0  0
  -21.4930   57.0370   63.4830 C   0  0  0  0  0
  -21.2070   59.3930   64.5900 C   0  0  0  0  0
  -21.4870   61.3910   66.1680 C   0  0  0  0  0
  -22.1690   60.0390   63.6610 C   0  0  0  0  0
  -20.8110   55.6870   63.2010 C   0  0  0  0  0
  -21.7130   54.7810   62.3930 C   0  0  0  0  0
  -21.8660   52.6050   61.2140 C   0  0  0  0  0
  -20.7150   53.9260   59.2390 C   0  0  0  0  0
  -22.0490   54.8190   57.2770 C   0  0  0  0  0
  -21.8530   59.5650   69.3610 C   0  0  0  0  0
  -23.1920   58.8050   69.4790 C   0  0  0  0  0
  -24.3340   59.5460   68.7380 C   0  0  0  0  0
  -26.0970   57.7740   67.4080 S   0  0  0  0  0
  -26.1500   56.4120   67.8580 O   0  0  0  0  0
  -27.3460   58.2550   66.8690 O   0  0  0  0  0
  -24.8120   57.8290   66.1200 C   0  0  0  0  0
  -23.9550   57.0510   63.9640 C   0  0  0  0  0
  -24.3390   57.3950   62.8220 O   0  0  0  0  0
  -20.5750   58.0180   64.2650 C   0  0  0  0  0
  -20.8750   60.0900   65.8510 C   0  0  0  0  0
  -22.4370   62.0070   65.2310 C   0  0  0  0  0
  -22.7710   61.3280   63.9860 C   0  0  0  0  0
  -19.6610   55.8900   62.4240 O   0  0  0  0  0
  -21.0450   53.4740   62.0710 N   0  3  0  0  0
  -21.9330   53.3520   59.8510 C   0  0  0  0  0
  -20.7340   54.6610   57.9640 C   0  0  0  0  0
  -19.5370   55.1800   57.4810 O   0  0  0  0  0
  -23.2700   54.2550   57.8690 C   0  0  0  0  0
  -23.2160   53.5290   59.1470 C   0  0  0  0  0
  -18.2640   54.4780   57.4980 C   0  0  0  0  0
  -26.3740   57.0980   64.5110 N   0  0  0  0  0
  -27.4630   56.2270   64.6180 C   0  0  0  0  0
  -27.3850   55.1220   65.1530 O   0  0  0  0  0
  -28.6140   56.7470   64.0870 O   0  0  0  0  0
  -29.8500   56.0100   64.1020 C   0  0  0  0  0
  -30.9340   56.8310   63.4650 C   0  0  0  0  0
  -31.0260   56.9230   62.0210 C   0  0  0  0  0
  -32.0630   57.7160   61.4060 C   0  0  0  0  0
  -33.0280   58.4310   62.2310 C   0  0  0  0  0
  -32.9470   58.3460   63.6750 C   0  0  0  0  0
  -31.9090   57.5520   64.2990 C   0  0  0  0  0
  -29.6890   60.6690   69.0872 H   0  0  0  0  0
  -28.7729   61.9977   69.8397 H   0  0  0  0  0
  -29.3797   62.1662   68.1740 H   0  0  0  0  0
  -26.9450   61.6917   68.2272 H   0  0  0  0  0
  -27.8924   60.3175   67.4488 H   0  0  0  0  0
  -27.7143   59.1094   69.5512 H   0  0  0  0  0
  -26.4516   60.4607   70.0700 H   0  0  0  0  0
  -25.6125   58.2025   69.7176 H   0  0  0  0  0
  -25.0167   55.8045   65.2378 H   0  0  0  0  0
  -22.5110   56.5768   65.2805 H   0  0  0  0  0
  -21.7379   57.4367   62.4990 H   0  0  0  0  0
  -21.2351   61.8982   67.0993 H   0  0  0  0  0
  -22.4285   59.5443   62.7250 H   0  0  0  0  0
  -20.5768   55.2361   64.1653 H   0  0  0  0  0
  -21.9536   55.2834   61.4561 H   0  0  0  0  0
  -22.6070   54.5737   62.9812 H   0  0  0  0  0
  -22.8567   52.4344   61.6353 H   0  0  0  0  0
  -21.4367   51.6082   61.1127 H   0  0  0  0  0
  -19.7628   53.7993   59.7541 H   0  0  0  0  0
  -22.1043   55.3561   56.3301 H   0  0  0  0  0
  -21.5801   59.6565   68.3097 H   0  0  0  0  0
  -21.9606   60.5579   69.7976 H   0  0  0  0  0
  -21.0765   59.0151   69.8927 H   0  0  0  0  0
  -23.4556   58.7324   70.5342 H   0  0  0  0  0
  -23.0705   57.8200   69.0283 H   0  0  0  0  0
  -24.4215   60.5344   69.1892 H   0  0  0  0  0
  -24.0748   59.5587   67.6793 H   0  0  0  0  0
  -24.8100   58.8364   65.7038 H   0  0  0  0  0
  -23.8687   57.5473   66.5878 H   0  0  0  0  0
  -19.7111   58.2126   63.6295 H   0  0  0  0  0
  -20.3502   57.5429   65.2199 H   0  0  0  0  0
  -20.1723   59.6375   66.5507 H   0  0  0  0  0
  -22.8906   62.9696   65.4670 H   0  0  0  0  0
  -23.4758   61.7862   63.2921 H   0  0  0  0  0
  -19.2397   55.0449   62.2511 H   0  0  0  0  0
  -20.8849   52.9819   62.9500 H   0  0  0  0  0
  -20.1824   53.6815   61.5677 H   0  0  0  0  0
  -24.2243   54.3758   57.3564 H   0  0  0  0  0
  -24.1303   53.1193   59.5762 H   0  0  0  0  0
  -17.9965   54.2382   58.5271 H   0  0  0  0  0
  -18.3501   53.5580   56.9198 H   0  0  0  0  0
  -17.4943   55.1133   57.0598 H   0  0  0  0  0
  -26.5467   57.9949   64.0570 H   0  0  0  0  0
  -30.1247   55.7845   65.1324 H   0  0  0  0  0
  -29.7246   55.0813   63.5453 H   0  0  0  0  0
  -30.3083   56.3906   61.3968 H   0  0  0  0  0
  -32.1247   57.7804   60.3197 H   0  0  0  0  0
  -33.8097   59.0289   61.7624 H   0  0  0  0  0
  -33.6686   58.8806   64.2928 H   0  0  0  0  0
  -31.8499   57.4884   65.3855 H   0  0  0  0  0
  2  1  1  0  0  0
  3  2  1  0  0  0
  4  3  1  0  0  0
  4 18  1  0  0  0
 19  4  1  0  0  0
 22  5  1  0  0  0
  5 23  1  0  0  0
  5 37  1  0  0  0
  6  7  1  0  0  0
 23  6  1  0  0  0
  7 11  1  0  0  0
  7 25  1  0  0  0
  8 10  4  0  0  0
 25  8  1  0  0  0
  8 26  4  0  0  0
 26  9  4  0  0  0
  9 27  4  0  0  0
 10 28  4  0  0  0
 11 12  1  0  0  0
 11 29  1  0  0  0
 12 30  1  0  0  0
 30 13  1  0  0  0
 13 31  1  0  0  0
 31 14  4  0  0  0
 14 32  4  0  0  0
 32 15  4  0  0  0
 15 34  4  0  0  0
 17 16  1  0  0  0
 18 17  1  0  0  0
 19 20  2  0  0  0
 19 21  2  0  0  0
 19 22  1  0  0  0
 23 24  2  0  0  0
 27 28  4  0  0  0
 31 35  4  0  0  0
 32 33  1  0  0  0
 33 36  1  0  0  0
 34 35  4  0  0  0
 37 38  1  0  0  0
 38 39  2  0  0  0
 38 40  1  0  0  0
 40 41  1  0  0  0
 41 42  1  0  0  0
 42 43  4  0  0  0
 42 47  4  0  0  0
 43 44  4  0  0  0
 44 45  4  0  0  0
 45 46  4  0  0  0
 46 47  4  0  0  0
  1 48  1  0  0  0
  1 49  1  0  0  0
  1 50  1  0  0  0
  2 51  1  0  0  0
  2 52  1  0  0  0
  3 53  1  0  0  0
  3 54  1  0  0  0
  4 55  1  0  0  0
  5 56  1  0  0  0
  6 57  1  0  0  0
  7 58  1  0  0  0
  9 59  1  0  0  0
 10 60  1  0  0  0
 11 61  1  0  0  0
 12 62  1  0  0  0
 12 63  1  0  0  0
 13 64  1  0  0  0
 13 65  1  0  0  0
 14 66  1  0  0  0
 15 67  1  0  0  0
 16 68  1  0  0  0
 16 69  1  0  0  0
 16 70  1  0  0  0
 17 71  1  0  0  0
 17 72  1  0  0  0
 18 73  1  0  0  0
 18 74  1  0  0  0
 22 75  1  0  0  0
 22 76  1  0  0  0
 25 77  1  0  0  0
 25 78  1  0  0  0
 26 79  1  0  0  0
 27 80  1  0  0  0
 28 81  1  0  0  0
 29 82  1  0  0  0
 30 83  1  0  0  0
 30 84  1  0  0  0
 34 85  1  0  0  0
 35 86  1  0  0  0
 36 87  1  0  0  0
 36 88  1  0  0  0
 36 89  1  0  0  0
 37 90  1  0  0  0
 41 91  1  0  0  0
 41 92  1  0  0  0
 43 93  1  0  0  0
 44 94  1  0  0  0
 45 95  1  0  0  0
 46 96  1  0  0  0
 47 97  1  0  0  0
M  END
$$$$
