1lee_ligand
  -I-interpret- 

 80 82  0  0  0  0  0  0  0  0999 V2000
   34.0950   28.4740    9.2510 C   0  0  0  0  0
   34.3440   29.6540    9.9610 C   0  0  0  0  0
   35.6700   30.1450   10.0000 C   0  0  0  0  0
   36.6900   29.4490    9.3450 C   0  0  0  0  0
   36.4230   28.2950    8.6650 C   0  0  0  0  0
   35.1390   27.8040    8.6050 C   0  0  0  0  0
   35.9920   31.4460   10.7050 C   0  0  0  0  0
   32.6900   27.9160    9.1680 C   0  0  0  0  0
   30.4620   37.4970   14.5320 C   0  0  0  0  0
   30.7470   37.5550   15.9060 C   0  0  0  0  0
   30.0500   38.4330   16.7780 C   0  0  0  0  0
   29.0720   39.2520   16.2910 C   0  0  0  0  0
   28.7540   39.2260   14.9240 C   0  0  0  0  0
   27.7520   40.1680   14.4100 N   0  0  0  0  0
   29.4480   38.3490   14.0450 C   0  0  0  0  0
   33.2710   30.3040   10.5940 O   0  0  0  0  0
   32.6720   31.4260    9.9720 C   0  0  0  0  0
   31.7060   32.2430   10.8660 C   0  0  0  0  0
   31.1210   33.2530   10.4300 O   0  0  0  0  0
   31.5320   31.8190   12.1100 N   0  0  0  0  0
   31.3210   32.5830   14.4250 C   0  0  0  0  0
   31.7040   31.2640   14.7950 O   0  0  0  0  0
   32.6210   33.3030   14.3480 C   0  0  0  0  0
   32.6670   34.6160   13.6150 C   0  0  0  0  0
   34.1190   35.0760   13.4250 C   0  0  0  0  0
   35.0790   35.4250   14.5750 C   0  0  0  0  0
   36.2080   36.2070   13.9820 C   0  0  0  0  0
   35.6630   34.2190   15.2620 C   0  0  0  0  0
   31.8270   35.6120   14.2900 N   0  0  0  0  0
   31.2110   36.6220   13.6800 C   0  0  0  0  0
   31.2920   36.8030   12.4580 O   0  0  0  0  0
   30.6620   32.5180   13.0290 C   0  0  0  0  0
   29.3410   31.7830   13.1450 C   0  0  0  0  0
   28.7250   31.4120   11.8400 C   0  0  0  0  0
   27.9860   32.3400   11.1150 C   0  0  0  0  0
   27.3330   31.9690    9.9180 C   0  0  0  0  0
   27.4310   30.6580    9.4380 C   0  0  0  0  0
   28.1760   29.7200   10.1440 C   0  0  0  0  0
   28.8270   30.1130   11.3640 C   0  0  0  0  0
   37.7101   29.8316    9.3773 H   0  0  0  0  0
   37.2316   27.7600    8.1670 H   0  0  0  0  0
   34.9344   26.8879    8.0510 H   0  0  0  0  0
   35.4307   32.2574   10.2417 H   0  0  0  0  0
   35.7163   31.3659   11.7565 H   0  0  0  0  0
   37.0600   31.6478   10.6225 H   0  0  0  0  0
   32.3786   27.8730    8.1243 H   0  0  0  0  0
   32.6728   26.9133    9.5952 H   0  0  0  0  0
   32.0107   28.5613    9.7249 H   0  0  0  0  0
   31.5241   36.9087   16.3141 H   0  0  0  0  0
   30.2966   38.4531   17.8395 H   0  0  0  0  0
   28.5390   39.9250   16.9627 H   0  0  0  0  0
   27.2994   40.8271   15.0434 H   0  0  0  0  0
   27.5084   40.1633   13.4195 H   0  0  0  0  0
   29.1941   38.3350   12.9851 H   0  0  0  0  0
   32.0790   31.0424    9.1418 H   0  0  0  0  0
   33.4836   32.0986    9.6943 H   0  0  0  0  0
   32.0223   30.9820   12.4254 H   0  0  0  0  0
   30.6175   33.0597   15.1076 H   0  0  0  0  0
   32.1165   31.2830   15.6617 H   0  0  0  0  0
   33.2830   32.6403   13.7906 H   0  0  0  0  0
   32.8779   33.5418   15.3800 H   0  0  0  0  0
   32.2508   34.4877   12.6158 H   0  0  0  0  0
   33.9995   36.0334   12.9178 H   0  0  0  0  0
   34.5894   34.1980   12.9823 H   0  0  0  0  0
   34.5131   35.9763   15.3259 H   0  0  0  0  0
   36.7124   35.6008   13.2296 H   0  0  0  0  0
   35.8169   37.1126   13.5183 H   0  0  0  0  0
   36.9144   36.4754   14.7675 H   0  0  0  0  0
   34.8578   33.6162   15.6818 H   0  0  0  0  0
   36.2232   33.6263   14.5389 H   0  0  0  0  0
   36.3293   34.5446   16.0609 H   0  0  0  0  0
   31.7065   35.5240   15.2990 H   0  0  0  0  0
   30.4910   33.5270   12.6539 H   0  0  0  0  0
   28.6448   32.4546   13.6474 H   0  0  0  0  0
   29.5381   30.8544   13.6807 H   0  0  0  0  0
   27.9094   33.3662   11.4743 H   0  0  0  0  0
   26.7506   32.7069    9.3663 H   0  0  0  0  0
   26.9257   30.3736    8.5150 H   0  0  0  0  0
   28.2655   28.6978    9.7764 H   0  0  0  0  0
   29.4089   29.3800   11.9228 H   0  0  0  0  0
  1  8  1  0  0  0
  1  6  4  0  0  0
  1  2  4  0  0  0
  2 16  1  0  0  0
  2  3  4  0  0  0
  3  7  1  0  0  0
  3  4  4  0  0  0
  4  5  4  0  0  0
  5  6  4  0  0  0
 16 17  1  0  0  0
 17 18  1  0  0  0
 18 20  1  0  0  0
 18 19  2  0  0  0
 20 32  1  0  0  0
 32 33  1  0  0  0
 32 21  1  0  0  0
 21 23  1  0  0  0
 21 22  1  0  0  0
 23 24  1  0  0  0
 24 29  1  0  0  0
 24 25  1  0  0  0
 25 26  1  0  0  0
 26 28  1  0  0  0
 26 27  1  0  0  0
 29 30  1  0  0  0
 30 31  2  0  0  0
 30  9  1  0  0  0
  9 15  4  0  0  0
  9 10  4  0  0  0
 10 11  4  0  0  0
 11 12  4  0  0  0
 12 13  4  0  0  0
 13 15  4  0  0  0
 13 14  1  0  0  0
 33 34  1  0  0  0
 34 39  4  0  0  0
 34 35  4  0  0  0
 35 36  4  0  0  0
 36 37  4  0  0  0
 37 38  4  0  0  0
 38 39  4  0  0  0
  4 40  1  0  0  0
  5 41  1  0  0  0
  6 42  1  0  0  0
  7 43  1  0  0  0
  7 44  1  0  0  0
  7 45  1  0  0  0
  8 46  1  0  0  0
  8 47  1  0  0  0
  8 48  1  0  0  0
 10 49  1  0  0  0
 11 50  1  0  0  0
 12 51  1  0  0  0
 14 52  1  0  0  0
 14 53  1  0  0  0
 15 54  1  0  0  0
 17 55  1  0  0  0
 17 56  1  0  0  0
 20 57  1  0  0  0
 21 58  1  0  0  0
 22 59  1  0  0  0
 23 60  1  0  0  0
 23 61  1  0  0  0
 24 62  1  0  0  0
 25 63  1  0  0  0
 25 64  1  0  0  0
 26 65  1  0  0  0
 27 66  1  0  0  0
 27 67  1  0  0  0
 27 68  1  0  0  0
 28 69  1  0  0  0
 28 70  1  0  0  0
 28 71  1  0  0  0
 29 72  1  0  0  0
 32 73  1  0  0  0
 33 74  1  0  0  0
 33 75  1  0  0  0
 35 76  1  0  0  0
 36 77  1  0  0  0
 37 78  1  0  0  0
 38 79  1  0  0  0
 39 80  1  0  0  0
M  END
$$$$
