5qag_ligand
  -I-interpret- 

 31 32  0  0  0  0  0  0  0  0999 V2000
   96.5430  249.0840    4.3810 C   0  0  0  0  0
   95.8290  249.8580    4.9700 O   0  0  0  0  0
   94.8980  248.8380    2.7040 C   0  0  0  0  0
   97.5490  253.0090    6.4300 C   0  0  0  0  0
   97.5900  254.3400    5.7220 C   0  0  0  0  0
   97.0230  252.9040    7.7120 C   0  0  0  0  0
   97.0200  251.6840    8.3650 C   0  0  0  0  0
   97.5390  250.5600    7.7450 C   0  0  0  0  0
   97.9130  248.6950    4.8180 C   0  0  0  0  0
   98.4940  247.5740    4.2250 C   0  0  0  0  0
   99.7740  247.1870    4.5800 C   0  0  0  0  0
  100.4790  247.9030    5.5190 C   0  0  0  0  0
   99.9130  249.0140    6.1180 C   0  0  0  0  0
   98.6240  249.4320    5.7830 C   0  0  0  0  0
   98.0680  250.6380    6.4580 C   0  0  0  0  0
   98.0640  251.8740    5.8130 C   0  0  0  0  0
   96.1920  248.4790    3.2470 O   0  0  0  0  0
   98.6460  255.0110    5.8120 O   0  0  0  0  0
   96.5710  254.6980    5.0840 O   0  0  0  0  0
   94.1210  248.5941    3.4285 H   0  0  0  0  0
   94.8776  249.9073    2.4937 H   0  0  0  0  0
   94.7250  248.2818    1.7827 H   0  0  0  0  0
   96.6117  253.7851    8.2045 H   0  0  0  0  0
   96.6076  251.6076    9.3711 H   0  0  0  0  0
   97.5338  249.6042    8.2690 H   0  0  0  0  0
   97.9390  247.0023    3.4812 H   0  0  0  0  0
  100.2254  246.3113    4.1137 H   0  0  0  0  0
  101.4878  247.5938    5.7923 H   0  0  0  0  0
  100.4818  249.5711    6.8624 H   0  0  0  0  0
   98.4725  251.9523    4.8055 H   0  0  0  0  0
   95.8932  254.0224    5.1605 H   0  0  0  0  0
  1  2  2  0  0  0
  9  1  1  0  0  0
  1 17  1  0  0  0
 17  3  1  0  0  0
  4  5  1  0  0  0
  6  4  4  0  0  0
  4 16  4  0  0  0
  5 18  2  0  0  0
  5 19  1  0  0  0
  7  6  4  0  0  0
  8  7  4  0  0  0
 15  8  4  0  0  0
  9 10  4  0  0  0
 14  9  4  0  0  0
 10 11  4  0  0  0
 12 11  4  0  0  0
 13 12  4  0  0  0
 14 13  4  0  0  0
 14 15  1  0  0  0
 15 16  4  0  0  0
  3 20  1  0  0  0
  3 21  1  0  0  0
  3 22  1  0  0  0
  6 23  1  0  0  0
  7 24  1  0  0  0
  8 25  1  0  0  0
 10 26  1  0  0  0
 11 27  1  0  0  0
 12 28  1  0  0  0
 13 29  1  0  0  0
 16 30  1  0  0  0
 19 31  1  0  0  0
M  END
$$$$
