2zas_ligand
  -I-interpret- 

 32 33  0  0  0  0  0  0  0  0999 V2000
   16.5670   23.4480   42.3290 O   0  0  0  0  0
   16.2750   24.7520   42.0490 C   0  0  0  0  0
   15.1420   25.3580   42.5920 C   0  0  0  0  0
   14.8560   26.6920   42.2850 C   0  0  0  0  0
   17.1220   25.4780   41.2100 C   0  0  0  0  0
   16.8410   26.8040   40.9150 C   0  0  0  0  0
   15.7020   27.4270   41.4470 C   0  0  0  0  0
   15.4160   28.8740   41.1150 C   0  0  0  0  0
   16.4640   29.7570   41.7830 C   0  0  0  0  0
   14.0620   29.3260   41.6500 C   0  0  0  0  0
   15.4480   29.0210   39.6100 C   0  0  0  0  0
   16.6270   29.3760   38.9420 C   0  0  0  0  0
   16.6470   29.4930   37.5520 C   0  0  0  0  0
   15.4890   29.2540   36.8190 C   0  0  0  0  0
   14.3140   28.8950   37.4770 C   0  0  0  0  0
   14.2960   28.7700   38.8640 C   0  0  0  0  0
   17.3751   23.1976   41.8752 H   0  0  0  0  0
   14.4828   24.7945   43.2524 H   0  0  0  0  0
   13.9662   27.1635   42.7022 H   0  0  0  0  0
   18.0060   25.0020   40.7858 H   0  0  0  0  0
   17.5106   27.3666   40.2645 H   0  0  0  0  0
   16.4234   29.6134   42.8627 H   0  0  0  0  0
   17.4537   29.4851   41.4160 H   0  0  0  0  0
   16.2616   30.8015   41.5462 H   0  0  0  0  0
   13.2757   28.7132   41.2092 H   0  0  0  0  0
   14.0459   29.2154   42.7343 H   0  0  0  0  0
   13.8997   30.3715   41.3877 H   0  0  0  0  0
   17.5365   29.5624   39.5131 H   0  0  0  0  0
   17.5687   29.7713   37.0410 H   0  0  0  0  0
   15.5006   29.3473   35.7331 H   0  0  0  0  0
   13.4053   28.7113   36.9037 H   0  0  0  0  0
   13.3767   28.4744   39.3696 H   0  0  0  0  0
  1  2  1  0  0  0
  2  3  4  0  0  0
  2  5  4  0  0  0
  3  4  4  0  0  0
  4  7  4  0  0  0
  5  6  4  0  0  0
  6  7  4  0  0  0
  7  8  1  0  0  0
  8  9  1  0  0  0
  8 10  1  0  0  0
  8 11  1  0  0  0
 11 12  4  0  0  0
 11 16  4  0  0  0
 12 13  4  0  0  0
 13 14  4  0  0  0
 14 15  4  0  0  0
 15 16  4  0  0  0
  1 17  1  0  0  0
  3 18  1  0  0  0
  4 19  1  0  0  0
  5 20  1  0  0  0
  6 21  1  0  0  0
  9 22  1  0  0  0
  9 23  1  0  0  0
  9 24  1  0  0  0
 10 25  1  0  0  0
 10 26  1  0  0  0
 10 27  1  0  0  0
 12 28  1  0  0  0
 13 29  1  0  0  0
 14 30  1  0  0  0
 15 31  1  0  0  0
 16 32  1  0  0  0
M  END
$$$$
