2qt5_ligand
  -I-interpret- 

 57 56  0  0  0  0  0  0  0  0999 V2000
    7.7610   25.6870    0.2540 N   0  3  0  0  0
    7.6030   24.9110    1.5200 C   0  0  0  0  0
    8.6570   25.2400    2.5600 C   0  0  0  0  0
    9.6320   25.9400    2.2730 O   0  0  0  0  0
    8.4710   24.7190    3.7690 N   0  0  0  0  0
    9.3880   24.9910    4.8790 C   0  0  0  0  0
    9.9550   23.6930    5.4550 C   0  0  0  0  0
    9.2210   22.7170    5.6540 O   0  0  0  0  0
    8.6800   25.7940    5.9930 C   0  0  0  0  0
    7.8960   26.8450    5.4070 O   0  0  0  0  0
    9.6890   26.3720    6.9910 C   0  0  0  0  0
   11.2600   23.6980    5.7220 N   0  0  0  0  0
   11.9490   22.5410    6.2840 C   0  0  0  0  0
   11.8140   22.4500    7.7980 C   0  0  0  0  0
   11.9580   23.4490    8.5140 O   0  0  0  0  0
   13.4370   22.5520    5.9090 C   0  0  0  0  0
   14.1760   21.2640    6.2970 C   0  0  0  0  0
   15.5940   21.1940    5.7530 C   0  0  0  0  0
   16.2810   22.2430    5.6890 O   0  0  0  0  0
   16.0280   20.0800    5.3910 O   0  0  0  0  0
   11.5420   21.2370    8.2720 N   0  0  0  0  0
   11.5150   20.9340    9.6990 C   0  0  0  0  0
   12.4770   19.7840   10.0020 C   0  0  0  0  0
   13.1510   19.2670    9.0970 O   0  0  0  0  0
   10.0810   20.6060   10.2110 C   0  0  0  0  0
    9.1640   21.8100   10.0370 C   0  0  0  0  0
    9.5050   19.3660    9.5050 C   0  0  0  0  0
   12.6010   19.3510   11.1520 O   0  0  0  0  0
    7.0254   25.4209   -0.4005 H   0  0  0  0  0
    7.6927   26.6842    0.4571 H   0  0  0  0  0
    8.6725   25.4840   -0.1563 H   0  0  0  0  0
    7.7019   23.8539    1.2733 H   0  0  0  0  0
    6.6313   25.1652    1.9435 H   0  0  0  0  0
    7.6666   24.1124    3.9284 H   0  0  0  0  0
   10.2124   25.5860    4.4858 H   0  0  0  0  0
    8.0246   25.1175    6.5415 H   0  0  0  0  0
    7.2698   26.4670    4.7852 H   0  0  0  0  0
   10.3531   27.0648    6.4742 H   0  0  0  0  0
    9.1550   26.8997    7.7812 H   0  0  0  0  0
   10.2741   25.5612    7.4250 H   0  0  0  0  0
   11.7978   24.5423    5.5263 H   0  0  0  0  0
   11.4652   21.6648    5.8523 H   0  0  0  0  0
   13.9051   23.3740    6.4506 H   0  0  0  0  0
   13.5009   22.6526    4.8255 H   0  0  0  0  0
   13.6205   20.4266    5.8748 H   0  0  0  0  0
   14.2398   21.2368    7.3848 H   0  0  0  0  0
   15.7636   22.9834    6.0142 H   0  0  0  0  0
   11.3439   20.4870    7.6097 H   0  0  0  0  0
   11.8384   21.8274   10.2331 H   0  0  0  0  0
   12.9528   19.7011    8.2640 H   0  0  0  0  0
   10.1466   20.3759   11.2744 H   0  0  0  0  0
    9.5597   22.6517   10.6054 H   0  0  0  0  0
    9.1116   22.0756    8.9811 H   0  0  0  0  0
    8.1669   21.5612   10.4004 H   0  0  0  0  0
    9.4569   19.5501    8.4317 H   0  0  0  0  0
   10.1479   18.5075    9.6992 H   0  0  0  0  0
    8.5036   19.1651    9.8857 H   0  0  0  0  0
  1  2  1  0  0  0
  2  3  1  0  0  0
  3  4  2  0  0  0
  3  5  1  0  0  0
  5  6  1  0  0  0
  6  7  1  0  0  0
  6  9  1  0  0  0
  7  8  2  0  0  0
  7 12  1  0  0  0
  9 10  1  0  0  0
  9 11  1  0  0  0
 12 13  1  0  0  0
 13 14  1  0  0  0
 13 16  1  0  0  0
 14 15  2  0  0  0
 14 21  1  0  0  0
 16 17  1  0  0  0
 17 18  1  0  0  0
 18 19  1  0  0  0
 18 20  2  0  0  0
 21 22  1  0  0  0
 22 23  1  0  0  0
 22 25  1  0  0  0
 23 24  1  0  0  0
 23 28  2  0  0  0
 25 26  1  0  0  0
 25 27  1  0  0  0
  1 29  1  0  0  0
  1 30  1  0  0  0
  1 31  1  0  0  0
  2 32  1  0  0  0
  2 33  1  0  0  0
  5 34  1  0  0  0
  6 35  1  0  0  0
  9 36  1  0  0  0
 10 37  1  0  0  0
 11 38  1  0  0  0
 11 39  1  0  0  0
 11 40  1  0  0  0
 12 41  1  0  0  0
 13 42  1  0  0  0
 16 43  1  0  0  0
 16 44  1  0  0  0
 17 45  1  0  0  0
 17 46  1  0  0  0
 19 47  1  0  0  0
 21 48  1  0  0  0
 22 49  1  0  0  0
 24 50  1  0  0  0
 25 51  1  0  0  0
 26 52  1  0  0  0
 26 53  1  0  0  0
 26 54  1  0  0  0
 27 55  1  0  0  0
 27 56  1  0  0  0
 27 57  1  0  0  0
M  END
$$$$
