2qfo_ligand
  -I-interpret- 

 18 18  0  0  0  0  0  0  0  0999 V2000
    3.7970   34.4890   51.0460 C   0  0  0  0  0
    2.3320   34.1810   50.7500 C   0  0  0  0  0
    2.1180   33.4950   49.4390 C   0  0  0  0  0
    3.1850   33.2100   48.6380 N   0  0  0  0  0
    4.4230   33.5490   49.0330 C   0  0  0  0  0
    4.7820   34.1590   50.1800 N   0  0  0  0  0
    5.3960   33.2370   48.1900 N   0  0  0  0  0
    4.1920   35.1710   52.3280 C   0  0  0  0  0
    0.7200   33.1180   48.9980 C   0  0  0  0  0
    0.6900   31.7980   48.9320 F   0  0  0  0  0
    0.5120   33.6560   47.8110 F   0  0  0  0  0
   -0.1440   33.5330   49.9030 F   0  0  0  0  0
    1.5191   34.4368   51.4296 H   0  0  0  0  0
    5.1779   32.7706   47.3095 H   0  0  0  0  0
    6.3633   33.4631   48.4214 H   0  0  0  0  0
    3.7066   36.1454   52.3842 H   0  0  0  0  0
    3.8805   34.5591   53.1745 H   0  0  0  0  0
    5.2740   35.3008   52.3506 H   0  0  0  0  0
  1  2  4  0  0  0
  1  6  4  0  0  0
  1  8  1  0  0  0
  2  3  4  0  0  0
  3  4  4  0  0  0
  3  9  1  0  0  0
  4  5  4  0  0  0
  5  6  4  0  0  0
  5  7  1  0  0  0
  9 10  1  0  0  0
  9 11  1  0  0  0
  9 12  1  0  0  0
  2 13  1  0  0  0
  7 14  1  0  0  0
  7 15  1  0  0  0
  8 16  1  0  0  0
  8 17  1  0  0  0
  8 18  1  0  0  0
M  END
$$$$
