4io2_ligand
  -I-interpret- 

 20 19  0  0  0  0  0  0  0  0999 V2000
    3.6670   49.1320   -7.6020 N   0  3  0  0  0
    3.3770   50.5660   -7.6900 C   0  0  0  0  0
    1.9610   50.8490   -7.1950 C   0  0  0  0  0
    1.1660   49.8860   -7.0410 O   0  0  0  0  0
    3.5300   51.1110   -9.1130 C   0  0  0  0  0
    4.9010   50.9140   -9.7700 C   0  0  0  0  0
    6.0410   51.7470   -9.1850 C   0  0  0  0  0
    5.7730   52.6010   -8.3420 O   0  0  0  0  0
    7.2010   51.5800   -9.6460 O   0  0  0  0  0
    1.6400   52.0340   -6.9430 O   0  0  0  0  0
    3.5507   48.8214   -6.6374 H   0  0  0  0  0
    3.0246   48.6188   -8.2055 H   0  0  0  0  0
    4.6268   48.9614   -7.9020 H   0  0  0  0  0
    4.1069   51.0726   -7.0586 H   0  0  0  0  0
    1.6039   49.0683   -7.2884 H   0  0  0  0  0
    3.3776   52.1881   -9.0443 H   0  0  0  0  0
    2.8165   50.5619   -9.7274 H   0  0  0  0  0
    4.7931   51.2245  -10.8092 H   0  0  0  0  0
    5.1706   49.8693   -9.6151 H   0  0  0  0  0
    7.1894   50.8661  -10.2877 H   0  0  0  0  0
  1  2  1  0  0  0
  2  3  1  0  0  0
  2  5  1  0  0  0
  3  4  1  0  0  0
  3 10  2  0  0  0
  5  6  1  0  0  0
  6  7  1  0  0  0
  7  8  2  0  0  0
  7  9  1  0  0  0
  1 11  1  0  0  0
  1 12  1  0  0  0
  1 13  1  0  0  0
  2 14  1  0  0  0
  4 15  1  0  0  0
  5 16  1  0  0  0
  5 17  1  0  0  0
  6 18  1  0  0  0
  6 19  1  0  0  0
  9 20  1  0  0  0
M  END
$$$$
