5f2p_ligand
  -I-interpret- 

 27 28  0  0  0  0  0  0  0  0999 V2000
  -24.8580   -5.3800  -10.6410 C   0  0  0  0  0
  -25.5750   -4.1150  -10.6180 C   0  0  0  0  0
  -22.8780   -6.6530  -10.4330 C   0  0  0  0  0
  -22.8510   -1.6820  -10.0450 C   0  0  0  0  0
  -27.0040   -8.7940  -11.2830 C   0  0  0  0  0
  -23.4720   -5.3910  -10.4290 C   0  0  0  0  0
  -22.7590   -4.1180  -10.2210 C   0  0  0  0  0
  -24.8690   -7.6710  -10.8450 C   0  0  0  0  0
  -25.5680   -6.5090  -10.8450 N   0  0  0  0  0
  -23.5390   -2.9590  -10.2400 N   0  0  0  0  0
  -23.5390   -7.7960  -10.6520 N   0  0  0  0  0
  -24.8960   -2.9800  -10.4450 C   0  0  0  0  0
  -25.5670   -8.8110  -11.0440 N   0  0  0  0  0
  -21.5560   -4.0480  -10.0400 O   0  0  0  0  0
  -24.9130  -10.1110  -11.0600 C   0  0  0  0  0
  -26.6578   -4.0945  -10.7411 H   0  0  0  0  0
  -21.8059   -6.7122  -10.2456 H   0  0  0  0  0
  -22.3553   -1.6823   -9.0742 H   0  0  0  0  0
  -22.1100   -1.5460  -10.8327 H   0  0  0  0  0
  -23.5771   -0.8700  -10.0834 H   0  0  0  0  0
  -27.5077   -8.3403  -10.4294 H   0  0  0  0  0
  -27.2148   -8.2138  -12.1814 H   0  0  0  0  0
  -27.3609   -9.8152  -11.4164 H   0  0  0  0  0
  -25.4385   -2.0348  -10.4672 H   0  0  0  0  0
  -24.1693  -10.1324  -11.8566 H   0  0  0  0  0
  -24.4247  -10.2825  -10.1007 H   0  0  0  0  0
  -25.6568  -10.8884  -11.2347 H   0  0  0  0  0
  1  2  1  0  0  0
  1  6  4  0  0  0
  9  1  4  0  0  0
  2 12  2  0  0  0
  3  6  4  0  0  0
 11  3  4  0  0  0
 10  4  1  0  0  0
 13  5  1  0  0  0
  6  7  1  0  0  0
  7 10  1  0  0  0
  7 14  2  0  0  0
  8  9  4  0  0  0
  8 11  4  0  0  0
  8 13  1  0  0  0
 10 12  1  0  0  0
 13 15  1  0  0  0
  2 16  1  0  0  0
  3 17  1  0  0  0
  4 18  1  0  0  0
  4 19  1  0  0  0
  4 20  1  0  0  0
  5 21  1  0  0  0
  5 22  1  0  0  0
  5 23  1  0  0  0
 12 24  1  0  0  0
 15 25  1  0  0  0
 15 26  1  0  0  0
 15 27  1  0  0  0
M  END
$$$$
