4dq2_ligand
  -I-interpret- 

 65 69  0  0  0  0  0  0  0  0999 V2000
   53.2020   18.0870   17.6130 P   0  0  0  0  0
   52.9700   18.7140   16.3100 O   0  0  0  0  0
   54.2500   17.0150   17.8030 O   0  0  0  0  0
   54.0190   19.0330   18.5860 O   0  0  0  0  0
   53.7860   20.3090   18.9060 C   0  0  0  0  0
   54.9740   21.2160   18.8090 C   0  0  0  0  0
   54.2460   22.4780   19.0250 O   0  0  0  0  0
   56.0600   21.2070   19.8240 C   0  0  0  0  0
   57.3170   20.7970   19.3340 O   0  0  0  0  0
   56.2580   22.7010   20.0690 C   0  0  0  0  0
   56.8320   23.3090   18.9220 O   0  0  0  0  0
   54.8930   23.3350   19.9460 C   0  0  0  0  0
   54.0490   23.3010   21.1660 N   0  0  0  0  0
   54.2280   22.5970   22.2970 C   0  0  0  0  0
   53.2130   22.9260   23.1060 N   0  0  0  0  0
   52.3990   23.7970   22.4950 C   0  0  0  0  0
   51.1930   24.5120   22.8610 C   0  0  0  0  0
   50.5630   24.3720   24.0410 N   0  0  0  0  0
   50.6770   25.3630   21.9870 N   0  0  0  0  0
   51.2550   25.6680   20.7070 C   0  0  0  0  0
   52.4630   24.9630   20.4420 N   0  0  0  0  0
   52.9530   24.0510   21.2730 C   0  0  0  0  0
   50.4050   17.4520   18.1000 C   0  0  0  0  0
   51.8590   17.6360   18.3940 O   0  0  0  0  0
   49.9500   17.0980   19.2330 C   0  0  0  0  0
   49.5270   16.6980   20.3720 C   0  0  0  0  0
   48.3150   16.9360   21.1550 C   0  0  0  0  0
   48.6560   16.9320   22.6470 C   0  0  0  0  0
   47.4270   16.4520   23.3900 C   0  0  0  0  0
   47.2630   17.2930   24.9230 S   0  0  0  0  0
   46.1310   15.9910   25.2390 C   0  0  0  0  0
   46.8140   14.6830   24.8870 C   0  0  0  0  0
   47.8070   14.2410   25.8400 N   0  0  0  0  0
   49.0630   14.2890   25.3630 C   0  0  0  0  0
   50.1070   13.9320   26.0200 O   0  0  0  0  0
   49.0410   14.8460   24.1110 N   0  0  0  0  0
   47.6630   14.9790   23.6430 C   0  0  0  0  0
   54.2519   16.7298   18.7197 H   0  0  0  0  0
   53.4689   20.3180   19.9488 H   0  0  0  0  0
   53.0485   20.6810   18.1949 H   0  0  0  0  0
   55.5352   20.9689   17.9078 H   0  0  0  0  0
   55.7846   20.5494   20.6485 H   0  0  0  0  0
   57.2946   19.8557   19.1466 H   0  0  0  0  0
   56.8151   22.8164   20.9987 H   0  0  0  0  0
   56.9527   24.2473   19.0852 H   0  0  0  0  0
   55.0157   24.3880   19.6924 H   0  0  0  0  0
   55.0368   21.8987   22.5123 H   0  0  0  0  0
   50.9318   23.7306   24.7431 H   0  0  0  0  0
   49.7164   24.9072   24.2338 H   0  0  0  0  0
   50.8101   26.3731   20.0049 H   0  0  0  0  0
   50.2123   16.7253   17.3107 H   0  0  0  0  0
   49.9276   18.3480   17.7034 H   0  0  0  0  0
   49.2715   17.9509   19.2538 H   0  0  0  0  0
   50.2278   16.0290   20.8715 H   0  0  0  0  0
   47.5904   16.1485   20.9478 H   0  0  0  0  0
   47.8934   17.9037   20.8832 H   0  0  0  0  0
   48.9366   17.9320   22.9778 H   0  0  0  0  0
   49.5029   16.2747   22.8439 H   0  0  0  0  0
   46.5175   16.6368   22.8184 H   0  0  0  0  0
   45.2304   16.1199   24.6386 H   0  0  0  0  0
   45.8373   15.9928   26.2887 H   0  0  0  0  0
   46.0254   13.9349   24.8063 H   0  0  0  0  0
   47.5773   13.9239   26.7818 H   0  0  0  0  0
   49.8668   15.1270   23.5824 H   0  0  0  0  0
   47.4519   14.3566   22.7734 H   0  0  0  0  0
  1  2  2  0  0  0
  1  3  1  0  0  0
  1  4  1  0  0  0
  1 24  1  0  0  0
  4  5  1  0  0  0
  5  6  1  0  0  0
  6  7  1  0  0  0
  6  8  1  0  0  0
  7 12  1  0  0  0
  8  9  1  0  0  0
  8 10  1  0  0  0
 10 11  1  0  0  0
 10 12  1  0  0  0
 12 13  1  0  0  0
 13 14  4  0  0  0
 13 22  4  0  0  0
 14 15  4  0  0  0
 15 16  4  0  0  0
 16 17  4  0  0  0
 16 22  4  0  0  0
 17 18  1  0  0  0
 17 19  4  0  0  0
 19 20  4  0  0  0
 20 21  4  0  0  0
 21 22  4  0  0  0
 24 23  1  0  0  0
 23 25  1  0  0  0
 25 26  2  0  0  0
 26 27  1  0  0  0
 27 28  1  0  0  0
 28 29  1  0  0  0
 29 30  1  0  0  0
 29 37  1  0  0  0
 30 31  1  0  0  0
 31 32  1  0  0  0
 32 33  1  0  0  0
 32 37  1  0  0  0
 33 34  1  0  0  0
 34 35  2  0  0  0
 34 36  1  0  0  0
 36 37  1  0  0  0
  3 38  1  0  0  0
  5 39  1  0  0  0
  5 40  1  0  0  0
  6 41  1  0  0  0
  8 42  1  0  0  0
  9 43  1  0  0  0
 10 44  1  0  0  0
 11 45  1  0  0  0
 12 46  1  0  0  0
 14 47  1  0  0  0
 18 48  1  0  0  0
 18 49  1  0  0  0
 20 50  1  0  0  0
 23 51  1  0  0  0
 23 52  1  0  0  0
 25 53  1  0  0  0
 26 54  1  0  0  0
 27 55  1  0  0  0
 27 56  1  0  0  0
 28 57  1  0  0  0
 28 58  1  0  0  0
 29 59  1  0  0  0
 31 60  1  0  0  0
 31 61  1  0  0  0
 32 62  1  0  0  0
 33 63  1  0  0  0
 36 64  1  0  0  0
 37 65  1  0  0  0
M  END
$$$$
