4ufu_ligand
  -I-interpret- 

 33 35  0  0  0  0  0  0  0  0999 V2000
  -37.4670  -11.2430   13.0250 N   0  0  0  0  0
  -38.2510  -12.0230   12.1430 C   0  0  0  0  0
  -39.0940  -12.9630   12.6430 N   0  0  0  0  0
  -39.1910  -13.1430   14.0000 C   0  0  0  0  0
  -38.3980  -12.3790   14.9110 C   0  0  0  0  0
  -37.5190  -11.4080   14.4000 C   0  0  0  0  0
  -36.7450  -10.6990   15.0710 O   0  0  0  0  0
  -38.4160   -9.5450    6.2900 F   0  0  0  0  0
  -39.2230  -11.5180    5.7970 F   0  0  0  0  0
  -37.1870  -11.1690    5.9360 F   0  0  0  0  0
  -38.7740  -12.6430    9.8050 C   0  0  0  0  0
  -37.6930  -10.5340   10.2420 C   0  0  0  0  0
  -38.7900  -12.3130    8.4250 C   0  0  0  0  0
  -37.7240  -10.2260    8.8760 C   0  0  0  0  0
  -40.8270  -14.9040   13.5840 C   0  0  0  0  0
  -40.0570  -14.1430   14.4810 C   0  0  0  0  0
  -38.5220  -12.5980   16.2820 C   0  0  0  0  0
  -38.1950  -11.7630   10.7460 C   0  0  0  0  0
  -38.2610  -11.1220    7.9360 C   0  0  0  0  0
  -38.2610  -10.8270    6.4880 C   0  0  0  0  0
  -40.1700  -14.3600   15.8640 C   0  0  0  0  0
  -39.4120  -13.5770   16.7510 C   0  0  0  0  0
  -36.8430  -10.5360   12.6362 H   0  0  0  0  0
  -39.2119  -13.5828   10.1415 H   0  0  0  0  0
  -37.2713   -9.8093   10.9384 H   0  0  0  0  0
  -39.2330  -13.0183    7.7218 H   0  0  0  0  0
  -37.3233   -9.2714    8.5350 H   0  0  0  0  0
  -41.4810  -14.2421   13.0164 H   0  0  0  0  0
  -40.1656  -15.4368   12.9008 H   0  0  0  0  0
  -41.4293  -15.6211   14.1419 H   0  0  0  0  0
  -37.9311  -12.0122   16.9861 H   0  0  0  0  0
  -40.8404  -15.1297   16.2463 H   0  0  0  0  0
  -39.5172  -13.7329   17.8247 H   0  0  0  0  0
  2  1  1  0  0  0
  1  6  1  0  0  0
  2  3  2  0  0  0
 18  2  1  0  0  0
  3  4  1  0  0  0
  4  5  4  0  0  0
  4 16  4  0  0  0
  6  5  1  0  0  0
  5 17  4  0  0  0
  6  7  2  0  0  0
 20  8  1  0  0  0
 20  9  1  0  0  0
 20 10  1  0  0  0
 13 11  4  0  0  0
 11 18  4  0  0  0
 14 12  4  0  0  0
 12 18  4  0  0  0
 19 13  4  0  0  0
 19 14  4  0  0  0
 16 15  1  0  0  0
 16 21  4  0  0  0
 17 22  4  0  0  0
 19 20  1  0  0  0
 21 22  4  0  0  0
  1 23  1  0  0  0
 11 24  1  0  0  0
 12 25  1  0  0  0
 13 26  1  0  0  0
 14 27  1  0  0  0
 15 28  1  0  0  0
 15 29  1  0  0  0
 15 30  1  0  0  0
 17 31  1  0  0  0
 21 32  1  0  0  0
 22 33  1  0  0  0
M  END
$$$$
