1nu3_ligand
  -I-interpret- 

 27 26  0  0  0  0  0  0  0  0999 V2000
   15.7670   21.0810    5.8720 C   0  0  0  0  0
   16.5030   21.7220    6.9990 C   0  0  0  0  0
   15.7100   21.9580    8.2650 C   0  0  0  0  0
   16.0740   23.2290    9.0290 C   0  0  0  0  0
   17.5730   23.4160    9.1660 C   0  0  0  0  0
   17.8810   24.6710    9.9690 C   0  0  0  0  0
   19.2900   25.2080    9.8090 C   0  0  0  0  0
   15.3560   23.3260   10.3780 C   0  0  0  0  0
   15.7980   22.7500   11.5260 N   0  0  0  0  0
   14.3600   24.0210   10.4190 O   0  0  0  0  0
   15.4033   20.1029    6.1869 H   0  0  0  0  0
   14.9232   21.7093    5.5867 H   0  0  0  0  0
   16.4383   20.9638    5.0213 H   0  0  0  0  0
   16.8084   22.7059    6.6430 H   0  0  0  0  0
   17.3072   21.0367    7.2666 H   0  0  0  0  0
   15.9225   21.1204    8.9294 H   0  0  0  0  0
   14.6662   22.0584    7.9676 H   0  0  0  0  0
   15.7125   24.0598    8.4231 H   0  0  0  0  0
   18.0103   23.5146    8.1724 H   0  0  0  0  0
   17.9922   22.5527    9.6827 H   0  0  0  0  0
   17.7633   24.4075   11.0201 H   0  0  0  0  0
   17.2066   25.4476    9.6082 H   0  0  0  0  0
   20.0049   24.4499   10.1290 H   0  0  0  0  0
   19.4661   25.4565    8.7624 H   0  0  0  0  0
   19.4083   26.1022   10.4210 H   0  0  0  0  0
   15.2959   22.9045   12.4003 H   0  0  0  0  0
   16.6320   22.1629   11.5138 H   0  0  0  0  0
  1  2  1  0  0  0
  2  3  1  0  0  0
  3  4  1  0  0  0
  4  5  1  0  0  0
  4  8  1  0  0  0
  5  6  1  0  0  0
  6  7  1  0  0  0
  8  9  1  0  0  0
  8 10  2  0  0  0
  1 11  1  0  0  0
  1 12  1  0  0  0
  1 13  1  0  0  0
  2 14  1  0  0  0
  2 15  1  0  0  0
  3 16  1  0  0  0
  3 17  1  0  0  0
  4 18  1  0  0  0
  5 19  1  0  0  0
  5 20  1  0  0  0
  6 21  1  0  0  0
  6 22  1  0  0  0
  7 23  1  0  0  0
  7 24  1  0  0  0
  7 25  1  0  0  0
  9 26  1  0  0  0
  9 27  1  0  0  0
M  END
$$$$
