3pn3_ligand
  -I-interpret- 

 43 43  0  0  0  0  0  0  0  0999 V2000
    1.1440    5.7410   38.2310 C   0  0  0  0  0
    1.3750    6.2520   39.4640 O   0  0  0  0  0
    2.1160    5.7250   37.3290 N   0  0  0  0  0
    3.3360    6.2480   37.6520 O   0  0  0  0  0
    1.8930    5.1710   35.9930 C   0  0  0  0  0
    2.6340    3.8460   35.8450 C   0  0  0  0  0
    2.5910    3.3630   34.3940 C   0  0  0  0  0
    3.4340    2.0900   34.2410 C   0  0  0  0  0
    4.8140    2.2030   34.0670 C   0  0  0  0  0
    5.6010    1.0610   33.9290 C   0  0  0  0  0
    5.0040   -0.2030   33.9630 C   0  0  0  0  0
    3.6240   -0.3180   34.1380 C   0  0  0  0  0
    2.8370    0.8250   34.2780 C   0  0  0  0  0
    2.0150    2.7950   36.6510 N   0  0  0  0  0
    2.5190    2.3800   37.7980 C   0  0  0  0  0
    3.6160    2.9490   38.3470 O   0  0  0  0  0
    1.8530    1.3740   38.4180 O   0  0  0  0  0
    2.5730    0.3520   39.1530 C   0  0  0  0  0
    2.9430    0.8770   40.5430 C   0  0  0  0  0
    1.5720   -0.7930   39.2780 C   0  0  0  0  0
    3.8170   -0.1360   38.4080 C   0  0  0  0  0
    0.1605    5.3435   37.9805 H   0  0  0  0  0
    3.3168    6.5666   38.5574 H   0  0  0  0  0
    2.2646    5.8740   35.2475 H   0  0  0  0  0
    0.8258    5.0022   35.8492 H   0  0  0  0  0
    3.6576    4.0272   36.1727 H   0  0  0  0  0
    2.9935    4.1405   33.7446 H   0  0  0  0  0
    1.5591    3.1457   34.1183 H   0  0  0  0  0
    5.2784    3.1887   34.0389 H   0  0  0  0  0
    6.6788    1.1529   33.7950 H   0  0  0  0  0
    5.6161   -1.0982   33.8529 H   0  0  0  0  0
    3.1600   -1.3039   34.1653 H   0  0  0  0  0
    1.7597    0.7331   34.4159 H   0  0  0  0  0
    1.1554    2.3633   36.3118 H   0  0  0  0  0
    3.5737    1.7601   40.4404 H   0  0  0  0  0
    2.0342    1.1389   41.0848 H   0  0  0  0  0
    3.4836    0.1044   41.0898 H   0  0  0  0  0
    0.6900   -0.4457   39.8162 H   0  0  0  0  0
    1.2824   -1.1310   38.2830 H   0  0  0  0  0
    2.0311   -1.6173   39.8238 H   0  0  0  0  0
    3.5216   -0.5571   37.4470 H   0  0  0  0  0
    4.4942    0.7026   38.2459 H   0  0  0  0  0
    4.3184   -0.8999   39.0022 H   0  0  0  0  0
  1  2  2  0  0  0
  1  3  1  0  0  0
  3  4  1  0  0  0
  3  5  1  0  0  0
  5  6  1  0  0  0
  6  7  1  0  0  0
  6 14  1  0  0  0
  7  8  1  0  0  0
  8  9  4  0  0  0
  8 13  4  0  0  0
  9 10  4  0  0  0
 10 11  4  0  0  0
 11 12  4  0  0  0
 12 13  4  0  0  0
 14 15  1  0  0  0
 15 16  2  0  0  0
 15 17  1  0  0  0
 17 18  1  0  0  0
 18 19  1  0  0  0
 18 20  1  0  0  0
 18 21  1  0  0  0
  1 22  1  0  0  0
  4 23  1  0  0  0
  5 24  1  0  0  0
  5 25  1  0  0  0
  6 26  1  0  0  0
  7 27  1  0  0  0
  7 28  1  0  0  0
  9 29  1  0  0  0
 10 30  1  0  0  0
 11 31  1  0  0  0
 12 32  1  0  0  0
 13 33  1  0  0  0
 14 34  1  0  0  0
 19 35  1  0  0  0
 19 36  1  0  0  0
 19 37  1  0  0  0
 20 38  1  0  0  0
 20 39  1  0  0  0
 20 40  1  0  0  0
 21 41  1  0  0  0
 21 42  1  0  0  0
 21 43  1  0  0  0
M  END
$$$$
