2tpi_ligand
  -I-interpret- 

 39 38  0  0  0  0  0  0  0  0999 V2000
   18.8070   65.5860   12.6500 N   0  3  0  0  0
   19.7550   64.7920   13.4380 C   0  0  0  0  0
   21.1160   64.7600   12.7360 C   0  0  0  0  0
   21.2070   64.2830   11.5750 O   0  0  0  0  0
   19.2670   63.3180   13.6020 C   0  0  0  0  0
   17.8730   63.1280   14.2140 C   0  0  0  0  0
   20.2800   62.4390   14.3650 C   0  0  0  0  0
   17.8840   63.3290   15.7380 C   0  0  0  0  0
   22.1570   65.2440   13.4020 N   0  0  0  0  0
   23.5480   65.1770   12.9100 C   0  0  0  0  0
   24.3560   64.0890   13.6030 C   0  0  0  0  0
   24.1360   63.8290   14.8180 O   0  0  0  0  0
   24.2720   66.5240   13.0360 C   0  0  0  0  0
   23.6580   67.4450   14.1070 C   0  0  0  0  0
   25.7680   66.3410   13.2400 C   0  0  0  0  0
   24.8240   63.1690   12.8860 O   0  0  0  0  0
   19.1553   66.5407   12.5624 H   0  0  0  0  0
   18.7075   65.1727   11.7228 H   0  0  0  0  0
   17.9010   65.5950   13.1185 H   0  0  0  0  0
   19.8328   65.2588   14.4199 H   0  0  0  0  0
   19.1875   62.9887   12.5660 H   0  0  0  0  0
   17.5442   62.1098   14.0058 H   0  0  0  0  0
   17.2037   63.8686   13.7763 H   0  0  0  0  0
   20.2971   62.7339   15.4142 H   0  0  0  0  0
   19.9841   61.3930   14.2850 H   0  0  0  0  0
   21.2719   62.5714   13.9329 H   0  0  0  0  0
   18.5593   62.6049   16.1938 H   0  0  0  0  0
   18.2236   64.3390   15.9675 H   0  0  0  0  0
   16.8769   63.1851   16.1294 H   0  0  0  0  0
   21.9868   65.6873   14.3047 H   0  0  0  0  0
   23.4740   64.9238   11.8524 H   0  0  0  0  0
   23.7825   64.6089   15.2520 H   0  0  0  0  0
   24.1278   67.0340   12.0835 H   0  0  0  0  0
   22.6182   67.6518   13.8537 H   0  0  0  0  0
   23.7057   66.9527   15.0783 H   0  0  0  0  0
   24.2171   68.3799   14.1442 H   0  0  0  0  0
   25.9419   65.7705   14.1523 H   0  0  0  0  0
   26.1865   65.8040   12.3888 H   0  0  0  0  0
   26.2440   67.3179   13.3246 H   0  0  0  0  0
  3  2  1  0  0  0
  2  5  1  0  0  0
  2  1  1  0  0  0
  5  6  1  0  0  0
  5  7  1  0  0  0
  6  8  1  0  0  0
  3  4  2  0  0  0
 10 11  1  0  0  0
 10 13  1  0  0  0
  9 10  1  0  0  0
 13 14  1  0  0  0
 13 15  1  0  0  0
 11 16  2  0  0  0
 11 12  1  0  0  0
  3  9  1  0  0  0
  1 17  1  0  0  0
  1 18  1  0  0  0
  1 19  1  0  0  0
  2 20  1  0  0  0
  5 21  1  0  0  0
  6 22  1  0  0  0
  6 23  1  0  0  0
  7 24  1  0  0  0
  7 25  1  0  0  0
  7 26  1  0  0  0
  8 27  1  0  0  0
  8 28  1  0  0  0
  8 29  1  0  0  0
  9 30  1  0  0  0
 10 31  1  0  0  0
 12 32  1  0  0  0
 13 33  1  0  0  0
 14 34  1  0  0  0
 14 35  1  0  0  0
 14 36  1  0  0  0
 15 37  1  0  0  0
 15 38  1  0  0  0
 15 39  1  0  0  0
M  END
$$$$
