6jaw_ligand
  -I-interpret- 

 50 53  0  0  0  0  0  0  0  0999 V2000
  -10.3060    9.9430    1.5320 C   0  0  0  0  0
  -14.2410   12.3730    3.3850 C   0  0  0  0  0
  -16.0940   12.3270    5.0820 C   0  0  0  0  0
  -19.3740   13.8080    4.3800 C   0  0  0  0  0
   -8.9340    9.7360    1.4460 C   0  0  0  0  0
   -8.0480   10.5180    2.1970 C   0  0  0  0  0
   -8.5400   11.5130    3.0410 C   0  0  0  0  0
   -7.6890   12.3210    3.8120 C   0  0  0  0  0
   -8.2420   13.3070    4.6420 C   0  0  0  0  0
   -9.6030   13.5030    4.7230 C   0  0  0  0  0
  -10.4220   12.7170    3.9720 C   0  0  0  0  0
   -9.9060   11.7180    3.1270 C   0  0  0  0  0
  -10.7830   10.9260    2.3650 C   0  0  0  0  0
  -12.2880   11.1470    2.4600 C   0  0  0  0  0
  -11.9210   12.9380    4.0640 C   0  0  0  0  0
  -15.0080   11.5000    4.3790 C   0  0  0  0  0
  -18.3640   12.6540    4.4600 C   0  0  0  0  0
  -17.6290   15.0970    5.3150 C   0  0  0  0  0
  -16.7520   14.4680    4.2420 C   0  0  0  0  0
  -12.8090   12.1420    3.3110 N   0  3  0  0  0
  -16.9800   13.0250    4.1560 N   0  3  0  0  0
  -13.1520   10.3560    1.7070 O   0  0  0  0  0
  -12.4130   13.9340    4.9070 O   0  0  0  0  0
  -18.9710   15.0300    4.9430 O   0  0  0  0  0
  -10.9942    9.3335    0.9463 H   0  0  0  0  0
  -14.3689   13.4028    3.7185 H   0  0  0  0  0
  -14.6410   12.1388    2.3985 H   0  0  0  0  0
  -15.5922   13.0809    5.6886 H   0  0  0  0  0
  -16.7049   11.6388    5.6661 H   0  0  0  0  0
  -20.2471   13.4863    4.9477 H   0  0  0  0  0
  -19.5305   14.0005    3.3186 H   0  0  0  0  0
   -8.5448    8.9586    0.7886 H   0  0  0  0  0
   -6.9738   10.3490    2.1219 H   0  0  0  0  0
   -6.6087   12.1832    3.7659 H   0  0  0  0  0
   -7.5784   13.9337    5.2377 H   0  0  0  0  0
  -10.0159   14.2723    5.3756 H   0  0  0  0  0
  -11.8932   12.1554    2.3364 H   0  0  0  0  0
  -12.3816   12.5521    3.1546 H   0  0  0  0  0
  -14.3136   11.1144    5.1255 H   0  0  0  0  0
  -15.4782   10.6762    3.8420 H   0  0  0  0  0
  -18.6650   11.9184    3.7141 H   0  0  0  0  0
  -18.3760   12.2944    5.4889 H   0  0  0  0  0
  -17.3456   16.1422    5.4389 H   0  0  0  0  0
  -17.4913   14.5547    6.2504 H   0  0  0  0  0
  -15.7070   14.6418    4.4989 H   0  0  0  0  0
  -16.9990   14.9185    3.2807 H   0  0  0  0  0
  -13.2794   11.5333    3.9808 H   0  0  0  0  0
  -16.7854   12.7528    3.1924 H   0  0  0  0  0
  -14.0586   10.6204    1.8797 H   0  0  0  0  0
  -13.3715   13.9503    4.8558 H   0  0  0  0  0
  1  5  4  0  0  0
 13  1  4  0  0  0
 16  2  1  0  0  0
  2 20  1  0  0  0
  3 16  1  0  0  0
 21  3  1  0  0  0
  4 17  1  0  0  0
 24  4  1  0  0  0
  5  6  4  0  0  0
  7  6  4  0  0  0
  7  8  4  0  0  0
 12  7  4  0  0  0
  9  8  4  0  0  0
 10  9  4  0  0  0
 11 10  4  0  0  0
 11 12  4  0  0  0
 15 11  1  0  0  0
 13 12  4  0  0  0
 14 13  1  0  0  0
 20 14  1  0  0  0
 14 22  1  0  0  0
 20 15  1  0  0  0
 15 23  1  0  0  0
 17 21  1  0  0  0
 18 19  1  0  0  0
 18 24  1  0  0  0
 19 21  1  0  0  0
  1 25  1  0  0  0
  2 26  1  0  0  0
  2 27  1  0  0  0
  3 28  1  0  0  0
  3 29  1  0  0  0
  4 30  1  0  0  0
  4 31  1  0  0  0
  5 32  1  0  0  0
  6 33  1  0  0  0
  8 34  1  0  0  0
  9 35  1  0  0  0
 10 36  1  0  0  0
 14 37  1  0  0  0
 15 38  1  0  0  0
 16 39  1  0  0  0
 16 40  1  0  0  0
 17 41  1  0  0  0
 17 42  1  0  0  0
 18 43  1  0  0  0
 18 44  1  0  0  0
 19 45  1  0  0  0
 19 46  1  0  0  0
 20 47  1  0  0  0
 21 48  1  0  0  0
 22 49  1  0  0  0
 23 50  1  0  0  0
M  END
$$$$
