3vjl_ligand
  -I-interpret- 

 63 67  0  0  0  0  0  0  0  0999 V2000
   48.1160   62.4730   34.7320 C   0  0  0  0  0
   48.2800   61.1910   35.2670 C   0  0  0  0  0
   46.9900   60.6670   35.2180 C   0  0  0  0  0
   46.0430   61.4730   34.7230 N   0  0  0  0  0
   46.8100   62.5920   34.4190 N   0  0  0  0  0
   46.1870   63.6490   33.9070 C   0  0  0  0  0
   44.9720   64.0700   34.4750 C   0  0  0  0  0
   44.2490   65.1660   34.0060 C   0  0  0  0  0
   44.7460   65.8740   32.9180 C   0  0  0  0  0
   45.9500   65.4790   32.3290 C   0  0  0  0  0
   46.6530   64.3790   32.8130 C   0  0  0  0  0
   46.6050   59.2910   35.6730 C   0  0  0  0  0
   45.3750   59.3620   36.1890 F   0  0  0  0  0
   47.4760   58.8570   36.5820 F   0  0  0  0  0
   46.6050   58.4970   34.6050 F   0  0  0  0  0
   49.3330   63.3470   34.6410 C   0  0  0  0  0
   50.2120   63.1730   35.8770 C   0  0  0  0  0
   51.4290   64.1020   35.8460 C   0  0  0  0  0
   52.1600   63.8600   34.6010 N   0  3  0  0  0
   51.4010   64.0330   33.3440 C   0  0  0  0  0
   50.1760   63.1060   33.3840 C   0  0  0  0  0
   53.4300   64.6120   34.6170 C   0  0  0  0  0
   54.3410   64.2110   35.7880 C   0  0  0  0  0
   55.7290   64.6790   35.3460 C   0  0  0  0  0
   55.6550   64.5940   33.8980 N   0  3  0  0  0
   54.3160   64.3130   33.4090 C   0  0  0  0  0
   56.8600   63.8620   35.9380 C   0  0  0  0  0
   57.4120   64.2940   37.0690 N   0  0  0  0  0
   56.9320   65.5080   37.7270 C   0  0  0  0  0
   57.5080   65.6500   39.1110 C   0  0  0  0  0
   58.5700   64.2740   39.4110 S   0  0  0  0  0
   58.5180   63.5970   37.7430 C   0  0  0  0  0
   57.2630   62.8570   35.3700 O   0  0  0  0  0
   49.1919   60.7186   35.6321 H   0  0  0  0  0
   44.5757   63.5123   35.3236 H   0  0  0  0  0
   43.3141   65.4613   34.4823 H   0  0  0  0  0
   44.1998   66.7322   32.5266 H   0  0  0  0  0
   46.3435   66.0387   31.4805 H   0  0  0  0  0
   47.5836   64.0829   32.3289 H   0  0  0  0  0
   48.9561   64.3680   34.5811 H   0  0  0  0  0
   50.5681   62.1431   35.9014 H   0  0  0  0  0
   49.6172   63.4174   36.7571 H   0  0  0  0  0
   52.0731   63.9033   36.7026 H   0  0  0  0  0
   51.1068   65.1422   35.8944 H   0  0  0  0  0
   52.3526   62.8585   34.5869 H   0  0  0  0  0
   52.0309   63.7813   32.4908 H   0  0  0  0  0
   51.0804   65.0698   33.2421 H   0  0  0  0  0
   49.5588   63.3101   32.5090 H   0  0  0  0  0
   50.5238   62.0730   33.3933 H   0  0  0  0  0
   53.0950   65.6484   34.6596 H   0  0  0  0  0
   54.3089   63.1407   35.9917 H   0  0  0  0  0
   54.0304   64.6635   36.7297 H   0  0  0  0  0
   55.9645   65.6831   35.6989 H   0  0  0  0  0
   56.2594   63.8275   33.6020 H   0  0  0  0  0
   55.9386   65.4981   33.5203 H   0  0  0  0  0
   54.0533   64.9127   32.5376 H   0  0  0  0  0
   54.2063   63.2891   33.0517 H   0  0  0  0  0
   55.8466   65.4503   37.8089 H   0  0  0  0  0
   57.2425   66.3681   37.1338 H   0  0  0  0  0
   56.7066   65.6724   39.8495 H   0  0  0  0  0
   58.0700   66.5807   39.1889 H   0  0  0  0  0
   59.4627   63.7494   37.2210 H   0  0  0  0  0
   58.3615   62.5184   37.7549 H   0  0  0  0  0
  1  2  4  0  0  0
  1  5  4  0  0  0
  1 16  1  0  0  0
  2  3  4  0  0  0
  3  4  4  0  0  0
  3 12  1  0  0  0
  4  5  4  0  0  0
  5  6  1  0  0  0
  6  7  4  0  0  0
  6 11  4  0  0  0
  7  8  4  0  0  0
  8  9  4  0  0  0
  9 10  4  0  0  0
 10 11  4  0  0  0
 12 13  1  0  0  0
 12 14  1  0  0  0
 12 15  1  0  0  0
 16 17  1  0  0  0
 16 21  1  0  0  0
 17 18  1  0  0  0
 18 19  1  0  0  0
 19 20  1  0  0  0
 19 22  1  0  0  0
 20 21  1  0  0  0
 22 23  1  0  0  0
 22 26  1  0  0  0
 23 24  1  0  0  0
 24 25  1  0  0  0
 24 27  1  0  0  0
 25 26  1  0  0  0
 27 28  1  0  0  0
 27 33  2  0  0  0
 28 29  1  0  0  0
 28 32  1  0  0  0
 29 30  1  0  0  0
 30 31  1  0  0  0
 31 32  1  0  0  0
  2 34  1  0  0  0
  7 35  1  0  0  0
  8 36  1  0  0  0
  9 37  1  0  0  0
 10 38  1  0  0  0
 11 39  1  0  0  0
 16 40  1  0  0  0
 17 41  1  0  0  0
 17 42  1  0  0  0
 18 43  1  0  0  0
 18 44  1  0  0  0
 19 45  1  0  0  0
 20 46  1  0  0  0
 20 47  1  0  0  0
 21 48  1  0  0  0
 21 49  1  0  0  0
 22 50  1  0  0  0
 23 51  1  0  0  0
 23 52  1  0  0  0
 24 53  1  0  0  0
 25 54  1  0  0  0
 25 55  1  0  0  0
 26 56  1  0  0  0
 26 57  1  0  0  0
 29 58  1  0  0  0
 29 59  1  0  0  0
 30 60  1  0  0  0
 30 61  1  0  0  0
 32 62  1  0  0  0
 32 63  1  0  0  0
M  END
$$$$
