6dif_ligand
  -I-interpret- 

 75 78  0  0  0  0  0  0  0  0999 V2000
   13.2680   21.8760   62.6890 O   0  0  0  0  0
   12.1410   21.1770   62.9140 C   0  0  0  0  0
   12.1300   19.8970   63.5140 C   0  0  0  0  0
   13.4000   19.3900   63.7750 C   0  0  0  0  0
   14.6030   20.0160   63.3880 C   0  0  0  0  0
   14.5170   21.5300   63.2800 C   0  0  0  0  0
   11.1090   21.7810   62.5170 O   0  0  0  0  0
   13.5090   18.1540   64.3600 O   0  0  0  0  0
   14.5820   22.0280   64.7430 C   0  0  0  0  0
   14.5990   23.5340   64.9410 C   0  0  0  0  0
   14.6490   23.8300   66.4670 C   0  0  0  0  0
   15.6050   22.1730   62.4310 C   0  0  0  0  0
   15.6510   21.7910   60.9640 C   0  0  0  0  0
   16.7190   22.3830   60.2790 C   0  0  0  0  0
   16.4840   23.4950   59.4770 C   0  0  0  0  0
   17.5050   24.1310   58.8140 C   0  0  0  0  0
   18.8060   23.6330   58.9450 C   0  0  0  0  0
   19.0650   22.5080   59.7280 C   0  0  0  0  0
   18.0240   21.8790   60.4000 C   0  0  0  0  0
   10.8750   19.2200   63.6990 C   0  0  0  0  0
   10.7070   18.5490   65.0470 C   0  0  0  0  0
   10.9000   19.4440   66.2640 C   0  0  0  0  0
   10.4480   18.3640   62.6880 C   0  0  0  0  0
   11.3340   17.8100   61.7760 C   0  0  0  0  0
   10.9100   16.9380   60.7500 C   0  0  0  0  0
    9.5800   16.5880   60.5830 C   0  0  0  0  0
    8.6460   17.1210   61.4860 C   0  0  0  0  0
    7.3030   16.8190   61.3120 N   0  0  0  0  0
    9.1000   17.9610   62.4820 C   0  0  0  0  0
    6.7390   15.4690   61.9880 S   0  0  0  0  0
    5.2990   15.3440   61.5620 O   0  0  0  0  0
    7.6310   14.2950   61.5840 O   0  0  0  0  0
    6.8230   15.7170   63.7580 C   0  0  0  0  0
    7.8680   15.2490   64.4660 N   0  0  0  0  0
    8.0490   15.6320   65.7940 C   0  0  0  0  0
    7.1280   16.4940   66.4180 C   0  0  0  0  0
    6.0360   16.9060   65.6670 C   0  0  0  0  0
    5.8600   16.5180   64.3350 C   0  0  0  0  0
    7.2770   16.9140   67.7220 C   0  0  0  0  0
    7.8900   16.0330   68.5240 F   0  0  0  0  0
    6.2520   17.3680   68.4030 F   0  0  0  0  0
    8.1300   17.9720   67.7640 F   0  0  0  0  0
   14.8555   19.6386   62.3971 H   0  0  0  0  0
   15.3420   19.7918   64.1572 H   0  0  0  0  0
   14.4369   17.9377   64.4780 H   0  0  0  0  0
   15.5238   21.6579   65.1481 H   0  0  0  0  0
   13.6738   21.6684   65.2267 H   0  0  0  0  0
   13.7035   23.9769   64.5050 H   0  0  0  0  0
   15.4716   23.9643   64.4495 H   0  0  0  0  0
   13.7702   23.4006   66.9481 H   0  0  0  0  0
   15.5500   23.3879   66.8922 H   0  0  0  0  0
   14.6617   24.9082   66.6264 H   0  0  0  0  0
   16.5509   21.8366   62.8555 H   0  0  0  0  0
   15.4050   23.2443   62.4530 H   0  0  0  0  0
   14.7266   22.1367   60.5012 H   0  0  0  0  0
   15.7770   20.7099   60.9057 H   0  0  0  0  0
   15.4660   23.8703   59.3723 H   0  0  0  0  0
   17.3055   25.0073   58.1973 H   0  0  0  0  0
   19.6272   24.1303   58.4288 H   0  0  0  0  0
   20.0813   22.1233   59.8125 H   0  0  0  0  0
   18.2189   21.0013   61.0162 H   0  0  0  0  0
   10.2079   20.0805   63.6482 H   0  0  0  0  0
   11.4778   17.7806   65.1057 H   0  0  0  0  0
    9.6772   18.1941   65.0871 H   0  0  0  0  0
   11.9086   19.8572   66.2533 H   0  0  0  0  0
   10.1731   20.2557   66.2354 H   0  0  0  0  0
   10.7559   18.8574   67.1713 H   0  0  0  0  0
   12.3930   18.0561   61.8541 H   0  0  0  0  0
   11.6532   16.5267   60.0670 H   0  0  0  0  0
    9.2692   15.9217   59.7783 H   0  0  0  0  0
    6.6916   17.4323   60.7730 H   0  0  0  0  0
    8.3558   18.3522   63.1757 H   0  0  0  0  0
    8.9088   15.2617   66.3524 H   0  0  0  0  0
    5.2913   17.5531   66.1305 H   0  0  0  0  0
    4.9860   16.8397   63.7686 H   0  0  0  0  0
  1  2  1  0  0  0
  1  6  1  0  0  0
  2  3  1  0  0  0
  2  7  2  0  0  0
  3  4  2  0  0  0
  3 20  1  0  0  0
  4  5  1  0  0  0
  4  8  1  0  0  0
  5  6  1  0  0  0
  6  9  1  0  0  0
  6 12  1  0  0  0
  9 10  1  0  0  0
 10 11  1  0  0  0
 12 13  1  0  0  0
 13 14  1  0  0  0
 14 15  4  0  0  0
 14 19  4  0  0  0
 15 16  4  0  0  0
 16 17  4  0  0  0
 17 18  4  0  0  0
 18 19  4  0  0  0
 20 21  1  0  0  0
 20 23  1  0  0  0
 21 22  1  0  0  0
 23 24  4  0  0  0
 23 29  4  0  0  0
 24 25  4  0  0  0
 25 26  4  0  0  0
 26 27  4  0  0  0
 27 28  1  0  0  0
 27 29  4  0  0  0
 28 30  1  0  0  0
 30 31  2  0  0  0
 30 32  2  0  0  0
 30 33  1  0  0  0
 33 34  4  0  0  0
 33 38  4  0  0  0
 34 35  4  0  0  0
 35 36  4  0  0  0
 36 37  4  0  0  0
 36 39  1  0  0  0
 37 38  4  0  0  0
 39 40  1  0  0  0
 39 41  1  0  0  0
 39 42  1  0  0  0
  5 43  1  0  0  0
  5 44  1  0  0  0
  8 45  1  0  0  0
  9 46  1  0  0  0
  9 47  1  0  0  0
 10 48  1  0  0  0
 10 49  1  0  0  0
 11 50  1  0  0  0
 11 51  1  0  0  0
 11 52  1  0  0  0
 12 53  1  0  0  0
 12 54  1  0  0  0
 13 55  1  0  0  0
 13 56  1  0  0  0
 15 57  1  0  0  0
 16 58  1  0  0  0
 17 59  1  0  0  0
 18 60  1  0  0  0
 19 61  1  0  0  0
 20 62  1  0  0  0
 21 63  1  0  0  0
 21 64  1  0  0  0
 22 65  1  0  0  0
 22 66  1  0  0  0
 22 67  1  0  0  0
 24 68  1  0  0  0
 25 69  1  0  0  0
 26 70  1  0  0  0
 28 71  1  0  0  0
 29 72  1  0  0  0
 35 73  1  0  0  0
 37 74  1  0  0  0
 38 75  1  0  0  0
M  END
$$$$
