5zg1_ligand
  -I-interpret- 

 44 46  0  0  0  0  0  0  0  0999 V2000
   16.1030    1.4500   21.8780 C   0  0  0  0  0
   16.2490   -0.3210   23.4850 C   0  0  0  0  0
   16.0370    0.5310   20.8500 C   0  0  0  0  0
   15.6210   -0.6130   27.2260 C   0  0  0  0  0
   15.5180   -0.2690   25.8290 C   0  0  0  0  0
   16.3820   -0.7150   24.8900 C   0  0  0  0  0
   19.8570   -2.5380   26.5120 C   0  0  0  0  0
   16.0500   -0.0790   18.4150 C   0  0  0  0  0
   15.9130    1.0220   19.4320 C   0  0  0  0  0
   16.1920   -1.2470   22.4640 C   0  0  0  0  0
   16.2070    1.0260   23.1830 C   0  0  0  0  0
   16.0800   -0.8180   21.1580 C   0  0  0  0  0
   16.6070   -1.4290   27.5940 C   0  0  0  0  0
   17.4750   -1.6010   25.3650 C   0  0  0  0  0
   18.5740   -2.7920   27.2550 C   0  0  0  0  0
   14.5360    1.6060   19.2720 C   0  0  0  0  0
   16.9870    2.0400   19.1130 C   0  0  0  0  0
   18.3050   -2.0100   24.4550 N   0  0  0  0  0
   17.5360   -1.9200   26.7180 N   0  0  0  0  0
   19.1720   -4.3850   24.7520 O   0  0  0  0  0
   20.7260   -2.5950   24.1210 O   0  0  0  0  0
   19.5520   -2.9830   24.8260 S   0  0  0  0  0
   16.0726    2.5165   21.6550 H   0  0  0  0  0
   14.9150   -0.2180   27.9565 H   0  0  0  0  0
   14.7029    0.3830   25.5149 H   0  0  0  0  0
   16.2641   -0.7582   23.8073 H   0  0  0  0  0
   20.6748   -3.1248   26.9303 H   0  0  0  0  0
   20.1567   -1.4932   26.5934 H   0  0  0  0  0
   15.2879   -0.8367   18.5969 H   0  0  0  0  0
   15.9219    0.3342   17.4145 H   0  0  0  0  0
   17.0391   -0.5291   18.4997 H   0  0  0  0  0
   16.2353   -2.3128   22.6884 H   0  0  0  0  0
   16.2567    1.7608   23.9866 H   0  0  0  0  0
   16.0244   -1.5532   20.3552 H   0  0  0  0  0
   16.0783   -2.3241   27.9216 H   0  0  0  0  0
   17.2025   -0.8106   28.2655 H   0  0  0  0  0
   18.7158   -2.5857   28.3159 H   0  0  0  0  0
   18.2785   -3.8342   27.1339 H   0  0  0  0  0
   14.4250    2.0002   18.2618 H   0  0  0  0  0
   13.7910    0.8292   19.4441 H   0  0  0  0  0
   14.3977    2.4104   19.9945 H   0  0  0  0  0
   17.9664    1.5664   19.1811 H   0  0  0  0  0
   16.8358    2.4214   18.1032 H   0  0  0  0  0
   16.9294    2.8626   19.8259 H   0  0  0  0  0
  1  3  4  0  0  0
 11  1  4  0  0  0
  6  2  1  0  0  0
  2 10  4  0  0  0
  2 11  4  0  0  0
  3  9  1  0  0  0
 12  3  4  0  0  0
  4  5  2  0  0  0
 13  4  1  0  0  0
  6  5  1  0  0  0
 14  6  1  0  0  0
 15  7  1  0  0  0
  7 22  1  0  0  0
  9  8  1  0  0  0
  9 16  1  0  0  0
  9 17  1  0  0  0
 10 12  4  0  0  0
 19 13  1  0  0  0
 14 18  2  0  0  0
 19 14  1  0  0  0
 15 19  1  0  0  0
 18 22  1  0  0  0
 22 20  2  0  0  0
 22 21  2  0  0  0
  1 23  1  0  0  0
  4 24  1  0  0  0
  5 25  1  0  0  0
  6 26  1  0  0  0
  7 27  1  0  0  0
  7 28  1  0  0  0
  8 29  1  0  0  0
  8 30  1  0  0  0
  8 31  1  0  0  0
 10 32  1  0  0  0
 11 33  1  0  0  0
 12 34  1  0  0  0
 13 35  1  0  0  0
 13 36  1  0  0  0
 15 37  1  0  0  0
 15 38  1  0  0  0
 16 39  1  0  0  0
 16 40  1  0  0  0
 16 41  1  0  0  0
 17 42  1  0  0  0
 17 43  1  0  0  0
 17 44  1  0  0  0
M  END
$$$$
