5moq_ligand
  -I-interpret- 

 17 17  0  0  0  0  0  0  0  0999 V2000
   -1.7960  -14.8760  -17.1720 C   0  0  0  0  0
   -1.9510  -13.5070  -17.1350 C   0  0  0  0  0
   -1.6700  -12.8090  -15.9750 C   0  0  0  0  0
   -1.2370  -13.4700  -14.8520 C   0  0  0  0  0
   -1.0420  -14.8110  -14.8940 C   0  0  0  0  0
   -1.3310  -15.5190  -16.0410 C   0  0  0  0  0
   -2.1350  -15.6410  -18.3830 C   0  0  0  0  0
   -1.7530  -16.8860  -18.4960 N   0  0  0  0  0
   -2.8510  -15.1000  -19.3360 N   0  0  0  0  0
   -2.2955  -12.9740  -18.0212 H   0  0  0  0  0
   -1.7931  -11.7262  -15.9518 H   0  0  0  0  0
   -1.0508  -12.9187  -13.9303 H   0  0  0  0  0
   -0.6553  -15.3312  -14.0177 H   0  0  0  0  0
   -1.1909  -16.5999  -16.0558 H   0  0  0  0  0
   -2.0131  -17.4264  -19.3211 H   0  0  0  0  0
   -3.1057  -15.6492  -20.1569 H   0  0  0  0  0
   -3.1542  -14.1293  -19.2577 H   0  0  0  0  0
  1  2  4  0  0  0
  1  6  4  0  0  0
  1  7  1  0  0  0
  2  3  4  0  0  0
  3  4  4  0  0  0
  4  5  4  0  0  0
  5  6  4  0  0  0
  7  8  2  0  0  0
  7  9  1  0  0  0
  2 10  1  0  0  0
  3 11  1  0  0  0
  4 12  1  0  0  0
  5 13  1  0  0  0
  6 14  1  0  0  0
  8 15  1  0  0  0
  9 16  1  0  0  0
  9 17  1  0  0  0
M  END
$$$$
