4ohp_ligand
  -I-interpret- 

 53 55  0  0  0  0  0  0  0  0999 V2000
   72.2460   89.5730   -0.1600 C   0  0  0  0  0
   73.3070   88.5020   -0.3450 N   0  0  0  0  0
   73.8510   88.7640   -1.7100 S   0  0  0  0  0
   72.9800   89.8140   -2.3090 O   0  0  0  0  0
   75.3280   89.1550   -1.6040 O   0  0  0  0  0
   73.6980   87.4140   -2.7420 C   0  0  0  0  0
   73.4420   87.6510   -4.0730 C   0  0  0  0  0
   73.2930   86.6080   -4.9700 C   0  0  0  0  0
   73.8180   86.1420   -2.2580 C   0  0  0  0  0
   73.6910   85.1100   -3.1540 C   0  0  0  0  0
   73.4330   85.3220   -4.5220 C   0  0  0  0  0
   73.2970   84.2620   -5.3870 N   0  0  0  0  0
   72.9160   84.4580   -6.7920 C   0  0  0  0  0
   72.3210   83.1870   -7.4060 C   0  0  0  0  0
   74.2100   84.7830   -7.4670 C   0  0  0  0  0
   75.3140   84.9950   -7.9720 C   0  0  0  0  0
   76.6740   85.2270   -8.5240 C   0  0  0  0  0
   73.9050   82.9640   -5.0150 C   0  0  0  0  0
   73.2250   81.7670   -5.7260 C   0  0  0  0  0
   73.1560   82.0160   -7.1550 N   0  0  0  0  0
   72.5320   80.7320   -7.9060 S   0  0  0  0  0
   72.7830   80.9300   -9.3520 O   0  0  0  0  0
   73.1320   79.4920   -7.3710 O   0  0  0  0  0
   70.8430   80.6470   -7.6500 C   0  0  0  0  0
   70.3380   79.9040   -6.5930 C   0  0  0  0  0
   68.9840   79.8880   -6.3200 C   0  0  0  0  0
   68.1660   80.6230   -7.1450 C   0  0  0  0  0
   66.8560   80.6130   -6.9190 N   0  0  0  0  0
   68.6800   81.3250   -8.1830 N   0  0  0  0  0
   69.9710   81.3570   -8.4510 C   0  0  0  0  0
   72.7080   90.5573   -0.2364 H   0  0  0  0  0
   71.4852   89.4663   -0.9332 H   0  0  0  0  0
   71.7862   89.4613    0.8219 H   0  0  0  0  0
   73.5838   87.7723    0.3118 H   0  0  0  0  0
   73.3551   88.6783   -4.4270 H   0  0  0  0  0
   73.0675   86.8073   -6.0176 H   0  0  0  0  0
   74.0073   85.9540   -1.2012 H   0  0  0  0  0
   73.7938   84.0868   -2.7927 H   0  0  0  0  0
   72.1539   85.2298   -6.8999 H   0  0  0  0  0
   72.2499   83.3303   -8.4842 H   0  0  0  0  0
   71.3453   83.0136   -6.9521 H   0  0  0  0  0
   77.2111   85.9252   -7.8820 H   0  0  0  0  0
   77.2139   84.2811   -8.5659 H   0  0  0  0  0
   76.5911   85.6443   -9.5275 H   0  0  0  0  0
   73.7835   82.8307   -3.9400 H   0  0  0  0  0
   74.9524   82.9839   -5.3160 H   0  0  0  0  0
   72.2159   81.6415   -5.3336 H   0  0  0  0  0
   73.8076   80.8635   -5.5460 H   0  0  0  0  0
   71.0190   79.3249   -5.9693 H   0  0  0  0  0
   68.5806   79.3159   -5.4845 H   0  0  0  0  0
   66.4760   80.0671   -6.1457 H   0  0  0  0  0
   66.2308   81.1512   -7.5189 H   0  0  0  0  0
   70.3450   81.9370   -9.2947 H   0  0  0  0  0
  1  2  1  0  0  0
  2  3  1  0  0  0
  3  4  2  0  0  0
  3  5  2  0  0  0
  3  6  1  0  0  0
  6  7  4  0  0  0
  6  9  4  0  0  0
  7  8  4  0  0  0
  8 11  4  0  0  0
  9 10  4  0  0  0
 10 11  4  0  0  0
 11 12  1  0  0  0
 12 13  1  0  0  0
 12 18  1  0  0  0
 13 14  1  0  0  0
 13 15  1  0  0  0
 14 20  1  0  0  0
 15 16  3  0  0  0
 16 17  1  0  0  0
 18 19  1  0  0  0
 19 20  1  0  0  0
 20 21  1  0  0  0
 21 22  2  0  0  0
 21 23  2  0  0  0
 21 24  1  0  0  0
 24 25  4  0  0  0
 24 30  4  0  0  0
 25 26  4  0  0  0
 26 27  4  0  0  0
 27 28  1  0  0  0
 27 29  4  0  0  0
 29 30  4  0  0  0
  1 31  1  0  0  0
  1 32  1  0  0  0
  1 33  1  0  0  0
  2 34  1  0  0  0
  7 35  1  0  0  0
  8 36  1  0  0  0
  9 37  1  0  0  0
 10 38  1  0  0  0
 13 39  1  0  0  0
 14 40  1  0  0  0
 14 41  1  0  0  0
 17 42  1  0  0  0
 17 43  1  0  0  0
 17 44  1  0  0  0
 18 45  1  0  0  0
 18 46  1  0  0  0
 19 47  1  0  0  0
 19 48  1  0  0  0
 25 49  1  0  0  0
 26 50  1  0  0  0
 28 51  1  0  0  0
 28 52  1  0  0  0
 30 53  1  0  0  0
M  END
$$$$
