### 
### Created by X-TOOL on Mon Sep 10 21:13:08 2018
### 

@<TRIPOS>MOLECULE
4dmy_ligand
   57    61     1     0     0
SMALL
GAST_HUCK


@<TRIPOS>ATOM
      1 O24         9.9130   25.9500   10.2350 O.2       1 0LC        -0.3972
      2 C23         9.5230   25.4880   11.2960 C.2       1 0LC         0.1766
      3 N25         8.9110   24.2580   11.4170 N.am      1 0LC        -0.2971
      4 C26         8.5870   23.3630   10.3150 C.3       1 0LC         0.0782
      5 C29         7.3000   23.8340    9.6250 C.2       1 0LC         0.0437
      6 N30         6.6740   23.0060    8.8500 N.2       1 0LC        -0.2686
      7 C28         9.1120   21.9700   10.2530 C.3       1 0LC        -0.0407
      8 C27         9.7870   23.1040    9.4020 C.3       1 0LC        -0.0407
      9 C18         9.6960   26.2390   12.5930 C.3       1 0LC         0.0676
     10 C19         8.6790   27.3930   12.5380 C.3       1 0LC        -0.0308
     11 C20         8.7350   28.2060   13.8300 C.3       1 0LC        -0.0504
     12 C22        10.1600   28.7560   14.0510 C.3       1 0LC        -0.0504
     13 C21        11.2540   27.6700   13.9860 C.3       1 0LC        -0.0308
     14 C17        11.1370   26.7710   12.7470 C.3       1 0LC         0.0684
     15 C15        12.1400   25.6400   12.8690 C.2       1 0LC         0.1851
     16 O16        11.7940   24.5080   13.1850 O.2       1 0LC        -0.3963
     17 N10        13.4720   25.9010   12.6200 N.am      1 0LC        -0.2679
     18 C12        14.3950   24.7510   12.4480 C.3       1 0LC         0.0459
     19 C13        14.5860   24.4600   10.9490 C.3       1 0LC         0.0200
     20 C1         15.0670   25.7340   10.3240 C.2       1 0LC         0.0409
     21 C11        13.9710   27.2030   12.0970 C.3       1 0LC         0.0452
     22 C2         14.7870   26.9750   10.8540 C.2       1 0LC        -0.0277
     23 C5         15.3950   27.8880   10.0430 C.ar      1 0LC        -0.0322
     24 C7         15.4390   29.2770   10.0940 C.ar      1 0LC        -0.0473
     25 C6         16.1510   29.9490    9.1000 C.ar      1 0LC         0.1102
     26 F14        16.2550   31.2910    9.1040 F         1 0LC        -0.1955
     27 C8         16.7830   29.2230    8.0950 C.ar      1 0LC        -0.0460
     28 C9         16.7290   27.8270    8.0500 C.ar      1 0LC        -0.0488
     29 C4         16.0150   27.1720    9.0480 C.ar      1 0LC         0.0527
     30 N3         15.8310   25.8500    9.2130 N.pl3     1 0LC        -0.2831
     31 H           8.6646   23.9493   12.3574 H         1 0LC         0.1774
     32 H           6.9207   24.8435    9.7835 H         1 0LC         0.1090
     33 H           7.0388   22.0639    8.7095 H         1 0LC         0.2165
     34 H           8.7321   20.9580   10.1128 H         1 0LC         0.0220
     35 H           9.4074   21.1758   10.9386 H         1 0LC         0.0220
     36 H          10.7736   23.5101    9.1786 H         1 0LC         0.0220
     37 H          10.1239   23.3006    8.3842 H         1 0LC         0.0220
     38 H           9.5250   25.5932   13.4543 H         1 0LC         0.0565
     39 H           7.6771   26.9807   12.4185 H         1 0LC         0.0294
     40 H           8.9208   28.0424   11.6966 H         1 0LC         0.0294
     41 H           8.4662   27.5633   14.6683 H         1 0LC         0.0267
     42 H           8.0374   29.0404   13.7575 H         1 0LC         0.0267
     43 H          10.1916   29.1944   15.0485 H         1 0LC         0.0267
     44 H          10.3620   29.4733   13.2555 H         1 0LC         0.0267
     45 H          11.1448   27.0366   14.8664 H         1 0LC         0.0294
     46 H          12.2191   28.1744   13.9394 H         1 0LC         0.0294
     47 H          11.3604   27.3466   11.8487 H         1 0LC         0.0566
     48 H          13.9730   23.8725   12.9360 H         1 0LC         0.0547
     49 H          15.3594   24.9913   12.8955 H         1 0LC         0.0547
     50 H          13.6516   24.1314   10.4939 H         1 0LC         0.0463
     51 H          15.3057   23.6556   10.7970 H         1 0LC         0.0463
     52 H          14.5936   27.6802   12.8538 H         1 0LC         0.0577
     53 H          13.1224   27.8440   11.8580 H         1 0LC         0.0577
     54 H          14.9317   29.8251   10.8879 H         1 0LC         0.0486
     55 H          17.3351   29.7575    7.3219 H         1 0LC         0.0498
     56 H          17.2301   27.2697    7.2585 H         1 0LC         0.0525
     57 H          16.1902   25.0966    8.6267 H         1 0LC         0.2208
@<TRIPOS>BOND
     1    1    2 2  
     2    2    3 am 
     3    2    9 1  
     4    3    4 1  
     5    4    5 1  
     6    4    7 1  
     7    4    8 1  
     8    5    6 2  
     9    7    8 1  
    10    9   10 1  
    11    9   14 1  
    12   10   11 1  
    13   11   12 1  
    14   12   13 1  
    15   13   14 1  
    16   14   15 1  
    17   15   16 2  
    18   15   17 am 
    19   17   18 1  
    20   17   21 1  
    21   18   19 1  
    22   19   20 1  
    23   20   22 2  
    24   20   30 1  
    25   21   22 1  
    26   22   23 1  
    27   23   24 ar 
    28   23   29 ar 
    29   24   25 ar 
    30   25   26 1  
    31   25   27 ar 
    32   27   28 ar 
    33   28   29 ar 
    34   29   30 1  
    35    3   31 1  
    36    5   32 1  
    37    6   33 1  
    38    7   34 1  
    39    7   35 1  
    40    8   36 1  
    41    8   37 1  
    42    9   38 1  
    43   10   39 1  
    44   10   40 1  
    45   11   41 1  
    46   11   42 1  
    47   12   43 1  
    48   12   44 1  
    49   13   45 1  
    50   13   46 1  
    51   14   47 1  
    52   18   48 1  
    53   18   49 1  
    54   19   50 1  
    55   19   51 1  
    56   21   52 1  
    57   21   53 1  
    58   24   54 1  
    59   27   55 1  
    60   28   56 1  
    61   30   57 1  
@<TRIPOS>SUBSTRUCTURE
     1 0LC         1

