4dmy_ligand
  -I-interpret- 

 56 60  0  0  0  0  0  0  0  0999 V2000
    9.9130   25.9500   10.2350 O   0  0  0  0  0
    9.5230   25.4880   11.2960 C   0  0  0  0  0
    8.9110   24.2580   11.4170 N   0  0  0  0  0
    8.5870   23.3630   10.3150 C   0  0  0  0  0
    7.3000   23.8340    9.6250 C   0  0  0  0  0
    6.6740   23.0060    8.8500 N   0  0  0  0  0
    9.1120   21.9700   10.2530 C   0  0  0  0  0
    9.7870   23.1040    9.4020 C   0  0  0  0  0
    9.6960   26.2390   12.5930 C   0  0  0  0  0
    8.6790   27.3930   12.5380 C   0  0  0  0  0
    8.7350   28.2060   13.8300 C   0  0  0  0  0
   10.1600   28.7560   14.0510 C   0  0  0  0  0
   11.2540   27.6700   13.9860 C   0  0  0  0  0
   11.1370   26.7710   12.7470 C   0  0  0  0  0
   12.1400   25.6400   12.8690 C   0  0  0  0  0
   11.7940   24.5080   13.1850 O   0  0  0  0  0
   13.4720   25.9010   12.6200 N   0  0  0  0  0
   14.3950   24.7510   12.4480 C   0  0  0  0  0
   14.5860   24.4600   10.9490 C   0  0  0  0  0
   15.0670   25.7340   10.3240 C   0  0  0  0  0
   13.9710   27.2030   12.0970 C   0  0  0  0  0
   14.7870   26.9750   10.8540 C   0  0  0  0  0
   15.3950   27.8880   10.0430 C   0  0  0  0  0
   15.4390   29.2770   10.0940 C   0  0  0  0  0
   16.1510   29.9490    9.1000 C   0  0  0  0  0
   16.2550   31.2910    9.1040 F   0  0  0  0  0
   16.7830   29.2230    8.0950 C   0  0  0  0  0
   16.7290   27.8270    8.0500 C   0  0  0  0  0
   16.0150   27.1720    9.0480 C   0  0  0  0  0
   15.8310   25.8500    9.2130 N   0  0  0  0  0
    8.6646   23.9493   12.3574 H   0  0  0  0  0
    6.9207   24.8435    9.7835 H   0  0  0  0  0
    7.0388   22.0639    8.7095 H   0  0  0  0  0
    8.7321   20.9580   10.1128 H   0  0  0  0  0
    9.4074   21.1758   10.9386 H   0  0  0  0  0
   10.7736   23.5101    9.1786 H   0  0  0  0  0
   10.1239   23.3006    8.3842 H   0  0  0  0  0
    9.5250   25.5932   13.4543 H   0  0  0  0  0
    7.6771   26.9807   12.4185 H   0  0  0  0  0
    8.9208   28.0424   11.6966 H   0  0  0  0  0
    8.4662   27.5633   14.6683 H   0  0  0  0  0
    8.0374   29.0404   13.7575 H   0  0  0  0  0
   10.1916   29.1944   15.0485 H   0  0  0  0  0
   10.3620   29.4733   13.2555 H   0  0  0  0  0
   11.1448   27.0366   14.8664 H   0  0  0  0  0
   12.2191   28.1744   13.9394 H   0  0  0  0  0
   11.3604   27.3466   11.8487 H   0  0  0  0  0
   13.9730   23.8725   12.9360 H   0  0  0  0  0
   15.3594   24.9913   12.8955 H   0  0  0  0  0
   13.6516   24.1314   10.4939 H   0  0  0  0  0
   15.3057   23.6556   10.7970 H   0  0  0  0  0
   14.5936   27.6802   12.8538 H   0  0  0  0  0
   13.1224   27.8440   11.8580 H   0  0  0  0  0
   14.9317   29.8251   10.8879 H   0  0  0  0  0
   17.3351   29.7575    7.3219 H   0  0  0  0  0
   17.2301   27.2697    7.2585 H   0  0  0  0  0
  1  2  2  0  0  0
  2  3  1  0  0  0
  2  9  1  0  0  0
  3  4  1  0  0  0
  4  5  1  0  0  0
  4  7  1  0  0  0
  4  8  1  0  0  0
  5  6  2  0  0  0
  7  8  1  0  0  0
  9 10  1  0  0  0
  9 14  1  0  0  0
 10 11  1  0  0  0
 11 12  1  0  0  0
 12 13  1  0  0  0
 13 14  1  0  0  0
 14 15  1  0  0  0
 15 16  2  0  0  0
 15 17  1  0  0  0
 17 18  1  0  0  0
 17 21  1  0  0  0
 18 19  1  0  0  0
 19 20  1  0  0  0
 20 22  4  0  0  0
 20 30  4  0  0  0
 21 22  1  0  0  0
 22 23  4  0  0  0
 23 24  4  0  0  0
 23 29  4  0  0  0
 24 25  4  0  0  0
 25 26  1  0  0  0
 25 27  4  0  0  0
 27 28  4  0  0  0
 28 29  4  0  0  0
 29 30  4  0  0  0
  3 31  1  0  0  0
  5 32  1  0  0  0
  6 33  1  0  0  0
  7 34  1  0  0  0
  7 35  1  0  0  0
  8 36  1  0  0  0
  8 37  1  0  0  0
  9 38  1  0  0  0
 10 39  1  0  0  0
 10 40  1  0  0  0
 11 41  1  0  0  0
 11 42  1  0  0  0
 12 43  1  0  0  0
 12 44  1  0  0  0
 13 45  1  0  0  0
 13 46  1  0  0  0
 14 47  1  0  0  0
 18 48  1  0  0  0
 18 49  1  0  0  0
 19 50  1  0  0  0
 19 51  1  0  0  0
 21 52  1  0  0  0
 21 53  1  0  0  0
 24 54  1  0  0  0
 27 55  1  0  0  0
 28 56  1  0  0  0
M  END
$$$$
