6hth_ligand
  -I-interpret- 

 45 47  0  0  0  0  0  0  0  0999 V2000
   42.7220   37.7650   88.9970 C   0  0  0  0  0
   43.8980   37.4840   88.3000 C   0  0  0  0  0
   43.9490   36.7150   87.0040 C   0  0  0  0  0
   43.8700   34.7480   85.7530 C   0  0  0  0  0
   44.8330   33.7760   86.0340 C   0  0  0  0  0
   44.5720   37.2730   86.1150 O   0  0  0  0  0
   43.3950   35.5030   86.7930 N   0  0  0  0  0
   45.3900   32.9980   85.0160 C   0  0  0  0  0
   46.3830   31.9130   85.3380 C   0  0  0  0  0
   46.2750   30.7950   84.6050 N   0  0  0  0  0
   47.0980   29.6720   84.7010 O   0  0  0  0  0
   47.1940   32.0370   86.2500 O   0  0  0  0  0
   44.9670   33.1700   83.7040 C   0  0  0  0  0
   44.0140   34.1360   83.4100 C   0  0  0  0  0
   43.4680   34.9290   84.4150 C   0  0  0  0  0
   42.5270   35.8610   84.0340 O   0  0  0  0  0
   41.1290   35.6500   84.3120 C   0  0  0  0  0
   45.1050   37.9670   88.7900 C   0  0  0  0  0
   45.1560   38.7050   89.9660 C   0  0  0  0  0
   43.9940   38.9840   90.6780 C   0  0  0  0  0
   42.7740   38.5050   90.1880 C   0  0  0  0  0
   44.1060   39.7850   91.9460 C   0  0  0  0  0
   42.9720   40.1020   92.7090 C   0  0  0  0  0
   43.1160   40.8460   93.8790 C   0  0  0  0  0
   44.3900   41.2660   94.2770 C   0  0  0  0  0
   45.5310   40.9590   93.5290 C   0  0  0  0  0
   45.3810   40.2170   92.3590 C   0  0  0  0  0
   41.7642   37.4100   88.6166 H   0  0  0  0  0
   45.1550   33.6220   87.0639 H   0  0  0  0  0
   42.6438   35.1585   87.3908 H   0  0  0  0  0
   45.5240   30.7626   83.9155 H   0  0  0  0  0
   46.8103   29.0107   84.0674 H   0  0  0  0  0
   45.3812   32.5496   82.9092 H   0  0  0  0  0
   43.6893   34.2751   82.3788 H   0  0  0  0  0
   40.7969   34.7341   83.8232 H   0  0  0  0  0
   40.9832   35.5622   85.3886 H   0  0  0  0  0
   40.5531   36.4946   83.9338 H   0  0  0  0  0
   46.0259   37.7638   88.2435 H   0  0  0  0  0
   46.1153   39.0687   90.3341 H   0  0  0  0  0
   41.8547   38.7088   90.7371 H   0  0  0  0  0
   41.9848   39.7687   92.3890 H   0  0  0  0  0
   42.2423   41.0988   94.4796 H   0  0  0  0  0
   44.4958   41.8471   95.1931 H   0  0  0  0  0
   46.5164   41.2929   93.8541 H   0  0  0  0  0
   46.2568   39.9693   91.7593 H   0  0  0  0  0
  2  1  4  0  0  0
  1 21  4  0  0  0
  3  2  1  0  0  0
  2 18  4  0  0  0
  3  6  2  0  0  0
  7  3  1  0  0  0
  4  5  4  0  0  0
  4  7  1  0  0  0
  4 15  4  0  0  0
  5  8  4  0  0  0
  8  9  1  0  0  0
  8 13  4  0  0  0
  9 10  1  0  0  0
  9 12  2  0  0  0
 10 11  1  0  0  0
 13 14  4  0  0  0
 14 15  4  0  0  0
 15 16  1  0  0  0
 16 17  1  0  0  0
 18 19  4  0  0  0
 19 20  4  0  0  0
 20 21  4  0  0  0
 20 22  1  0  0  0
 22 23  4  0  0  0
 22 27  4  0  0  0
 23 24  4  0  0  0
 24 25  4  0  0  0
 25 26  4  0  0  0
 26 27  4  0  0  0
  1 28  1  0  0  0
  5 29  1  0  0  0
  7 30  1  0  0  0
 10 31  1  0  0  0
 11 32  1  0  0  0
 13 33  1  0  0  0
 14 34  1  0  0  0
 17 35  1  0  0  0
 17 36  1  0  0  0
 17 37  1  0  0  0
 18 38  1  0  0  0
 19 39  1  0  0  0
 21 40  1  0  0  0
 23 41  1  0  0  0
 24 42  1  0  0  0
 25 43  1  0  0  0
 26 44  1  0  0  0
 27 45  1  0  0  0
M  END
$$$$
