4e5f_ligand
  -I-interpret- 

 19 20  0  0  0  0  0  0  0  0999 V2000
  -14.3240  -19.1740  -24.5220 O   0  0  0  0  0
  -13.3700  -18.3580  -24.5190 C   0  0  0  0  0
  -12.7390  -18.0390  -23.3040 N   0  3  0  0  0
  -13.1410  -18.5760  -22.2640 O   0  0  0  0  0
  -11.6550  -17.1240  -23.2640 C   0  0  0  0  0
  -11.1160  -16.8650  -22.1690 O   0  0  0  0  0
  -11.1080  -16.4340  -24.4950 C   0  0  0  0  0
  -11.7970  -16.7940  -25.7320 C   0  0  0  0  0
  -12.8710  -17.7040  -25.7730 C   0  0  0  0  0
  -13.4770  -17.9940  -26.9990 C   0  0  0  0  0
  -13.0260  -17.3870  -28.1790 C   0  0  0  0  0
  -11.9560  -16.4840  -28.1360 C   0  0  0  0  0
  -11.3460  -16.1920  -26.9120 C   0  0  0  0  0
  -10.0676  -16.7408  -24.6028 H   0  0  0  0  0
  -11.2404  -15.3617  -24.3509 H   0  0  0  0  0
  -14.3078  -18.6986  -27.0375 H   0  0  0  0  0
  -13.5075  -17.6174  -29.1294 H   0  0  0  0  0
  -11.6007  -16.0114  -29.0517 H   0  0  0  0  0
  -10.5128  -15.4901  -26.8768 H   0  0  0  0  0
  1  2  2  0  0  0
  2  3  1  0  0  0
  2  9  1  0  0  0
  3  4  2  0  0  0
  3  5  1  0  0  0
  5  6  2  0  0  0
  5  7  1  0  0  0
  7  8  1  0  0  0
  8  9  4  0  0  0
  8 13  4  0  0  0
  9 10  4  0  0  0
 10 11  4  0  0  0
 11 12  4  0  0  0
 12 13  4  0  0  0
  7 14  1  0  0  0
  7 15  1  0  0  0
 10 16  1  0  0  0
 11 17  1  0  0  0
 12 18  1  0  0  0
 13 19  1  0  0  0
M  END
$$$$
