5f27_ligand
  -I-interpret- 

 36 37  0  0  0  0  0  0  0  0999 V2000
   28.1900   78.5650    8.2180 C   0  0  0  0  0
   28.2460   79.6950    7.1880 C   0  0  0  0  0
   28.2880   79.1190    5.7610 C   0  0  0  0  0
   29.5510   78.2670    5.6880 C   0  0  0  0  0
   29.5020   77.1380    6.7150 C   0  0  0  0  0
   29.3850   77.7140    8.0700 N   0  0  0  0  0
   29.9950   77.0820    9.1490 C   0  0  0  0  0
   29.3790   77.1290   10.3920 C   0  0  0  0  0
   29.9440   76.4340   11.4540 C   0  0  0  0  0
   31.1210   76.2900    8.9720 C   0  0  0  0  0
   31.7080   75.6450   10.0540 C   0  0  0  0  0
   31.1260   75.7120   11.3050 C   0  0  0  0  0
   31.7930   74.9510   12.4540 C   0  0  0  0  0
   31.3110   75.3750   13.7760 N   0  3  0  0  0
   32.0700   74.5900   14.7530 C   0  0  0  0  0
   27.2930   77.9671    8.0565 H   0  0  0  0  0
   28.1637   78.9869    9.2227 H   0  0  0  0  0
   29.1455   80.2866    7.3586 H   0  0  0  0  0
   27.3567   80.3163    7.2940 H   0  0  0  0  0
   28.3044   79.9136    5.0151 H   0  0  0  0  0
   27.3988   78.5254    5.5487 H   0  0  0  0  0
   30.4140   78.8982    5.8998 H   0  0  0  0  0
   29.6255   77.8328    4.6910 H   0  0  0  0  0
   30.4141   76.5450    6.6485 H   0  0  0  0  0
   28.6412   76.5000    6.5146 H   0  0  0  0  0
   28.4637   77.7038   10.5331 H   0  0  0  0  0
   29.4512   76.4541   12.4260 H   0  0  0  0  0
   31.5484   76.1730    7.9761 H   0  0  0  0  0
   32.6319   75.0836    9.9149 H   0  0  0  0  0
   32.8634   75.1519   12.4095 H   0  0  0  0  0
   31.5549   73.8939   12.3359 H   0  0  0  0  0
   30.3082   75.2153   13.8725 H   0  0  0  0  0
   31.4509   76.3755   13.9170 H   0  0  0  0  0
   31.8847   73.5287   14.5873 H   0  0  0  0  0
   33.1337   74.7970   14.6359 H   0  0  0  0  0
   31.7543   74.8623   15.7601 H   0  0  0  0  0
  1  2  1  0  0  0
  1  6  1  0  0  0
  2  3  1  0  0  0
  3  4  1  0  0  0
  4  5  1  0  0  0
  5  6  1  0  0  0
  6  7  1  0  0  0
  7  8  4  0  0  0
  7 10  4  0  0  0
  8  9  4  0  0  0
  9 12  4  0  0  0
 10 11  4  0  0  0
 11 12  4  0  0  0
 12 13  1  0  0  0
 13 14  1  0  0  0
 14 15  1  0  0  0
  1 16  1  0  0  0
  1 17  1  0  0  0
  2 18  1  0  0  0
  2 19  1  0  0  0
  3 20  1  0  0  0
  3 21  1  0  0  0
  4 22  1  0  0  0
  4 23  1  0  0  0
  5 24  1  0  0  0
  5 25  1  0  0  0
  8 26  1  0  0  0
  9 27  1  0  0  0
 10 28  1  0  0  0
 11 29  1  0  0  0
 13 30  1  0  0  0
 13 31  1  0  0  0
 14 32  1  0  0  0
 14 33  1  0  0  0
 15 34  1  0  0  0
 15 35  1  0  0  0
 15 36  1  0  0  0
M  END
$$$$
