4a50_ligand
  -I-interpret- 

 53 55  0  0  0  0  0  0  0  0999 V2000
   17.0020    6.4490  -21.4200 C   0  0  0  0  0
   16.0530    7.3010  -22.2550 C   0  0  0  0  0
   14.8670    6.7420  -22.7280 C   0  0  0  0  0
   16.3840    8.6290  -22.5260 C   0  0  0  0  0
   15.5140    9.4030  -23.2900 C   0  0  0  0  0
   14.3190    8.8480  -23.7550 C   0  0  0  0  0
   13.9990    7.5070  -23.5030 C   0  0  0  0  0
   12.6600    6.9340  -24.0310 C   0  0  0  0  0
   12.6170    5.4500  -24.4310 C   0  0  0  0  0
   11.4160    4.7470  -24.3130 C   0  0  0  0  0
   11.3210    3.4100  -24.6990 C   0  0  0  0  0
   12.4380    2.7720  -25.2320 C   0  0  0  0  0
   13.6340    3.4760  -25.3700 C   0  0  0  0  0
   13.7200    4.8160  -24.9900 C   0  0  0  0  0
   11.6140    7.2090  -22.9450 C   0  0  0  0  0
   12.1320    6.7850  -21.5750 C   0  0  0  0  0
   11.0500    6.9250  -20.5150 C   0  0  0  0  0
   11.5590    6.2960  -19.1840 C   0  0  0  0  0
   11.6000    5.0320  -19.0960 O   0  0  0  0  0
   11.9420    7.0970  -18.2920 O   0  0  0  0  0
   10.7630    8.3670  -20.4110 N   0  3  0  0  0
   12.2230    7.6390  -25.3130 C   0  0  0  0  0
   13.0940    7.7000  -26.3980 C   0  0  0  0  0
   12.7160    8.3560  -27.5660 C   0  0  0  0  0
   11.4470    8.9160  -27.6500 C   0  0  0  0  0
   10.5640    8.8300  -26.5740 C   0  0  0  0  0
   10.9450    8.1840  -25.4010 C   0  0  0  0  0
   16.4873    6.1083  -20.5216 H   0  0  0  0  0
   17.3242    5.5873  -22.0045 H   0  0  0  0  0
   17.8707    7.0443  -21.1389 H   0  0  0  0  0
   14.6192    5.7072  -22.4915 H   0  0  0  0  0
   17.3118    9.0554  -22.1446 H   0  0  0  0  0
   15.7644   10.4377  -23.5243 H   0  0  0  0  0
   13.6248    9.4677  -24.3226 H   0  0  0  0  0
   10.5372    5.2521  -23.9121 H   0  0  0  0  0
   10.3813    2.8698  -24.5845 H   0  0  0  0  0
   12.3780    1.7281  -25.5397 H   0  0  0  0  0
   14.5109    2.9742  -25.7790 H   0  0  0  0  0
   14.6512    5.3647  -25.1315 H   0  0  0  0  0
   10.7131    6.6389  -23.1721 H   0  0  0  0  0
   11.4007    8.2777  -22.9249 H   0  0  0  0  0
   12.9709    7.4263  -21.3048 H   0  0  0  0  0
   12.4387    5.7403  -21.6254 H   0  0  0  0  0
   10.1289    6.3981  -20.7642 H   0  0  0  0  0
   11.2527    4.6447  -19.9029 H   0  0  0  0  0
   10.0388    8.5185  -19.7088 H   0  0  0  0  0
   11.6118    8.8626  -20.1382 H   0  0  0  0  0
   10.4405    8.7143  -21.3142 H   0  0  0  0  0
   14.0762    7.2319  -26.3322 H   0  0  0  0  0
   13.4076    8.4296  -28.4053 H   0  0  0  0  0
   11.1397    9.4259  -28.5630 H   0  0  0  0  0
    9.5702    9.2709  -26.6518 H   0  0  0  0  0
   10.2522    8.1060  -24.5631 H   0  0  0  0  0
  1  2  1  0  0  0
  2  3  4  0  0  0
  2  4  4  0  0  0
  3  7  4  0  0  0
  4  5  4  0  0  0
  5  6  4  0  0  0
  6  7  4  0  0  0
  7  8  1  0  0  0
  8  9  1  0  0  0
  8 15  1  0  0  0
  8 22  1  0  0  0
  9 10  4  0  0  0
  9 14  4  0  0  0
 10 11  4  0  0  0
 11 12  4  0  0  0
 12 13  4  0  0  0
 13 14  4  0  0  0
 15 16  1  0  0  0
 16 17  1  0  0  0
 17 18  1  0  0  0
 17 21  1  0  0  0
 18 19  1  0  0  0
 18 20  2  0  0  0
 22 23  4  0  0  0
 22 27  4  0  0  0
 23 24  4  0  0  0
 24 25  4  0  0  0
 25 26  4  0  0  0
 26 27  4  0  0  0
  1 28  1  0  0  0
  1 29  1  0  0  0
  1 30  1  0  0  0
  3 31  1  0  0  0
  4 32  1  0  0  0
  5 33  1  0  0  0
  6 34  1  0  0  0
 10 35  1  0  0  0
 11 36  1  0  0  0
 12 37  1  0  0  0
 13 38  1  0  0  0
 14 39  1  0  0  0
 15 40  1  0  0  0
 15 41  1  0  0  0
 16 42  1  0  0  0
 16 43  1  0  0  0
 17 44  1  0  0  0
 19 45  1  0  0  0
 21 46  1  0  0  0
 21 47  1  0  0  0
 21 48  1  0  0  0
 23 49  1  0  0  0
 24 50  1  0  0  0
 25 51  1  0  0  0
 26 52  1  0  0  0
 27 53  1  0  0  0
M  END
$$$$
