2weo_ligand
  -I-interpret- 

 17 17  0  0  0  0  0  0  0  0999 V2000
    4.0980   -6.1420   14.4400 C   0  0  0  0  0
    5.4490   -6.1390   14.7740 C   0  0  0  0  0
    6.0130   -5.0620   15.4780 C   0  0  0  0  0
    5.2440   -3.9490   15.8650 C   0  0  0  0  0
    3.8750   -3.9820   15.5050 C   0  0  0  0  0
    3.3170   -5.0570   14.7970 C   0  0  0  0  0
    5.9150   -2.6880   16.7200 S   0  0  0  0  0
    5.3850   -1.3090   16.0960 N   0  0  0  0  0
    5.3890   -2.8420   18.0400 O   0  0  0  0  0
    7.3490   -2.8070   16.5850 O   0  0  0  0  0
    6.2380   -7.1950   14.4320 F   0  0  0  0  0
    3.6619   -6.9859   13.9055 H   0  0  0  0  0
    7.0729   -5.0893   15.7308 H   0  0  0  0  0
    3.2347   -3.1461   15.7867 H   0  0  0  0  0
    2.2613   -5.0374   14.5264 H   0  0  0  0  0
    4.7698   -0.7054   16.6416 H   0  0  0  0  0
    5.6631   -1.0355   15.1535 H   0  0  0  0  0
  1  2  4  0  0  0
  1  6  4  0  0  0
  2  3  4  0  0  0
  2 11  1  0  0  0
  3  4  4  0  0  0
  4  5  4  0  0  0
  4  7  1  0  0  0
  5  6  4  0  0  0
  7  8  1  0  0  0
  7  9  2  0  0  0
  7 10  2  0  0  0
  1 12  1  0  0  0
  3 13  1  0  0  0
  5 14  1  0  0  0
  6 15  1  0  0  0
  8 16  1  0  0  0
  8 17  1  0  0  0
M  END
$$$$
