5n3w_ligand
  -I-interpret- 

 34 35  0  0  0  0  0  0  0  0999 V2000
    8.1370   -1.4230   -1.9230 C   0  0  0  0  0
    8.6460   -0.4310   -1.0440 O   0  0  0  0  0
    9.9910   -0.2840   -1.0850 C   0  0  0  0  0
   10.7010   -0.2930    0.1080 C   0  0  0  0  0
   10.6370   -0.1100   -2.3020 C   0  0  0  0  0
   11.9940    0.0380   -2.3450 C   0  0  0  0  0
   12.5230    0.2110   -3.5940 O   0  0  0  0  0
   12.6950    0.0160   -1.1240 C   0  0  0  0  0
   12.0810   -0.1510    0.1220 C   0  0  0  0  0
   12.6970   -0.2050    1.4040 C   0  0  0  0  0
   14.2440   -0.3740    1.3660 C   0  0  0  0  0
   14.7440   -0.8970    2.6350 C   0  0  0  0  0
   14.6800   -0.0930    3.7600 C   0  0  0  0  0
   15.1300   -0.5220    5.0270 C   0  0  0  0  0
   15.6830   -1.7850    5.2170 C   0  0  0  0  0
   15.7860   -2.6130    4.1160 C   0  0  0  0  0
   15.3260   -2.1630    2.8730 C   0  0  0  0  0
   15.4280   -3.0310    1.8660 O   0  0  0  0  0
    8.3981   -1.1656   -2.9495 H   0  0  0  0  0
    8.5709   -2.3898   -1.6679 H   0  0  0  0  0
    7.0526   -1.4725   -1.8240 H   0  0  0  0  0
   10.1652   -0.4137    1.0495 H   0  0  0  0  0
   10.0590   -0.0915   -3.2260 H   0  0  0  0  0
   13.4759    0.3058   -3.5264 H   0  0  0  0  0
   13.7780    0.1359   -1.1511 H   0  0  0  0  0
   12.2920   -1.0770    1.9175 H   0  0  0  0  0
   12.4905    0.7440    1.8989 H   0  0  0  0  0
   14.6982    0.6003    1.1857 H   0  0  0  0  0
   14.5000   -1.0764    0.5728 H   0  0  0  0  0
   14.2659    0.9106    3.6636 H   0  0  0  0  0
   15.0422    0.1530    5.8784 H   0  0  0  0  0
   16.0230   -2.1096    6.2004 H   0  0  0  0  0
   16.2214   -3.6074    4.2143 H   0  0  0  0  0
   15.8407   -3.8383    2.1815 H   0  0  0  0  0
  1  2  1  0  0  0
  2  3  1  0  0  0
  3  4  4  0  0  0
  3  5  4  0  0  0
  4  9  4  0  0  0
  5  6  4  0  0  0
  6  7  1  0  0  0
  6  8  4  0  0  0
  8  9  4  0  0  0
  9 10  1  0  0  0
 10 11  1  0  0  0
 11 12  1  0  0  0
 12 13  4  0  0  0
 12 17  4  0  0  0
 13 14  4  0  0  0
 14 15  4  0  0  0
 15 16  4  0  0  0
 16 17  4  0  0  0
 17 18  1  0  0  0
  1 19  1  0  0  0
  1 20  1  0  0  0
  1 21  1  0  0  0
  4 22  1  0  0  0
  5 23  1  0  0  0
  7 24  1  0  0  0
  8 25  1  0  0  0
 10 26  1  0  0  0
 10 27  1  0  0  0
 11 28  1  0  0  0
 11 29  1  0  0  0
 13 30  1  0  0  0
 14 31  1  0  0  0
 15 32  1  0  0  0
 16 33  1  0  0  0
 18 34  1  0  0  0
M  END
$$$$
