2y77_ligand
  -I-interpret- 

 49 52  0  0  0  0  0  0  0  0999 V2000
    2.9040   13.9280   23.1960 C   0  0  0  0  0
    2.6640   13.3050   21.8120 C   0  0  0  0  0
    3.7080   13.7540   20.9280 O   0  0  0  0  0
    2.6300   11.7740   21.8920 C   0  0  0  0  0
    2.0630   11.2490   20.6830 O   0  0  0  0  0
    1.7360   11.3370   23.0510 C   0  0  0  0  0
    2.3530   11.7910   24.3830 C   0  0  0  0  0
    1.5660   11.3000   25.5910 C   0  0  0  0  0
    2.1970   11.2340   26.6680 O   0  0  0  0  0
    0.3710   11.0030   25.4260 O   0  0  0  0  0
    3.8540   10.9960   24.5060 O   0  0  0  0  0
    2.6220   13.3040   24.4060 C   0  0  0  0  0
    0.2950   17.0970   24.4200 C   0  0  0  0  0
    0.0350   17.7550   25.5740 C   0  0  0  0  0
   -1.2030   18.0950   26.1210 C   0  0  0  0  0
   -1.2960   18.7790   27.3260 C   0  0  0  0  0
   -0.1410   19.1400   28.0050 C   0  0  0  0  0
    1.1060   18.8130   27.4810 C   0  0  0  0  0
    1.1960   18.1270   26.2750 C   0  0  0  0  0
    2.5210   17.5950   25.3710 S   0  0  0  0  0
    1.5930   16.9200   24.1430 C   0  0  0  0  0
    2.1300   16.2340   23.0030 C   0  0  0  0  0
    3.3350   15.2340   23.2420 O   0  0  0  0  0
    2.8810   14.0110   25.7480 C   0  0  0  0  0
    1.5470   14.4020   26.4020 C   0  0  0  0  0
    1.3490   14.9570   27.6000 C   0  0  0  0  0
    0.0540   15.2010   27.9020 C   0  0  0  0  0
   -0.8500   14.8530   26.9720 C   0  0  0  0  0
    0.0330   14.2130   25.6840 S   0  0  0  0  0
    1.6940   13.6224   21.4294 H   0  0  0  0  0
    3.7078   14.7135   20.8958 H   0  0  0  0  0
    3.6461   11.4067   22.0363 H   0  0  0  0  0
    2.6070   11.5097   19.9362 H   0  0  0  0  0
    1.6455   10.2508   23.0471 H   0  0  0  0  0
    0.7509   11.7894   22.9371 H   0  0  0  0  0
    3.1024   11.5193   26.5251 H   0  0  0  0  0
    4.4140   11.2565   23.7710 H   0  0  0  0  0
   -0.4963   16.7367   23.7627 H   0  0  0  0  0
   -2.1150   17.8182   25.5920 H   0  0  0  0  0
   -2.2734   19.0315   27.7372 H   0  0  0  0  0
   -0.2105   19.6800   28.9493 H   0  0  0  0  0
    2.0127   19.0948   28.0163 H   0  0  0  0  0
    2.5249   17.0150   22.3532 H   0  0  0  0  0
    1.3139   15.6200   22.6222 H   0  0  0  0  0
    3.4710   14.9103   25.5715 H   0  0  0  0  0
    3.4209   13.3350   26.4111 H   0  0  0  0  0
    2.1666   15.1946   28.2806 H   0  0  0  0  0
   -0.2401   15.6552   28.8482 H   0  0  0  0  0
   -1.9327   14.9617   27.0359 H   0  0  0  0  0
  1  2  1  0  0  0
  1 12  2  0  0  0
 23  1  1  0  0  0
  2  3  1  0  0  0
  2  4  1  0  0  0
  4  5  1  0  0  0
  4  6  1  0  0  0
  7  6  1  0  0  0
  7  8  1  0  0  0
  7 11  1  0  0  0
 12  7  1  0  0  0
  8  9  1  0  0  0
  8 10  2  0  0  0
 12 24  1  0  0  0
 13 14  4  0  0  0
 21 13  4  0  0  0
 14 15  4  0  0  0
 19 14  4  0  0  0
 15 16  4  0  0  0
 17 16  4  0  0  0
 18 17  4  0  0  0
 19 18  4  0  0  0
 20 19  4  0  0  0
 21 20  4  0  0  0
 22 21  1  0  0  0
 22 23  1  0  0  0
 24 25  1  0  0  0
 25 26  4  0  0  0
 25 29  4  0  0  0
 26 27  4  0  0  0
 27 28  4  0  0  0
 28 29  4  0  0  0
  2 30  1  0  0  0
  3 31  1  0  0  0
  4 32  1  0  0  0
  5 33  1  0  0  0
  6 34  1  0  0  0
  6 35  1  0  0  0
  9 36  1  0  0  0
 11 37  1  0  0  0
 13 38  1  0  0  0
 15 39  1  0  0  0
 16 40  1  0  0  0
 17 41  1  0  0  0
 18 42  1  0  0  0
 22 43  1  0  0  0
 22 44  1  0  0  0
 24 45  1  0  0  0
 24 46  1  0  0  0
 26 47  1  0  0  0
 27 48  1  0  0  0
 28 49  1  0  0  0
M  END
$$$$
