4r75_ligand
  -I-interpret- 

 33 33  0  0  0  0  0  0  0  0999 V2000
  -16.1190  -10.5370   14.9510 O   0  0  0  0  0
  -15.6440  -10.2030   13.6300 C   0  0  0  0  0
  -14.1260   -9.8820   13.6630 C   0  0  0  0  0
  -13.3870  -10.9700   14.0280 O   0  0  0  0  0
  -13.7540   -9.4260   12.3340 O   0  0  0  0  0
  -12.9710   -8.2110   12.4230 C   0  0  0  0  0
  -11.8900   -8.3010   11.4150 C   0  0  0  0  0
  -11.1690   -7.0980   11.3740 O   0  0  0  0  0
  -12.4260   -8.6080    9.9170 C   0  0  0  0  0
  -11.5230   -8.0720    8.9940 O   0  0  0  0  0
  -10.7990   -9.0100    7.9280 P   0  0  0  0  0
  -10.0070   -8.0560    7.0810 O   0  0  0  0  0
  -11.8550   -9.7580    7.1510 O   0  0  0  0  0
   -9.8820   -9.9800    8.6600 O   0  0  0  0  0
  -12.5390   -8.1990   13.8690 C   0  0  0  0  0
  -12.1890   -6.8250   14.3210 O   0  0  0  0  0
  -13.7700   -8.6890   14.5200 C   0  0  0  0  0
  -13.6330   -9.0070   15.8940 O   0  0  0  0  0
  -17.0581  -10.7324   14.9122 H   0  0  0  0  0
  -16.1835   -9.3266   13.2709 H   0  0  0  0  0
  -15.8119  -11.0526   12.9681 H   0  0  0  0  0
  -13.6252  -11.7175   13.4747 H   0  0  0  0  0
  -13.4726   -7.2704   12.1952 H   0  0  0  0  0
  -11.2632   -9.1361   11.7278 H   0  0  0  0  0
  -10.8398   -6.8934   12.2523 H   0  0  0  0  0
  -13.4078   -8.1557    9.7771 H   0  0  0  0  0
  -12.5088   -9.6847    9.7688 H   0  0  0  0  0
  -12.3265  -10.3497    7.7419 H   0  0  0  0  0
  -10.4108  -10.5779    9.1933 H   0  0  0  0  0
  -11.6469   -8.7871   14.0841 H   0  0  0  0  0
  -11.3862   -6.5388   13.8792 H   0  0  0  0  0
  -14.5475   -7.9263   14.5629 H   0  0  0  0  0
  -14.4755   -9.3155   16.2354 H   0  0  0  0  0
  1  2  1  0  0  0
  2  3  1  0  0  0
  3  4  1  0  0  0
  3  5  1  0  0  0
  3 17  1  0  0  0
  5  6  1  0  0  0
  6  7  1  0  0  0
  6 15  1  0  0  0
  7  8  1  0  0  0
  7  9  1  0  0  0
  9 10  1  0  0  0
 10 11  1  0  0  0
 11 12  2  0  0  0
 11 13  1  0  0  0
 11 14  1  0  0  0
 15 16  1  0  0  0
 15 17  1  0  0  0
 17 18  1  0  0  0
  1 19  1  0  0  0
  2 20  1  0  0  0
  2 21  1  0  0  0
  4 22  1  0  0  0
  6 23  1  0  0  0
  7 24  1  0  0  0
  8 25  1  0  0  0
  9 26  1  0  0  0
  9 27  1  0  0  0
 13 28  1  0  0  0
 14 29  1  0  0  0
 15 30  1  0  0  0
 16 31  1  0  0  0
 17 32  1  0  0  0
 18 33  1  0  0  0
M  END
$$$$
