5ofw_ligand
  -I-interpret- 

 16 16  0  0  0  0  0  0  0  0999 V2000
  -26.4130   14.6760    6.0190 C   0  0  0  0  0
  -25.9030   13.4240    6.2390 C   0  0  0  0  0
  -24.9260   13.2460    7.1890 C   0  0  0  0  0
  -24.5770   14.2420    8.0470 C   0  0  0  0  0
  -25.1130   15.5130    7.8440 C   0  0  0  0  0
  -26.0560   15.7260    6.8450 C   0  0  0  0  0
  -26.3730   12.1170    5.2210 Cl  0  0  0  0  0
  -24.3840   12.0190    7.3490 F   0  0  0  0  0
  -26.6800   17.0730    6.6010 C   0  0  0  0  0
  -27.3460   17.2590    5.5750 O   0  0  0  0  0
  -26.4510   18.0400    7.4940 N   0  0  0  0  0
  -27.1016   14.8450    5.1912 H   0  0  0  0  0
  -23.8938   14.0509    8.8745 H   0  0  0  0  0
  -24.7910   16.3439    8.4718 H   0  0  0  0  0
  -26.8310   18.9744    7.3426 H   0  0  0  0  0
  -25.8962   17.8439    8.3271 H   0  0  0  0  0
  1  2  4  0  0  0
  1  6  4  0  0  0
  2  3  4  0  0  0
  2  7  1  0  0  0
  3  4  4  0  0  0
  3  8  1  0  0  0
  4  5  4  0  0  0
  5  6  4  0  0  0
  6  9  1  0  0  0
  9 10  2  0  0  0
  9 11  1  0  0  0
  1 12  1  0  0  0
  4 13  1  0  0  0
  5 14  1  0  0  0
 11 15  1  0  0  0
 11 16  1  0  0  0
M  END
$$$$
