5ot9_ligand
  -I-interpret- 

 29 29  0  0  0  0  0  0  0  0999 V2000
   21.5590   -4.4400   -0.4450 O   0  0  0  0  0
   20.4570   -5.0540   -0.2550 C   0  0  0  0  0
   20.2500   -6.5100   -0.7150 C   0  0  0  0  0
   20.7930   -7.4640    0.3280 C   0  0  0  0  0
   18.8560   -6.8700   -1.0550 N   0  3  0  0  0
   18.0990   -6.0650   -1.9970 C   0  0  0  0  0
   16.7960   -6.7370   -2.3780 C   0  0  0  0  0
   16.5890   -7.9260   -2.0170 O   0  0  0  0  0
   15.9050   -6.1040   -3.0190 O   0  0  0  0  0
   18.8140   -5.4370   -3.1950 C   0  0  0  0  0
   19.3190   -6.3200   -4.3090 C   0  0  0  0  0
   19.5220   -5.9180   -5.5760 N   0  0  0  0  0
   19.6710   -7.6720   -4.2860 C   0  0  0  0  0
   19.9760   -6.9350   -6.2970 C   0  0  0  0  0
   20.0850   -8.0020   -5.5230 N   0  0  0  0  0
   19.4980   -4.4780    0.2930 O   0  0  0  0  0
   22.1825   -5.0296   -0.8754 H   0  0  0  0  0
   20.8043   -6.5982   -1.6494 H   0  0  0  0  0
   20.1783   -7.4064    1.2263 H   0  0  0  0  0
   20.7706   -8.4806   -0.0646 H   0  0  0  0  0
   21.8196   -7.1893    0.5704 H   0  0  0  0  0
   18.3487   -6.7728   -0.1755 H   0  0  0  0  0
   18.9339   -7.7809   -1.5073 H   0  0  0  0  0
   17.9030   -5.1687   -1.4085 H   0  0  0  0  0
   16.2213   -5.2190   -3.2150 H   0  0  0  0  0
   19.7116   -4.9842   -2.7738 H   0  0  0  0  0
   18.0609   -4.8043   -3.6647 H   0  0  0  0  0
   19.6196   -8.3373   -3.4241 H   0  0  0  0  0
   20.2204   -6.8972   -7.3586 H   0  0  0  0  0
  1  2  1  0  0  0
  2  3  1  0  0  0
  2 16  2  0  0  0
  3  4  1  0  0  0
  3  5  1  0  0  0
  5  6  1  0  0  0
  6  7  1  0  0  0
  6 10  1  0  0  0
  7  8  2  0  0  0
  7  9  1  0  0  0
 10 11  1  0  0  0
 11 12  4  0  0  0
 11 13  4  0  0  0
 12 14  4  0  0  0
 13 15  4  0  0  0
 14 15  4  0  0  0
  1 17  1  0  0  0
  3 18  1  0  0  0
  4 19  1  0  0  0
  4 20  1  0  0  0
  4 21  1  0  0  0
  5 22  1  0  0  0
  5 23  1  0  0  0
  6 24  1  0  0  0
  9 25  1  0  0  0
 10 26  1  0  0  0
 10 27  1  0  0  0
 13 28  1  0  0  0
 14 29  1  0  0  0
M  END
$$$$
