3as3_ligand
  -I-interpret- 

 28 30  0  0  0  0  0  0  0  0999 V2000
   -0.1800    5.1350   20.2270 C   0  0  0  0  0
   -1.3890    5.1160   20.9710 C   0  0  0  0  0
   -2.4460    6.0170   20.6850 C   0  0  0  0  0
   -2.2740    6.9380   19.6440 C   0  0  0  0  0
   -1.0740    6.9660   18.9050 C   0  0  0  0  0
   -0.0390    6.0750   19.1970 C   0  0  0  0  0
   -3.6800    6.2230   21.2060 C   0  0  0  0  0
   -4.3010    7.2360   20.5540 C   0  0  0  0  0
   -3.4360    7.6830   19.5770 O   0  0  0  0  0
   -5.6070    7.7930   20.7000 C   0  0  0  0  0
   -6.2440    8.5020   19.7330 N   0  0  0  0  0
   -7.6220    8.8930   20.1030 C   0  0  0  0  0
   -7.7650    8.2780   21.4910 C   0  0  0  0  0
   -6.4590    7.6020   21.7280 N   0  0  0  0  0
    0.8700    4.2960   20.4640 N   0  0  0  0  0
    0.7810    2.9860   20.7490 C   0  0  0  0  0
    2.1620    1.9430   21.0000 S   0  0  0  0  0
   -1.5072    4.3938   21.7788 H   0  0  0  0  0
   -0.9528    7.6893   18.0987 H   0  0  0  0  0
    0.8849    6.1109   18.6198 H   0  0  0  0  0
   -4.1111    5.6556   22.0308 H   0  0  0  0  0
   -5.8147    8.7415   18.8393 H   0  0  0  0  0
   -8.3743    8.5427   19.3963 H   0  0  0  0  0
   -7.7827    9.9710   20.0901 H   0  0  0  0  0
   -8.6036    7.5841   21.5488 H   0  0  0  0  0
   -7.9843    9.0270   22.2519 H   0  0  0  0  0
    1.8058    4.6994   20.4209 H   0  0  0  0  0
   -0.2132    2.5463   20.8287 H   0  0  0  0  0
  1  2  4  0  0  0
  1  6  4  0  0  0
  1 15  1  0  0  0
  2  3  4  0  0  0
  3  4  4  0  0  0
  3  7  4  0  0  0
  4  5  4  0  0  0
  4  9  4  0  0  0
  5  6  4  0  0  0
  7  8  4  0  0  0
  8  9  4  0  0  0
  8 10  1  0  0  0
 10 11  1  0  0  0
 10 14  2  0  0  0
 11 12  1  0  0  0
 12 13  1  0  0  0
 13 14  1  0  0  0
 15 16  1  0  0  0
 16 17  2  0  0  0
  2 18  1  0  0  0
  5 19  1  0  0  0
  6 20  1  0  0  0
  7 21  1  0  0  0
 11 22  1  0  0  0
 12 23  1  0  0  0
 12 24  1  0  0  0
 13 25  1  0  0  0
 13 26  1  0  0  0
 15 27  1  0  0  0
 16 28  1  0  0  0
M  END
$$$$
