6afk_ligand
  -I-interpret- 

 49 53  0  0  0  0  0  0  0  0999 V2000
   41.4210  -26.8510   -5.0420 C   0  0  0  0  0
   42.4980  -27.6860   -4.6640 C   0  0  0  0  0
   43.8270  -27.4290   -4.2300 C   0  0  0  0  0
   44.6790  -28.4910   -3.9290 C   0  0  0  0  0
   44.2220  -29.8090   -4.0540 C   0  0  0  0  0
   42.9130  -30.0610   -4.4760 C   0  0  0  0  0
   42.0360  -28.9790   -4.7880 C   0  0  0  0  0
   40.7390  -28.9600   -5.2130 N   0  0  0  0  0
   40.3660  -27.7000   -5.3710 C   0  0  0  0  0
   38.9890  -27.2050   -5.8060 C   0  0  0  0  0
   38.3010  -27.8630   -6.5130 O   0  0  0  0  0
   38.5460  -25.9170   -5.2770 N   0  0  0  0  0
   37.2220  -25.3350   -5.6260 C   0  0  0  0  0
   37.4560  -23.9220   -6.0940 C   0  0  0  0  0
   36.3090  -25.2790   -4.4890 C   0  0  0  0  0
   34.9980  -24.7400   -4.8340 C   0  0  0  0  0
   35.0120  -23.5100   -5.7450 C   0  0  0  0  0
   36.1860  -23.4500   -6.7410 N   0  0  0  0  0
   35.9930  -23.8410   -8.0940 C   0  0  0  0  0
   34.8570  -23.5500   -8.8280 C   0  0  0  0  0
   36.8380  -24.5260   -8.8350 N   0  0  0  0  0
   36.3320  -24.7030  -10.0280 N   0  0  0  0  0
   35.1550  -24.1280  -10.0560 C   0  0  0  0  0
   34.2480  -24.1080  -11.2030 C   0  0  0  0  0
   34.6560  -24.7170  -12.3470 C   0  0  0  0  0
   33.7930  -24.6990  -13.3880 C   0  0  0  0  0
   32.6210  -24.1100  -13.2690 N   0  0  0  0  0
   32.2300  -23.5110  -12.1820 C   0  0  0  0  0
   33.0320  -23.5020  -11.0890 C   0  0  0  0  0
   41.4169  -25.7614   -5.0703 H   0  0  0  0  0
   44.1799  -26.4023   -4.1326 H   0  0  0  0  0
   45.6987  -28.2958   -3.5971 H   0  0  0  0  0
   44.8881  -30.6400   -3.8218 H   0  0  0  0  0
   42.5607  -31.0885   -4.5671 H   0  0  0  0  0
   39.1631  -25.4013   -4.6495 H   0  0  0  0  0
   36.7675  -25.9686   -6.3876 H   0  0  0  0  0
   38.2834  -23.8853   -6.8026 H   0  0  0  0  0
   37.7199  -23.2792   -5.2542 H   0  0  0  0  0
   36.7513  -24.6210   -3.7410 H   0  0  0  0  0
   36.1642  -26.2979   -4.1299 H   0  0  0  0  0
   34.5337  -24.4287   -3.8983 H   0  0  0  0  0
   34.4728  -25.5245   -5.3788 H   0  0  0  0  0
   35.1053  -22.6391   -5.0961 H   0  0  0  0  0
   34.0982  -23.5474   -6.3380 H   0  0  0  0  0
   33.9616  -23.0085   -8.5227 H   0  0  0  0  0
   35.6318  -25.1969  -12.4221 H   0  0  0  0  0
   34.0685  -25.1740  -14.3296 H   0  0  0  0  0
   31.2588  -23.0171  -12.1503 H   0  0  0  0  0
   32.7178  -23.0300  -10.1581 H   0  0  0  0  0
  1  2  4  0  0  0
  1  9  4  0  0  0
  2  3  4  0  0  0
  2  7  4  0  0  0
  3  4  4  0  0  0
  4  5  4  0  0  0
  5  6  4  0  0  0
  6  7  4  0  0  0
  7  8  4  0  0  0
  8  9  4  0  0  0
  9 10  1  0  0  0
 10 11  2  0  0  0
 10 12  1  0  0  0
 12 13  1  0  0  0
 13 14  1  0  0  0
 13 15  1  0  0  0
 14 18  1  0  0  0
 15 16  1  0  0  0
 16 17  1  0  0  0
 17 18  1  0  0  0
 18 19  1  0  0  0
 19 20  4  0  0  0
 19 21  4  0  0  0
 20 23  4  0  0  0
 21 22  4  0  0  0
 22 23  4  0  0  0
 23 24  1  0  0  0
 24 25  4  0  0  0
 24 29  4  0  0  0
 25 26  4  0  0  0
 26 27  4  0  0  0
 27 28  4  0  0  0
 28 29  4  0  0  0
  1 30  1  0  0  0
  3 31  1  0  0  0
  4 32  1  0  0  0
  5 33  1  0  0  0
  6 34  1  0  0  0
 12 35  1  0  0  0
 13 36  1  0  0  0
 14 37  1  0  0  0
 14 38  1  0  0  0
 15 39  1  0  0  0
 15 40  1  0  0  0
 16 41  1  0  0  0
 16 42  1  0  0  0
 17 43  1  0  0  0
 17 44  1  0  0  0
 20 45  1  0  0  0
 25 46  1  0  0  0
 26 47  1  0  0  0
 28 48  1  0  0  0
 29 49  1  0  0  0
M  END
$$$$
