5y7z_ligand
  -I-interpret- 

 56 59  0  0  0  0  0  0  0  0999 V2000
   10.5490  -22.6340   16.5970 C   0  0  0  0  0
   11.3100  -21.8610   17.6610 C   0  0  0  0  0
   12.3090  -21.0610   17.0490 O   0  0  0  0  0
   11.7980  -20.2040   16.0440 C   0  0  0  0  0
   10.9610  -20.9750   15.0200 C   0  0  0  0  0
    9.8600  -21.6190   15.7780 N   0  3  0  0  0
    9.0530  -22.4140   14.8100 C   0  0  0  0  0
    7.9810  -21.4510   14.2490 C   0  0  0  0  0
    6.5950  -22.1500   14.2430 C   0  0  0  0  0
    6.2040  -22.6860   15.5300 O   0  0  0  0  0
    4.9710  -23.3320   15.6800 C   0  0  0  0  0
    4.7790  -24.5740   16.4250 C   0  0  0  0  0
    3.5040  -25.1230   16.5140 C   0  0  0  0  0
    5.8940  -25.1590   17.0170 O   0  0  0  0  0
    5.7470  -25.8050   18.2950 C   0  0  0  0  0
    3.8220  -22.7780   15.1040 C   0  0  0  0  0
    2.4870  -23.3200   15.1770 C   0  0  0  0  0
    2.3250  -24.5290   15.9040 C   0  0  0  0  0
    1.0570  -25.1330   16.0270 N   0  0  0  0  0
    0.0200  -24.5220   15.4350 C   0  0  0  0  0
    0.0610  -23.3380   14.7010 N   0  0  0  0  0
    1.2690  -22.7270   14.5570 C   0  0  0  0  0
    1.2970  -21.5180   13.8070 N   0  0  0  0  0
    0.1760  -20.6770   13.3870 C   0  0  0  0  0
   -0.8740  -20.3060   14.2520 C   0  0  0  0  0
   -1.9430  -19.5070   13.8630 C   0  0  0  0  0
   -3.2150  -19.0890   14.9880 Cl  0  0  0  0  0
   -2.0330  -19.0090   12.5500 C   0  0  0  0  0
   -3.0020  -18.2670   12.1500 F   0  0  0  0  0
   -0.9980  -19.3680   11.6840 C   0  0  0  0  0
    0.0690  -20.1710   12.0820 C   0  0  0  0  0
    9.8399  -23.3306   17.0442 H   0  0  0  0  0
   11.2214  -23.2420   15.9917 H   0  0  0  0  0
   11.7809  -22.5626   18.3495 H   0  0  0  0  0
   10.6174  -21.2195   18.2060 H   0  0  0  0  0
   12.6378  -19.7418   15.5252 H   0  0  0  0  0
   11.1609  -19.4576   16.5184 H   0  0  0  0  0
   11.5657  -21.7188   14.5012 H   0  0  0  0  0
   10.5691  -20.3071   14.2529 H   0  0  0  0  0
    9.2911  -20.9477   16.2938 H   0  0  0  0  0
    8.5928  -23.2746   15.2955 H   0  0  0  0  0
    9.6785  -22.8138   14.0119 H   0  0  0  0  0
    8.2471  -21.1709   13.2297 H   0  0  0  0  0
    7.9325  -20.5614   14.8770 H   0  0  0  0  0
    6.6567  -22.9873   13.5478 H   0  0  0  0  0
    5.8544  -21.4001   13.9651 H   0  0  0  0  0
    3.3816  -26.0510   17.0726 H   0  0  0  0  0
    5.3956  -25.0798   19.0290 H   0  0  0  0  0
    5.0244  -26.6166   18.2095 H   0  0  0  0  0
    6.7101  -26.2061   18.6109 H   0  0  0  0  0
    3.9477  -21.8492   14.5476 H   0  0  0  0  0
   -0.9540  -25.0002   15.5385 H   0  0  0  0  0
    2.2222  -21.1946   13.5245 H   0  0  0  0  0
   -0.8459  -20.6650   15.2808 H   0  0  0  0  0
   -1.0259  -19.0058   10.6563 H   0  0  0  0  0
    0.8455  -20.4140   11.3567 H   0  0  0  0  0
  1  2  1  0  0  0
  1  6  1  0  0  0
  2  3  1  0  0  0
  3  4  1  0  0  0
  4  5  1  0  0  0
  5  6  1  0  0  0
  6  7  1  0  0  0
  7  8  1  0  0  0
  8  9  1  0  0  0
  9 10  1  0  0  0
 10 11  1  0  0  0
 11 12  4  0  0  0
 11 16  4  0  0  0
 12 13  4  0  0  0
 12 14  1  0  0  0
 13 18  4  0  0  0
 14 15  1  0  0  0
 16 17  4  0  0  0
 17 18  4  0  0  0
 17 22  4  0  0  0
 18 19  4  0  0  0
 19 20  4  0  0  0
 20 21  4  0  0  0
 21 22  4  0  0  0
 22 23  1  0  0  0
 23 24  1  0  0  0
 24 25  4  0  0  0
 24 31  4  0  0  0
 25 26  4  0  0  0
 26 27  1  0  0  0
 26 28  4  0  0  0
 28 29  1  0  0  0
 28 30  4  0  0  0
 30 31  4  0  0  0
  1 32  1  0  0  0
  1 33  1  0  0  0
  2 34  1  0  0  0
  2 35  1  0  0  0
  4 36  1  0  0  0
  4 37  1  0  0  0
  5 38  1  0  0  0
  5 39  1  0  0  0
  6 40  1  0  0  0
  7 41  1  0  0  0
  7 42  1  0  0  0
  8 43  1  0  0  0
  8 44  1  0  0  0
  9 45  1  0  0  0
  9 46  1  0  0  0
 13 47  1  0  0  0
 15 48  1  0  0  0
 15 49  1  0  0  0
 15 50  1  0  0  0
 16 51  1  0  0  0
 20 52  1  0  0  0
 23 53  1  0  0  0
 25 54  1  0  0  0
 30 55  1  0  0  0
 31 56  1  0  0  0
M  END
$$$$
