4tyo_ligand
  -I-interpret- 

 43 46  0  0  0  0  0  0  0  0999 V2000
   16.1950   -0.4420    0.4930 O   0  0  0  0  0
   15.2710    0.2610    0.0190 C   0  0  0  0  0
   14.6490    0.0450   -1.0560 O   0  0  0  0  0
   14.8860    1.5200    0.8080 C   0  0  0  0  0
   15.9070    2.6120    0.4720 C   0  0  0  0  0
   15.5950    3.9630    1.0020 C   0  0  0  0  0
   14.7580    4.8180    0.4450 N   0  0  0  0  0
   14.7490    5.9250    1.2980 C   0  0  0  0  0
   14.0160    7.1120    1.2480 C   0  0  0  0  0
   14.1880    8.0630    2.2450 C   0  0  0  0  0
   15.0870    7.8030    3.2590 C   0  0  0  0  0
   15.2170    8.7150    4.2620 F   0  0  0  0  0
   15.8230    6.6390    3.3520 C   0  0  0  0  0
   15.6240    5.6950    2.3590 C   0  0  0  0  0
   16.1240    4.4250    2.1540 N   0  0  0  0  0
   13.5220    1.9390    0.5010 N   0  0  0  0  0
   12.7390    2.5010    1.4340 C   0  0  0  0  0
   13.1020    2.6040    2.6060 O   0  0  0  0  0
   11.4340    3.0850    0.9750 C   0  0  0  0  0
   10.8230    4.0300    1.8040 C   0  0  0  0  0
    9.6640    4.6460    1.4320 C   0  0  0  0  0
    9.0560    4.3670    0.1890 C   0  0  0  0  0
    7.8970    5.0440   -0.2660 C   0  0  0  0  0
    7.3690    4.7710   -1.4910 C   0  0  0  0  0
    7.9500    3.8220   -2.3150 C   0  0  0  0  0
    9.0670    3.1440   -1.9160 C   0  0  0  0  0
    9.6560    3.4020   -0.6560 C   0  0  0  0  0
   10.8460    2.7660   -0.2290 C   0  0  0  0  0
   13.9918    0.7323   -1.1878 H   0  0  0  0  0
   14.9057    1.3164    1.8786 H   0  0  0  0  0
   15.9211    2.7003   -0.6143 H   0  0  0  0  0
   16.8483    2.3085    0.9301 H   0  0  0  0  0
   13.3145    7.2908    0.4331 H   0  0  0  0  0
   13.6244    8.9958    2.2270 H   0  0  0  0  0
   16.5266    6.4712    4.1674 H   0  0  0  0  0
   13.1570    1.8018   -0.4415 H   0  0  0  0  0
   11.2794    4.2785    2.7621 H   0  0  0  0  0
    9.1996    5.3658    2.1060 H   0  0  0  0  0
    7.4235    5.7909    0.3712 H   0  0  0  0  0
    6.4799    5.3050   -1.8264 H   0  0  0  0  0
    7.5121    3.6139   -3.2912 H   0  0  0  0  0
    9.5088    2.3967   -2.5752 H   0  0  0  0  0
   11.3058    2.0095   -0.8649 H   0  0  0  0  0
  1  2  2  0  0  0
  2  3  1  0  0  0
  2  4  1  0  0  0
  4  5  1  0  0  0
  4 16  1  0  0  0
  5  6  1  0  0  0
  6  7  4  0  0  0
  6 15  4  0  0  0
  7  8  4  0  0  0
  8  9  4  0  0  0
  8 14  4  0  0  0
  9 10  4  0  0  0
 10 11  4  0  0  0
 11 12  1  0  0  0
 11 13  4  0  0  0
 13 14  4  0  0  0
 14 15  4  0  0  0
 16 17  1  0  0  0
 17 18  2  0  0  0
 17 19  1  0  0  0
 19 20  4  0  0  0
 19 28  4  0  0  0
 20 21  4  0  0  0
 21 22  4  0  0  0
 22 23  4  0  0  0
 22 27  4  0  0  0
 23 24  4  0  0  0
 24 25  4  0  0  0
 25 26  4  0  0  0
 26 27  4  0  0  0
 27 28  4  0  0  0
  3 29  1  0  0  0
  4 30  1  0  0  0
  5 31  1  0  0  0
  5 32  1  0  0  0
  9 33  1  0  0  0
 10 34  1  0  0  0
 13 35  1  0  0  0
 16 36  1  0  0  0
 20 37  1  0  0  0
 21 38  1  0  0  0
 23 39  1  0  0  0
 24 40  1  0  0  0
 25 41  1  0  0  0
 26 42  1  0  0  0
 28 43  1  0  0  0
M  END
$$$$
