3mb7_ligand
  -I-interpret- 

 30 33  0  0  0  0  0  0  0  0999 V2000
   22.8660    9.3970   11.2570 C   0  0  0  0  0
   22.7010   10.5610   12.0090 C   0  0  0  0  0
   22.5960   10.4360   13.3870 C   0  0  0  0  0
   22.6480    9.1440   14.0830 C   0  0  0  0  0
   22.8020    7.9790   13.3410 C   0  0  0  0  0
   22.9180    8.1300   11.8550 C   0  0  0  0  0
   22.8710    6.6850   13.8470 C   0  0  0  0  0
   23.0360    5.5680   12.9070 C   0  0  0  0  0
   23.1460    5.7300   11.5360 C   0  0  0  0  0
   23.0810    7.0120   11.0240 C   0  0  0  0  0
   22.5140    9.4020   15.4950 C   0  0  0  0  0
   22.3890   10.8000   15.5710 C   0  0  0  0  0
   22.4400   11.4470   14.3590 O   0  0  0  0  0
   22.8010    6.1320   15.1770 C   0  0  0  0  0
   22.9250    4.7520   14.9700 C   0  0  0  0  0
   23.0840    4.3830   13.6570 O   0  0  0  0  0
   22.9000    3.7000   16.0080 C   0  0  0  0  0
   22.2280   11.6010   16.8080 C   0  0  0  0  0
   22.1760   11.0350   17.9120 O   0  0  0  0  0
   23.0130    2.5320   15.5740 O   0  0  0  0  0
   22.7810    4.0070   17.2170 O   0  0  0  0  0
   22.1360   12.8340   16.6680 O   0  0  0  0  0
   22.9571    9.4752   10.1736 H   0  0  0  0  0
   22.6560   11.5384   11.5286 H   0  0  0  0  0
   23.2801    4.8705   10.8792 H   0  0  0  0  0
   23.1584    7.1580    9.9466 H   0  0  0  0  0
   22.5104    8.6813   16.3127 H   0  0  0  0  0
   22.6801    6.6629   16.1213 H   0  0  0  0  0
   22.7110    4.9610   17.2984 H   0  0  0  0  0
   22.2017   13.0549   15.7361 H   0  0  0  0  0
  1  2  4  0  0  0
  1  6  4  0  0  0
  2  3  4  0  0  0
  3  4  4  0  0  0
  3 13  4  0  0  0
  4  5  4  0  0  0
  4 11  4  0  0  0
  5  6  4  0  0  0
  5  7  4  0  0  0
  6 10  4  0  0  0
  7  8  4  0  0  0
  7 14  4  0  0  0
  8  9  4  0  0  0
  8 16  4  0  0  0
  9 10  4  0  0  0
 11 12  4  0  0  0
 12 13  4  0  0  0
 12 18  1  0  0  0
 14 15  4  0  0  0
 15 16  4  0  0  0
 15 17  1  0  0  0
 17 20  2  0  0  0
 17 21  1  0  0  0
 18 19  2  0  0  0
 18 22  1  0  0  0
  1 23  1  0  0  0
  2 24  1  0  0  0
  9 25  1  0  0  0
 10 26  1  0  0  0
 11 27  1  0  0  0
 14 28  1  0  0  0
 21 29  1  0  0  0
 22 30  1  0  0  0
M  END
$$$$
