1ppk_ligand
  -I-interpret- 

 81 80  0  0  0  0  0  0  0  0999 V2000
   15.8930    4.2760   17.6750 C   0  0  0  0  0
   14.6850    3.7270   18.3960 C   0  0  0  0  0
   14.2890    4.9130   19.2440 C   0  0  0  0  0
   13.4810    3.5480   17.4890 C   0  0  0  0  0
   17.0470    4.5420   18.6790 C   0  0  0  0  0
   17.1330    3.7770   19.6530 O   0  0  0  0  0
   17.8940    5.5230   18.4500 N   0  0  0  0  0
   19.0350    5.6660   19.4260 C   0  0  0  0  0
   18.9010    6.9930   20.1440 C   0  0  0  0  0
   18.1120    7.8900   19.6950 O   0  0  0  0  0
   20.3170    5.6050   18.5680 C   0  0  0  0  0
   20.3710    4.2270   17.8660 C   0  0  0  0  0
   20.2470    6.6320   17.4280 C   0  0  0  0  0
   19.7610    7.1140   21.1610 N   0  0  0  0  0
   19.8050    8.3850   21.8980 C   0  0  0  0  0
   21.3340    8.7140   22.0180 C   0  0  0  0  0
   21.9430    8.2540   22.9760 O   0  0  0  0  0
   19.1490    8.3320   23.2880 C   0  0  0  0  0
   19.1270    9.7510   23.8990 C   0  0  0  0  0
   17.7290    7.8730   23.2040 C   0  0  0  0  0
   21.8380    9.4640   21.0120 N   0  0  0  0  0
   23.2210    9.8740   20.9950 C   0  0  0  0  0
   23.8860    9.3780   19.6540 C   0  0  0  0  0
   23.7080    7.8240   19.4250 C   0  0  0  0  0
   24.3160    7.5100   18.0670 C   0  0  0  0  0
   24.2960    6.9500   20.5220 C   0  0  0  0  0
   23.2870   11.6820   21.2020 P   0  0  0  0  0
   22.4380   12.2440   20.1120 O   0  0  0  0  0
   24.7330   12.0620   21.0820 O   0  0  0  0  0
   22.6230   12.0970   22.8160 C   0  0  0  0  0
   23.6070   11.9730   23.9730 C   0  0  0  0  0
   24.0020   10.8590   24.3690 O   0  0  0  0  0
   24.3280   13.1020   24.4460 O   0  0  0  0  0
   25.4700   12.9130   25.2580 C   0  0  0  0  0
   26.5940   13.7920   24.7560 C   0  0  0  0  0
   15.6214    5.2133   17.1895 H   0  0  0  0  0
   16.2264    3.5482   16.9352 H   0  0  0  0  0
   14.9210    2.7746   18.8707 H   0  0  0  0  0
   14.1134    5.7754   18.6009 H   0  0  0  0  0
   13.3780    4.6768   19.7940 H   0  0  0  0  0
   15.0908    5.1394   19.9468 H   0  0  0  0  0
   12.5960    3.3560   18.0957 H   0  0  0  0  0
   13.3314    4.4546   16.9027 H   0  0  0  0  0
   13.6540    2.7053   16.8197 H   0  0  0  0  0
   17.7847    6.1528   17.6551 H   0  0  0  0  0
   19.0503    4.8886   20.1899 H   0  0  0  0  0
   21.1718    5.7903   19.2185 H   0  0  0  0  0
   20.3873    3.4380   18.6179 H   0  0  0  0  0
   19.4920    4.1087   17.2324 H   0  0  0  0  0
   21.2716    4.1670   17.2549 H   0  0  0  0  0
   19.3856    6.4140   16.7967 H   0  0  0  0  0
   20.1472    7.6329   17.8480 H   0  0  0  0  0
   21.1587    6.5754   16.8332 H   0  0  0  0  0
   20.3735    6.3405   21.4198 H   0  0  0  0  0
   19.2324    9.1467   21.3689 H   0  0  0  0  0
   19.7280    7.6367   23.8959 H   0  0  0  0  0
   20.1480   10.1213   23.9914 H   0  0  0  0  0
   18.5554   10.4154   23.2510 H   0  0  0  0  0
   18.6621    9.7138   24.8842 H   0  0  0  0  0
   17.1618    8.5630   22.5793 H   0  0  0  0  0
   17.6964    6.8749   22.7672 H   0  0  0  0  0
   17.2969    7.8475   24.2044 H   0  0  0  0  0
   21.2256    9.7466   20.2468 H   0  0  0  0  0
   23.7865    9.4289   21.8137 H   0  0  0  0  0
   24.9540    9.5882   19.7117 H   0  0  0  0  0
   23.4004    9.8965   18.8273 H   0  0  0  0  0
   22.6449    7.5853   19.4568 H   0  0  0  0  0
   23.7946    8.0783   17.2967 H   0  0  0  0  0
   25.3711    7.7837   18.0707 H   0  0  0  0  0
   24.2166    6.4438   17.8636 H   0  0  0  0  0
   25.3669    7.1377   20.5995 H   0  0  0  0  0
   23.8147    7.1871   21.4708 H   0  0  0  0  0
   24.1263    5.9010   20.2792 H   0  0  0  0  0
   25.2263   11.6729   21.8078 H   0  0  0  0  0
   21.8164   11.3911   23.0138 H   0  0  0  0  0
   22.3224   13.1438   22.7713 H   0  0  0  0  0
   25.7781   11.8683   25.2156 H   0  0  0  0  0
   25.2323   13.1786   26.2881 H   0  0  0  0  0
   26.8304   13.5246   23.7261 H   0  0  0  0  0
   26.2842   14.8361   24.7996 H   0  0  0  0  0
   27.4745   13.6465   25.3818 H   0  0  0  0  0
  7  8  1  0  0  0
  8 11  1  0  0  0
  8  9  1  0  0  0
  9 10  2  0  0  0
 11 13  1  0  0  0
 11 12  1  0  0  0
 14 15  1  0  0  0
 15 18  1  0  0  0
 15 16  1  0  0  0
 16 17  2  0  0  0
 18 20  1  0  0  0
 18 19  1  0  0  0
  9 14  1  0  0  0
  1  2  1  0  0  0
  5  1  1  0  0  0
  2  3  1  0  0  0
  2  4  1  0  0  0
  5  6  2  0  0  0
  7  5  1  0  0  0
 16 21  1  0  0  0
 21 22  1  0  0  0
 22 23  1  0  0  0
 22 27  1  0  0  0
 23 24  1  0  0  0
 24 25  1  0  0  0
 24 26  1  0  0  0
 27 28  2  0  0  0
 27 29  1  0  0  0
 27 30  1  0  0  0
 30 31  1  0  0  0
 31 32  2  0  0  0
 31 33  1  0  0  0
 33 34  1  0  0  0
 34 35  1  0  0  0
  1 36  1  0  0  0
  1 37  1  0  0  0
  2 38  1  0  0  0
  3 39  1  0  0  0
  3 40  1  0  0  0
  3 41  1  0  0  0
  4 42  1  0  0  0
  4 43  1  0  0  0
  4 44  1  0  0  0
  7 45  1  0  0  0
  8 46  1  0  0  0
 11 47  1  0  0  0
 12 48  1  0  0  0
 12 49  1  0  0  0
 12 50  1  0  0  0
 13 51  1  0  0  0
 13 52  1  0  0  0
 13 53  1  0  0  0
 14 54  1  0  0  0
 15 55  1  0  0  0
 18 56  1  0  0  0
 19 57  1  0  0  0
 19 58  1  0  0  0
 19 59  1  0  0  0
 20 60  1  0  0  0
 20 61  1  0  0  0
 20 62  1  0  0  0
 21 63  1  0  0  0
 22 64  1  0  0  0
 23 65  1  0  0  0
 23 66  1  0  0  0
 24 67  1  0  0  0
 25 68  1  0  0  0
 25 69  1  0  0  0
 25 70  1  0  0  0
 26 71  1  0  0  0
 26 72  1  0  0  0
 26 73  1  0  0  0
 29 74  1  0  0  0
 30 75  1  0  0  0
 30 76  1  0  0  0
 34 77  1  0  0  0
 34 78  1  0  0  0
 35 79  1  0  0  0
 35 80  1  0  0  0
 35 81  1  0  0  0
M  END
$$$$
