4oc2_ligand
  -I-interpret- 

 50 50  0  0  0  0  0  0  0  0999 V2000
   23.4060   48.3390   47.1410 C   0  0  0  0  0
   23.5040   48.6100   48.5410 C   0  0  0  0  0
   23.4150   49.8880   49.1390 C   0  0  0  0  0
   23.5670   50.1990   51.3770 I   0  0  0  0  0
   23.2180   50.8800   48.1310 C   0  0  0  0  0
   23.1000   50.6340   46.7220 C   0  0  0  0  0
   23.2230   49.3240   46.1650 C   0  0  0  0  0
   23.0630   48.9510   44.6260 C   0  0  0  0  0
   22.2030   49.5190   43.9400 O   0  0  0  0  0
   23.6880   47.8730   44.1020 N   0  0  0  0  0
   23.4520   47.4250   42.7110 C   0  0  0  0  0
   23.3630   45.8930   42.5920 C   0  0  0  0  0
   22.4200   45.2030   43.6470 C   0  0  0  0  0
   20.9380   45.6070   43.4030 C   0  0  0  0  0
   19.9160   44.9690   44.4090 C   0  0  0  0  0
   20.1170   45.6100   45.7720 C   0  0  0  0  0
   19.6120   46.7580   45.9910 O   0  0  0  0  0
   20.7530   44.8950   46.5730 O   0  0  0  0  0
   18.5790   45.3400   43.9190 N   0  0  0  0  0
   17.9050   44.6000   43.0580 C   0  0  0  0  0
   18.3790   43.5520   42.5750 O   0  0  0  0  0
   16.6610   45.0090   42.7190 N   0  0  0  0  0
   16.0410   44.2750   41.6060 C   0  0  0  0  0
   16.9270   44.5360   40.3180 C   0  0  0  0  0
   16.7890   43.7520   39.3470 O   0  0  0  0  0
   17.7530   45.4950   40.3300 O   0  0  0  0  0
   14.6010   44.7460   41.2950 C   0  0  0  0  0
   14.4130   46.1490   40.9720 C   0  0  0  0  0
   14.2500   47.2880   40.7080 C   0  0  0  0  0
   23.4783   47.3017   46.8141 H   0  0  0  0  0
   23.6607   47.7590   49.2039 H   0  0  0  0  0
   23.1513   51.9167   48.4611 H   0  0  0  0  0
   22.9102   51.4746   46.0545 H   0  0  0  0  0
   24.3435   47.3514   44.6839 H   0  0  0  0  0
   24.2915   47.7613   42.1025 H   0  0  0  0  0
   22.5018   47.8437   42.3796 H   0  0  0  0  0
   24.3667   45.5034   42.7619 H   0  0  0  0  0
   22.9492   45.6754   41.6074 H   0  0  0  0  0
   22.7137   45.5238   44.6465 H   0  0  0  0  0
   22.5120   44.1213   43.5490 H   0  0  0  0  0
   20.6701   45.2522   42.4078 H   0  0  0  0  0
   20.8770   46.6880   43.5286 H   0  0  0  0  0
   20.0411   43.8889   44.4859 H   0  0  0  0  0
   19.1794   47.0733   45.1941 H   0  0  0  0  0
   18.1558   46.2038   44.2582 H   0  0  0  0  0
   16.1867   45.7724   43.2013 H   0  0  0  0  0
   15.9871   43.2227   41.8850 H   0  0  0  0  0
   17.6891   45.9604   41.1672 H   0  0  0  0  0
   14.0315   44.5752   42.2085 H   0  0  0  0  0
   14.2968   44.1955   40.4048 H   0  0  0  0  0
  1  2  4  0  0  0
  1  7  4  0  0  0
  2  3  4  0  0  0
  3  4  1  0  0  0
  3  5  4  0  0  0
  5  6  4  0  0  0
  6  7  4  0  0  0
  7  8  1  0  0  0
  8  9  2  0  0  0
  8 10  1  0  0  0
 10 11  1  0  0  0
 11 12  1  0  0  0
 12 13  1  0  0  0
 13 14  1  0  0  0
 14 15  1  0  0  0
 15 16  1  0  0  0
 15 19  1  0  0  0
 16 17  1  0  0  0
 16 18  2  0  0  0
 19 20  1  0  0  0
 20 21  2  0  0  0
 20 22  1  0  0  0
 22 23  1  0  0  0
 23 24  1  0  0  0
 23 27  1  0  0  0
 24 25  2  0  0  0
 24 26  1  0  0  0
 27 28  1  0  0  0
 28 29  3  0  0  0
  1 30  1  0  0  0
  2 31  1  0  0  0
  5 32  1  0  0  0
  6 33  1  0  0  0
 10 34  1  0  0  0
 11 35  1  0  0  0
 11 36  1  0  0  0
 12 37  1  0  0  0
 12 38  1  0  0  0
 13 39  1  0  0  0
 13 40  1  0  0  0
 14 41  1  0  0  0
 14 42  1  0  0  0
 15 43  1  0  0  0
 17 44  1  0  0  0
 19 45  1  0  0  0
 22 46  1  0  0  0
 23 47  1  0  0  0
 26 48  1  0  0  0
 27 49  1  0  0  0
 27 50  1  0  0  0
M  END
$$$$
