### 
### Created by X-TOOL on Mon Sep 10 21:13:15 2018
### 

@<TRIPOS>MOLECULE
4inu_ligand
  103   105     1     0     0
SMALL
GAST_HUCK


@<TRIPOS>ATOM
      1 C12        60.0980 -135.0950   34.5270 C.2       1 1G6         0.2450
      2 O13        60.1650 -136.2410   34.9480 O.2       1 1G6        -0.3906
      3 C8         58.7790 -134.6190   33.9550 C.3       1 1G6         0.3131
      4 N9         58.6200 -135.3600   32.7230 N.2       1 1G6         0.1934
      5 N10        58.8760 -134.8250   31.6690 N.1       1 1G6         0.1323
      6 N11        59.1050 -134.3560   30.6340 N.1       1 1G6         0.2336
      7 C7         57.5480 -134.8210   34.8910 C.3       1 1G6         0.0575
      8 C3         56.2490 -134.2880   34.2590 C.ar      1 1G6        -0.0354
      9 C2         55.4470 -135.1000   33.4330 C.ar      1 1G6        -0.0600
     10 C1         54.2680 -134.6050   32.8600 C.ar      1 1G6        -0.0686
     11 C4         55.8400 -132.9670   34.5010 C.ar      1 1G6        -0.0600
     12 C5         54.6620 -132.4690   33.9310 C.ar      1 1G6        -0.0686
     13 C6         53.8730 -133.2860   33.1110 C.ar      1 1G6        -0.0687
     14 C25        61.3790 -134.3730   37.0470 C.2       1 1G6         0.2058
     15 O26        60.4810 -133.7680   37.6170 O.2       1 1G6        -0.3942
     16 C15        61.8020 -133.7220   35.7360 C.3       1 1G6         0.1397
     17 C16        63.3550 -133.6900   35.5520 C.3       1 1G6         0.0183
     18 C17        63.9070 -133.3130   34.1670 C.ar      1 1G6        -0.0452
     19 C22        64.4420 -132.0370   33.9290 C.ar      1 1G6        -0.0664
     20 C21        64.9510 -131.7030   32.6640 C.ar      1 1G6        -0.0618
     21 C20        64.9340 -132.6470   31.6270 C.ar      1 1G6        -0.0054
     22 C23        65.4950 -132.2690   30.2510 C.3       1 1G6        -0.0046
     23 N24        66.9460 -132.5350   30.1990 N.4       1 1G6         0.2299
     24 C19        64.4050 -133.9240   31.8610 C.ar      1 1G6        -0.0618
     25 C18        63.8990 -134.2550   33.1240 C.ar      1 1G6        -0.0664
     26 N14        61.1560 -134.2460   34.5290 N.am      1 1G6        -0.2592
     27 N27        61.8500 -135.5100   37.6400 N.am      1 1G6        -0.2636
     28 C28        61.6580 -135.9260   39.0350 C.3       1 1G6         0.1311
     29 C33        62.9610 -135.7830   39.8220 C.2       1 1G6         0.2020
     30 O34        63.9930 -136.1920   39.3070 O.2       1 1G6        -0.3945
     31 C29        61.0670 -137.3690   39.0520 C.3       1 1G6        -0.0101
     32 C30        59.5680 -137.5890   38.6530 C.3       1 1G6        -0.0425
     33 C31        58.5470 -137.3880   39.8080 C.3       1 1G6        -0.0625
     34 C32        59.3080 -138.9510   37.9660 C.3       1 1G6        -0.0625
     35 O50        62.3280 -139.5080   44.2380 O.2       1 1G6        -0.1746
     36 S48        61.5940 -138.4060   43.6510 S.o2      1 1G6        -0.0337
     37 O49        61.1080 -137.3430   44.5110 O.2       1 1G6        -0.1746
     38 C51        60.1910 -139.0970   42.7540 C.3       1 1G6         0.0544
     39 C47        62.5900 -137.6810   42.3230 C.3       1 1G6         0.0677
     40 C46        63.7760 -136.7820   42.8080 C.3       1 1G6        -0.0088
     41 C36        63.9560 -135.3850   42.1110 C.3       1 1G6         0.0521
     42 C37        64.1220 -134.1400   43.0440 C.3       1 1G6         0.0009
     43 C38        64.6650 -132.8400   42.4090 C.ar      1 1G6        -0.0475
     44 C43        64.3260 -131.5730   42.9150 C.ar      1 1G6        -0.0666
     45 C42        64.8320 -130.4050   42.3220 C.ar      1 1G6        -0.0618
     46 C41        65.6860 -130.4740   41.2090 C.ar      1 1G6        -0.0054
     47 C44        66.2540 -129.2090   40.5430 C.3       1 1G6        -0.0046
     48 N45        65.3040 -128.5490   39.6230 N.4       1 1G6         0.2299
     49 C40        66.0280 -131.7350   40.7000 C.ar      1 1G6        -0.0618
     50 C39        65.5220 -132.9000   41.2940 C.ar      1 1G6        -0.0666
     51 N35        62.9260 -135.2100   41.0610 N.am      1 1G6        -0.2801
     52 H1         58.8558 -133.5445   33.7324 H         1 1G6         0.1271
     53 H2         57.7286 -134.2868   35.8355 H         1 1G6         0.0506
     54 H3         57.4290 -135.8955   35.0944 H         1 1G6         0.0506
     55 H4         55.7466 -136.1233   33.2378 H         1 1G6         0.0557
     56 H5         53.6636 -135.2418   32.2242 H         1 1G6         0.0599
     57 H6         56.4420 -132.3264   35.1353 H         1 1G6         0.0557
     58 H7         54.3591 -131.4464   34.1252 H         1 1G6         0.0599
     59 H8         52.9605 -132.8983   32.6728 H         1 1G6         0.0559
     60 H9         61.4787 -132.6736   35.8156 H         1 1G6         0.0822
     61 H10        63.7345 -134.6937   35.7939 H         1 1G6         0.0461
     62 H11        63.7556 -132.9628   36.2735 H         1 1G6         0.0461
     63 H12        64.4622 -131.3044   34.7277 H         1 1G6         0.0540
     64 H13        65.3579 -130.7137   32.4885 H         1 1G6         0.0542
     65 H14        65.3153 -131.1995   30.0671 H         1 1G6         0.0965
     66 H15        64.9890 -132.8643   29.4767 H         1 1G6         0.0965
     67 H16        67.3015 -132.2824   29.2902 H         1 1G6         0.2007
     68 H17        67.1142 -133.5149   30.3651 H         1 1G6         0.2007
     69 H18        67.4132 -131.9893   30.9061 H         1 1G6         0.2007
     70 H19        64.3876 -134.6568   31.0624 H         1 1G6         0.0542
     71 H20        63.4975 -135.2466   33.2988 H         1 1G6         0.0540
     72 H21        61.5212 -133.9570   33.6441 H         1 1G6         0.1886
     73 H22        62.3838 -136.1262   37.0608 H         1 1G6         0.1883
     74 H23        60.9189 -135.2559   39.4983 H         1 1G6         0.0800
     75 H24        61.1859 -137.7523   40.0762 H         1 1G6         0.0315
     76 H25        61.6745 -137.9726   38.3617 H         1 1G6         0.0315
     77 H26        59.3453 -136.8130   37.9059 H         1 1G6         0.0298
     78 H27        57.5284 -137.5634   39.4316 H         1 1G6         0.0232
     79 H28        58.6243 -136.3597   40.1910 H         1 1G6         0.0232
     80 H29        58.7657 -138.0987   40.6186 H         1 1G6         0.0232
     81 H30        60.0304 -139.0932   37.1488 H         1 1G6         0.0232
     82 H31        58.2862 -138.9673   37.5591 H         1 1G6         0.0232
     83 H32        59.4227 -139.7606   38.7017 H         1 1G6         0.0232
     84 H33        60.5395 -139.9061   42.0952 H         1 1G6         0.0464
     85 H34        59.7187 -138.3092   42.1488 H         1 1G6         0.0464
     86 H35        59.4588 -139.4974   43.4706 H         1 1G6         0.0464
     87 H36        61.9283 -137.0655   41.6960 H         1 1G6         0.0500
     88 H37        63.0068 -138.5017   41.7208 H         1 1G6         0.0500
     89 H38        64.7053 -137.3500   42.6536 H         1 1G6         0.0305
     90 H39        63.6328 -136.5984   43.8831 H         1 1G6         0.0305
     91 H40        64.9155 -135.4541   41.5776 H         1 1G6         0.0578
     92 H41        64.8109 -134.4241   43.8532 H         1 1G6         0.0435
     93 H42        63.1329 -133.9115   43.4677 H         1 1G6         0.0435
     94 H43        63.6669 -131.4968   43.7722 H         1 1G6         0.0540
     95 H44        64.5600 -129.4376   42.7285 H         1 1G6         0.0542
     96 H45        67.1524 -129.4890   39.9734 H         1 1G6         0.0965
     97 H46        66.5283 -128.4934   41.3321 H         1 1G6         0.0965
     98 H47        65.7369 -127.7314   39.2228 H         1 1G6         0.2007
     99 H48        64.4777 -128.2765   40.1319 H         1 1G6         0.2007
    100 H49        65.0496 -129.1888   38.8869 H         1 1G6         0.2007
    101 H50        66.6871 -131.8096   39.8427 H         1 1G6         0.0542
    102 H51        65.7963 -133.8662   40.8863 H         1 1G6         0.0540
    103 H52        62.1432 -134.6262   41.2765 H         1 1G6         0.1856
@<TRIPOS>BOND
     1    1    2 2  
     2    1    3 1  
     3   26    1 am 
     4    3    4 1  
     5    3    7 1  
     6    4    5 2  
     7    5    6 3  
     8    7    8 1  
     9    8    9 ar 
    10    8   11 ar 
    11    9   10 ar 
    12   10   13 ar 
    13   11   12 ar 
    14   12   13 ar 
    15   14   15 2  
    16   14   16 1  
    17   27   14 am 
    18   16   17 1  
    19   16   26 1  
    20   17   18 1  
    21   18   19 ar 
    22   18   25 ar 
    23   19   20 ar 
    24   20   21 ar 
    25   21   22 1  
    26   24   21 ar 
    27   22   23 1  
    28   25   24 ar 
    29   28   27 1  
    30   29   28 1  
    31   28   31 1  
    32   29   30 2  
    33   51   29 am 
    34   31   32 1  
    35   32   33 1  
    36   32   34 1  
    37   36   35 2  
    38   36   37 2  
    39   36   38 1  
    40   39   36 1  
    41   40   39 1  
    42   41   40 1  
    43   41   42 1  
    44   41   51 1  
    45   42   43 1  
    46   43   44 ar 
    47   43   50 ar 
    48   44   45 ar 
    49   45   46 ar 
    50   46   47 1  
    51   46   49 ar 
    52   47   48 1  
    53   49   50 ar 
    54    3   52 1  
    55    7   53 1  
    56    7   54 1  
    57    9   55 1  
    58   10   56 1  
    59   11   57 1  
    60   12   58 1  
    61   13   59 1  
    62   16   60 1  
    63   17   61 1  
    64   17   62 1  
    65   19   63 1  
    66   20   64 1  
    67   22   65 1  
    68   22   66 1  
    69   23   67 1  
    70   23   68 1  
    71   23   69 1  
    72   24   70 1  
    73   25   71 1  
    74   26   72 1  
    75   27   73 1  
    76   28   74 1  
    77   31   75 1  
    78   31   76 1  
    79   32   77 1  
    80   33   78 1  
    81   33   79 1  
    82   33   80 1  
    83   34   81 1  
    84   34   82 1  
    85   34   83 1  
    86   38   84 1  
    87   38   85 1  
    88   38   86 1  
    89   39   87 1  
    90   39   88 1  
    91   40   89 1  
    92   40   90 1  
    93   41   91 1  
    94   42   92 1  
    95   42   93 1  
    96   44   94 1  
    97   45   95 1  
    98   47   96 1  
    99   47   97 1  
   100   48   98 1  
   101   48   99 1  
   102   48  100 1  
   103   49  101 1  
   104   50  102 1  
   105   51  103 1  
@<TRIPOS>SUBSTRUCTURE
     1 1G6         1

