4inu_ligand
  -I-interpret- 

103105  0  0  0  0  0  0  0  0999 V2000
   60.0980 -135.0950   34.5270 C   0  0  0  0  0
   60.1650 -136.2410   34.9480 O   0  0  0  0  0
   58.7790 -134.6190   33.9550 C   0  0  0  0  0
   58.6200 -135.3600   32.7230 N   0  0  0  0  0
   58.8760 -134.8250   31.6690 N   0  0  0  0  0
   59.1050 -134.3560   30.6340 N   0  0  0  0  0
   57.5480 -134.8210   34.8910 C   0  0  0  0  0
   56.2490 -134.2880   34.2590 C   0  0  0  0  0
   55.4470 -135.1000   33.4330 C   0  0  0  0  0
   54.2680 -134.6050   32.8600 C   0  0  0  0  0
   55.8400 -132.9670   34.5010 C   0  0  0  0  0
   54.6620 -132.4690   33.9310 C   0  0  0  0  0
   53.8730 -133.2860   33.1110 C   0  0  0  0  0
   61.3790 -134.3730   37.0470 C   0  0  0  0  0
   60.4810 -133.7680   37.6170 O   0  0  0  0  0
   61.8020 -133.7220   35.7360 C   0  0  0  0  0
   63.3550 -133.6900   35.5520 C   0  0  0  0  0
   63.9070 -133.3130   34.1670 C   0  0  0  0  0
   64.4420 -132.0370   33.9290 C   0  0  0  0  0
   64.9510 -131.7030   32.6640 C   0  0  0  0  0
   64.9340 -132.6470   31.6270 C   0  0  0  0  0
   65.4950 -132.2690   30.2510 C   0  0  0  0  0
   66.9460 -132.5350   30.1990 N   0  3  0  0  0
   64.4050 -133.9240   31.8610 C   0  0  0  0  0
   63.8990 -134.2550   33.1240 C   0  0  0  0  0
   61.1560 -134.2460   34.5290 N   0  0  0  0  0
   61.8500 -135.5100   37.6400 N   0  0  0  0  0
   61.6580 -135.9260   39.0350 C   0  0  0  0  0
   62.9610 -135.7830   39.8220 C   0  0  0  0  0
   63.9930 -136.1920   39.3070 O   0  0  0  0  0
   61.0670 -137.3690   39.0520 C   0  0  0  0  0
   59.5680 -137.5890   38.6530 C   0  0  0  0  0
   58.5470 -137.3880   39.8080 C   0  0  0  0  0
   59.3080 -138.9510   37.9660 C   0  0  0  0  0
   62.3280 -139.5080   44.2380 O   0  0  0  0  0
   61.5940 -138.4060   43.6510 S   0  0  0  0  0
   61.1080 -137.3430   44.5110 O   0  0  0  0  0
   60.1910 -139.0970   42.7540 C   0  0  0  0  0
   62.5900 -137.6810   42.3230 C   0  0  0  0  0
   63.7760 -136.7820   42.8080 C   0  0  0  0  0
   63.9560 -135.3850   42.1110 C   0  0  0  0  0
   64.1220 -134.1400   43.0440 C   0  0  0  0  0
   64.6650 -132.8400   42.4090 C   0  0  0  0  0
   64.3260 -131.5730   42.9150 C   0  0  0  0  0
   64.8320 -130.4050   42.3220 C   0  0  0  0  0
   65.6860 -130.4740   41.2090 C   0  0  0  0  0
   66.2540 -129.2090   40.5430 C   0  0  0  0  0
   65.3040 -128.5490   39.6230 N   0  3  0  0  0
   66.0280 -131.7350   40.7000 C   0  0  0  0  0
   65.5220 -132.9000   41.2940 C   0  0  0  0  0
   62.9260 -135.2100   41.0610 N   0  0  0  0  0
   58.8110 -133.5388   33.8125 H   0  0  0  0  0
   57.7283 -134.2710   35.8146 H   0  0  0  0  0
   57.4269 -135.8895   35.0690 H   0  0  0  0  0
   55.7482 -136.1290   33.2367 H   0  0  0  0  0
   53.6603 -135.2453   32.2207 H   0  0  0  0  0
   56.4453 -132.3228   35.1388 H   0  0  0  0  0
   54.3575 -131.4408   34.1262 H   0  0  0  0  0
   52.9554 -132.8961   32.6704 H   0  0  0  0  0
   61.4353 -132.7012   35.8436 H   0  0  0  0  0
   63.6895 -134.7121   35.7294 H   0  0  0  0  0
   63.7115 -132.9128   36.2280 H   0  0  0  0  0
   64.4623 -131.3004   34.7322 H   0  0  0  0  0
   65.3601 -130.7082   32.4875 H   0  0  0  0  0
   65.3212 -131.2074   30.0751 H   0  0  0  0  0
   64.9962 -132.8654   29.4871 H   0  0  0  0  0
   67.3046 -132.2791   29.2791 H   0  0  0  0  0
   67.4176 -131.9823   30.9149 H   0  0  0  0  0
   67.1149 -133.5268   30.3672 H   0  0  0  0  0
   64.3875 -134.6609   31.0580 H   0  0  0  0  0
   63.4953 -135.2521   33.2998 H   0  0  0  0  0
   61.5285 -133.9513   33.6264 H   0  0  0  0  0
   62.3944 -136.1385   37.0493 H   0  0  0  0  0
   60.9421 -135.2759   39.5380 H   0  0  0  0  0
   61.1260 -137.6814   40.0946 H   0  0  0  0  0
   61.6378 -137.9122   38.2989 H   0  0  0  0  0
   59.3956 -136.7918   37.9299 H   0  0  0  0  0
   58.7648 -138.0927   40.6105 H   0  0  0  0  0
   58.6247 -136.3688   40.1866 H   0  0  0  0  0
   57.5381 -137.5620   39.4338 H   0  0  0  0  0
   59.9027 -139.0163   37.0549 H   0  0  0  0  0
   59.5887 -139.7576   38.6433 H   0  0  0  0  0
   58.2500 -139.0351   37.7176 H   0  0  0  0  0
   60.5540 -139.7685   41.9759 H   0  0  0  0  0
   59.5559 -139.6502   43.4459 H   0  0  0  0  0
   59.6179 -138.2886   42.2999 H   0  0  0  0  0
   61.9254 -137.0417   41.7419 H   0  0  0  0  0
   63.0281 -138.5101   41.7673 H   0  0  0  0  0
   64.6825 -137.3431   42.5812 H   0  0  0  0  0
   63.5705 -136.5638   43.8560 H   0  0  0  0  0
   64.9419 -135.4199   41.6474 H   0  0  0  0  0
   64.8587 -134.4307   43.7929 H   0  0  0  0  0
   63.1179 -133.8989   43.3930 H   0  0  0  0  0
   63.6632 -131.4964   43.7769 H   0  0  0  0  0
   64.5585 -129.4322   42.7307 H   0  0  0  0  0
   67.1223 -129.5095   39.9567 H   0  0  0  0  0
   66.4887 -128.4989   41.3359 H   0  0  0  0  0
   65.7431 -127.7219   39.2186 H   0  0  0  0  0
   65.0473 -129.1974   38.8786 H   0  0  0  0  0
   64.4683 -128.2738   40.1390 H   0  0  0  0  0
   66.6908 -131.8100   39.8379 H   0  0  0  0  0
   65.7978 -133.8716   40.8841 H   0  0  0  0  0
   62.1276 -134.6145   41.2808 H   0  0  0  0  0
  1  2  2  0  0  0
  1  3  1  0  0  0
 26  1  1  0  0  0
  3  4  1  0  0  0
  3  7  1  0  0  0
  4  5  2  0  0  0
  5  6  3  0  0  0
  7  8  1  0  0  0
  8  9  4  0  0  0
  8 11  4  0  0  0
  9 10  4  0  0  0
 10 13  4  0  0  0
 11 12  4  0  0  0
 12 13  4  0  0  0
 14 15  2  0  0  0
 14 16  1  0  0  0
 27 14  1  0  0  0
 16 17  1  0  0  0
 16 26  1  0  0  0
 17 18  1  0  0  0
 18 19  4  0  0  0
 18 25  4  0  0  0
 19 20  4  0  0  0
 20 21  4  0  0  0
 21 22  1  0  0  0
 24 21  4  0  0  0
 22 23  1  0  0  0
 25 24  4  0  0  0
 28 27  1  0  0  0
 29 28  1  0  0  0
 28 31  1  0  0  0
 29 30  2  0  0  0
 51 29  1  0  0  0
 31 32  1  0  0  0
 32 33  1  0  0  0
 32 34  1  0  0  0
 36 35  2  0  0  0
 36 37  2  0  0  0
 36 38  1  0  0  0
 39 36  1  0  0  0
 40 39  1  0  0  0
 41 40  1  0  0  0
 41 42  1  0  0  0
 41 51  1  0  0  0
 42 43  1  0  0  0
 43 44  4  0  0  0
 43 50  4  0  0  0
 44 45  4  0  0  0
 45 46  4  0  0  0
 46 47  1  0  0  0
 46 49  4  0  0  0
 47 48  1  0  0  0
 49 50  4  0  0  0
  3 52  1  0  0  0
  7 53  1  0  0  0
  7 54  1  0  0  0
  9 55  1  0  0  0
 10 56  1  0  0  0
 11 57  1  0  0  0
 12 58  1  0  0  0
 13 59  1  0  0  0
 16 60  1  0  0  0
 17 61  1  0  0  0
 17 62  1  0  0  0
 19 63  1  0  0  0
 20 64  1  0  0  0
 22 65  1  0  0  0
 22 66  1  0  0  0
 23 67  1  0  0  0
 23 68  1  0  0  0
 23 69  1  0  0  0
 24 70  1  0  0  0
 25 71  1  0  0  0
 26 72  1  0  0  0
 27 73  1  0  0  0
 28 74  1  0  0  0
 31 75  1  0  0  0
 31 76  1  0  0  0
 32 77  1  0  0  0
 33 78  1  0  0  0
 33 79  1  0  0  0
 33 80  1  0  0  0
 34 81  1  0  0  0
 34 82  1  0  0  0
 34 83  1  0  0  0
 38 84  1  0  0  0
 38 85  1  0  0  0
 38 86  1  0  0  0
 39 87  1  0  0  0
 39 88  1  0  0  0
 40 89  1  0  0  0
 40 90  1  0  0  0
 41 91  1  0  0  0
 42 92  1  0  0  0
 42 93  1  0  0  0
 44 94  1  0  0  0
 45 95  1  0  0  0
 47 96  1  0  0  0
 47 97  1  0  0  0
 48 98  1  0  0  0
 48 99  1  0  0  0
 48100  1  0  0  0
 49101  1  0  0  0
 50102  1  0  0  0
 51103  1  0  0  0
M  END
$$$$
