5mby_ligand
  -I-interpret- 

 18 18  0  0  0  0  0  0  0  0999 V2000
   18.5300   43.1830   78.6350 N   0  3  0  0  0
   19.3660   44.3910   78.6440 C   0  0  0  0  0
   20.5540   44.2690   79.5700 C   0  0  0  0  0
   21.4320   45.1420   79.5680 O   0  0  0  0  0
   18.4190   45.4820   79.1520 C   0  0  0  0  0
   17.0620   44.9410   78.9050 C   0  0  0  0  0
   17.1150   43.4860   78.9080 C   0  0  0  0  0
   20.6140   43.2890   80.3200 O   0  0  0  0  0
   18.8679   42.5570   79.3660 H   0  0  0  0  0
   18.5917   42.7604   77.7087 H   0  0  0  0  0
   19.7873   44.5911   77.6588 H   0  0  0  0  0
   21.2095   45.8165   78.9222 H   0  0  0  0  0
   18.5790   46.4317   78.6415 H   0  0  0  0  0
   18.5832   45.7069   80.2058 H   0  0  0  0  0
   16.7007   45.2906   77.9379 H   0  0  0  0  0
   16.3853   45.2827   79.6882 H   0  0  0  0  0
   16.7753   43.0612   79.8526 H   0  0  0  0  0
   16.4470   43.0458   78.1677 H   0  0  0  0  0
  1  2  1  0  0  0
  1  7  1  0  0  0
  2  3  1  0  0  0
  2  5  1  0  0  0
  3  4  1  0  0  0
  3  8  2  0  0  0
  5  6  1  0  0  0
  6  7  1  0  0  0
  1  9  1  0  0  0
  1 10  1  0  0  0
  2 11  1  0  0  0
  4 12  1  0  0  0
  5 13  1  0  0  0
  5 14  1  0  0  0
  6 15  1  0  0  0
  6 16  1  0  0  0
  7 17  1  0  0  0
  7 18  1  0  0  0
M  END
$$$$
