1q4x_ligand
  -I-interpret- 

 52 54  0  0  0  0  0  0  0  0999 V2000
   12.2610   25.0350   41.9740 C   0  0  0  0  0
   11.8490   23.9260   41.2090 C   0  0  0  0  0
   10.4950   23.5450   41.1850 C   0  0  0  0  0
    9.5510   24.2760   41.9330 C   0  0  0  0  0
    9.9600   25.3880   42.7010 C   0  0  0  0  0
   11.3220   25.7660   42.7210 C   0  0  0  0  0
   11.7900   26.9620   43.5630 C   0  0  0  0  0
   12.0580   26.4560   44.9790 C   0  0  0  0  0
   13.3650   26.0290   45.2950 C   0  0  0  0  0
   11.0620   26.3660   45.9430 C   0  0  0  0  0
    9.8160   26.8060   45.6220 O   0  0  0  0  0
   11.3450   25.8400   47.2250 C   0  0  0  0  0
   12.6590   25.4070   47.5420 C   0  0  0  0  0
   13.6730   25.5050   46.5700 C   0  0  0  0  0
   15.1510   25.1080   46.8520 C   0  0  0  0  0
   15.3310   23.8170   47.6910 C   0  0  0  0  0
   15.6600   23.8770   49.0750 C   0  0  0  0  0
   15.8330   25.2290   49.7750 C   0  0  0  0  0
   15.8420   22.7100   49.8270 C   0  0  0  0  0
   15.1950   22.5220   47.1100 C   0  0  0  0  0
   14.8310   22.3710   45.6230 C   0  0  0  0  0
   15.3830   21.3550   47.8790 C   0  0  0  0  0
   15.7040   21.4410   49.2330 C   0  0  0  0  0
   15.8690   20.2840   49.9540 O   0  0  0  0  0
   16.8550   20.4300   51.0060 C   0  0  0  0  0
   16.8960   19.1740   51.8690 C   0  0  0  0  0
   15.8770   18.8900   52.5430 O   0  0  0  0  0
   17.9490   18.4970   51.8570 O   0  0  0  0  0
   13.3112   25.3267   41.9864 H   0  0  0  0  0
   12.5822   23.3610   40.6335 H   0  0  0  0  0
   10.1777   22.6883   40.5905 H   0  0  0  0  0
    8.5015   23.9821   41.9188 H   0  0  0  0  0
    9.2275   25.9535   43.2769 H   0  0  0  0  0
   11.0258   27.7391   43.5760 H   0  0  0  0  0
   12.6952   27.3949   43.1371 H   0  0  0  0  0
   14.1501   26.1047   44.5427 H   0  0  0  0  0
    9.2317   26.6857   46.3742 H   0  0  0  0  0
   10.5531   25.7671   47.9704 H   0  0  0  0  0
   12.8812   25.0021   48.5293 H   0  0  0  0  0
   15.5923   25.9221   47.4269 H   0  0  0  0  0
   15.6184   24.9235   45.8847 H   0  0  0  0  0
   16.6365   25.7860   49.2931 H   0  0  0  0  0
   14.9039   25.7947   49.7046 H   0  0  0  0  0
   16.0812   25.0647   50.8236 H   0  0  0  0  0
   16.0935   22.7849   50.8849 H   0  0  0  0  0
   13.8662   22.8427   45.4367 H   0  0  0  0  0
   15.5956   22.8514   45.0125 H   0  0  0  0  0
   14.7742   21.3123   45.3698 H   0  0  0  0  0
   15.2764   20.3766   47.4105 H   0  0  0  0  0
   16.5867   21.2825   51.6300 H   0  0  0  0  0
   17.8356   20.5854   50.5562 H   0  0  0  0  0
   15.1992   19.5525   52.3908 H   0  0  0  0  0
  1  2  4  0  0  0
  1  6  4  0  0  0
  2  3  4  0  0  0
  3  4  4  0  0  0
  4  5  4  0  0  0
  5  6  4  0  0  0
  6  7  1  0  0  0
  7  8  1  0  0  0
  8  9  4  0  0  0
  8 10  4  0  0  0
  9 14  4  0  0  0
 10 11  1  0  0  0
 10 12  4  0  0  0
 12 13  4  0  0  0
 13 14  4  0  0  0
 14 15  1  0  0  0
 15 16  1  0  0  0
 16 17  4  0  0  0
 16 20  4  0  0  0
 17 18  1  0  0  0
 17 19  4  0  0  0
 19 23  4  0  0  0
 20 21  1  0  0  0
 20 22  4  0  0  0
 22 23  4  0  0  0
 23 24  1  0  0  0
 24 25  1  0  0  0
 25 26  1  0  0  0
 26 27  1  0  0  0
 26 28  2  0  0  0
  1 29  1  0  0  0
  2 30  1  0  0  0
  3 31  1  0  0  0
  4 32  1  0  0  0
  5 33  1  0  0  0
  7 34  1  0  0  0
  7 35  1  0  0  0
  9 36  1  0  0  0
 11 37  1  0  0  0
 12 38  1  0  0  0
 13 39  1  0  0  0
 15 40  1  0  0  0
 15 41  1  0  0  0
 18 42  1  0  0  0
 18 43  1  0  0  0
 18 44  1  0  0  0
 19 45  1  0  0  0
 21 46  1  0  0  0
 21 47  1  0  0  0
 21 48  1  0  0  0
 22 49  1  0  0  0
 25 50  1  0  0  0
 25 51  1  0  0  0
 27 52  1  0  0  0
M  END
$$$$
