6p1l_ligand
  -I-interpret- 

 45 48  0  0  0  0  0  0  0  0999 V2000
    2.3360   30.9700   29.1810 C   0  0  0  0  0
   -0.7520   28.6400   26.6360 C   0  0  0  0  0
    2.9220   35.2760   30.2020 C   0  0  0  0  0
    2.3270   36.6520   30.5820 C   0  0  0  0  0
    2.9130   37.9120   29.9700 C   0  0  0  0  0
    4.6450   36.4460   28.6340 C   0  0  0  0  0
    4.3850   33.6940   29.1060 C   0  0  0  0  0
    5.9650   30.9930   30.6130 C   0  0  0  0  0
    7.2390   30.2510   30.2340 C   0  0  0  0  0
    7.2640   29.3090   29.0360 C   0  0  0  0  0
    5.9990   29.1020   28.2190 C   0  0  0  0  0
    4.7210   29.8360   28.5990 C   0  0  0  0  0
    4.7010   30.7870   29.7920 C   0  0  0  0  0
    3.3930   31.4890   30.1450 C   0  0  0  0  0
    0.6650   29.1380   28.5870 C   0  0  0  0  0
   -1.1070   27.7380   27.7000 C   0  0  0  0  0
    2.5490   33.8720   30.6480 C   0  0  0  0  0
    4.0720   37.8080   28.9960 C   0  0  0  0  0
    4.0370   35.1700   29.2680 C   0  0  0  0  0
    6.0120   28.2640   27.1490 F   0  0  0  0  0
    1.6690   29.7140   29.4630 N   0  0  0  0  0
   -0.1990   28.0640   28.9360 N   0  0  0  0  0
    3.4590   32.9230   29.9710 N   0  0  0  0  0
    5.9630   31.8530   31.7140 O   0  0  0  0  0
    2.0870   31.6060   28.2130 O   0  0  0  0  0
    1.6870   33.5810   31.4050 O   0  0  0  0  0
    0.3600   29.5370   27.1300 S   0  0  0  0  0
   -1.2063   28.6709   25.6457 H   0  0  0  0  0
    2.5146   36.7497   31.6513 H   0  0  0  0  0
    1.2994   36.6196   30.2199 H   0  0  0  0  0
    3.3157   38.4669   30.8174 H   0  0  0  0  0
    2.0985   38.3363   29.3829 H   0  0  0  0  0
    5.6725   36.4727   28.9969 H   0  0  0  0  0
    4.4559   36.3413   27.5657 H   0  0  0  0  0
    5.4198   33.5113   29.3955 H   0  0  0  0  0
    4.2794   33.3884   28.0651 H   0  0  0  0  0
    8.1430   30.3949   30.8257 H   0  0  0  0  0
    8.1825   28.7874   28.7670 H   0  0  0  0  0
    3.8138   29.6812   28.0149 H   0  0  0  0  0
    3.1715   31.2863   31.1928 H   0  0  0  0  0
   -1.8730   26.9638   27.6545 H   0  0  0  0  0
    4.8926   38.3241   29.4943 H   0  0  0  0  0
    3.6733   38.1930   28.0574 H   0  0  0  0  0
    1.9165   29.2122   30.3158 H   0  0  0  0  0
    5.0897   32.2384   31.8160 H   0  0  0  0  0
  1 14  1  0  0  0
 21  1  1  0  0  0
  1 25  2  0  0  0
  2 16  4  0  0  0
 27  2  4  0  0  0
  3  4  1  0  0  0
  3 17  1  0  0  0
 19  3  2  0  0  0
  4  5  1  0  0  0
 18  5  1  0  0  0
  6 18  1  0  0  0
 19  6  1  0  0  0
  7 19  1  0  0  0
 23  7  1  0  0  0
  8  9  4  0  0  0
 13  8  4  0  0  0
  8 24  1  0  0  0
  9 10  4  0  0  0
 11 10  4  0  0  0
 12 11  4  0  0  0
 11 20  1  0  0  0
 13 12  4  0  0  0
 14 13  1  0  0  0
 14 23  1  0  0  0
 15 21  1  0  0  0
 15 22  4  0  0  0
 15 27  4  0  0  0
 16 22  4  0  0  0
 17 23  1  0  0  0
 17 26  2  0  0  0
  2 28  1  0  0  0
  4 29  1  0  0  0
  4 30  1  0  0  0
  5 31  1  0  0  0
  5 32  1  0  0  0
  6 33  1  0  0  0
  6 34  1  0  0  0
  7 35  1  0  0  0
  7 36  1  0  0  0
  9 37  1  0  0  0
 10 38  1  0  0  0
 12 39  1  0  0  0
 14 40  1  0  0  0
 16 41  1  0  0  0
 18 42  1  0  0  0
 18 43  1  0  0  0
 21 44  1  0  0  0
 24 45  1  0  0  0
M  END
$$$$
