5akk_ligand
  -I-interpret- 

 17 18  0  0  0  0  0  0  0  0999 V2000
    7.7370  -10.0640  -25.1940 O   0  0  0  0  0
    8.6040  -10.6090  -25.8570 C   0  0  0  0  0
    8.4900  -10.8760  -27.3380 C   0  0  0  0  0
    9.8180  -11.0840  -25.4010 N   0  0  0  0  0
   10.4300  -11.8020  -26.4180 C   0  0  0  0  0
   11.5940  -12.5320  -26.3530 C   0  0  0  0  0
   11.9850  -13.1660  -27.5210 C   0  0  0  0  0
   13.5700  -14.1960  -27.5110 Br  0  0  0  0  0
    9.6900  -11.7030  -27.5650 C   0  0  0  0  0
   10.0780  -12.3360  -28.7250 C   0  0  0  0  0
   11.2460  -13.0760  -28.6920 C   0  0  0  0  0
    8.4530   -9.9737  -27.9484 H   0  0  0  0  0
    7.5579  -11.3600  -27.6295 H   0  0  0  0  0
   10.2020  -10.9317  -24.4684 H   0  0  0  0  0
   12.1759  -12.6074  -25.4344 H   0  0  0  0  0
    9.4857  -12.2566  -29.6366 H   0  0  0  0  0
   11.5876  -13.5909  -29.5900 H   0  0  0  0  0
  1  2  2  0  0  0
  2  3  1  0  0  0
  2  4  1  0  0  0
  3  9  1  0  0  0
  4  5  1  0  0  0
  5  6  4  0  0  0
  5  9  4  0  0  0
  6  7  4  0  0  0
  7  8  1  0  0  0
  7 11  4  0  0  0
  9 10  4  0  0  0
 10 11  4  0  0  0
  3 12  1  0  0  0
  3 13  1  0  0  0
  4 14  1  0  0  0
  6 15  1  0  0  0
 10 16  1  0  0  0
 11 17  1  0  0  0
M  END
$$$$
