1d8f_ligand
  -I-interpret- 

 54 56  0  0  0  0  0  0  0  0999 V2000
    3.9180   48.6810   53.5750 S   0  0  0  0  0
    3.3760   47.7850   52.5980 O   0  0  0  0  0
    5.3480   48.7510   53.5270 O   0  0  0  0  0
    3.2840   48.4860   55.2440 C   0  0  0  0  0
    3.9490   49.1640   56.3430 C   0  0  0  0  0
    3.5790   48.8280   57.7130 C   0  0  0  0  0
    2.5560   47.8260   57.9670 C   0  0  0  0  0
    1.8940   47.1680   56.8530 C   0  0  0  0  0
    2.2480   47.4860   55.4650 C   0  0  0  0  0
    2.1330   47.4780   59.1900 O   0  0  0  0  0
    2.8350   47.5240   60.3240 C   0  0  0  0  0
    3.6410   50.2240   52.9200 N   0  0  0  0  0
    2.3150   50.3110   52.2910 C   0  0  0  0  0
    2.2980   51.5650   51.4090 C   0  0  0  0  0
    2.8490   52.7490   52.0950 N   0  0  0  0  0
    4.2130   52.6080   52.6330 C   0  0  0  0  0
    4.3220   51.3870   53.5200 C   0  0  0  0  0
    2.2590   53.9330   51.9750 C   0  0  0  0  0
    2.6990   54.9230   52.6190 O   0  0  0  0  0
    1.2710   54.0340   51.2070 O   0  0  0  0  0
    0.8050   55.2320   50.6470 C   0  0  0  0  0
   -0.3870   55.0030   49.7710 C   0  0  0  0  0
   -0.9910   53.6900   49.8390 C   0  0  0  0  0
   -2.1350   53.4050   48.9910 C   0  0  0  0  0
   -2.5980   54.4800   48.1150 C   0  0  0  0  0
   -1.9540   55.7950   48.0810 C   0  0  0  0  0
   -0.8020   56.0960   48.9230 C   0  0  0  0  0
    1.1400   50.3020   53.2820 C   0  0  0  0  0
    0.2800   49.2890   53.2140 N   0  0  0  0  0
   -0.8590   49.4820   54.0310 O   0  0  0  0  0
    0.9540   51.1930   54.1290 O   0  0  0  0  0
    4.7148   49.9143   56.1463 H   0  0  0  0  0
    4.0698   49.3285   58.5477 H   0  0  0  0  0
    1.1212   46.4255   57.0520 H   0  0  0  0  0
    1.7534   46.9916   54.6290 H   0  0  0  0  0
    3.7122   46.8835   60.2330 H   0  0  0  0  0
    3.1507   48.5500   60.5130 H   0  0  0  0  0
    2.2134   47.1760   61.1490 H   0  0  0  0  0
    2.1638   49.4103   51.6961 H   0  0  0  0  0
    1.2609   51.7794   51.1510 H   0  0  0  0  0
    2.9159   51.3672   50.5331 H   0  0  0  0  0
    4.4489   53.4925   53.2247 H   0  0  0  0  0
    4.9079   52.4988   51.8004 H   0  0  0  0  0
    5.3770   51.1436   53.6461 H   0  0  0  0  0
    3.8487   51.6102   54.4762 H   0  0  0  0  0
    1.6017   55.6613   50.0395 H   0  0  0  0  0
    0.5140   55.9008   51.4570 H   0  0  0  0  0
   -0.5954   52.9302   50.5130 H   0  0  0  0  0
   -2.6268   52.4324   49.0069 H   0  0  0  0  0
   -3.4528   54.2963   47.4641 H   0  0  0  0  0
   -2.3433   56.5636   47.4134 H   0  0  0  0  0
   -0.2978   57.0623   48.9132 H   0  0  0  0  0
    0.4261   48.4620   52.6350 H   0  0  0  0  0
   -1.4445   48.7260   53.9455 H   0  0  0  0  0
  1 12  1  0  0  0
  1  4  1  0  0  0
  1  3  2  0  0  0
  1  2  2  0  0  0
  4  9  4  0  0  0
  4  5  4  0  0  0
  5  6  4  0  0  0
  6  7  4  0  0  0
  7 10  1  0  0  0
  7  8  4  0  0  0
  8  9  4  0  0  0
 10 11  1  0  0  0
 12 17  1  0  0  0
 12 13  1  0  0  0
 13 28  1  0  0  0
 13 14  1  0  0  0
 14 15  1  0  0  0
 15 18  1  0  0  0
 15 16  1  0  0  0
 16 17  1  0  0  0
 18 20  1  0  0  0
 18 19  2  0  0  0
 20 21  1  0  0  0
 21 22  1  0  0  0
 22 27  4  0  0  0
 22 23  4  0  0  0
 23 24  4  0  0  0
 24 25  4  0  0  0
 25 26  4  0  0  0
 26 27  4  0  0  0
 28 31  2  0  0  0
 28 29  1  0  0  0
 29 30  1  0  0  0
  5 32  1  0  0  0
  6 33  1  0  0  0
  8 34  1  0  0  0
  9 35  1  0  0  0
 11 36  1  0  0  0
 11 37  1  0  0  0
 11 38  1  0  0  0
 13 39  1  0  0  0
 14 40  1  0  0  0
 14 41  1  0  0  0
 16 42  1  0  0  0
 16 43  1  0  0  0
 17 44  1  0  0  0
 17 45  1  0  0  0
 21 46  1  0  0  0
 21 47  1  0  0  0
 23 48  1  0  0  0
 24 49  1  0  0  0
 25 50  1  0  0  0
 26 51  1  0  0  0
 27 52  1  0  0  0
 29 53  1  0  0  0
 30 54  1  0  0  0
M  END
$$$$
