### 
### Created by X-TOOL on Mon Sep 10 21:12:53 2018
### 

@<TRIPOS>MOLECULE
1xfv_ligand
   42    44     1     0     0
SMALL
GAST_HUCK


@<TRIPOS>ATOM
      1 PG         64.1200  293.1510   37.0150 P.3       1 3AT         0.1879
      2 O1G        63.1460  292.8380   38.0660 O.co2     1 3AT        -0.6091
      3 O2G        65.1840  293.8870   37.6320 O.co2     1 3AT        -0.6091
      4 O3G        64.6200  291.8820   36.3420 O.co2     1 3AT        -0.6091
      5 PB         63.6320  295.7340   35.2210 P.3       1 3AT         0.3553
      6 O1B        62.2990  296.1110   34.4800 O.co2     1 3AT        -0.5652
      7 O2B        64.8680  295.7790   34.3890 O.co2     1 3AT        -0.5652
      8 O3B        63.4830  294.1900   35.8960 O.3       1 3AT        -0.1546
      9 PA         64.2970  296.9320   37.8740 P.3       1 3AT         0.3266
     10 O1A        63.3830  296.0230   38.5900 O.co2     1 3AT        -0.5692
     11 O2A        65.7720  296.7020   38.0760 O.co2     1 3AT        -0.5692
     12 O3A        63.7110  296.8800   36.3370 O.3       1 3AT        -0.1171
     13 O5         64.0340  298.4170   38.3150 O.3       1 3AT        -0.2442
     14 C5         62.7360  299.0430   38.3200 C.3       1 3AT         0.1107
     15 C4         62.2430  299.3590   39.7100 C.3       1 3AT         0.0931
     16 O4         61.9540  300.7490   39.8100 O.3       1 3AT        -0.3391
     17 C3         60.9820  298.6380   40.1250 C.3       1 3AT         0.0074
     18 C2         60.2850  299.6910   40.9250 C.3       1 3AT         0.1128
     19 O2         59.9770  299.2790   42.2370 O.3       1 3AT        -0.3862
     20 C1         61.1780  300.9390   40.9570 C.3       1 3AT         0.1984
     21 N9         60.4250  302.2090   40.8110 N.pl3     1 3AT        -0.1920
     22 C8         60.3910  303.0880   39.7430 C.2       1 3AT         0.1123
     23 N7         59.6400  304.1290   39.9040 N.2       1 3AT        -0.2958
     24 C5         59.1400  303.9320   41.1550 C.ar      1 3AT         0.1045
     25 C6         58.2630  304.6930   41.9530 C.ar      1 3AT         0.1298
     26 N6         57.7720  305.8150   41.4970 N.pl3     1 3AT        -0.3152
     27 N1         57.9230  304.2430   43.2080 N.ar      1 3AT        -0.2698
     28 C2         58.4450  303.0740   43.6660 C.ar      1 3AT         0.0533
     29 N3         59.3010  302.2540   43.0000 N.ar      1 3AT        -0.2714
     30 C4         59.6130  302.7610   41.7340 C.ar      1 3AT         0.1613
     31 H1         62.0169  298.3642   37.8383 H         1 3AT         0.0647
     32 H2         62.7959  299.9802   37.7472 H         1 3AT         0.0647
     33 H3         63.0430  299.0966   40.4179 H         1 3AT         0.0625
     34 H4         61.2085  297.7527   40.7372 H         1 3AT         0.0318
     35 H5         60.3855  298.3368   39.2513 H         1 3AT         0.0318
     36 H6         59.3411  299.9412   40.4186 H         1 3AT         0.0650
     37 H7         59.5374  299.9860   42.6948 H         1 3AT         0.2100
     38 H8         61.7870  300.9696   41.8725 H         1 3AT         0.0995
     39 H9         60.9577  302.9153   38.8293 H         1 3AT         0.1349
     40 H10        57.1309  306.3714   42.0803 H         1 3AT         0.1820
     41 H11        58.0262  306.1429   40.5543 H         1 3AT         0.1820
     42 H12        58.1490  302.7648   44.6619 H         1 3AT         0.0996
@<TRIPOS>BOND
     1    1    2 ar 
     2    1    3 ar 
     3    1    4 ar 
     4    8    1 1  
     5    5    6 ar 
     6    5    7 ar 
     7    5    8 1  
     8   12    5 1  
     9    9   10 ar 
    10    9   11 ar 
    11    9   12 1  
    12    9   13 1  
    13   13   14 1  
    14   14   15 1  
    15   15   16 1  
    16   15   17 1  
    17   16   20 1  
    18   17   18 1  
    19   18   19 1  
    20   18   20 1  
    21   20   21 1  
    22   21   22 1  
    23   21   30 1  
    24   22   23 2  
    25   23   24 1  
    26   24   25 ar 
    27   24   30 ar 
    28   25   26 1  
    29   25   27 ar 
    30   27   28 ar 
    31   28   29 ar 
    32   29   30 ar 
    33   14   31 1  
    34   14   32 1  
    35   15   33 1  
    36   17   34 1  
    37   17   35 1  
    38   18   36 1  
    39   19   37 1  
    40   20   38 1  
    41   22   39 1  
    42   26   40 1  
    43   26   41 1  
    44   28   42 1  
@<TRIPOS>SUBSTRUCTURE
     1 3AT         1

