6hbm_ligand
  -I-interpret- 

 20 20  0  0  0  0  0  0  0  0999 V2000
  -58.6570   14.4390   22.0810 O   0  0  0  0  0
  -57.3790   14.8290   22.5480 C   0  0  0  0  0
  -57.5040   15.1520   24.0060 C   0  0  0  0  0
  -58.6120   16.0740   24.2020 O   0  0  0  0  0
  -56.3150   15.8540   24.6420 C   0  0  0  0  0
  -55.2260   15.0110   24.9860 O   0  0  0  0  0
  -56.9850   16.4620   25.8640 C   0  0  0  0  0
  -56.1330   17.3670   26.5560 O   0  0  0  0  0
  -58.2510   17.0350   25.2150 C   0  0  0  0  0
  -59.3410   17.2780   26.1400 O   0  0  0  0  0
  -58.6037   14.2261   21.1464 H   0  0  0  0  0
  -57.0236   15.6993   21.9964 H   0  0  0  0  0
  -56.6594   14.0241   22.3987 H   0  0  0  0  0
  -57.6195   14.1737   24.4727 H   0  0  0  0  0
  -55.8261   16.5578   23.9684 H   0  0  0  0  0
  -54.8359   14.6515   24.1859 H   0  0  0  0  0
  -57.2224   15.7856   26.6851 H   0  0  0  0  0
  -55.3819   16.8878   26.9135 H   0  0  0  0  0
  -58.0505   18.0259   24.8076 H   0  0  0  0  0
  -60.0927   17.6341   25.6606 H   0  0  0  0  0
  1  2  1  0  0  0
  2  3  1  0  0  0
  3  4  1  0  0  0
  3  5  1  0  0  0
  4  9  1  0  0  0
  5  6  1  0  0  0
  5  7  1  0  0  0
  7  8  1  0  0  0
  7  9  1  0  0  0
  9 10  1  0  0  0
  1 11  1  0  0  0
  2 12  1  0  0  0
  2 13  1  0  0  0
  3 14  1  0  0  0
  5 15  1  0  0  0
  6 16  1  0  0  0
  7 17  1  0  0  0
  8 18  1  0  0  0
  9 19  1  0  0  0
 10 20  1  0  0  0
M  END
$$$$
