5lch_ligand
  -I-interpret- 

 41 43  0  0  0  0  0  0  0  0999 V2000
   35.9240  -62.3310   51.4200 C   0  0  0  0  0
   37.6780  -63.3990   52.2970 C   0  0  0  0  0
   36.6760  -65.4810   51.3300 C   0  0  0  0  0
   35.6810  -63.0530   53.8300 C   0  0  0  0  0
   34.4990  -63.3510   56.2950 C   0  0  0  0  0
   33.7200  -63.3780   55.1490 C   0  0  0  0  0
   34.3120  -63.2360   53.9020 C   0  0  0  0  0
   31.5120  -63.0500   54.2950 C   0  0  0  0  0
   35.8690  -63.1750   56.2130 C   0  0  0  0  0
   37.9270  -62.0680   48.1750 C   0  0  0  0  0
   39.0780  -62.7050   48.6400 C   0  0  0  0  0
   39.1180  -63.1690   49.9520 C   0  0  0  0  0
   38.0240  -62.9900   50.7860 C   0  0  0  0  0
   36.8710  -62.3480   50.3270 C   0  0  0  0  0
   36.8480  -61.8890   49.0300 C   0  0  0  0  0
   35.5660  -61.2490   48.5550 C   0  0  0  0  0
   35.2670  -60.0580   48.8010 O   0  0  0  0  0
   34.7920  -62.0250   47.9230 O   0  0  0  0  0
   34.8340  -61.8410   51.3320 O   0  0  0  0  0
   36.3530  -62.9050   52.5660 N   0  0  0  0  0
   37.6240  -64.8540   52.3580 C   0  0  0  0  0
   35.4330  -65.7680   51.6550 C   0  0  0  0  0
   36.4620  -63.0250   54.9760 C   0  0  0  0  0
   32.3440  -63.5710   55.2890 O   0  0  0  0  0
   38.4100  -63.0041   53.0015 H   0  0  0  0  0
   37.0337  -65.6909   50.3220 H   0  0  0  0  0
   34.0277  -63.4696   57.2707 H   0  0  0  0  0
   33.7085  -63.2681   52.9949 H   0  0  0  0  0
   31.6466  -61.9698   54.2397 H   0  0  0  0  0
   31.7691  -63.4990   53.3356 H   0  0  0  0  0
   30.4735  -63.2762   54.5368 H   0  0  0  0  0
   36.4752  -63.1550   57.1186 H   0  0  0  0  0
   37.8753  -61.7128   47.1458 H   0  0  0  0  0
   39.9372  -62.8380   47.9826 H   0  0  0  0  0
   40.0097  -63.6734   50.3242 H   0  0  0  0  0
   35.2040  -62.8881   47.8398 H   0  0  0  0  0
   37.2556  -65.1245   53.3475 H   0  0  0  0  0
   38.6263  -65.2258   52.1453 H   0  0  0  0  0
   35.0710  -65.5598   52.6618 H   0  0  0  0  0
   34.7658  -66.2138   50.9173 H   0  0  0  0  0
   37.5403  -62.8850   54.8997 H   0  0  0  0  0
  1 14  1  0  0  0
  1 19  2  0  0  0
 20  1  1  0  0  0
 13  2  1  0  0  0
  2 20  1  0  0  0
  2 21  1  0  0  0
 21  3  1  0  0  0
  3 22  2  0  0  0
  4  7  4  0  0  0
 20  4  1  0  0  0
  4 23  4  0  0  0
  6  5  4  0  0  0
  9  5  4  0  0  0
  7  6  4  0  0  0
  6 24  1  0  0  0
 24  8  1  0  0  0
 23  9  4  0  0  0
 11 10  4  0  0  0
 10 15  4  0  0  0
 12 11  4  0  0  0
 12 13  4  0  0  0
 13 14  4  0  0  0
 14 15  4  0  0  0
 15 16  1  0  0  0
 16 17  2  0  0  0
 16 18  1  0  0  0
  2 25  1  0  0  0
  3 26  1  0  0  0
  5 27  1  0  0  0
  7 28  1  0  0  0
  8 29  1  0  0  0
  8 30  1  0  0  0
  8 31  1  0  0  0
  9 32  1  0  0  0
 10 33  1  0  0  0
 11 34  1  0  0  0
 12 35  1  0  0  0
 18 36  1  0  0  0
 21 37  1  0  0  0
 21 38  1  0  0  0
 22 39  1  0  0  0
 22 40  1  0  0  0
 23 41  1  0  0  0
M  END
$$$$
