4dai_ligand
  -I-interpret- 

 23 24  0  0  0  0  0  0  0  0999 V2000
  -13.5680   26.8550    9.8480 O   0  0  0  0  0
  -12.5280   27.1500    9.1940 C   0  0  0  0  0
  -12.0430   28.3130    9.1790 O   0  0  0  0  0
  -11.8480   26.0540    8.3760 C   0  0  0  0  0
  -12.7390   25.5090    7.2640 C   0  0  0  0  0
  -13.2400   26.3780    6.1400 C   0  0  0  0  0
  -12.9430   27.5880    6.0800 O   0  0  0  0  0
  -14.1170   25.7200    5.0980 C   0  0  0  0  0
  -14.7190   26.4000    3.8960 C   0  0  0  0  0
  -14.5280   27.6080    3.6670 O   0  0  0  0  0
  -13.0970   24.1850    7.2800 N   0  0  0  0  0
  -13.9260   23.5680    6.2950 N   0  0  0  0  0
  -14.4290   24.2500    5.2480 C   0  0  0  0  0
  -15.2260   23.6410    4.3120 N   0  0  0  0  0
  -15.7420   24.3210    3.2440 C   0  0  0  0  0
  -16.5200   23.6480    2.3640 N   0  0  0  0  0
  -15.4960   25.6590    3.0430 N   0  0  0  0  0
  -13.7678   25.9239    9.7264 H   0  0  0  0  0
  -11.6135   25.2304    9.0504 H   0  0  0  0  0
  -10.9606   26.4848    7.9124 H   0  0  0  0  0
  -13.8024   26.7573    5.2130 H   0  0  0  0  0
  -15.4404   22.6493    4.4162 H   0  0  0  0  0
  -16.9182   24.1335    1.5602 H   0  0  0  0  0
  1  2  1  0  0  0
  2  3  2  0  0  0
  2  4  1  0  0  0
  4  5  1  0  0  0
  5  6  1  0  0  0
  5 11  2  0  0  0
  6  7  2  0  0  0
  6  8  1  0  0  0
  8  9  1  0  0  0
  8 13  1  0  0  0
  9 10  2  0  0  0
  9 17  1  0  0  0
 11 12  1  0  0  0
 12 13  2  0  0  0
 13 14  1  0  0  0
 14 15  1  0  0  0
 15 16  2  0  0  0
 15 17  4  0  0  0
  1 18  1  0  0  0
  4 19  1  0  0  0
  4 20  1  0  0  0
  8 21  1  0  0  0
 14 22  1  0  0  0
 16 23  1  0  0  0
M  END
$$$$
