### 
### Created by X-TOOL on Mon Aug  2 16:16:51 2021
### 

@<TRIPOS>MOLECULE
6sen_ligand
  273   278     1     0     0
SMALL
GAST_HUCK


@<TRIPOS>ATOM
      1 C           8.7330   -6.5410   22.9420 C.2       1 ACE         0.1751
      2 O           9.6070   -6.6520   22.0680 O.2       1 ACE        -0.3972
      3 CH3         9.0900   -6.0320   24.3390 C.3       1 ACE         0.0258
      4 N           7.4470   -6.8420   22.7540 N.am      1 ACE        -0.2656
      5 CA          6.8840   -7.3480   21.4880 C.3       1 ACE         0.1334
      6 C           7.1580   -6.3800   20.3090 C.2       1 ACE         0.2066
      7 O           6.9130   -5.1770   20.4620 O.2       1 ACE        -0.3942
      8 CB          5.3660   -7.6710   21.6570 C.3       1 ACE        -0.0062
      9 CG1         4.6510   -7.8460   20.3160 C.3       1 ACE        -0.0584
     10 CG2         5.1590   -8.8980   22.5400 C.3       1 ACE        -0.0584
     11 N           7.6900   -6.8640   19.1490 N.am      1 ACE        -0.2498
     12 CA          7.9080   -5.9470   18.0120 C.3       1 ACE         0.1338
     13 C           6.5760   -5.3360   17.5740 C.2       1 ACE         0.2041
     14 O           5.5530   -6.0270   17.5920 O.2       1 ACE        -0.3944
     15 CB          8.5070   -6.8540   16.9270 C.3       1 ACE        -0.0104
     16 CG          8.0460   -8.2290   17.2840 C.3       1 ACE        -0.0281
     17 CD          8.0320   -8.2550   18.7850 C.3       1 ACE         0.0369
     18 N           6.5860   -4.0370   17.2350 N.am      1 ACE        -0.2637
     19 CA          5.3960   -3.2770   16.8400 C.3       1 ACE         0.1317
     20 C           4.5570   -3.9730   15.7520 C.2       1 ACE         0.2039
     21 O           3.3340   -3.9760   15.8490 O.2       1 ACE        -0.3944
     22 CB          5.7610   -1.8390   16.4380 C.3       1 ACE        -0.0034
     23 CG          6.3510   -1.0100   17.5770 C.3       1 ACE        -0.0024
     24 SD          5.2670   -0.6570   18.9870 S.3       1 ACE        -0.1639
     25 CE          4.1440    0.5370   18.2650 C.3       1 ACE        -0.0181
     26 N           5.2300   -4.6220   14.7670 N.am      1 ACE        -0.2637
     27 CA          4.6150   -5.3390   13.6430 C.3       1 ACE         0.1311
     28 C           3.5820   -6.4070   14.0430 C.2       1 ACE         0.2039
     29 O           2.6330   -6.6370   13.2900 O.2       1 ACE        -0.3944
     30 CB          5.6940   -5.9480   12.7390 C.3       1 ACE        -0.0092
     31 CG          6.3200   -4.9390   11.7780 C.3       1 ACE        -0.0156
     32 CD          5.5450   -4.8320   10.4770 C.3       1 ACE         0.0627
     33 NE          6.0950   -3.8000    9.5980 N.pl3     1 ACE        -0.2723
     34 CZ          5.5450   -3.4230    8.4480 C.cat     1 ACE         0.2882
     35 NH1         6.1130   -2.4760    7.7140 N.pl3     1 ACE        -0.2849
     36 NH2         4.4160   -3.9830    8.0280 N.pl3     1 ACE        -0.2849
     37 N           3.7480   -7.0360   15.2210 N.am      1 ACE        -0.2640
     38 CA          2.8280   -8.0760   15.6940 C.3       1 ACE         0.1282
     39 C           1.7730   -7.5480   16.6890 C.2       1 ACE         0.2036
     40 O           1.0290   -8.3360   17.2760 O.2       1 ACE        -0.3944
     41 CB          3.6140   -9.2660   16.2730 C.3       1 ACE        -0.0244
     42 N           1.6750   -6.2280   16.8480 N.am      1 ACE        -0.2637
     43 CA          0.7080   -5.6440   17.7820 C.3       1 ACE         0.1311
     44 C          -0.6330   -5.3760   17.1010 C.2       1 ACE         0.2039
     45 O          -0.7030   -5.3480   15.8670 O.2       1 ACE        -0.3944
     46 CB          1.2840   -4.4070   18.5050 C.3       1 ACE        -0.0092
     47 CG          2.5180   -4.7610   19.3460 C.3       1 ACE        -0.0156
     48 CD          3.0790   -3.5750   20.1090 C.3       1 ACE         0.0627
     49 NE          4.2710   -3.9490   20.8780 N.pl3     1 ACE        -0.2723
     50 CZ          4.7220   -3.2890   21.9390 C.cat     1 ACE         0.2882
     51 NH1         4.0880   -2.2130   22.3770 N.pl3     1 ACE        -0.2849
     52 NH2         5.8000   -3.7160   22.5850 N.pl3     1 ACE        -0.2849
     53 N          -1.6990   -5.2300   17.9070 N.am      1 ACE        -0.2636
     54 CA         -3.0680   -4.9990   17.4270 C.3       1 ACE         0.1330
     55 C          -3.1950   -3.5490   16.9960 C.2       1 ACE         0.2040
     56 O          -3.7100   -2.7320   17.7500 O.2       1 ACE        -0.3944
     57 CB         -4.1070   -5.3710   18.5120 C.3       1 ACE         0.0045
     58 CG         -4.2060   -6.8820   18.7880 C.3       1 ACE         0.0412
     59 CD         -5.3420   -7.2940   19.7030 C.2       1 ACE         0.1737
     60 OE1        -6.0110   -6.4920   20.3600 O.2       1 ACE        -0.3973
     61 NE2        -5.6070   -8.5770   19.7510 N.am      1 ACE        -0.3009
     62 N          -2.6630   -3.2110   15.8160 N.am      1 ACE        -0.2637
     63 CA         -2.6430   -1.8050   15.3790 C.3       1 ACE         0.1314
     64 C          -3.3660   -1.6050   14.0520 C.2       1 ACE         0.2064
     65 O          -3.5350   -2.5740   13.3270 O.2       1 ACE        -0.3942
     66 CB         -1.1870   -1.2780   15.2930 C.3       1 ACE        -0.0101
     67 CG         -0.3890   -1.2620   16.6180 C.3       1 ACE        -0.0425
     68 CD1         1.1170   -1.1590   16.3500 C.3       1 ACE        -0.0625
     69 CD2        -0.8830   -0.1830   17.5550 C.3       1 ACE        -0.0625
     70 N          -3.8620   -0.3880   13.7410 N.am      1 ACE        -0.2498
     71 CA         -4.5050   -0.1780   12.4300 C.3       1 ACE         0.1338
     72 C          -3.5320   -0.4960   11.2840 C.2       1 ACE         0.2041
     73 O          -2.3140   -0.2920   11.4290 O.2       1 ACE        -0.3944
     74 CB         -4.8070    1.3330   12.4110 C.3       1 ACE        -0.0104
     75 CG         -4.6490    1.8080   13.7940 C.3       1 ACE        -0.0281
     76 CD         -3.7050    0.8850   14.4800 C.3       1 ACE         0.0369
     77 N          -4.0850   -0.8860   10.1210 N.am      1 ACE        -0.2640
     78 CA         -3.3510   -1.1560    8.8780 C.3       1 ACE         0.1282
     79 C          -2.5810    0.1240    8.4860 C.2       1 ACE         0.2037
     80 O          -1.4230    0.0420    8.0850 O.2       1 ACE        -0.3944
     81 CB         -4.3250   -1.5110    7.7680 C.3       1 ACE        -0.0244
     82 N          -3.2030    1.3060    8.6920 N.am      1 ACE        -0.2616
     83 CA         -2.6140    2.6270    8.3650 C.3       1 ACE         0.1539
     84 C          -1.3140    2.9080    9.1020 C.2       1 ACE         0.2063
     85 O          -0.4970    3.7110    8.6130 O.2       1 ACE        -0.3943
     86 CB         -3.6180    3.7330    8.6570 C.3       1 ACE         0.0843
     87 OG         -3.8600    3.8030   10.0490 O.3       1 ACE        -0.3903
     88 N          -1.1050    2.2460   10.2710 N.am      1 ACE        -0.2619
     89 CA          0.1150    2.4150   11.0730 C.3       1 ACE         0.1404
     90 C           1.3910    2.0480   10.2820 C.2       1 ACE         0.2060
     91 O           2.4630    2.5850   10.5610 O.2       1 ACE        -0.3942
     92 CB         -0.0100    1.6230   12.3730 C.3       1 ACE         0.0214
     93 CG          0.9190    2.0220   13.4980 C.ar      1 ACE        -0.0386
     94 CD1         0.5460    2.9990   14.4140 C.ar      1 ACE        -0.0601
     95 CD2         2.1470    1.3910   13.6660 C.ar      1 ACE        -0.0601
     96 CE1         1.3720    3.3160   15.4950 C.ar      1 ACE        -0.0686
     97 CE2         2.9830    1.7210   14.7360 C.ar      1 ACE        -0.0686
     98 CZ          2.5820    2.6710   15.6540 C.ar      1 ACE        -0.0687
     99 N           1.2430    1.1890    9.2630 N.am      1 ACE        -0.2625
    100 CA          2.3430    0.6990    8.4280 C.3       1 ACE         0.1352
    101 C           2.2840    1.2370    6.9940 C.2       1 ACE         0.2052
    102 O           2.9910    0.7320    6.1080 O.2       1 ACE        -0.3942
    103 CB          2.3670   -0.8490    8.4510 C.3       1 ACE         0.0042
    104 CG          2.3910   -1.4060    9.8460 C.2       1 ACE        -0.0418
    105 CD1         1.3600   -2.0180   10.5040 C.2       1 ACE         0.0167
    106 CD2         3.4240   -1.2110   10.8120 C.ar      1 ACE        -0.0214
    107 NE1         1.7190   -2.2770   11.8080 N.pl3     1 ACE        -0.2890
    108 CE2         2.9780   -1.7770   12.0270 C.ar      1 ACE         0.0603
    109 CE3         4.6940   -0.6030   10.7700 C.ar      1 ACE        -0.0747
    110 CZ2         3.7810   -1.8140   13.1680 C.ar      1 ACE        -0.0443
    111 CZ3         5.4920   -0.6410   11.9010 C.ar      1 ACE        -0.0792
    112 CH2         5.0480   -1.2680   13.0740 C.ar      1 ACE        -0.0768
    113 N           1.4360    2.2560    6.7710 N.am      1 ACE        -0.2635
    114 CA          1.2020    2.8540    5.4540 C.3       1 ACE         0.1325
    115 C           1.5330    4.3350    5.5150 C.2       1 ACE         0.2040
    116 O           0.6560    5.1810    5.7560 O.2       1 ACE        -0.3944
    117 CB         -0.2680    2.6490    5.0200 C.3       1 ACE        -0.0008
    118 CG         -0.7270    1.1930    5.0820 C.3       1 ACE         0.0044
    119 CD         -2.1840    0.8930    4.7680 C.2       1 ACE         0.0350
    120 OE1        -3.0680    1.7300    5.0710 O.co2     1 ACE        -0.5690
    121 OE2        -2.4440   -0.2160    4.2500 O.co2     1 ACE        -0.5690
    122 N           2.7950    4.6540    5.2550 N.am      1 ACE        -0.2636
    123 CA          3.1830    6.0720    5.2780 C.3       1 ACE         0.1327
    124 C           2.3010    6.8330    4.2610 C.2       1 ACE         0.2065
    125 O           2.1820    6.3700    3.1120 O.2       1 ACE        -0.3942
    126 CB          4.6490    6.2300    4.8820 C.3       1 ACE        -0.0008
    127 CG          5.0870    7.6860    4.9110 C.3       1 ACE         0.0044
    128 CD          6.5620    7.9800    4.7020 C.2       1 ACE         0.0350
    129 OE1         6.9390    9.1670    4.8390 O.co2     1 ACE        -0.5690
    130 OE2         7.3390    7.0440    4.4020 O.co2     1 ACE        -0.5690
    131 N           1.6750    7.9680    4.6600 N.am      1 ACE        -0.2498
    132 CA          0.9050    8.7700    3.6950 C.3       1 ACE         0.1334
    133 C           1.7690    9.2070    2.5070 C.2       1 ACE         0.1994
    134 O           2.9880    9.3610    2.6440 O.2       1 ACE        -0.3947
    135 CB          0.5030   10.0060    4.5220 C.3       1 ACE        -0.0104
    136 CG          0.4880    9.5240    5.9340 C.3       1 ACE        -0.0281
    137 CD          1.6910    8.6210    5.9850 C.3       1 ACE         0.0369
    138 N           1.1640    9.2740    1.3110 N.am      1 ACE        -0.2990
    139 H1          8.1841   -6.0062   24.9624 H         1 ACE         0.0467
    140 H2          9.5120   -5.0190   24.2634 H         1 ACE         0.0467
    141 H3          9.8306   -6.7046   24.7962 H         1 ACE         0.0467
    142 H4          6.8218   -6.7159   23.5242 H         1 ACE         0.1883
    143 H5          7.3954   -8.2934   21.2542 H         1 ACE         0.0803
    144 H6          4.9041   -6.8122   22.1660 H         1 ACE         0.0343
    145 H7          3.5890   -8.0710   20.4934 H         1 ACE         0.0234
    146 H8          5.1133   -8.6745   19.7593 H         1 ACE         0.0234
    147 H9          4.7365   -6.9184   19.7311 H         1 ACE         0.0234
    148 H10         5.6800   -8.7525   23.4978 H         1 ACE         0.0234
    149 H11         5.5638   -9.7867   22.0337 H         1 ACE         0.0234
    150 H12         4.0840   -9.0394   22.7252 H         1 ACE         0.0234
    151 H13         8.6102   -5.1435   18.2790 H         1 ACE         0.0802
    152 H14         9.6055   -6.7983   16.9380 H         1 ACE         0.0313
    153 H15         8.1352   -6.5664   15.9325 H         1 ACE         0.0313
    154 H16         8.7418   -8.9847   16.8905 H         1 ACE         0.0287
    155 H17         7.0382   -8.4151   16.8845 H         1 ACE         0.0287
    156 H18         7.2730   -8.9577   19.1593 H         1 ACE         0.0524
    157 H19         9.0186   -8.5347   19.1829 H         1 ACE         0.0524
    158 H20         7.4627   -3.5562   17.2531 H         1 ACE         0.1883
    159 H21         4.7566   -3.2084   17.7324 H         1 ACE         0.0800
    160 H22         4.8498   -1.3373   16.0802 H         1 ACE         0.0320
    161 H23         6.4990   -1.8836   15.6235 H         1 ACE         0.0320
    162 H24         6.6702   -0.0458   17.1546 H         1 ACE         0.0378
    163 H25         7.2286   -1.5508   17.9607 H         1 ACE         0.0378
    164 H26         3.4091    0.8525   19.0202 H         1 ACE         0.0340
    165 H27         3.6204    0.0793   17.4127 H         1 ACE         0.0340
    166 H28         4.7127    1.4126   17.9187 H         1 ACE         0.0340
    167 H29         6.2290   -4.6106   14.8110 H         1 ACE         0.1883
    168 H30         4.0744   -4.5868   13.0497 H         1 ACE         0.0800
    169 H31         5.2385   -6.7562   12.1480 H         1 ACE         0.0313
    170 H32         6.4892   -6.3628   13.3758 H         1 ACE         0.0313
    171 H33         7.3492   -5.2553   11.5526 H         1 ACE         0.0301
    172 H34         6.3376   -3.9516   12.2625 H         1 ACE         0.0301
    173 H35         4.4983   -4.5833   10.7059 H         1 ACE         0.0689
    174 H36         5.5865   -5.8007    9.9575 H         1 ACE         0.0689
    175 H37         6.9664   -3.3346    9.8896 H         1 ACE         0.2642
    176 H38         5.6832   -2.1872    6.8236 H         1 ACE         0.2615
    177 H39         6.9841   -2.0292    8.0342 H         1 ACE         0.2615
    178 H40         3.9662   -4.7195    8.5902 H         1 ACE         0.2615
    179 H41         3.9904   -3.6807    7.1401 H         1 ACE         0.2615
    180 H42         4.5274   -6.7852   15.7952 H         1 ACE         0.1883
    181 H43         2.2786   -8.4437   14.8149 H         1 ACE         0.0797
    182 H44         2.9097  -10.0354   16.6224 H         1 ACE         0.0277
    183 H45         4.2303   -8.9226   17.1170 H         1 ACE         0.0277
    184 H46         4.2636   -9.6905   15.4934 H         1 ACE         0.0277
    185 H47         2.2727   -5.6247   16.3199 H         1 ACE         0.1883
    186 H48         0.5193   -6.3994   18.5590 H         1 ACE         0.0800
    187 H49         0.5107   -3.9890   19.1662 H         1 ACE         0.0313
    188 H50         1.5690   -3.6560   17.7535 H         1 ACE         0.0313
    189 H51         3.2997   -5.1471   18.6753 H         1 ACE         0.0301
    190 H52         2.2369   -5.5410   20.0689 H         1 ACE         0.0301
    191 H53         2.3108   -3.1982   20.8003 H         1 ACE         0.0689
    192 H54         3.3482   -2.7840   19.3936 H         1 ACE         0.0689
    193 H55         4.7951   -4.7819   20.5739 H         1 ACE         0.2642
    194 H56         4.4427   -1.7056   23.2002 H         1 ACE         0.2615
    195 H57         3.2399   -1.8830   21.8947 H         1 ACE         0.2615
    196 H58         6.3016   -4.5523   22.2534 H         1 ACE         0.2615
    197 H59         6.1350   -3.2111   23.4179 H         1 ACE         0.2615
    198 H60        -1.5508   -5.2819   18.8946 H         1 ACE         0.1883
    199 H61        -3.2464   -5.6400   16.5510 H         1 ACE         0.0801
    200 H62        -5.0941   -5.0135   18.1836 H         1 ACE         0.0337
    201 H63        -3.8267   -4.8656   19.4479 H         1 ACE         0.0337
    202 H64        -3.2617   -7.2071   19.2491 H         1 ACE         0.0504
    203 H65        -4.3400   -7.3965   17.8251 H         1 ACE         0.0504
    204 H66        -6.3450   -8.9136   20.3358 H         1 ACE         0.1814
    205 H67        -5.0711   -9.2191   19.2028 H         1 ACE         0.1814
    206 H68        -2.2756   -3.9192   15.2257 H         1 ACE         0.1883
    207 H69        -3.1728   -1.2126   16.1395 H         1 ACE         0.0800
    208 H70        -1.2248   -0.2471   14.9112 H         1 ACE         0.0315
    209 H71        -0.6413   -1.9133   14.5799 H         1 ACE         0.0315
    210 H72        -0.5644   -2.2264   17.1170 H         1 ACE         0.0298
    211 H73         1.6598   -1.1496   17.3067 H         1 ACE         0.0232
    212 H74         1.3288   -0.2307   15.7991 H         1 ACE         0.0232
    213 H75         1.4430   -2.0228   15.7520 H         1 ACE         0.0232
    214 H76        -1.9650   -0.3020   17.7132 H         1 ACE         0.0232
    215 H77        -0.6834    0.8049   17.1144 H         1 ACE         0.0232
    216 H78        -0.3601   -0.2670   18.5191 H         1 ACE         0.0232
    217 H79        -5.4208   -0.7794   12.3326 H         1 ACE         0.0802
    218 H80        -5.8354    1.5106   12.0634 H         1 ACE         0.0313
    219 H81        -4.1006    1.8534   11.7475 H         1 ACE         0.0313
    220 H82        -5.6219    1.7995   14.3073 H         1 ACE         0.0287
    221 H83        -4.2424    2.8301   13.7957 H         1 ACE         0.0287
    222 H84        -2.6718    1.2557   14.4082 H         1 ACE         0.0524
    223 H85        -3.9773    0.7606   15.5385 H         1 ACE         0.0524
    224 H86        -5.0781   -1.0016   10.1014 H         1 ACE         0.1883
    225 H87        -2.6469   -1.9869    9.0325 H         1 ACE         0.0797
    226 H88        -3.7674   -1.7116    6.8412 H         1 ACE         0.0277
    227 H89        -5.0171   -0.6717    7.6051 H         1 ACE         0.0277
    228 H90        -4.8958   -2.4069    8.0536 H         1 ACE         0.0277
    229 H91        -4.1199    1.2886    9.0908 H         1 ACE         0.1884
    230 H92        -2.3947    2.6351    7.2871 H         1 ACE         0.0823
    231 H93        -4.5608    3.5186    8.1325 H         1 ACE         0.0606
    232 H94        -3.2144    4.6947    8.3074 H         1 ACE         0.0606
    233 H95        -3.0458    3.9888   10.5019 H         1 ACE         0.2097
    234 H96        -1.8108    1.6179   10.5988 H         1 ACE         0.1885
    235 H97         0.1941    3.4795   11.3385 H         1 ACE         0.0823
    236 H98         0.1824    0.5654   12.1399 H         1 ACE         0.0474
    237 H99        -1.0422    1.7367   12.7357 H         1 ACE         0.0474
    238 H100       -0.3960    3.5204   14.2880 H         1 ACE         0.0557
    239 H101        2.4599    0.6328   12.9572 H         1 ACE         0.0557
    240 H102        1.0623    4.0696   16.2100 H         1 ACE         0.0599
    241 H103        3.9443    1.2321   14.8450 H         1 ACE         0.0599
    242 H104        3.2171    2.9103   16.4993 H         1 ACE         0.0559
    243 H105        0.3205    0.8610    9.0594 H         1 ACE         0.1884
    244 H106        3.2831    1.0575    8.8726 H         1 ACE         0.0815
    245 H107        3.2647   -1.1954    7.9180 H         1 ACE         0.0397
    246 H108        1.4687   -1.2229    7.9379 H         1 ACE         0.0397
    247 H109        0.3960   -2.2645   10.0614 H         1 ACE         0.0795
    248 H110        1.1382   -2.7656   12.5043 H         1 ACE         0.2216
    249 H111        5.0409   -0.1135    9.8672 H         1 ACE         0.0540
    250 H112        3.4250   -2.2539   14.0926 H         1 ACE         0.0541
    251 H113        6.4728   -0.1800   11.8793 H         1 ACE         0.0510
    252 H114        5.7138   -1.3261   13.9275 H         1 ACE         0.0530
    253 H115        0.9343    2.6286    7.5516 H         1 ACE         0.1883
    254 H116        1.8596    2.3689    4.7177 H         1 ACE         0.0801
    255 H117       -0.3777    3.0043    3.9848 H         1 ACE         0.0330
    256 H118       -0.9126    3.2452    5.6826 H         1 ACE         0.0330
    257 H119       -0.5303    0.8305    6.1017 H         1 ACE         0.0433
    258 H120       -0.1140    0.6254    4.3664 H         1 ACE         0.0433
    259 H121        3.4682    3.9442    5.0477 H         1 ACE         0.1883
    260 H122        3.0293    6.4811    6.2874 H         1 ACE         0.0801
    261 H123        4.7875    5.8366    3.8641 H         1 ACE         0.0330
    262 H124        5.2716    5.6567    5.5846 H         1 ACE         0.0330
    263 H125        4.8057    8.0950    5.8926 H         1 ACE         0.0433
    264 H126        4.5312    8.2128    4.1213 H         1 ACE         0.0433
    265 H127        0.0237    8.2195    3.3340 H         1 ACE         0.0802
    266 H128       -0.4927   10.3660    4.2238 H         1 ACE         0.0313
    267 H129        1.2383   10.8143    4.3952 H         1 ACE         0.0313
    268 H130       -0.4354    8.9682    6.1542 H         1 ACE         0.0287
    269 H131        0.5895   10.3610    6.6405 H         1 ACE         0.0287
    270 H132        2.6145    9.2011    6.1284 H         1 ACE         0.0524
    271 H133        1.5945    7.8797    6.7919 H         1 ACE         0.0524
    272 H134        1.6828    9.5538    0.5032 H         1 ACE         0.1815
    273 H135        0.1944    9.0441    1.2276 H         1 ACE         0.1815
@<TRIPOS>BOND
     1    1    2 2  
     2    1    3 1  
     3    1    4 am 
     4    4    5 1  
     5    5    6 1  
     6    5    8 1  
     7    6    7 2  
     8    6   11 am 
     9    8    9 1  
    10    8   10 1  
    11   11   12 1  
    12   11   17 1  
    13   12   13 1  
    14   12   15 1  
    15   13   14 2  
    16   13   18 am 
    17   15   16 1  
    18   16   17 1  
    19   18   19 1  
    20   19   20 1  
    21   19   22 1  
    22   20   21 2  
    23   20   26 am 
    24   22   23 1  
    25   23   24 1  
    26   24   25 1  
    27   26   27 1  
    28   27   28 1  
    29   27   30 1  
    30   28   29 2  
    31   28   37 am 
    32   30   31 1  
    33   31   32 1  
    34   32   33 1  
    35   33   34 ar 
    36   34   35 ar 
    37   34   36 ar 
    38   37   38 1  
    39   38   39 1  
    40   38   41 1  
    41   39   40 2  
    42   39   42 am 
    43   42   43 1  
    44   43   44 1  
    45   43   46 1  
    46   44   45 2  
    47   44   53 am 
    48   46   47 1  
    49   47   48 1  
    50   48   49 1  
    51   49   50 ar 
    52   50   51 ar 
    53   50   52 ar 
    54   53   54 1  
    55   54   55 1  
    56   54   57 1  
    57   55   56 2  
    58   55   62 am 
    59   57   58 1  
    60   58   59 1  
    61   59   60 2  
    62   59   61 am 
    63   62   63 1  
    64   63   64 1  
    65   63   66 1  
    66   64   65 2  
    67   64   70 am 
    68   66   67 1  
    69   67   68 1  
    70   67   69 1  
    71   70   71 1  
    72   70   76 1  
    73   71   72 1  
    74   71   74 1  
    75   72   73 2  
    76   72   77 am 
    77   74   75 1  
    78   75   76 1  
    79   77   78 1  
    80   78   79 1  
    81   78   81 1  
    82   79   80 2  
    83   79   82 am 
    84   82   83 1  
    85   83   84 1  
    86   83   86 1  
    87   84   85 2  
    88   84   88 am 
    89   86   87 1  
    90   88   89 1  
    91   89   90 1  
    92   89   92 1  
    93   90   91 2  
    94   90   99 am 
    95   92   93 1  
    96   93   94 ar 
    97   93   95 ar 
    98   94   96 ar 
    99   95   97 ar 
   100   96   98 ar 
   101   97   98 ar 
   102   99  100 1  
   103  100  101 1  
   104  100  103 1  
   105  101  102 2  
   106  101  113 am 
   107  103  104 1  
   108  104  105 2  
   109  104  106 1  
   110  105  107 1  
   111  106  108 ar 
   112  106  109 ar 
   113  107  108 1  
   114  108  110 ar 
   115  109  111 ar 
   116  110  112 ar 
   117  111  112 ar 
   118  113  114 1  
   119  114  115 1  
   120  114  117 1  
   121  115  116 2  
   122  115  122 am 
   123  117  118 1  
   124  118  119 1  
   125  119  120 ar 
   126  119  121 ar 
   127  122  123 1  
   128  123  124 1  
   129  123  126 1  
   130  124  125 2  
   131  124  131 am 
   132  126  127 1  
   133  127  128 1  
   134  128  129 ar 
   135  128  130 ar 
   136  131  132 1  
   137  131  137 1  
   138  132  133 1  
   139  132  135 1  
   140  133  134 2  
   141  133  138 am 
   142  135  136 1  
   143  136  137 1  
   144    3  139 1  
   145    3  140 1  
   146    3  141 1  
   147    4  142 1  
   148    5  143 1  
   149    8  144 1  
   150    9  145 1  
   151    9  146 1  
   152    9  147 1  
   153   10  148 1  
   154   10  149 1  
   155   10  150 1  
   156   12  151 1  
   157   15  152 1  
   158   15  153 1  
   159   16  154 1  
   160   16  155 1  
   161   17  156 1  
   162   17  157 1  
   163   18  158 1  
   164   19  159 1  
   165   22  160 1  
   166   22  161 1  
   167   23  162 1  
   168   23  163 1  
   169   25  164 1  
   170   25  165 1  
   171   25  166 1  
   172   26  167 1  
   173   27  168 1  
   174   30  169 1  
   175   30  170 1  
   176   31  171 1  
   177   31  172 1  
   178   32  173 1  
   179   32  174 1  
   180   33  175 1  
   181   35  176 1  
   182   35  177 1  
   183   36  178 1  
   184   36  179 1  
   185   37  180 1  
   186   38  181 1  
   187   41  182 1  
   188   41  183 1  
   189   41  184 1  
   190   42  185 1  
   191   43  186 1  
   192   46  187 1  
   193   46  188 1  
   194   47  189 1  
   195   47  190 1  
   196   48  191 1  
   197   48  192 1  
   198   49  193 1  
   199   51  194 1  
   200   51  195 1  
   201   52  196 1  
   202   52  197 1  
   203   53  198 1  
   204   54  199 1  
   205   57  200 1  
   206   57  201 1  
   207   58  202 1  
   208   58  203 1  
   209   61  204 1  
   210   61  205 1  
   211   62  206 1  
   212   63  207 1  
   213   66  208 1  
   214   66  209 1  
   215   67  210 1  
   216   68  211 1  
   217   68  212 1  
   218   68  213 1  
   219   69  214 1  
   220   69  215 1  
   221   69  216 1  
   222   71  217 1  
   223   74  218 1  
   224   74  219 1  
   225   75  220 1  
   226   75  221 1  
   227   76  222 1  
   228   76  223 1  
   229   77  224 1  
   230   78  225 1  
   231   81  226 1  
   232   81  227 1  
   233   81  228 1  
   234   82  229 1  
   235   83  230 1  
   236   86  231 1  
   237   86  232 1  
   238   87  233 1  
   239   88  234 1  
   240   89  235 1  
   241   92  236 1  
   242   92  237 1  
   243   94  238 1  
   244   95  239 1  
   245   96  240 1  
   246   97  241 1  
   247   98  242 1  
   248   99  243 1  
   249  100  244 1  
   250  103  245 1  
   251  103  246 1  
   252  105  247 1  
   253  107  248 1  
   254  109  249 1  
   255  110  250 1  
   256  111  251 1  
   257  112  252 1  
   258  113  253 1  
   259  114  254 1  
   260  117  255 1  
   261  117  256 1  
   262  118  257 1  
   263  118  258 1  
   264  122  259 1  
   265  123  260 1  
   266  126  261 1  
   267  126  262 1  
   268  127  263 1  
   269  127  264 1  
   270  132  265 1  
   271  135  266 1  
   272  135  267 1  
   273  136  268 1  
   274  136  269 1  
   275  137  270 1  
   276  137  271 1  
   277  138  272 1  
   278  138  273 1  
@<TRIPOS>SUBSTRUCTURE
     1 ACE         1

