6sen_ligand
  -I-interpret- 

272277  0  0  0  0  0  0  0  0999 V2000
    8.7330   -6.5410   22.9420 C   0  0  0  0  0
    9.6070   -6.6520   22.0680 O   0  0  0  0  0
    9.0900   -6.0320   24.3390 C   0  0  0  0  0
    7.4470   -6.8420   22.7540 N   0  0  0  0  0
    6.8840   -7.3480   21.4880 C   0  0  0  0  0
    7.1580   -6.3800   20.3090 C   0  0  0  0  0
    6.9130   -5.1770   20.4620 O   0  0  0  0  0
    5.3660   -7.6710   21.6570 C   0  0  0  0  0
    4.6510   -7.8460   20.3160 C   0  0  0  0  0
    5.1590   -8.8980   22.5400 C   0  0  0  0  0
    7.6900   -6.8640   19.1490 N   0  0  0  0  0
    7.9080   -5.9470   18.0120 C   0  0  0  0  0
    6.5760   -5.3360   17.5740 C   0  0  0  0  0
    5.5530   -6.0270   17.5920 O   0  0  0  0  0
    8.5070   -6.8540   16.9270 C   0  0  0  0  0
    8.0460   -8.2290   17.2840 C   0  0  0  0  0
    8.0320   -8.2550   18.7850 C   0  0  0  0  0
    6.5860   -4.0370   17.2350 N   0  0  0  0  0
    5.3960   -3.2770   16.8400 C   0  0  0  0  0
    4.5570   -3.9730   15.7520 C   0  0  0  0  0
    3.3340   -3.9760   15.8490 O   0  0  0  0  0
    5.7610   -1.8390   16.4380 C   0  0  0  0  0
    6.3510   -1.0100   17.5770 C   0  0  0  0  0
    5.2670   -0.6570   18.9870 S   0  0  0  0  0
    4.1440    0.5370   18.2650 C   0  0  0  0  0
    5.2300   -4.6220   14.7670 N   0  0  0  0  0
    4.6150   -5.3390   13.6430 C   0  0  0  0  0
    3.5820   -6.4070   14.0430 C   0  0  0  0  0
    2.6330   -6.6370   13.2900 O   0  0  0  0  0
    5.6940   -5.9480   12.7390 C   0  0  0  0  0
    6.3200   -4.9390   11.7780 C   0  0  0  0  0
    5.5450   -4.8320   10.4770 C   0  0  0  0  0
    6.0950   -3.8000    9.5980 N   0  0  0  0  0
    5.5450   -3.4230    8.4480 C   0  0  0  0  0
    6.1130   -2.4760    7.7140 N   0  0  0  0  0
    4.4160   -3.9830    8.0280 N   0  0  0  0  0
    3.7480   -7.0360   15.2210 N   0  0  0  0  0
    2.8280   -8.0760   15.6940 C   0  0  0  0  0
    1.7730   -7.5480   16.6890 C   0  0  0  0  0
    1.0290   -8.3360   17.2760 O   0  0  0  0  0
    3.6140   -9.2660   16.2730 C   0  0  0  0  0
    1.6750   -6.2280   16.8480 N   0  0  0  0  0
    0.7080   -5.6440   17.7820 C   0  0  0  0  0
   -0.6330   -5.3760   17.1010 C   0  0  0  0  0
   -0.7030   -5.3480   15.8670 O   0  0  0  0  0
    1.2840   -4.4070   18.5050 C   0  0  0  0  0
    2.5180   -4.7610   19.3460 C   0  0  0  0  0
    3.0790   -3.5750   20.1090 C   0  0  0  0  0
    4.2710   -3.9490   20.8780 N   0  0  0  0  0
    4.7220   -3.2890   21.9390 C   0  0  0  0  0
    4.0880   -2.2130   22.3770 N   0  0  0  0  0
    5.8000   -3.7160   22.5850 N   0  0  0  0  0
   -1.6990   -5.2300   17.9070 N   0  0  0  0  0
   -3.0680   -4.9990   17.4270 C   0  0  0  0  0
   -3.1950   -3.5490   16.9960 C   0  0  0  0  0
   -3.7100   -2.7320   17.7500 O   0  0  0  0  0
   -4.1070   -5.3710   18.5120 C   0  0  0  0  0
   -4.2060   -6.8820   18.7880 C   0  0  0  0  0
   -5.3420   -7.2940   19.7030 C   0  0  0  0  0
   -6.0110   -6.4920   20.3600 O   0  0  0  0  0
   -5.6070   -8.5770   19.7510 N   0  0  0  0  0
   -2.6630   -3.2110   15.8160 N   0  0  0  0  0
   -2.6430   -1.8050   15.3790 C   0  0  0  0  0
   -3.3660   -1.6050   14.0520 C   0  0  0  0  0
   -3.5350   -2.5740   13.3270 O   0  0  0  0  0
   -1.1870   -1.2780   15.2930 C   0  0  0  0  0
   -0.3890   -1.2620   16.6180 C   0  0  0  0  0
    1.1170   -1.1590   16.3500 C   0  0  0  0  0
   -0.8830   -0.1830   17.5550 C   0  0  0  0  0
   -3.8620   -0.3880   13.7410 N   0  0  0  0  0
   -4.5050   -0.1780   12.4300 C   0  0  0  0  0
   -3.5320   -0.4960   11.2840 C   0  0  0  0  0
   -2.3140   -0.2920   11.4290 O   0  0  0  0  0
   -4.8070    1.3330   12.4110 C   0  0  0  0  0
   -4.6490    1.8080   13.7940 C   0  0  0  0  0
   -3.7050    0.8850   14.4800 C   0  0  0  0  0
   -4.0850   -0.8860   10.1210 N   0  0  0  0  0
   -3.3510   -1.1560    8.8780 C   0  0  0  0  0
   -2.5810    0.1240    8.4860 C   0  0  0  0  0
   -1.4230    0.0420    8.0850 O   0  0  0  0  0
   -4.3250   -1.5110    7.7680 C   0  0  0  0  0
   -3.2030    1.3060    8.6920 N   0  0  0  0  0
   -2.6140    2.6270    8.3650 C   0  0  0  0  0
   -1.3140    2.9080    9.1020 C   0  0  0  0  0
   -0.4970    3.7110    8.6130 O   0  0  0  0  0
   -3.6180    3.7330    8.6570 C   0  0  0  0  0
   -3.8600    3.8030   10.0490 O   0  0  0  0  0
   -1.1050    2.2460   10.2710 N   0  0  0  0  0
    0.1150    2.4150   11.0730 C   0  0  0  0  0
    1.3910    2.0480   10.2820 C   0  0  0  0  0
    2.4630    2.5850   10.5610 O   0  0  0  0  0
   -0.0100    1.6230   12.3730 C   0  0  0  0  0
    0.9190    2.0220   13.4980 C   0  0  0  0  0
    0.5460    2.9990   14.4140 C   0  0  0  0  0
    2.1470    1.3910   13.6660 C   0  0  0  0  0
    1.3720    3.3160   15.4950 C   0  0  0  0  0
    2.9830    1.7210   14.7360 C   0  0  0  0  0
    2.5820    2.6710   15.6540 C   0  0  0  0  0
    1.2430    1.1890    9.2630 N   0  0  0  0  0
    2.3430    0.6990    8.4280 C   0  0  0  0  0
    2.2840    1.2370    6.9940 C   0  0  0  0  0
    2.9910    0.7320    6.1080 O   0  0  0  0  0
    2.3670   -0.8490    8.4510 C   0  0  0  0  0
    2.3910   -1.4060    9.8460 C   0  0  0  0  0
    1.3600   -2.0180   10.5040 C   0  0  0  0  0
    3.4240   -1.2110   10.8120 C   0  0  0  0  0
    1.7190   -2.2770   11.8080 N   0  0  0  0  0
    2.9780   -1.7770   12.0270 C   0  0  0  0  0
    4.6940   -0.6030   10.7700 C   0  0  0  0  0
    3.7810   -1.8140   13.1680 C   0  0  0  0  0
    5.4920   -0.6410   11.9010 C   0  0  0  0  0
    5.0480   -1.2680   13.0740 C   0  0  0  0  0
    1.4360    2.2560    6.7710 N   0  0  0  0  0
    1.2020    2.8540    5.4540 C   0  0  0  0  0
    1.5330    4.3350    5.5150 C   0  0  0  0  0
    0.6560    5.1810    5.7560 O   0  0  0  0  0
   -0.2680    2.6490    5.0200 C   0  0  0  0  0
   -0.7270    1.1930    5.0820 C   0  0  0  0  0
   -2.1840    0.8930    4.7680 C   0  0  0  0  0
   -3.0680    1.7300    5.0710 O   0  0  0  0  0
   -2.4440   -0.2160    4.2500 O   0  0  0  0  0
    2.7950    4.6540    5.2550 N   0  0  0  0  0
    3.1830    6.0720    5.2780 C   0  0  0  0  0
    2.3010    6.8330    4.2610 C   0  0  0  0  0
    2.1820    6.3700    3.1120 O   0  0  0  0  0
    4.6490    6.2300    4.8820 C   0  0  0  0  0
    5.0870    7.6860    4.9110 C   0  0  0  0  0
    6.5620    7.9800    4.7020 C   0  0  0  0  0
    6.9390    9.1670    4.8390 O   0  0  0  0  0
    7.3390    7.0440    4.4020 O   0  0  0  0  0
    1.6750    7.9680    4.6600 N   0  0  0  0  0
    0.9050    8.7700    3.6950 C   0  0  0  0  0
    1.7690    9.2070    2.5070 C   0  0  0  0  0
    2.9880    9.3610    2.6440 O   0  0  0  0  0
    0.5030   10.0060    4.5220 C   0  0  0  0  0
    0.4880    9.5240    5.9340 C   0  0  0  0  0
    1.6910    8.6210    5.9850 C   0  0  0  0  0
    1.1640    9.2740    1.3110 N   0  0  0  0  0
    9.8239   -6.6993   24.7909 H   0  0  0  0  0
    9.5080   -5.0282   24.2627 H   0  0  0  0  0
    8.1916   -6.0069   24.9557 H   0  0  0  0  0
    6.8093   -6.7134   23.5396 H   0  0  0  0  0
    7.3908   -8.2795   21.2360 H   0  0  0  0  0
    4.9181   -6.8079   22.1496 H   0  0  0  0  0
    5.0505   -8.7216   19.8043 H   0  0  0  0  0
    3.5834   -7.9807   20.4898 H   0  0  0  0  0
    4.8114   -6.9599   19.7018 H   0  0  0  0  0
    4.0934   -9.0370   22.7227 H   0  0  0  0  0
    5.5605   -9.7778   22.0372 H   0  0  0  0  0
    5.6757   -8.7527   23.4887 H   0  0  0  0  0
    8.5599   -5.1046   18.2433 H   0  0  0  0  0
    9.5944   -6.7855   16.8949 H   0  0  0  0  0
    8.1812   -6.5627   15.9285 H   0  0  0  0  0
    8.7027   -8.9954   16.8723 H   0  0  0  0  0
    7.0631   -8.4472   16.8665 H   0  0  0  0  0
    7.3216   -8.9788   19.1844 H   0  0  0  0  0
    8.9844   -8.5759   19.2069 H   0  0  0  0  0
    7.4802   -3.5466   17.2534 H   0  0  0  0  0
    4.7585   -3.2331   17.7230 H   0  0  0  0  0
    4.8413   -1.3472   16.1212 H   0  0  0  0  0
    6.5185   -1.9027   15.6568 H   0  0  0  0  0
    6.5984   -0.0414   17.1425 H   0  0  0  0  0
    7.1763   -1.5991   17.9768 H   0  0  0  0  0
    4.7087    1.4040   17.9222 H   0  0  0  0  0
    3.6259    0.0823   17.4207 H   0  0  0  0  0
    3.4163    0.8488   19.0143 H   0  0  0  0  0
    6.2489   -4.6103   14.8119 H   0  0  0  0  0
    4.0499   -4.5838   13.0967 H   0  0  0  0  0
    5.2198   -6.7239   12.1380 H   0  0  0  0  0
    6.4883   -6.3249   13.3833 H   0  0  0  0  0
    7.3308   -5.2737   11.5449 H   0  0  0  0  0
    6.3123   -3.9612   12.2595 H   0  0  0  0  0
    4.5148   -4.5660   10.7136 H   0  0  0  0  0
    5.6090   -5.7901    9.9612 H   0  0  0  0  0
    6.9579   -3.3391    9.8867 H   0  0  0  0  0
    6.9756   -2.0335    8.0311 H   0  0  0  0  0
    3.9945   -3.6836    7.1487 H   0  0  0  0  0
    3.9706   -4.7124    8.5848 H   0  0  0  0  0
    4.5429   -6.7801   15.8067 H   0  0  0  0  0
    2.2643   -8.4210   14.8272 H   0  0  0  0  0
    4.2573   -9.6857   15.4996 H   0  0  0  0  0
    4.2242   -8.9244   17.1091 H   0  0  0  0  0
    2.9151  -10.0276   16.6189 H   0  0  0  0  0
    2.2846   -5.6127   16.3094 H   0  0  0  0  0
    0.5112   -6.3784   18.5631 H   0  0  0  0  0
    0.5172   -4.0120   19.1715 H   0  0  0  0  0
    1.5809   -3.6774   17.7516 H   0  0  0  0  0
    3.2929   -5.1132   18.6651 H   0  0  0  0  0
    2.2167   -5.5120   20.0763 H   0  0  0  0  0
    2.3176   -3.2178   20.8024 H   0  0  0  0  0
    3.3576   -2.8025   19.3922 H   0  0  0  0  0
    4.7900   -4.7738   20.5768 H   0  0  0  0  0
    3.2481   -1.8862   21.8994 H   0  0  0  0  0
    6.1317   -3.2160   23.4098 H   0  0  0  0  0
    6.2967   -4.5441   22.2566 H   0  0  0  0  0
   -1.5478   -5.2829   18.9143 H   0  0  0  0  0
   -3.2718   -5.6412   16.5702 H   0  0  0  0  0
   -5.0824   -5.0422   18.1534 H   0  0  0  0  0
   -3.7933   -4.8918   19.4394 H   0  0  0  0  0
   -3.2806   -7.1719   19.2857 H   0  0  0  0  0
   -4.3846   -7.3659   17.8278 H   0  0  0  0  0
   -6.3708   -8.9185   20.3344 H   0  0  0  0  0
   -5.0494   -9.2337   19.2049 H   0  0  0  0  0
   -2.2679   -3.9333   15.2139 H   0  0  0  0  0
   -3.1815   -1.2273   16.1303 H   0  0  0  0  0
   -1.2570   -0.2404   14.9666 H   0  0  0  0  0
   -0.6560   -1.9565   14.6253 H   0  0  0  0  0
   -0.5611   -2.2113   17.1253 H   0  0  0  0  0
    1.4387   -2.0154   15.7574 H   0  0  0  0  0
    1.3255   -0.2389   15.8041 H   0  0  0  0  0
    1.6538   -1.1497   17.2986 H   0  0  0  0  0
   -0.7739    0.7901   17.0762 H   0  0  0  0  0
   -1.9331   -0.3589   17.7882 H   0  0  0  0  0
   -0.2968   -0.2051   18.4737 H   0  0  0  0  0
   -5.3819   -0.8120   12.2989 H   0  0  0  0  0
   -5.8158    1.5247   12.0454 H   0  0  0  0  0
   -4.1289    1.8580   11.7382 H   0  0  0  0  0
   -5.6114    1.8176   14.3056 H   0  0  0  0  0
   -4.2610    2.8266   13.8048 H   0  0  0  0  0
   -2.6787    1.2518   14.4642 H   0  0  0  0  0
   -3.9241    0.7794   15.5425 H   0  0  0  0  0
   -5.0980   -1.0039   10.1011 H   0  0  0  0  0
   -2.6638   -1.9891    9.0259 H   0  0  0  0  0
   -4.8900   -2.3987    8.0523 H   0  0  0  0  0
   -5.0102   -0.6786    7.6076 H   0  0  0  0  0
   -3.7714   -1.7095    6.8503 H   0  0  0  0  0
   -4.1382    1.2883    9.0988 H   0  0  0  0  0
   -2.3747    2.6026    7.3019 H   0  0  0  0  0
   -4.5524    3.5184    8.1385 H   0  0  0  0  0
   -3.2161    4.6857    8.3121 H   0  0  0  0  0
   -4.4936    4.5017   10.2278 H   0  0  0  0  0
   -1.8249    1.6054   10.6054 H   0  0  0  0  0
    0.2196    3.4707   11.3231 H   0  0  0  0  0
    0.2425    0.5923   12.1241 H   0  0  0  0  0
   -1.0212    1.8010   12.7389 H   0  0  0  0  0
   -0.4012    3.5233   14.2873 H   0  0  0  0  0
    2.4616    0.6286   12.9533 H   0  0  0  0  0
    1.0606    4.0738   16.2140 H   0  0  0  0  0
    3.9497    1.2294   14.8456 H   0  0  0  0  0
    3.2206    2.9116   16.5039 H   0  0  0  0  0
    0.3021    0.8544    9.0553 H   0  0  0  0  0
    3.2740    1.0773    8.8503 H   0  0  0  0  0
    3.2735   -1.1779    7.9430 H   0  0  0  0  0
    1.4599   -1.2057    7.9631 H   0  0  0  0  0
    0.3951   -2.2647   10.0610 H   0  0  0  0  0
    5.0428   -0.1107    9.8622 H   0  0  0  0  0
    3.4231   -2.2564   14.0977 H   0  0  0  0  0
    6.4783   -0.1774   11.8792 H   0  0  0  0  0
    5.7175   -1.3264   13.9322 H   0  0  0  0  0
    0.9242    2.6361    7.5673 H   0  0  0  0  0
    1.8426    2.3683    4.7179 H   0  0  0  0  0
   -0.3508    2.9738    3.9828 H   0  0  0  0  0
   -0.8939    3.2184    5.7070 H   0  0  0  0  0
   -0.5848    0.8878    6.1187 H   0  0  0  0  0
   -0.1521    0.6746    4.3147 H   0  0  0  0  0
   -2.6537    2.5072    5.4529 H   0  0  0  0  0
    3.4817    3.9300    5.0435 H   0  0  0  0  0
    3.0472    6.4697    6.2837 H   0  0  0  0  0
    4.7721    5.8550    3.8660 H   0  0  0  0  0
    5.2585    5.6742    5.5945 H   0  0  0  0  0
    4.8570    8.0411    5.9155 H   0  0  0  0  0
    4.5721    8.1634    4.0773 H   0  0  0  0  0
    6.1858    9.7164    5.0682 H   0  0  0  0  0
    0.0658    8.2185    3.2711 H   0  0  0  0  0
   -0.4646   10.4041    4.2165 H   0  0  0  0  0
    1.1971   10.8345    4.3811 H   0  0  0  0  0
   -0.4384    9.0154    6.2010 H   0  0  0  0  0
    0.5322   10.3344    6.6616 H   0  0  0  0  0
    2.6171    9.1627    6.1770 H   0  0  0  0  0
    1.6479    7.9071    6.8076 H   0  0  0  0  0
    1.7131    9.4580    0.4713 H   0  0  0  0  0
    0.1551    9.1409    1.2417 H   0  0  0  0  0
  1  2  2  0  0  0
  1  3  1  0  0  0
  1  4  1  0  0  0
  4  5  1  0  0  0
  5  6  1  0  0  0
  5  8  1  0  0  0
  6  7  2  0  0  0
  6 11  1  0  0  0
  8  9  1  0  0  0
  8 10  1  0  0  0
 11 12  1  0  0  0
 11 17  1  0  0  0
 12 13  1  0  0  0
 12 15  1  0  0  0
 13 14  2  0  0  0
 13 18  1  0  0  0
 15 16  1  0  0  0
 16 17  1  0  0  0
 18 19  1  0  0  0
 19 20  1  0  0  0
 19 22  1  0  0  0
 20 21  2  0  0  0
 20 26  1  0  0  0
 22 23  1  0  0  0
 23 24  1  0  0  0
 24 25  1  0  0  0
 26 27  1  0  0  0
 27 28  1  0  0  0
 27 30  1  0  0  0
 28 29  2  0  0  0
 28 37  1  0  0  0
 30 31  1  0  0  0
 31 32  1  0  0  0
 32 33  1  0  0  0
 33 34  1  0  0  0
 34 35  2  0  0  0
 34 36  1  0  0  0
 37 38  1  0  0  0
 38 39  1  0  0  0
 38 41  1  0  0  0
 39 40  2  0  0  0
 39 42  1  0  0  0
 42 43  1  0  0  0
 43 44  1  0  0  0
 43 46  1  0  0  0
 44 45  2  0  0  0
 44 53  1  0  0  0
 46 47  1  0  0  0
 47 48  1  0  0  0
 48 49  1  0  0  0
 49 50  1  0  0  0
 50 51  2  0  0  0
 50 52  1  0  0  0
 53 54  1  0  0  0
 54 55  1  0  0  0
 54 57  1  0  0  0
 55 56  2  0  0  0
 55 62  1  0  0  0
 57 58  1  0  0  0
 58 59  1  0  0  0
 59 60  2  0  0  0
 59 61  1  0  0  0
 62 63  1  0  0  0
 63 64  1  0  0  0
 63 66  1  0  0  0
 64 65  2  0  0  0
 64 70  1  0  0  0
 66 67  1  0  0  0
 67 68  1  0  0  0
 67 69  1  0  0  0
 70 71  1  0  0  0
 70 76  1  0  0  0
 71 72  1  0  0  0
 71 74  1  0  0  0
 72 73  2  0  0  0
 72 77  1  0  0  0
 74 75  1  0  0  0
 75 76  1  0  0  0
 77 78  1  0  0  0
 78 79  1  0  0  0
 78 81  1  0  0  0
 79 80  2  0  0  0
 79 82  1  0  0  0
 82 83  1  0  0  0
 83 84  1  0  0  0
 83 86  1  0  0  0
 84 85  2  0  0  0
 84 88  1  0  0  0
 86 87  1  0  0  0
 88 89  1  0  0  0
 89 90  1  0  0  0
 89 92  1  0  0  0
 90 91  2  0  0  0
 90 99  1  0  0  0
 92 93  1  0  0  0
 93 94  4  0  0  0
 93 95  4  0  0  0
 94 96  4  0  0  0
 95 97  4  0  0  0
 96 98  4  0  0  0
 97 98  4  0  0  0
 99100  1  0  0  0
100101  1  0  0  0
100103  1  0  0  0
101102  2  0  0  0
101113  1  0  0  0
103104  1  0  0  0
104105  4  0  0  0
104106  4  0  0  0
105107  4  0  0  0
106108  4  0  0  0
106109  4  0  0  0
107108  4  0  0  0
108110  4  0  0  0
109111  4  0  0  0
110112  4  0  0  0
111112  4  0  0  0
113114  1  0  0  0
114115  1  0  0  0
114117  1  0  0  0
115116  2  0  0  0
115122  1  0  0  0
117118  1  0  0  0
118119  1  0  0  0
119120  1  0  0  0
119121  2  0  0  0
122123  1  0  0  0
123124  1  0  0  0
123126  1  0  0  0
124125  2  0  0  0
124131  1  0  0  0
126127  1  0  0  0
127128  1  0  0  0
128129  1  0  0  0
128130  2  0  0  0
131132  1  0  0  0
131137  1  0  0  0
132133  1  0  0  0
132135  1  0  0  0
133134  2  0  0  0
133138  1  0  0  0
135136  1  0  0  0
136137  1  0  0  0
  3139  1  0  0  0
  3140  1  0  0  0
  3141  1  0  0  0
  4142  1  0  0  0
  5143  1  0  0  0
  8144  1  0  0  0
  9145  1  0  0  0
  9146  1  0  0  0
  9147  1  0  0  0
 10148  1  0  0  0
 10149  1  0  0  0
 10150  1  0  0  0
 12151  1  0  0  0
 15152  1  0  0  0
 15153  1  0  0  0
 16154  1  0  0  0
 16155  1  0  0  0
 17156  1  0  0  0
 17157  1  0  0  0
 18158  1  0  0  0
 19159  1  0  0  0
 22160  1  0  0  0
 22161  1  0  0  0
 23162  1  0  0  0
 23163  1  0  0  0
 25164  1  0  0  0
 25165  1  0  0  0
 25166  1  0  0  0
 26167  1  0  0  0
 27168  1  0  0  0
 30169  1  0  0  0
 30170  1  0  0  0
 31171  1  0  0  0
 31172  1  0  0  0
 32173  1  0  0  0
 32174  1  0  0  0
 33175  1  0  0  0
 35176  1  0  0  0
 36177  1  0  0  0
 36178  1  0  0  0
 37179  1  0  0  0
 38180  1  0  0  0
 41181  1  0  0  0
 41182  1  0  0  0
 41183  1  0  0  0
 42184  1  0  0  0
 43185  1  0  0  0
 46186  1  0  0  0
 46187  1  0  0  0
 47188  1  0  0  0
 47189  1  0  0  0
 48190  1  0  0  0
 48191  1  0  0  0
 49192  1  0  0  0
 51193  1  0  0  0
 52194  1  0  0  0
 52195  1  0  0  0
 53196  1  0  0  0
 54197  1  0  0  0
 57198  1  0  0  0
 57199  1  0  0  0
 58200  1  0  0  0
 58201  1  0  0  0
 61202  1  0  0  0
 61203  1  0  0  0
 62204  1  0  0  0
 63205  1  0  0  0
 66206  1  0  0  0
 66207  1  0  0  0
 67208  1  0  0  0
 68209  1  0  0  0
 68210  1  0  0  0
 68211  1  0  0  0
 69212  1  0  0  0
 69213  1  0  0  0
 69214  1  0  0  0
 71215  1  0  0  0
 74216  1  0  0  0
 74217  1  0  0  0
 75218  1  0  0  0
 75219  1  0  0  0
 76220  1  0  0  0
 76221  1  0  0  0
 77222  1  0  0  0
 78223  1  0  0  0
 81224  1  0  0  0
 81225  1  0  0  0
 81226  1  0  0  0
 82227  1  0  0  0
 83228  1  0  0  0
 86229  1  0  0  0
 86230  1  0  0  0
 87231  1  0  0  0
 88232  1  0  0  0
 89233  1  0  0  0
 92234  1  0  0  0
 92235  1  0  0  0
 94236  1  0  0  0
 95237  1  0  0  0
 96238  1  0  0  0
 97239  1  0  0  0
 98240  1  0  0  0
 99241  1  0  0  0
100242  1  0  0  0
103243  1  0  0  0
103244  1  0  0  0
105245  1  0  0  0
109246  1  0  0  0
110247  1  0  0  0
111248  1  0  0  0
112249  1  0  0  0
113250  1  0  0  0
114251  1  0  0  0
117252  1  0  0  0
117253  1  0  0  0
118254  1  0  0  0
118255  1  0  0  0
120256  1  0  0  0
122257  1  0  0  0
123258  1  0  0  0
126259  1  0  0  0
126260  1  0  0  0
127261  1  0  0  0
127262  1  0  0  0
129263  1  0  0  0
132264  1  0  0  0
135265  1  0  0  0
135266  1  0  0  0
136267  1  0  0  0
136268  1  0  0  0
137269  1  0  0  0
137270  1  0  0  0
138271  1  0  0  0
138272  1  0  0  0
M  END
$$$$
