### 
### Created by X-TOOL on Mon Sep 10 21:13:08 2018
### 

@<TRIPOS>MOLECULE
3puk_ligand
  162   162     1     0     0
SMALL
GAST_HUCK


@<TRIPOS>ATOM
      1 N         -39.8170  -57.1330   98.9580 N.4       1 MET         0.2377
      2 CA        -40.7710  -56.7820  100.0020 C.3       1 MET         0.0621
      3 C         -40.0910  -56.7560  101.3670 C.2       1 MET         0.2264
      4 O         -39.0190  -57.3360  101.5430 O.2       1 MET        -0.3907
      5 CB        -41.9350  -57.7600  100.0040 C.3       1 MET        -0.0040
      6 N         -40.7170  -56.0840  102.3290 N.am      1 ARG        -0.2610
      7 CA        -40.1490  -55.9840  103.6700 C.3       1 ARG         0.1312
      8 C         -41.0640  -56.5840  104.7410 C.2       1 ARG         0.2040
      9 O         -40.5980  -56.9960  105.8020 O.2       1 ARG        -0.3944
     10 CB        -39.7920  -54.5340  104.0030 C.3       1 ARG        -0.0092
     11 CG        -38.7140  -54.4060  105.0610 C.3       1 ARG        -0.0156
     12 CD        -38.0820  -53.0300  105.0530 C.3       1 ARG         0.0627
     13 NE        -37.0180  -52.9170  106.0490 N.pl3     1 ARG        -0.2723
     14 CZ        -37.2110  -52.5640  107.3180 C.cat     1 ARG         0.2882
     15 NH1       -38.4320  -52.2830  107.7540 N.pl3     1 ARG        -0.2849
     16 NH2       -36.1810  -52.4900  108.1540 N.pl3     1 ARG        -0.2849
     17 N         -42.3630  -56.6310  104.4580 N.am      1 ASP        -0.2622
     18 CA        -43.3180  -57.2970  105.3410 C.3       1 ASP         0.1423
     19 C         -44.1980  -58.2620  104.5490 C.2       1 ASP         0.2056
     20 O         -45.0830  -57.8420  103.8020 O.2       1 ASP        -0.3943
     21 CB        -44.1820  -56.2790  106.0850 C.3       1 ASP         0.0406
     22 CG        -45.0530  -56.9230  107.1510 C.2       1 ASP         0.0393
     23 OD1       -45.0930  -58.1690  107.2190 O.co2     1 ASP        -0.5688
     24 OD2       -45.6990  -56.1850  107.9250 O.co2     1 ASP        -0.5688
     25 N         -43.9530  -59.5550  104.7300 N.am      1 ARG        -0.2636
     26 CA        -44.5970  -60.5870  103.9240 C.3       1 ARG         0.1311
     27 C         -45.8210  -61.2030  104.5960 C.2       1 ARG         0.2040
     28 O         -46.4570  -62.0880  104.0280 O.2       1 ARG        -0.3944
     29 CB        -43.5950  -61.6970  103.6050 C.3       1 ARG        -0.0092
     30 CG        -42.3020  -61.2230  102.9610 C.3       1 ARG        -0.0156
     31 CD        -42.4720  -61.0030  101.4720 C.3       1 ARG         0.0627
     32 NE        -41.1860  -61.0120  100.7810 N.pl3     1 ARG        -0.2723
     33 CZ        -40.5790  -62.1130  100.3490 C.cat     1 ARG         0.2882
     34 NH1       -41.1400  -63.3010  100.5360 N.pl3     1 ARG        -0.2849
     35 NH2       -39.4100  -62.0280   99.7300 N.pl3     1 ARG        -0.2849
     36 N         -46.1420  -60.7470  105.8030 N.am      1 THR        -0.2613
     37 CA        -47.2520  -61.3210  106.5610 C.3       1 THR         0.1565
     38 C         -48.5110  -61.4570  105.7070 C.2       1 THR         0.2066
     39 O         -49.0800  -62.5430  105.5890 O.2       1 THR        -0.3943
     40 CB        -47.5790  -60.4880  107.8130 C.3       1 THR         0.0924
     41 OG1       -46.3810  -60.2560  108.5630 O.3       1 THR        -0.3874
     42 CG2       -48.5840  -61.2210  108.6850 C.3       1 THR        -0.0346
     43 N         -48.9370  -60.3470  105.1140 N.am      1 HIS        -0.2624
     44 CA        -50.1110  -60.3360  104.2530 C.3       1 HIS         0.1369
     45 C         -49.9890  -61.3850  103.1530 C.2       1 HIS         0.2054
     46 O         -50.9730  -62.0130  102.7680 O.2       1 HIS        -0.3942
     47 CB        -50.2830  -58.9550  103.6220 C.3       1 HIS         0.0145
     48 CG        -49.1600  -58.5680  102.7100 C.2       1 HIS        -0.0027
     49 ND1       -49.1790  -58.8220  101.3560 N.2       1 HIS        -0.3252
     50 CD2       -47.9790  -57.9550  102.9610 C.2       1 HIS         0.0291
     51 CE1       -48.0610  -58.3780  100.8110 C.2       1 HIS         0.0907
     52 NE2       -47.3150  -57.8470  101.7630 N.pl3     1 HIS        -0.2752
     53 N         -48.7710  -61.5670  102.6530 N.am      1 GLU        -0.2635
     54 CA        -48.5210  -62.4640  101.5300 C.3       1 GLU         0.1325
     55 C         -48.7310  -63.9310  101.8990 C.2       1 GLU         0.2040
     56 O         -49.0140  -64.7600  101.0350 O.2       1 GLU        -0.3944
     57 CB        -47.1090  -62.2460  100.9810 C.3       1 GLU        -0.0008
     58 CG        -46.8200  -62.9830   99.6840 C.3       1 GLU         0.0044
     59 CD        -45.4820  -62.6010   99.0840 C.2       1 GLU         0.0350
     60 OE1       -44.8890  -61.6000   99.5400 O.co2     1 GLU        -0.5690
     61 OE2       -45.0250  -63.2990   98.1530 O.co2     1 GLU        -0.5690
     62 N         -48.5900  -64.2470  103.1820 N.am      1 LEU        -0.2637
     63 CA        -48.8320  -65.6020  103.6600 C.3       1 LEU         0.1312
     64 C         -50.2710  -66.0030  103.3710 C.2       1 LEU         0.2033
     65 O         -50.5310  -67.0470  102.7730 O.2       1 LEU        -0.3944
     66 CB        -48.5650  -65.6960  105.1620 C.3       1 LEU        -0.0101
     67 CG        -47.1200  -65.5040  105.6210 C.3       1 LEU        -0.0425
     68 CD1       -47.0820  -65.1690  107.1000 C.3       1 LEU        -0.0625
     69 CD2       -46.2820  -66.7390  105.3160 C.3       1 LEU        -0.0625
     70 N         -51.2040  -65.1580  103.7990 N.am      1 ARG        -0.2695
     71 CA        -52.6260  -65.4210  103.6240 C.3       1 ARG         0.0945
     72 C         -53.1980  -64.6510  102.4380 C.2       1 ARG         0.0601
     73 O         -53.4750  -65.2280  101.3860 O.co2     1 ARG        -0.5666
     74 CB        -53.3840  -65.0650  104.9030 C.3       1 ARG        -0.0148
     75 CG        -53.0650  -63.6800  105.4500 C.3       1 ARG        -0.0162
     76 CD        -53.5450  -63.5370  106.8860 C.3       1 ARG         0.0627
     77 NE        -52.7810  -64.3800  107.8020 N.pl3     1 ARG        -0.2723
     78 CZ        -51.9800  -63.9160  108.7560 C.cat     1 ARG         0.2882
     79 NH1       -51.8420  -62.6090  108.9340 N.pl3     1 ARG        -0.2849
     80 NH2       -51.3240  -64.7610  109.5400 N.pl3     1 ARG        -0.2849
     81 H         -39.0429  -56.4688   98.9692 H         1 MET         0.2015
     82 H         -39.4615  -58.0741   99.1264 H         1 MET         0.2015
     83 H         -40.2811  -57.1009   98.0503 H         1 MET         0.2015
     84 H         -41.1566  -55.7837   99.7950 H         1 MET         0.1095
     85 H         -41.5675  -58.7597  100.2358 H         1 MET         0.0310
     86 H         -42.6625  -57.4554  100.7564 H         1 MET         0.0310
     87 H         -42.4066  -57.7636   99.0213 H         1 MET         0.0310
     88 H         -41.6083  -55.6312  102.1265 H         1 ARG         0.1884
     89 H         -39.2338  -56.5760  103.6718 H         1 ARG         0.0800
     90 H         -40.6912  -54.0555  104.3911 H         1 ARG         0.0313
     91 H         -39.4136  -54.0715  103.0914 H         1 ARG         0.0313
     92 H         -37.9376  -55.1417  104.8510 H         1 ARG         0.0301
     93 H         -39.1701  -54.5687  106.0375 H         1 ARG         0.0301
     94 H         -38.8531  -52.2969  105.2899 H         1 ARG         0.0689
     95 H         -37.6494  -52.8569  104.0676 H         1 ARG         0.0689
     96 H         -36.0641  -53.1223  105.7519 H         1 ARG         0.2642
     97 H         -39.2263  -52.3371  107.1163 H         1 ARG         0.2615
     98 H         -38.5765  -52.0128  108.7269 H         1 ARG         0.2615
     99 H         -35.2399  -52.7039  107.8239 H         1 ARG         0.2615
    100 H         -36.3314  -52.2193  109.1259 H         1 ARG         0.2615
    101 H         -42.7012  -56.1907  103.6024 H         1 ASP         0.1884
    102 H         -42.7520  -57.8655  106.0790 H         1 ASP         0.0819
    103 H         -44.8386  -55.8004  105.3584 H         1 ASP         0.0478
    104 H         -43.5169  -55.5698  106.5776 H         1 ASP         0.0478
    105 H         -43.2935  -59.8355  105.4558 H         1 ARG         0.1883
    106 H         -44.9394  -60.0962  103.0130 H         1 ARG         0.0800
    107 H         -44.0782  -62.3639  102.8910 H         1 ARG         0.0313
    108 H         -43.3245  -62.1613  104.5534 H         1 ARG         0.0313
    109 H         -41.5401  -61.9877  103.1124 H         1 ARG         0.0301
    110 H         -42.0145  -60.2768  103.4193 H         1 ARG         0.0301
    111 H         -42.9409  -60.0312  101.3173 H         1 ARG         0.0689
    112 H         -43.0856  -61.8097  101.0711 H         1 ARG         0.0689
    113 H         -40.7241  -60.1170  100.6195 H         1 ARG         0.2642
    114 H         -42.0393  -63.3711  101.0123 H         1 ARG         0.2615
    115 H         -40.6719  -64.1441  100.2035 H         1 ARG         0.2615
    116 H         -38.9750  -61.1170   99.5846 H         1 ARG         0.2615
    117 H         -38.9455  -62.8736   99.3991 H         1 ARG         0.2615
    118 H         -45.6030  -59.9815  106.2079 H         1 THR         0.1884
    119 H         -46.9262  -62.3138  106.8714 H         1 THR         0.0826
    120 H         -48.0069  -59.5359  107.4991 H         1 THR         0.0639
    121 H         -45.7508  -59.7792  108.0179 H         1 THR         0.2101
    122 H         -49.5001  -61.3888  108.1188 H         1 THR         0.0257
    123 H         -48.1652  -62.1790  108.9932 H         1 THR         0.0257
    124 H         -48.8052  -60.6193  109.5665 H         1 THR         0.0257
    125 H         -48.4266  -59.4771  105.2664 H         1 HIS         0.1885
    126 H         -50.9824  -60.5706  104.8644 H         1 HIS         0.0817
    127 H         -50.3113  -58.2268  104.4325 H         1 HIS         0.0420
    128 H         -51.1947  -58.9798  103.0252 H         1 HIS         0.0420
    129 H         -47.6219  -57.6115  103.9319 H         1 HIS         0.0729
    130 H         -47.7984  -58.4393   99.7549 H         1 HIS         0.1199
    131 H         -46.3957  -57.4254  101.6304 H         1 HIS         0.2361
    132 H         -47.9865  -61.0638  103.0674 H         1 GLU         0.1883
    133 H         -49.2491  -62.2228  100.7555 H         1 GLU         0.0801
    134 H         -46.4127  -62.6273  101.7279 H         1 GLU         0.0330
    135 H         -47.0071  -61.1808  100.7735 H         1 GLU         0.0330
    136 H         -47.5974  -62.7187   98.9671 H         1 GLU         0.0433
    137 H         -46.7978  -64.0507   99.9021 H         1 GLU         0.0433
    138 H         -48.3066  -63.5263  103.8458 H         1 LEU         0.1883
    139 H         -48.1547  -66.2792  103.1397 H         1 LEU         0.0800
    140 H         -48.8373  -66.7113  105.4504 H         1 LEU         0.0315
    141 H         -49.1330  -64.8847  105.6173 H         1 LEU         0.0315
    142 H         -46.6882  -64.6699  105.0679 H         1 LEU         0.0298
    143 H         -47.6392  -64.2491  107.2773 H         1 LEU         0.0232
    144 H         -47.5326  -65.9833  107.6674 H         1 LEU         0.0232
    145 H         -46.0470  -65.0347  107.4143 H         1 LEU         0.0232
    146 H         -46.7032  -67.5997  105.8356 H         1 LEU         0.0232
    147 H         -46.2867  -66.9235  104.2417 H         1 LEU         0.0232
    148 H         -45.2586  -66.5744  105.6532 H         1 LEU         0.0232
    149 H         -50.9148  -64.2979  104.2649 H         1 ARG         0.1875
    150 H         -52.7480  -66.4841  103.4165 H         1 ARG         0.0726
    151 O         -53.3894  -63.4095  102.5359 O.co2     1 ARG        -0.5666
    152 H         -53.0897  -65.7878  105.6640 H         1 ARG         0.0307
    153 H         -54.4470  -65.0797  104.6625 H         1 ARG         0.0307
    154 H         -53.5727  -62.9362  104.8360 H         1 ARG         0.0301
    155 H         -51.9849  -63.5350  105.4263 H         1 ARG         0.0301
    156 H         -54.5898  -63.8445  106.9294 H         1 ARG         0.0689
    157 H         -53.4143  -62.4979  107.1882 H         1 ARG         0.0689
    158 H         -52.8678  -65.3915  107.7031 H         1 ARG         0.2642
    159 H         -52.3513  -61.9565  108.3379 H         1 ARG         0.2615
    160 H         -51.2266  -62.2563  109.6670 H         1 ARG         0.2615
    161 H         -51.4341  -65.7668  109.4109 H         1 ARG         0.2615
    162 H         -50.7093  -64.4051  110.2721 H         1 ARG         0.2615
@<TRIPOS>BOND
     1    1    2 1  
     2    2    3 1  
     3    2    5 1  
     4    3    4 2  
     5    3    6 am 
     6    6    7 1  
     7    7    8 1  
     8    7   10 1  
     9    8    9 2  
    10    8   17 am 
    11   10   11 1  
    12   11   12 1  
    13   12   13 1  
    14   13   14 ar 
    15   14   15 ar 
    16   14   16 ar 
    17   17   18 1  
    18   18   19 1  
    19   18   21 1  
    20   19   20 2  
    21   19   25 am 
    22   21   22 1  
    23   22   23 ar 
    24   22   24 ar 
    25   25   26 1  
    26   26   27 1  
    27   26   29 1  
    28   27   28 2  
    29   27   36 am 
    30   29   30 1  
    31   30   31 1  
    32   31   32 1  
    33   32   33 ar 
    34   33   34 ar 
    35   33   35 ar 
    36   36   37 1  
    37   37   38 1  
    38   37   40 1  
    39   38   39 2  
    40   38   43 am 
    41   40   41 1  
    42   40   42 1  
    43   43   44 1  
    44   44   45 1  
    45   44   47 1  
    46   45   46 2  
    47   45   53 am 
    48   47   48 1  
    49   48   49 1  
    50   48   50 2  
    51   49   51 2  
    52   50   52 1  
    53   51   52 1  
    54   53   54 1  
    55   54   55 1  
    56   54   57 1  
    57   55   56 2  
    58   55   62 am 
    59   57   58 1  
    60   58   59 1  
    61   59   60 ar 
    62   59   61 ar 
    63   62   63 1  
    64   63   64 1  
    65   63   66 1  
    66   64   65 2  
    67   64   70 am 
    68   66   67 1  
    69   67   68 1  
    70   67   69 1  
    71   70   71 1  
    72   71   72 1  
    73   71   74 1  
    74   72   73 ar 
    75   74   75 1  
    76   75   76 1  
    77   76   77 1  
    78   77   78 ar 
    79   78   79 ar 
    80   78   80 ar 
    81    1   81 1  
    82    1   82 1  
    83    1   83 1  
    84    2   84 1  
    85    5   85 1  
    86    5   86 1  
    87    5   87 1  
    88    6   88 1  
    89    7   89 1  
    90   10   90 1  
    91   10   91 1  
    92   11   92 1  
    93   11   93 1  
    94   12   94 1  
    95   12   95 1  
    96   13   96 1  
    97   15   97 1  
    98   15   98 1  
    99   16   99 1  
   100   16  100 1  
   101   17  101 1  
   102   18  102 1  
   103   21  103 1  
   104   21  104 1  
   105   25  105 1  
   106   26  106 1  
   107   29  107 1  
   108   29  108 1  
   109   30  109 1  
   110   30  110 1  
   111   31  111 1  
   112   31  112 1  
   113   32  113 1  
   114   34  114 1  
   115   34  115 1  
   116   35  116 1  
   117   35  117 1  
   118   36  118 1  
   119   37  119 1  
   120   40  120 1  
   121   41  121 1  
   122   42  122 1  
   123   42  123 1  
   124   42  124 1  
   125   43  125 1  
   126   44  126 1  
   127   47  127 1  
   128   47  128 1  
   129   50  129 1  
   130   51  130 1  
   131   52  131 1  
   132   53  132 1  
   133   54  133 1  
   134   57  134 1  
   135   57  135 1  
   136   58  136 1  
   137   58  137 1  
   138   62  138 1  
   139   63  139 1  
   140   66  140 1  
   141   66  141 1  
   142   67  142 1  
   143   68  143 1  
   144   68  144 1  
   145   68  145 1  
   146   69  146 1  
   147   69  147 1  
   148   69  148 1  
   149   70  149 1  
   150   71  150 1  
   151   72  151 ar 
   152   74  152 1  
   153   74  153 1  
   154   75  154 1  
   155   75  155 1  
   156   76  156 1  
   157   76  157 1  
   158   77  158 1  
   159   79  159 1  
   160   79  160 1  
   161   80  161 1  
   162   80  162 1  
@<TRIPOS>SUBSTRUCTURE
     1 MET         1

