3puk_ligand
  -I-interpret- 

161161  0  0  0  0  0  0  0  0999 V2000
  -39.8170  -57.1330   98.9580 N   0  3  0  0  0
  -40.7710  -56.7820  100.0020 C   0  0  0  0  0
  -40.0910  -56.7560  101.3670 C   0  0  0  0  0
  -39.0190  -57.3360  101.5430 O   0  0  0  0  0
  -41.9350  -57.7600  100.0040 C   0  0  0  0  0
  -40.7170  -56.0840  102.3290 N   0  0  0  0  0
  -40.1490  -55.9840  103.6700 C   0  0  0  0  0
  -41.0640  -56.5840  104.7410 C   0  0  0  0  0
  -40.5980  -56.9960  105.8020 O   0  0  0  0  0
  -39.7920  -54.5340  104.0030 C   0  0  0  0  0
  -38.7140  -54.4060  105.0610 C   0  0  0  0  0
  -38.0820  -53.0300  105.0530 C   0  0  0  0  0
  -37.0180  -52.9170  106.0490 N   0  0  0  0  0
  -37.2110  -52.5640  107.3180 C   0  0  0  0  0
  -38.4320  -52.2830  107.7540 N   0  0  0  0  0
  -36.1810  -52.4900  108.1540 N   0  0  0  0  0
  -42.3630  -56.6310  104.4580 N   0  0  0  0  0
  -43.3180  -57.2970  105.3410 C   0  0  0  0  0
  -44.1980  -58.2620  104.5490 C   0  0  0  0  0
  -45.0830  -57.8420  103.8020 O   0  0  0  0  0
  -44.1820  -56.2790  106.0850 C   0  0  0  0  0
  -45.0530  -56.9230  107.1510 C   0  0  0  0  0
  -45.0930  -58.1690  107.2190 O   0  0  0  0  0
  -45.6990  -56.1850  107.9250 O   0  0  0  0  0
  -43.9530  -59.5550  104.7300 N   0  0  0  0  0
  -44.5970  -60.5870  103.9240 C   0  0  0  0  0
  -45.8210  -61.2030  104.5960 C   0  0  0  0  0
  -46.4570  -62.0880  104.0280 O   0  0  0  0  0
  -43.5950  -61.6970  103.6050 C   0  0  0  0  0
  -42.3020  -61.2230  102.9610 C   0  0  0  0  0
  -42.4720  -61.0030  101.4720 C   0  0  0  0  0
  -41.1860  -61.0120  100.7810 N   0  0  0  0  0
  -40.5790  -62.1130  100.3490 C   0  0  0  0  0
  -41.1400  -63.3010  100.5360 N   0  0  0  0  0
  -39.4100  -62.0280   99.7300 N   0  0  0  0  0
  -46.1420  -60.7470  105.8030 N   0  0  0  0  0
  -47.2520  -61.3210  106.5610 C   0  0  0  0  0
  -48.5110  -61.4570  105.7070 C   0  0  0  0  0
  -49.0800  -62.5430  105.5890 O   0  0  0  0  0
  -47.5790  -60.4880  107.8130 C   0  0  0  0  0
  -46.3810  -60.2560  108.5630 O   0  0  0  0  0
  -48.5840  -61.2210  108.6850 C   0  0  0  0  0
  -48.9370  -60.3470  105.1140 N   0  0  0  0  0
  -50.1110  -60.3360  104.2530 C   0  0  0  0  0
  -49.9890  -61.3850  103.1530 C   0  0  0  0  0
  -50.9730  -62.0130  102.7680 O   0  0  0  0  0
  -50.2830  -58.9550  103.6220 C   0  0  0  0  0
  -49.1600  -58.5680  102.7100 C   0  0  0  0  0
  -49.1790  -58.8220  101.3560 N   0  0  0  0  0
  -47.9790  -57.9550  102.9610 C   0  0  0  0  0
  -48.0610  -58.3780  100.8110 C   0  0  0  0  0
  -47.3150  -57.8470  101.7630 N   0  0  0  0  0
  -48.7710  -61.5670  102.6530 N   0  0  0  0  0
  -48.5210  -62.4640  101.5300 C   0  0  0  0  0
  -48.7310  -63.9310  101.8990 C   0  0  0  0  0
  -49.0140  -64.7600  101.0350 O   0  0  0  0  0
  -47.1090  -62.2460  100.9810 C   0  0  0  0  0
  -46.8200  -62.9830   99.6840 C   0  0  0  0  0
  -45.4820  -62.6010   99.0840 C   0  0  0  0  0
  -44.8890  -61.6000   99.5400 O   0  0  0  0  0
  -45.0250  -63.2990   98.1530 O   0  0  0  0  0
  -48.5900  -64.2470  103.1820 N   0  0  0  0  0
  -48.8320  -65.6020  103.6600 C   0  0  0  0  0
  -50.2710  -66.0030  103.3710 C   0  0  0  0  0
  -50.5310  -67.0470  102.7730 O   0  0  0  0  0
  -48.5650  -65.6960  105.1620 C   0  0  0  0  0
  -47.1200  -65.5040  105.6210 C   0  0  0  0  0
  -47.0820  -65.1690  107.1000 C   0  0  0  0  0
  -46.2820  -66.7390  105.3160 C   0  0  0  0  0
  -51.2040  -65.1580  103.7990 N   0  0  0  0  0
  -52.6260  -65.4210  103.6240 C   0  0  0  0  0
  -53.1980  -64.6510  102.4380 C   0  0  0  0  0
  -53.4750  -65.2280  101.3860 O   0  0  0  0  0
  -53.3840  -65.0650  104.9030 C   0  0  0  0  0
  -53.0650  -63.6800  105.4500 C   0  0  0  0  0
  -53.5450  -63.5370  106.8860 C   0  0  0  0  0
  -52.7810  -64.3800  107.8020 N   0  0  0  0  0
  -51.9800  -63.9160  108.7560 C   0  0  0  0  0
  -51.8420  -62.6090  108.9340 N   0  0  0  0  0
  -51.3240  -64.7610  109.5400 N   0  0  0  0  0
  -53.3894  -63.4095  102.5359 O   0  0  0  0  0
  -39.0429  -56.4688   98.9692 H   0  0  0  0  0
  -39.4615  -58.0741   99.1264 H   0  0  0  0  0
  -40.2811  -57.1009   98.0503 H   0  0  0  0  0
  -41.1566  -55.7837   99.7950 H   0  0  0  0  0
  -41.5675  -58.7597  100.2358 H   0  0  0  0  0
  -42.6625  -57.4554  100.7564 H   0  0  0  0  0
  -42.4066  -57.7636   99.0213 H   0  0  0  0  0
  -41.6083  -55.6312  102.1265 H   0  0  0  0  0
  -39.2338  -56.5760  103.6718 H   0  0  0  0  0
  -40.6912  -54.0555  104.3911 H   0  0  0  0  0
  -39.4136  -54.0715  103.0914 H   0  0  0  0  0
  -37.9376  -55.1417  104.8510 H   0  0  0  0  0
  -39.1701  -54.5687  106.0375 H   0  0  0  0  0
  -38.8531  -52.2969  105.2899 H   0  0  0  0  0
  -37.6494  -52.8569  104.0676 H   0  0  0  0  0
  -36.0641  -53.1223  105.7519 H   0  0  0  0  0
  -39.2263  -52.3371  107.1163 H   0  0  0  0  0
  -36.3312  -52.2182  109.1256 H   0  0  0  0  0
  -35.2400  -52.7049  107.8242 H   0  0  0  0  0
  -42.7012  -56.1907  103.6024 H   0  0  0  0  0
  -42.7520  -57.8655  106.0790 H   0  0  0  0  0
  -44.8386  -55.8004  105.3584 H   0  0  0  0  0
  -43.5169  -55.5698  106.5776 H   0  0  0  0  0
  -45.5297  -55.2661  107.7048 H   0  0  0  0  0
  -43.2935  -59.8355  105.4558 H   0  0  0  0  0
  -44.9394  -60.0962  103.0130 H   0  0  0  0  0
  -44.0782  -62.3639  102.8910 H   0  0  0  0  0
  -43.3245  -62.1613  104.5534 H   0  0  0  0  0
  -41.5401  -61.9877  103.1124 H   0  0  0  0  0
  -42.0145  -60.2768  103.4193 H   0  0  0  0  0
  -42.9409  -60.0312  101.3173 H   0  0  0  0  0
  -43.0856  -61.8097  101.0711 H   0  0  0  0  0
  -40.7241  -60.1170  100.6195 H   0  0  0  0  0
  -40.6717  -64.1441  100.2039 H   0  0  0  0  0
  -42.0395  -63.3710  101.0118 H   0  0  0  0  0
  -38.9750  -61.1170   99.5846 H   0  0  0  0  0
  -45.6030  -59.9815  106.2079 H   0  0  0  0  0
  -46.9262  -62.3138  106.8714 H   0  0  0  0  0
  -48.0069  -59.5359  107.4991 H   0  0  0  0  0
  -46.5887  -59.7363  109.3430 H   0  0  0  0  0
  -49.5001  -61.3888  108.1188 H   0  0  0  0  0
  -48.1652  -62.1790  108.9932 H   0  0  0  0  0
  -48.8052  -60.6193  109.5665 H   0  0  0  0  0
  -48.4266  -59.4771  105.2664 H   0  0  0  0  0
  -50.9824  -60.5706  104.8644 H   0  0  0  0  0
  -50.3113  -58.2268  104.4325 H   0  0  0  0  0
  -51.1947  -58.9798  103.0252 H   0  0  0  0  0
  -47.6219  -57.6115  103.9319 H   0  0  0  0  0
  -47.7984  -58.4393   99.7549 H   0  0  0  0  0
  -47.9865  -61.0638  103.0674 H   0  0  0  0  0
  -49.2491  -62.2228  100.7555 H   0  0  0  0  0
  -46.4127  -62.6273  101.7279 H   0  0  0  0  0
  -47.0071  -61.1808  100.7735 H   0  0  0  0  0
  -47.5974  -62.7187   98.9671 H   0  0  0  0  0
  -46.7978  -64.0507   99.9021 H   0  0  0  0  0
  -45.6366  -64.0134   97.9602 H   0  0  0  0  0
  -48.3066  -63.5263  103.8458 H   0  0  0  0  0
  -48.1547  -66.2792  103.1397 H   0  0  0  0  0
  -48.8373  -66.7113  105.4504 H   0  0  0  0  0
  -49.1330  -64.8847  105.6173 H   0  0  0  0  0
  -46.6882  -64.6699  105.0679 H   0  0  0  0  0
  -47.6392  -64.2491  107.2773 H   0  0  0  0  0
  -47.5326  -65.9833  107.6674 H   0  0  0  0  0
  -46.0470  -65.0347  107.4143 H   0  0  0  0  0
  -46.7032  -67.5997  105.8356 H   0  0  0  0  0
  -46.2867  -66.9235  104.2417 H   0  0  0  0  0
  -45.2586  -66.5744  105.6532 H   0  0  0  0  0
  -50.9148  -64.2979  104.2649 H   0  0  0  0  0
  -52.7480  -66.4841  103.4165 H   0  0  0  0  0
  -53.0897  -65.7878  105.6640 H   0  0  0  0  0
  -54.4470  -65.0797  104.6625 H   0  0  0  0  0
  -53.5727  -62.9362  104.8360 H   0  0  0  0  0
  -51.9849  -63.5350  105.4263 H   0  0  0  0  0
  -54.5898  -63.8445  106.9294 H   0  0  0  0  0
  -53.4143  -62.4979  107.1882 H   0  0  0  0  0
  -52.8678  -65.3915  107.7031 H   0  0  0  0  0
  -52.3513  -61.9565  108.3379 H   0  0  0  0  0
  -50.7155  -64.4051  110.2772 H   0  0  0  0  0
  -51.4280  -65.7668  109.4057 H   0  0  0  0  0
  -53.1255  -63.1141  103.4104 H   0  0  0  0  0
  1  2  1  0  0  0
  2  3  1  0  0  0
  2  5  1  0  0  0
  3  4  2  0  0  0
  3  6  1  0  0  0
  6  7  1  0  0  0
  7  8  1  0  0  0
  7 10  1  0  0  0
  8  9  2  0  0  0
  8 17  1  0  0  0
 10 11  1  0  0  0
 11 12  1  0  0  0
 12 13  1  0  0  0
 13 14  1  0  0  0
 14 15  2  0  0  0
 14 16  1  0  0  0
 17 18  1  0  0  0
 18 19  1  0  0  0
 18 21  1  0  0  0
 19 20  2  0  0  0
 19 25  1  0  0  0
 21 22  1  0  0  0
 22 23  2  0  0  0
 22 24  1  0  0  0
 25 26  1  0  0  0
 26 27  1  0  0  0
 26 29  1  0  0  0
 27 28  2  0  0  0
 27 36  1  0  0  0
 29 30  1  0  0  0
 30 31  1  0  0  0
 31 32  1  0  0  0
 32 33  1  0  0  0
 33 34  1  0  0  0
 33 35  2  0  0  0
 36 37  1  0  0  0
 37 38  1  0  0  0
 37 40  1  0  0  0
 38 39  2  0  0  0
 38 43  1  0  0  0
 40 41  1  0  0  0
 40 42  1  0  0  0
 43 44  1  0  0  0
 44 45  1  0  0  0
 44 47  1  0  0  0
 45 46  2  0  0  0
 45 53  1  0  0  0
 47 48  1  0  0  0
 48 49  4  0  0  0
 48 50  4  0  0  0
 49 51  4  0  0  0
 50 52  4  0  0  0
 51 52  4  0  0  0
 53 54  1  0  0  0
 54 55  1  0  0  0
 54 57  1  0  0  0
 55 56  2  0  0  0
 55 62  1  0  0  0
 57 58  1  0  0  0
 58 59  1  0  0  0
 59 60  2  0  0  0
 59 61  1  0  0  0
 62 63  1  0  0  0
 63 64  1  0  0  0
 63 66  1  0  0  0
 64 65  2  0  0  0
 64 70  1  0  0  0
 66 67  1  0  0  0
 67 68  1  0  0  0
 67 69  1  0  0  0
 70 71  1  0  0  0
 71 72  1  0  0  0
 71 74  1  0  0  0
 72 73  2  0  0  0
 74 75  1  0  0  0
 75 76  1  0  0  0
 76 77  1  0  0  0
 77 78  1  0  0  0
 78 79  2  0  0  0
 78 80  1  0  0  0
 72 81  1  0  0  0
  1 82  1  0  0  0
  1 83  1  0  0  0
  1 84  1  0  0  0
  2 85  1  0  0  0
  5 86  1  0  0  0
  5 87  1  0  0  0
  5 88  1  0  0  0
  6 89  1  0  0  0
  7 90  1  0  0  0
 10 91  1  0  0  0
 10 92  1  0  0  0
 11 93  1  0  0  0
 11 94  1  0  0  0
 12 95  1  0  0  0
 12 96  1  0  0  0
 13 97  1  0  0  0
 15 98  1  0  0  0
 16 99  1  0  0  0
 16100  1  0  0  0
 17101  1  0  0  0
 18102  1  0  0  0
 21103  1  0  0  0
 21104  1  0  0  0
 24105  1  0  0  0
 25106  1  0  0  0
 26107  1  0  0  0
 29108  1  0  0  0
 29109  1  0  0  0
 30110  1  0  0  0
 30111  1  0  0  0
 31112  1  0  0  0
 31113  1  0  0  0
 32114  1  0  0  0
 34115  1  0  0  0
 34116  1  0  0  0
 35117  1  0  0  0
 36118  1  0  0  0
 37119  1  0  0  0
 40120  1  0  0  0
 41121  1  0  0  0
 42122  1  0  0  0
 42123  1  0  0  0
 42124  1  0  0  0
 43125  1  0  0  0
 44126  1  0  0  0
 47127  1  0  0  0
 47128  1  0  0  0
 50129  1  0  0  0
 51130  1  0  0  0
 53131  1  0  0  0
 54132  1  0  0  0
 57133  1  0  0  0
 57134  1  0  0  0
 58135  1  0  0  0
 58136  1  0  0  0
 61137  1  0  0  0
 62138  1  0  0  0
 63139  1  0  0  0
 66140  1  0  0  0
 66141  1  0  0  0
 67142  1  0  0  0
 68143  1  0  0  0
 68144  1  0  0  0
 68145  1  0  0  0
 69146  1  0  0  0
 69147  1  0  0  0
 69148  1  0  0  0
 70149  1  0  0  0
 71150  1  0  0  0
 74151  1  0  0  0
 74152  1  0  0  0
 75153  1  0  0  0
 75154  1  0  0  0
 76155  1  0  0  0
 76156  1  0  0  0
 77157  1  0  0  0
 79158  1  0  0  0
 80159  1  0  0  0
 80160  1  0  0  0
 81161  1  0  0  0
M  END
$$$$
