1uw6_ligand
  -I-interpret- 

 27 28  0  0  0  0  0  0  0  0999 V2000
   81.7260   69.9810   -7.9430 N   0  0  0  0  0
   82.9260   69.9090   -8.6150 C   0  0  0  0  0
   83.0690   69.2560   -9.8570 C   0  0  0  0  0
   81.9220   68.6110  -10.3710 C   0  0  0  0  0
   80.7050   68.6170   -9.6410 C   0  0  0  0  0
   80.6360   69.3450   -8.4410 C   0  0  0  0  0
   84.7730   70.4880  -11.3170 N   0  3  0  0  0
   84.3480   69.2120  -10.6390 C   0  0  0  0  0
   85.5370   68.7450   -9.8010 C   0  0  0  0  0
   86.7370   69.4340  -10.4240 C   0  0  0  0  0
   86.2330   70.6250  -11.2350 C   0  0  0  0  0
   84.5020   70.4860  -12.7560 C   0  0  0  0  0
   83.8030   70.3768   -8.1678 H   0  0  0  0  0
   81.9721   68.1051  -11.3352 H   0  0  0  0  0
   79.8379   68.0659  -10.0052 H   0  0  0  0  0
   79.6907   69.3996   -7.9011 H   0  0  0  0  0
   84.2548   71.2309  -10.8481 H   0  0  0  0  0
   84.0872   68.4950  -11.4175 H   0  0  0  0  0
   85.6403   67.6599   -9.8084 H   0  0  0  0  0
   85.4201   69.0020   -8.7482 H   0  0  0  0  0
   87.2745   68.7402  -11.0704 H   0  0  0  0  0
   87.4214   69.7723   -9.6460 H   0  0  0  0  0
   86.5099   71.5657  -10.7590 H   0  0  0  0  0
   86.6797   70.6364  -12.2292 H   0  0  0  0  0
   85.0426   69.6639  -13.2251 H   0  0  0  0  0
   83.4321   70.3610  -12.9228 H   0  0  0  0  0
   84.8303   71.4316  -13.1876 H   0  0  0  0  0
  1  2  4  0  0  0
  1  6  4  0  0  0
  2  3  4  0  0  0
  3  4  4  0  0  0
  3  8  1  0  0  0
  4  5  4  0  0  0
  5  6  4  0  0  0
  8  7  1  0  0  0
  7 11  1  0  0  0
  7 12  1  0  0  0
  8  9  1  0  0  0
  9 10  1  0  0  0
 10 11  1  0  0  0
  2 13  1  0  0  0
  4 14  1  0  0  0
  5 15  1  0  0  0
  6 16  1  0  0  0
  7 17  1  0  0  0
  8 18  1  0  0  0
  9 19  1  0  0  0
  9 20  1  0  0  0
 10 21  1  0  0  0
 10 22  1  0  0  0
 11 23  1  0  0  0
 11 24  1  0  0  0
 12 25  1  0  0  0
 12 26  1  0  0  0
 12 27  1  0  0  0
M  END
$$$$
