2p0x_ligand
  -I-interpret- 

 47 49  0  0  0  0  0  0  0  0999 V2000
    1.6760    0.0200   12.4610 P   0  0  0  0  0
    0.8670   -0.7850   13.4040 O   0  0  0  0  0
    3.1870    0.1240   13.0090 O   0  0  0  0  0
    1.0460    1.4930   12.3210 O   0  0  0  0  0
    0.1710   -0.6460   10.4630 P   0  0  0  0  0
   -0.7800   -0.6640   11.5980 O   0  0  0  0  0
   -0.0490    0.6970    9.6020 O   0  0  0  0  0
    1.6820   -0.6980   11.0170 O   0  0  0  0  0
    0.9450   -1.8340    8.3000 P   0  0  0  0  0
    2.2920   -1.4980    8.8120 O   0  0  0  0  0
    0.4670   -0.6930    7.2640 O   0  0  0  0  0
   -0.0960   -1.9260    9.5240 O   0  0  0  0  0
    1.0010   -3.2570    7.5440 O   0  0  0  0  0
    1.5460   -3.0220    6.2440 C   0  0  0  0  0
    2.6690   -4.0270    5.9720 C   0  0  0  0  0
    2.1470   -5.2560    5.4020 O   0  0  0  0  0
    3.6810   -3.4820    4.9590 C   0  0  0  0  0
    5.0050   -3.9330    5.2640 O   0  0  0  0  0
    3.1810   -4.0000    3.6060 C   0  0  0  0  0
    4.2710   -4.4540    2.7980 O   0  0  0  0  0
    2.1900   -5.1360    3.9460 C   0  0  0  0  0
    0.8560   -4.8190    3.4240 N   0  0  0  0  0
   -0.2540   -4.5370    4.1700 C   0  0  0  0  0
   -1.2330   -4.1720    3.3940 N   0  0  0  0  0
   -0.8720   -4.3700    2.1070 C   0  0  0  0  0
   -1.5180   -4.2780    0.8480 C   0  0  0  0  0
   -2.8790   -4.0440    0.7750 N   0  0  0  0  0
   -0.7800   -4.4220   -0.2830 N   0  0  0  0  0
    0.4930   -4.8370   -0.2470 C   0  0  0  0  0
    1.1230   -4.9850    0.9200 N   0  0  0  0  0
    0.4920   -4.7580    2.1020 C   0  0  0  0  0
    3.7125    0.6459   12.3982 H   0  0  0  0  0
    1.5751    2.0092   11.7085 H   0  0  0  0  0
    0.5675    0.7086    8.8662 H   0  0  0  0  0
   -0.4069   -0.9102    6.9313 H   0  0  0  0  0
    1.9453   -2.0089    6.1951 H   0  0  0  0  0
    0.7631   -3.1405    5.4949 H   0  0  0  0  0
    3.1446   -4.2090    6.9358 H   0  0  0  0  0
    3.7478   -2.3941    4.9682 H   0  0  0  0  0
    5.6194   -3.5791    4.6168 H   0  0  0  0  0
    2.6939   -3.2211    3.0194 H   0  0  0  0  0
    3.9338   -4.7729    1.9577 H   0  0  0  0  0
    2.5109   -6.0737    3.4924 H   0  0  0  0  0
   -0.3110   -4.6075    5.2562 H   0  0  0  0  0
   -3.4246   -3.9364    1.6301 H   0  0  0  0  0
   -3.3373   -3.9790   -0.1339 H   0  0  0  0  0
    1.0178   -5.0553   -1.1771 H   0  0  0  0  0
  1  2  2  0  0  0
  1  3  1  0  0  0
  1  4  1  0  0  0
  8  1  1  0  0  0
  5  6  2  0  0  0
  5  7  1  0  0  0
  5  8  1  0  0  0
 12  5  1  0  0  0
  9 10  2  0  0  0
  9 11  1  0  0  0
  9 12  1  0  0  0
  9 13  1  0  0  0
 13 14  1  0  0  0
 14 15  1  0  0  0
 15 16  1  0  0  0
 15 17  1  0  0  0
 16 21  1  0  0  0
 17 18  1  0  0  0
 17 19  1  0  0  0
 19 20  1  0  0  0
 19 21  1  0  0  0
 21 22  1  0  0  0
 22 23  4  0  0  0
 22 31  4  0  0  0
 23 24  4  0  0  0
 24 25  4  0  0  0
 25 26  4  0  0  0
 25 31  4  0  0  0
 26 27  1  0  0  0
 26 28  4  0  0  0
 28 29  4  0  0  0
 29 30  4  0  0  0
 30 31  4  0  0  0
  3 32  1  0  0  0
  4 33  1  0  0  0
  7 34  1  0  0  0
 11 35  1  0  0  0
 14 36  1  0  0  0
 14 37  1  0  0  0
 15 38  1  0  0  0
 17 39  1  0  0  0
 18 40  1  0  0  0
 19 41  1  0  0  0
 20 42  1  0  0  0
 21 43  1  0  0  0
 23 44  1  0  0  0
 27 45  1  0  0  0
 27 46  1  0  0  0
 29 47  1  0  0  0
M  END
$$$$
