### 
### Created by X-TOOL on Mon Sep 10 21:12:57 2018
### 

@<TRIPOS>MOLECULE
2p0x_ligand
   43    45     1     0     0
SMALL
GAST_HUCK


@<TRIPOS>ATOM
      1 PG          1.6760    0.0200   12.4610 P.3       1 ATP         0.1879
      2 O1G         0.8670   -0.7850   13.4040 O.co2     1 ATP        -0.6091
      3 O2G         3.1870    0.1240   13.0090 O.co2     1 ATP        -0.6091
      4 O3G         1.0460    1.4930   12.3210 O.co2     1 ATP        -0.6091
      5 PB          0.1710   -0.6460   10.4630 P.3       1 ATP         0.3553
      6 O1B        -0.7800   -0.6640   11.5980 O.co2     1 ATP        -0.5652
      7 O2B        -0.0490    0.6970    9.6020 O.co2     1 ATP        -0.5652
      8 O3B         1.6820   -0.6980   11.0170 O.3       1 ATP        -0.1546
      9 PA          0.9450   -1.8340    8.3000 P.3       1 ATP         0.3266
     10 O1A         2.2920   -1.4980    8.8120 O.co2     1 ATP        -0.5692
     11 O2A         0.4670   -0.6930    7.2640 O.co2     1 ATP        -0.5692
     12 O3A        -0.0960   -1.9260    9.5240 O.3       1 ATP        -0.1171
     13 O5'         1.0010   -3.2570    7.5440 O.3       1 ATP        -0.2441
     14 C5'         1.5460   -3.0220    6.2440 C.3       1 ATP         0.1131
     15 C4'         2.6690   -4.0270    5.9720 C.3       1 ATP         0.1189
     16 O4'         2.1470   -5.2560    5.4020 O.3       1 ATP        -0.3364
     17 C3'         3.6810   -3.4820    4.9590 C.3       1 ATP         0.1149
     18 O3'         5.0050   -3.9330    5.2640 O.3       1 ATP        -0.3864
     19 C2'         3.1810   -4.0000    3.6060 C.3       1 ATP         0.1385
     20 O2'         4.2710   -4.4540    2.7980 O.3       1 ATP        -0.3836
     21 C1'         2.1900   -5.1360    3.9460 C.3       1 ATP         0.2010
     22 N9          0.8560   -4.8190    3.4240 N.pl3     1 ATP        -0.1919
     23 C8         -0.2540   -4.5370    4.1700 C.2       1 ATP         0.1123
     24 N7         -1.2330   -4.1720    3.3940 N.2       1 ATP        -0.2958
     25 C5         -0.8720   -4.3700    2.1070 C.ar      1 ATP         0.1045
     26 C6         -1.5180   -4.2780    0.8480 C.ar      1 ATP         0.1298
     27 N6         -2.8790   -4.0440    0.7750 N.pl3     1 ATP        -0.3152
     28 N1         -0.7800   -4.4220   -0.2830 N.ar      1 ATP        -0.2698
     29 C2          0.4930   -4.8370   -0.2470 C.ar      1 ATP         0.0533
     30 N3          1.1230   -4.9850    0.9200 N.ar      1 ATP        -0.2714
     31 C4          0.4920   -4.7580    2.1020 C.ar      1 ATP         0.1613
     32 H1          1.9490   -1.9997    6.1947 H         1 ATP         0.0648
     33 H2          0.7559   -3.1416    5.4881 H         1 ATP         0.0648
     34 H3          3.1799   -4.2471    6.9210 H         1 ATP         0.0651
     35 H4          3.6733   -2.3821    4.9661 H         1 ATP         0.0648
     36 H5          5.6130   -3.5828    4.6236 H         1 ATP         0.2100
     37 H6          2.6552   -3.1980    3.0673 H         1 ATP         0.0676
     38 H7          4.8726   -3.7346    2.6466 H         1 ATP         0.2101
     39 H8          2.5384   -6.0807    3.5032 H         1 ATP         0.0996
     40 H9         -0.3109   -4.6074    5.2552 H         1 ATP         0.1349
     41 H10        -3.3418   -3.9783   -0.1428 H         1 ATP         0.1820
     42 H11        -3.4299   -3.9354    1.6385 H         1 ATP         0.1820
     43 H12         1.0149   -5.0541   -1.1720 H         1 ATP         0.0996
@<TRIPOS>BOND
     1    1    2 ar 
     2    1    3 ar 
     3    1    4 ar 
     4    8    1 1  
     5    5    6 ar 
     6    5    7 ar 
     7    5    8 1  
     8   12    5 1  
     9    9   10 ar 
    10    9   11 ar 
    11    9   12 1  
    12    9   13 1  
    13   13   14 1  
    14   14   15 1  
    15   15   16 1  
    16   15   17 1  
    17   16   21 1  
    18   17   18 1  
    19   17   19 1  
    20   19   20 1  
    21   19   21 1  
    22   21   22 1  
    23   22   23 1  
    24   22   31 1  
    25   23   24 2  
    26   24   25 1  
    27   25   26 ar 
    28   25   31 ar 
    29   26   27 1  
    30   26   28 ar 
    31   28   29 ar 
    32   29   30 ar 
    33   30   31 ar 
    34   14   32 1  
    35   14   33 1  
    36   15   34 1  
    37   17   35 1  
    38   18   36 1  
    39   19   37 1  
    40   20   38 1  
    41   21   39 1  
    42   23   40 1  
    43   27   41 1  
    44   27   42 1  
    45   29   43 1  
@<TRIPOS>SUBSTRUCTURE
     1 ATP         1

