4aje_ligand
  -I-interpret- 

 22 22  0  0  0  0  0  0  0  0999 V2000
   14.9060  -15.3250    9.9550 C   0  0  0  0  0
   12.9110  -14.3790    8.9990 C   0  0  0  0  0
   15.6810  -14.5750    9.0850 C   0  0  0  0  0
   13.6820  -13.6340    8.1280 C   0  0  0  0  0
   13.5280  -15.2260    9.9090 C   0  0  0  0  0
   15.0650  -13.7460    8.1910 C   0  0  0  0  0
   12.9480  -18.0520    9.7010 C   0  0  0  0  0
   11.8740  -17.8390   11.9670 C   0  0  0  0  0
   12.9700  -17.3300   11.0390 C   0  0  0  0  0
   12.1170  -17.7870    8.8100 O   0  0  0  0  0
   11.9350  -18.9170   12.5440 O   0  0  0  0  0
   13.9000  -18.9200    9.6030 O   0  0  0  0  0
   10.8800  -17.0160   12.0710 O   0  0  0  0  0
   12.7120  -15.9270   10.7650 O   0  0  0  0  0
   16.1290  -12.7180    7.0080 Br  0  0  0  0  0
   15.3820  -15.9916   10.6741 H   0  0  0  0  0
   11.8241  -14.3021    8.9718 H   0  0  0  0  0
   16.7683  -14.6456    9.1136 H   0  0  0  0  0
   13.2127  -12.9690    7.4030 H   0  0  0  0  0
   13.9320  -17.4957   11.5240 H   0  0  0  0  0
   14.4009  -18.9377   10.4217 H   0  0  0  0  0
   11.0508  -16.2400   11.5322 H   0  0  0  0  0
  1  3  4  0  0  0
  5  1  4  0  0  0
  2  4  4  0  0  0
  5  2  4  0  0  0
  3  6  4  0  0  0
  4  6  4  0  0  0
 14  5  1  0  0  0
  6 15  1  0  0  0
  9  7  1  0  0  0
  7 10  2  0  0  0
  7 12  1  0  0  0
  9  8  1  0  0  0
  8 11  2  0  0  0
  8 13  1  0  0  0
  9 14  1  0  0  0
  1 16  1  0  0  0
  2 17  1  0  0  0
  3 18  1  0  0  0
  4 19  1  0  0  0
  9 20  1  0  0  0
 12 21  1  0  0  0
 13 22  1  0  0  0
M  END
$$$$
