6jay_ligand
  -I-interpret- 

 53 57  0  0  0  0  0  0  0  0999 V2000
   17.6560  -16.4340    8.2440 C   0  0  0  0  0
    9.9220  -13.7750    6.1860 C   0  0  0  0  0
   15.0990  -13.7080    6.6280 C   0  0  0  0  0
   13.8240  -12.4860    4.7960 C   0  0  0  0  0
   13.7180  -13.3570    5.9320 C   0  0  0  0  0
   12.4110  -13.7340    6.3510 C   0  0  0  0  0
   12.6760  -11.2310    2.9510 C   0  0  0  0  0
   12.6330  -12.0800    4.1120 C   0  0  0  0  0
   11.3810  -12.5130    4.5680 C   0  0  0  0  0
   11.6000  -10.0430    1.2140 C   0  0  0  0  0
   10.3670  -11.2660    2.7600 C   0  0  0  0  0
   18.6790  -17.4690    8.9410 C   0  0  0  0  0
    9.1260  -10.8740    2.0950 C   0  0  0  0  0
    9.1840  -10.0350    0.9560 C   0  0  0  0  0
   10.4300   -9.6190    0.5120 C   0  0  0  0  0
   18.1220  -18.6870    8.8330 C   0  0  0  0  0
   16.5100  -17.0910    8.1560 C   0  0  0  0  0
   15.3750  -16.4070    7.3080 C   0  0  0  0  0
    8.6300  -15.1330    4.4340 C   0  0  0  0  0
    8.2170  -16.5430    4.3830 C   0  0  0  0  0
    8.6830  -17.1250    5.5460 C   0  0  0  0  0
    9.3040  -15.0500    5.6170 C   0  0  0  0  0
   15.7460  -14.9920    7.1980 N   0  0  0  0  0
   12.2800  -14.5630    7.4750 N   0  0  0  0  0
   11.2920  -13.3460    5.6810 C   0  0  0  0  0
   10.2770  -12.1010    3.8930 N   0  0  0  0  0
   11.5070  -10.8540    2.3130 N   0  0  0  0  0
   13.9170  -10.7820    2.4680 O   0  0  0  0  0
   16.9880  -18.5240    7.8060 O   0  0  0  0  0
    9.3010  -16.2260    6.2470 O   0  0  0  0  0
   15.8110  -12.7220    6.7450 O   0  0  0  0  0
   18.0124  -16.1111    7.2658 H   0  0  0  0  0
   17.5521  -15.5168    8.8238 H   0  0  0  0  0
   10.0589  -13.9738    7.2489 H   0  0  0  0  0
    9.2450  -12.9733    5.8910 H   0  0  0  0  0
   14.7998  -12.1375    4.4578 H   0  0  0  0  0
   12.5810   -9.7159    0.8695 H   0  0  0  0  0
   18.8469  -17.2079    9.9859 H   0  0  0  0  0
   19.6541  -17.4412    8.4546 H   0  0  0  0  0
    8.1652  -11.2241    2.4722 H   0  0  0  0  0
    8.2742   -9.7246    0.4422 H   0  0  0  0  0
   10.5160   -8.9753   -0.3634 H   0  0  0  0  0
   17.7468  -19.0435    9.7923 H   0  0  0  0  0
   18.8487  -19.4340    8.5137 H   0  0  0  0  0
   15.9173  -17.1000    9.0707 H   0  0  0  0  0
   14.4022  -16.5231    7.7857 H   0  0  0  0  0
   15.2858  -16.8684    6.3245 H   0  0  0  0  0
    8.4431  -14.3454    3.7040 H   0  0  0  0  0
    7.6554  -17.0315    3.5867 H   0  0  0  0  0
    8.5525  -18.1697    5.8284 H   0  0  0  0  0
   16.6652  -14.8079    7.6000 H   0  0  0  0  0
   13.1110  -14.8822    7.9729 H   0  0  0  0  0
   11.3537  -14.8466    7.7944 H   0  0  0  0  0
  1 12  1  0  0  0
 17  1  1  0  0  0
 22  2  1  0  0  0
  2 25  1  0  0  0
  5  3  1  0  0  0
  3 23  1  0  0  0
  3 31  2  0  0  0
  5  4  4  0  0  0
  8  4  4  0  0  0
  6  5  4  0  0  0
  6 24  1  0  0  0
 25  6  4  0  0  0
  8  7  1  0  0  0
  7 27  1  0  0  0
  7 28  2  0  0  0
  9  8  4  0  0  0
 25  9  4  0  0  0
  9 26  1  0  0  0
 10 15  2  0  0  0
 27 10  1  0  0  0
 11 13  1  0  0  0
 26 11  2  0  0  0
 11 27  1  0  0  0
 16 12  1  0  0  0
 13 14  2  0  0  0
 14 15  1  0  0  0
 29 16  1  0  0  0
 18 17  1  0  0  0
 17 29  1  0  0  0
 23 18  1  0  0  0
 19 20  4  0  0  0
 19 22  4  0  0  0
 20 21  4  0  0  0
 21 30  4  0  0  0
 22 30  4  0  0  0
  1 32  1  0  0  0
  1 33  1  0  0  0
  2 34  1  0  0  0
  2 35  1  0  0  0
  4 36  1  0  0  0
 10 37  1  0  0  0
 12 38  1  0  0  0
 12 39  1  0  0  0
 13 40  1  0  0  0
 14 41  1  0  0  0
 15 42  1  0  0  0
 16 43  1  0  0  0
 16 44  1  0  0  0
 17 45  1  0  0  0
 18 46  1  0  0  0
 18 47  1  0  0  0
 19 48  1  0  0  0
 20 49  1  0  0  0
 21 50  1  0  0  0
 23 51  1  0  0  0
 24 52  1  0  0  0
 24 53  1  0  0  0
M  END
$$$$
