1uz1_ligand
  -I-interpret- 

 22 22  0  0  0  0  0  0  0  0999 V2000
   -1.5610   10.6260    6.7960 O   0  0  0  0  0
   -1.1240   10.5480    8.1480 C   0  0  0  0  0
   -0.4190   11.8890    8.4310 C   0  0  0  0  0
    0.8280   12.0360    7.7460 O   0  0  0  0  0
   -0.1070   12.0550    9.9230 C   0  0  0  0  0
   -0.6710   11.2010   10.8100 N   0  0  0  0  0
   -1.5830   10.0950   10.5180 C   0  0  0  0  0
   -2.2760   10.3720    9.1700 C   0  0  0  0  0
   -3.2460    9.2490    8.8270 C   0  0  0  0  0
   -2.5440    8.0100    8.9160 O   0  0  0  0  0
    0.6250   12.9670   10.2500 O   0  0  0  0  0
   -0.8001   10.7340    6.2207 H   0  0  0  0  0
   -0.4845    9.6729    8.2636 H   0  0  0  0  0
   -1.1240   12.6410    8.0767 H   0  0  0  0  0
    0.6862   11.9399    6.8014 H   0  0  0  0  0
   -0.4333   11.3450   11.7914 H   0  0  0  0  0
   -2.3289   10.0106   11.3083 H   0  0  0  0  0
   -1.0263    9.1594   10.4637 H   0  0  0  0  0
   -2.8962   11.2683    9.1808 H   0  0  0  0  0
   -3.6366    9.3865    7.8187 H   0  0  0  0  0
   -4.0858    9.2543    9.5218 H   0  0  0  0  0
   -3.1410    7.2892    8.7026 H   0  0  0  0  0
  1  2  1  0  0  0
  2  3  1  0  0  0
  2  8  1  0  0  0
  3  4  1  0  0  0
  3  5  1  0  0  0
  5  6  1  0  0  0
  5 11  2  0  0  0
  6  7  1  0  0  0
  7  8  1  0  0  0
  8  9  1  0  0  0
  9 10  1  0  0  0
  1 12  1  0  0  0
  2 13  1  0  0  0
  3 14  1  0  0  0
  4 15  1  0  0  0
  6 16  1  0  0  0
  7 17  1  0  0  0
  7 18  1  0  0  0
  8 19  1  0  0  0
  9 20  1  0  0  0
  9 21  1  0  0  0
 10 22  1  0  0  0
M  END
$$$$
