3nb5_ligand
  -I-interpret- 

 41 42  0  0  0  0  0  0  0  0999 V2000
   16.0750   14.0200   10.5570 Cl  0  0  0  0  0
   13.9200    2.7940   16.7340 O   0  0  0  0  0
   17.6320   16.2050   11.7850 O   0  0  0  0  0
   18.2210   14.9840   11.8950 C   0  0  0  0  0
   19.4460   14.8610   12.5400 C   0  0  0  0  0
   20.0590   13.6170   12.6370 C   0  0  0  0  0
   19.9430   10.6690   14.4990 O   0  0  0  0  0
   15.6480    6.2280   14.7040 C   0  0  0  0  0
   15.1720    5.1820   15.4860 C   0  0  0  0  0
   16.0280    4.1560   15.8710 C   0  0  0  0  0
   15.4180    2.8090   16.8070 S   0  0  0  0  0
   16.0170    1.4180   16.2050 N   0  0  0  0  0
   17.6050   13.8620   11.3500 C   0  0  0  0  0
   18.2190   12.6180   11.4470 C   0  0  0  0  0
   19.4470   12.4960   12.0880 C   0  0  0  0  0
   20.1550   11.1400   12.1450 C   0  0  0  0  0
   19.6700   10.3290   13.3480 C   0  0  0  0  0
   18.9540    9.2520   13.0370 N   0  0  0  0  0
   18.4060    8.3380   14.0510 C   0  0  0  0  0
   17.4780    7.3400   13.3550 C   0  0  0  0  0
   16.9790    6.2480   14.3040 C   0  0  0  0  0
   17.8380    5.2280   14.6980 C   0  0  0  0  0
   17.3620    4.1830   15.4810 C   0  0  0  0  0
   15.8550    2.9550   18.2350 O   0  0  0  0  0
   16.7988   16.1161   11.3166 H   0  0  0  0  0
   19.9262   15.7401   12.9699 H   0  0  0  0  0
   21.0194   13.5206   13.1435 H   0  0  0  0  0
   14.9771    7.0330   14.4043 H   0  0  0  0  0
   14.1276    5.1660   15.7975 H   0  0  0  0  0
   15.3837    0.7002   15.8527 H   0  0  0  0  0
   17.0252    1.2652   16.1805 H   0  0  0  0  0
   17.7374   11.7381   11.0204 H   0  0  0  0  0
   21.2281   11.3058   12.2405 H   0  0  0  0  0
   19.9316   10.5865   11.2329 H   0  0  0  0  0
   18.7773    9.0512   12.0527 H   0  0  0  0  0
   17.8503    8.9029   14.7994 H   0  0  0  0  0
   19.2166    7.8067   14.5497 H   0  0  0  0  0
   18.0394    6.8597   12.5536 H   0  0  0  0  0
   16.6110    7.8872   12.9848 H   0  0  0  0  0
   18.8842    5.2480   14.3929 H   0  0  0  0  0
   18.0356    3.3836   15.7897 H   0  0  0  0  0
 13  1  1  0  0  0
 11  2  2  0  0  0
  4  3  1  0  0  0
  5  4  4  0  0  0
 13  4  4  0  0  0
  6  5  4  0  0  0
 15  6  4  0  0  0
 17  7  2  0  0  0
  8  9  4  0  0  0
 21  8  4  0  0  0
  9 10  4  0  0  0
 10 11  1  0  0  0
 10 23  4  0  0  0
 11 12  1  0  0  0
 11 24  2  0  0  0
 14 13  4  0  0  0
 15 14  4  0  0  0
 16 15  1  0  0  0
 17 16  1  0  0  0
 18 17  1  0  0  0
 19 18  1  0  0  0
 20 19  1  0  0  0
 20 21  1  0  0  0
 21 22  4  0  0  0
 22 23  4  0  0  0
  3 25  1  0  0  0
  5 26  1  0  0  0
  6 27  1  0  0  0
  8 28  1  0  0  0
  9 29  1  0  0  0
 12 30  1  0  0  0
 12 31  1  0  0  0
 14 32  1  0  0  0
 16 33  1  0  0  0
 16 34  1  0  0  0
 18 35  1  0  0  0
 19 36  1  0  0  0
 19 37  1  0  0  0
 20 38  1  0  0  0
 20 39  1  0  0  0
 22 40  1  0  0  0
 23 41  1  0  0  0
M  END
$$$$
