6bu3_ligand
  -I-interpret- 

 35 38  0  0  0  0  0  0  0  0999 V2000
   -4.8560    0.5530  -16.0420 N   0  0  0  0  0
   -1.6570   -0.2260  -14.7070 C   0  0  0  0  0
   -0.7510   -0.5010  -15.7260 C   0  0  0  0  0
    0.5860   -0.7260  -15.4390 C   0  0  0  0  0
    1.0080   -0.6990  -14.1180 C   0  0  0  0  0
    2.5890   -1.8040  -16.4460 C   0  0  0  0  0
    3.6960   -1.4760  -20.1480 C   0  0  0  0  0
    4.7060   -2.4620  -20.1510 C   0  0  0  0  0
    2.2280    0.1130  -20.5380 C   0  0  0  0  0
    6.0270   -4.2340  -18.9910 C   0  0  0  0  0
    5.4610   -5.4160  -19.1990 F   0  0  0  0  0
    6.9510   -4.0320  -19.9120 F   0  0  0  0  0
    6.6900   -4.3670  -17.8150 F   0  0  0  0  0
    4.9770   -3.1710  -18.9850 C   0  0  0  0  0
    3.2030   -0.6260  -21.1090 N   0  0  0  0  0
    2.0810   -0.2450  -19.2430 N   0  0  0  0  0
    2.9660   -1.2060  -18.9720 C   0  0  0  0  0
    4.2620   -2.9120  -17.8100 C   0  0  0  0  0
    3.2820   -1.9420  -17.8010 C   0  0  0  0  0
    2.9910   -2.3590  -15.4260 O   0  0  0  0  0
    1.4800   -1.0220  -16.4930 N   0  0  0  0  0
    0.1160   -0.4340  -13.0930 C   0  0  0  0  0
   -1.2160   -0.1980  -13.3900 C   0  0  0  0  0
   -3.0790    0.0260  -15.0080 C   0  0  0  0  0
   -3.5310    0.4610  -16.1770 N   0  0  0  0  0
   -4.0760   -0.1470  -14.1450 N   0  0  0  0  0
   -5.1790    0.1920  -14.8220 N   0  0  0  0  0
   -1.0957   -0.5399  -16.7593 H   0  0  0  0  0
    2.0555   -0.8889  -13.8839 H   0  0  0  0  0
    5.2700   -2.6666  -21.0610 H   0  0  0  0  0
    1.6466    0.8829  -21.0453 H   0  0  0  0  0
    4.4796   -3.4763  -16.9032 H   0  0  0  0  0
    1.2668   -0.5979  -17.3958 H   0  0  0  0  0
    0.4598   -0.4112  -12.0589 H   0  0  0  0  0
   -1.9220    0.0108  -12.5862 H   0  0  0  0  0
 25  1  4  0  0  0
  1 27  4  0  0  0
  2  3  4  0  0  0
  2 23  4  0  0  0
 24  2  1  0  0  0
  3  4  4  0  0  0
  4  5  4  0  0  0
  4 21  1  0  0  0
 22  5  4  0  0  0
  6 19  1  0  0  0
  6 20  2  0  0  0
 21  6  1  0  0  0
  7  8  4  0  0  0
  7 15  4  0  0  0
 17  7  4  0  0  0
 14  8  4  0  0  0
  9 15  4  0  0  0
 16  9  4  0  0  0
 10 11  1  0  0  0
 10 12  1  0  0  0
 10 13  1  0  0  0
 14 10  1  0  0  0
 18 14  4  0  0  0
 17 16  4  0  0  0
 19 17  4  0  0  0
 19 18  4  0  0  0
 23 22  4  0  0  0
 24 25  4  0  0  0
 24 26  4  0  0  0
 26 27  4  0  0  0
  3 28  1  0  0  0
  5 29  1  0  0  0
  8 30  1  0  0  0
  9 31  1  0  0  0
 18 32  1  0  0  0
 21 33  1  0  0  0
 22 34  1  0  0  0
 23 35  1  0  0  0
M  END
$$$$
