5lgs_ligand
  -I-interpret- 

120123  0  0  0  0  0  0  0  0999 V2000
   40.5880   25.6150  125.0750 N   0  3  0  0  0
   41.6300   24.8680  125.7740 C   0  0  0  0  0
   42.4630   25.7950  126.6590 C   0  0  0  0  0
   42.5100   27.0060  126.4370 O   0  0  0  0  0
   42.5180   24.1430  124.7770 C   0  0  0  0  0
   43.1250   25.2140  127.6600 N   0  0  0  0  0
   43.8140   25.9950  128.6790 C   0  0  0  0  0
   45.2520   26.2650  128.2530 C   0  0  0  0  0
   45.9900   25.3100  127.9760 O   0  0  0  0  0
   43.8040   25.2630  130.0080 C   0  0  0  0  0
   45.7010   27.5310  128.1940 N   0  0  0  0  0
   47.1050   27.8230  127.8810 C   0  0  0  0  0
   48.0750   27.0960  128.8120 C   0  0  0  0  0
   49.0270   26.4730  128.3460 O   0  0  0  0  0
   47.1990   29.3410  128.0700 C   0  0  0  0  0
   45.8210   29.8330  127.8380 C   0  0  0  0  0
   44.9070   28.7630  128.3470 C   0  0  0  0  0
   47.8360   27.1860  130.1160 N   0  0  0  0  0
   48.6570   26.4660  131.1010 C   0  0  0  0  0
   47.9390   25.1820  131.6300 C   0  0  0  0  0
   46.8920   25.2820  132.2070 O   0  0  0  0  0
   48.9640   27.3700  132.2970 C   0  0  0  0  0
   49.6560   28.6820  131.9380 C   0  0  0  0  0
   51.0100   28.4590  131.2830 C   0  0  0  0  0
   51.7070   29.7150  131.0400 N   0  0  0  0  0
   52.5340   30.3060  131.8940 C   0  0  0  0  0
   52.8090   29.7510  133.0580 N   0  0  0  0  0
   53.0690   31.4780  131.5730 N   0  0  0  0  0
   48.5310   23.9950  131.4090 N   0  0  0  0  0
   47.8380   22.7670  131.8180 C   0  0  0  0  0
   47.5380   22.6840  133.3170 C   0  0  0  0  0
   48.3120   23.2050  134.1230 O   0  0  0  0  0
   48.8190   21.6610  131.4190 C   0  0  0  0  0
   49.6590   22.2570  130.3530 C   0  0  0  0  0
   49.7970   23.7000  130.7150 C   0  0  0  0  0
   46.4380   22.0270  133.6890 N   0  0  0  0  0
   46.1860   21.7740  135.1130 C   0  0  0  0  0
   47.3380   20.9990  135.7350 C   0  0  0  0  0
   47.9050   20.0930  135.1190 O   0  0  0  0  0
   44.8910   20.9530  135.1080 C   0  0  0  0  0
   44.2540   21.2320  133.7950 C   0  0  0  0  0
   45.3730   21.4750  132.8340 C   0  0  0  0  0
   47.6790   21.3590  136.9700 N   0  0  0  0  0
   48.8320   20.7790  137.6420 C   0  0  0  0  0
   48.5740   20.7120  139.1400 C   0  0  0  0  0
   48.0340   21.6540  139.7260 O   0  0  0  0  0
   50.0950   21.5970  137.3620 C   0  0  0  0  0
   51.3370   21.0340  137.9910 C   0  0  0  0  0
   51.9440   19.9060  137.4660 C   0  0  0  0  0
   51.9040   21.6400  139.0990 C   0  0  0  0  0
   53.0880   19.3890  138.0370 C   0  0  0  0  0
   53.0500   21.1260  139.6760 C   0  0  0  0  0
   53.6430   19.9990  139.1430 C   0  0  0  0  0
   48.9710   19.5980  139.7490 N   0  0  0  0  0
   48.8660   19.4210  141.1960 C   0  0  0  0  0
   50.2460   19.2130  141.8100 C   0  0  0  0  0
   50.8530   18.1520  141.6560 O   0  0  0  0  0
   47.9590   18.2360  141.5330 C   0  0  0  0  0
   46.6260   18.4760  141.1180 O   0  0  0  0  0
   50.7830   20.1020  142.4730 O   0  0  0  0  0
   40.0007   26.0957  125.7564 H   0  0  0  0  0
   41.0202   26.2992  124.4541 H   0  0  0  0  0
   40.0178   24.9700  124.5279 H   0  0  0  0  0
   41.1502   24.1287  126.4154 H   0  0  0  0  0
   43.0256   24.8730  124.1466 H   0  0  0  0  0
   43.2570   23.5494  125.3152 H   0  0  0  0  0
   41.9062   23.4882  124.1565 H   0  0  0  0  0
   43.1498   24.1957  127.7139 H   0  0  0  0  0
   43.2904   26.9439  128.7952 H   0  0  0  0  0
   44.3348   24.3166  129.9041 H   0  0  0  0  0
   44.2963   25.8762  130.7628 H   0  0  0  0  0
   42.7738   25.0722  130.3085 H   0  0  0  0  0
   47.3806   27.4889  126.8807 H   0  0  0  0  0
   47.9142   29.7935  127.3831 H   0  0  0  0  0
   47.5646   29.6061  129.0621 H   0  0  0  0  0
   45.6460   30.0301  126.7803 H   0  0  0  0  0
   45.6478   30.7773  128.3542 H   0  0  0  0  0
   44.5961   28.9344  129.3776 H   0  0  0  0  0
   43.9648   28.7234  127.8003 H   0  0  0  0  0
   47.0646   27.7685  130.4416 H   0  0  0  0  0
   49.5769   26.1744  130.5942 H   0  0  0  0  0
   49.6433   26.8188  132.9473 H   0  0  0  0  0
   48.0092   27.6281  132.7550 H   0  0  0  0  0
   49.8138   29.2443  132.8583 H   0  0  0  0  0
   49.0219   29.2166  131.2308 H   0  0  0  0  0
   50.8497   27.9652  130.3246 H   0  0  0  0  0
   51.6194   27.8532  131.9537 H   0  0  0  0  0
   51.5472   30.1761  130.1443 H   0  0  0  0  0
   52.3848   28.8584  133.3103 H   0  0  0  0  0
   53.6934   31.9499  132.2271 H   0  0  0  0  0
   52.8556   31.9065  130.6723 H   0  0  0  0  0
   46.8570   22.7029  131.3472 H   0  0  0  0  0
   48.3000   20.7677  131.0714 H   0  0  0  0  0
   49.4186   21.3287  132.2665 H   0  0  0  0  0
   49.2048   22.1331  129.3699 H   0  0  0  0  0
   50.6302   21.7664  130.2881 H   0  0  0  0  0
   50.6720   23.8965  131.3345 H   0  0  0  0  0
   49.9591   24.3380  129.8462 H   0  0  0  0  0
   46.0979   22.6862  135.7031 H   0  0  0  0  0
   44.2386   21.2283  135.9367 H   0  0  0  0  0
   45.0901   19.8894  135.2390 H   0  0  0  0  0
   43.5916   22.0956  133.8544 H   0  0  0  0  0
   43.6332   20.3959  133.4731 H   0  0  0  0  0
   45.6812   20.5701  132.3104 H   0  0  0  0  0
   45.0927   22.1487  132.0243 H   0  0  0  0  0
   47.1187   22.0583  137.4572 H   0  0  0  0  0
   48.9870   19.7712  137.2568 H   0  0  0  0  0
   49.9388   22.5893  137.7851 H   0  0  0  0  0
   50.2492   21.5959  136.2830 H   0  0  0  0  0
   51.5125   19.4205  136.5907 H   0  0  0  0  0
   51.4416   22.5323  139.5210 H   0  0  0  0  0
   53.5536   18.4986  137.6145 H   0  0  0  0  0
   53.4849   21.6098  140.5506 H   0  0  0  0  0
   54.5476   19.5921  139.5949 H   0  0  0  0  0
   49.3619   18.8418  139.1871 H   0  0  0  0  0
   48.4262   20.3255  141.6163 H   0  0  0  0  0
   47.9658   18.0892  142.6130 H   0  0  0  0  0
   48.3317   17.3539  141.0124 H   0  0  0  0  0
   46.0810   17.7180  141.3416 H   0  0  0  0  0
   50.2030   20.8660  142.5109 H   0  0  0  0  0
  1  2  1  0  0  0
  2  3  1  0  0  0
  2  5  1  0  0  0
  3  4  2  0  0  0
  3  6  1  0  0  0
  6  7  1  0  0  0
  7  8  1  0  0  0
  7 10  1  0  0  0
  8  9  2  0  0  0
  8 11  1  0  0  0
 11 12  1  0  0  0
 11 17  1  0  0  0
 12 13  1  0  0  0
 12 15  1  0  0  0
 13 14  2  0  0  0
 13 18  1  0  0  0
 15 16  1  0  0  0
 16 17  1  0  0  0
 18 19  1  0  0  0
 19 20  1  0  0  0
 19 22  1  0  0  0
 20 21  2  0  0  0
 20 29  1  0  0  0
 22 23  1  0  0  0
 23 24  1  0  0  0
 24 25  1  0  0  0
 25 26  1  0  0  0
 26 27  2  0  0  0
 26 28  1  0  0  0
 29 30  1  0  0  0
 29 35  1  0  0  0
 30 31  1  0  0  0
 30 33  1  0  0  0
 31 32  2  0  0  0
 31 36  1  0  0  0
 33 34  1  0  0  0
 34 35  1  0  0  0
 36 37  1  0  0  0
 36 42  1  0  0  0
 37 38  1  0  0  0
 37 40  1  0  0  0
 38 39  2  0  0  0
 38 43  1  0  0  0
 40 41  1  0  0  0
 41 42  1  0  0  0
 43 44  1  0  0  0
 44 45  1  0  0  0
 44 47  1  0  0  0
 45 46  2  0  0  0
 45 54  1  0  0  0
 47 48  1  0  0  0
 48 49  4  0  0  0
 48 50  4  0  0  0
 49 51  4  0  0  0
 50 52  4  0  0  0
 51 53  4  0  0  0
 52 53  4  0  0  0
 54 55  1  0  0  0
 55 56  1  0  0  0
 55 58  1  0  0  0
 56 57  2  0  0  0
 56 60  1  0  0  0
 58 59  1  0  0  0
  1 61  1  0  0  0
  1 62  1  0  0  0
  1 63  1  0  0  0
  2 64  1  0  0  0
  5 65  1  0  0  0
  5 66  1  0  0  0
  5 67  1  0  0  0
  6 68  1  0  0  0
  7 69  1  0  0  0
 10 70  1  0  0  0
 10 71  1  0  0  0
 10 72  1  0  0  0
 12 73  1  0  0  0
 15 74  1  0  0  0
 15 75  1  0  0  0
 16 76  1  0  0  0
 16 77  1  0  0  0
 17 78  1  0  0  0
 17 79  1  0  0  0
 18 80  1  0  0  0
 19 81  1  0  0  0
 22 82  1  0  0  0
 22 83  1  0  0  0
 23 84  1  0  0  0
 23 85  1  0  0  0
 24 86  1  0  0  0
 24 87  1  0  0  0
 25 88  1  0  0  0
 27 89  1  0  0  0
 28 90  1  0  0  0
 28 91  1  0  0  0
 30 92  1  0  0  0
 33 93  1  0  0  0
 33 94  1  0  0  0
 34 95  1  0  0  0
 34 96  1  0  0  0
 35 97  1  0  0  0
 35 98  1  0  0  0
 37 99  1  0  0  0
 40100  1  0  0  0
 40101  1  0  0  0
 41102  1  0  0  0
 41103  1  0  0  0
 42104  1  0  0  0
 42105  1  0  0  0
 43106  1  0  0  0
 44107  1  0  0  0
 47108  1  0  0  0
 47109  1  0  0  0
 49110  1  0  0  0
 50111  1  0  0  0
 51112  1  0  0  0
 52113  1  0  0  0
 53114  1  0  0  0
 54115  1  0  0  0
 55116  1  0  0  0
 58117  1  0  0  0
 58118  1  0  0  0
 59119  1  0  0  0
 60120  1  0  0  0
M  END
$$$$
