5yql_ligand
  -I-interpret- 

 48 50  0  0  0  0  0  0  0  0999 V2000
  -16.3200   -7.5580  -21.2800 C   0  0  0  0  0
  -16.6060   -8.7390  -18.7930 C   0  0  0  0  0
  -16.2480   -6.5200  -17.7200 N   0  0  0  0  0
  -16.4830   -6.9510  -16.3470 C   0  0  0  0  0
  -13.9810   -3.4220  -18.0920 C   0  0  0  0  0
  -12.8430   -2.6960  -17.7850 C   0  0  0  0  0
  -12.2320   -2.8780  -16.5500 C   0  0  0  0  0
  -12.8780  -12.8720  -22.0440 C   0  0  0  0  0
  -13.8190  -12.6310  -23.0300 C   0  0  0  0  0
  -15.0900  -12.2140  -22.6820 C   0  0  0  0  0
  -15.4290  -12.0320  -21.3470 C   0  0  0  0  0
  -14.4820  -12.2740  -20.3600 C   0  0  0  0  0
  -13.2090  -12.6950  -20.7100 C   0  0  0  0  0
  -16.7350  -11.6110  -21.0470 O   0  0  0  0  0
  -16.9800  -10.9970  -19.8070 C   0  0  0  0  0
  -16.7030   -9.5050  -19.9420 C   0  0  0  0  0
  -16.5580   -8.9160  -21.1880 C   0  0  0  0  0
  -16.2180   -6.7940  -20.1300 C   0  0  0  0  0
  -16.3660   -7.3810  -18.8850 C   0  0  0  0  0
  -16.8120   -8.0580  -16.0700 O   0  0  0  0  0
  -16.3240   -5.9100  -15.2370 C   0  0  0  0  0
  -14.5650   -5.6090  -14.8590 S   0  0  0  0  0
  -13.8420   -4.4160  -16.0240 C   0  0  0  0  0
  -14.4430   -4.2620  -17.1870 N   0  0  0  0  0
  -12.7470   -3.7440  -15.6900 N   0  0  0  0  0
  -10.9700   -2.0850  -16.2060 C   0  0  0  0  0
  -14.7020   -3.2760  -19.4360 C   0  0  0  0  0
  -16.2126   -7.0884  -22.2578 H   0  0  0  0  0
  -16.7190   -9.2071  -17.8151 H   0  0  0  0  0
  -15.9825   -5.5472  -17.8735 H   0  0  0  0  0
  -12.4303   -1.9888  -18.5045 H   0  0  0  0  0
  -11.8755  -13.2014  -22.3171 H   0  0  0  0  0
  -13.5582  -12.7698  -24.0792 H   0  0  0  0  0
  -15.8307  -12.0268  -23.4595 H   0  0  0  0  0
  -14.7402  -12.1328  -19.3105 H   0  0  0  0  0
  -12.4670  -12.8872  -19.9350 H   0  0  0  0  0
  -16.3314  -11.4279  -19.0443 H   0  0  0  0  0
  -18.0168  -11.1573  -19.5113 H   0  0  0  0  0
  -16.6314   -9.5213  -22.0915 H   0  0  0  0  0
  -16.0201   -5.7248  -20.2052 H   0  0  0  0  0
  -16.8134   -6.2838  -14.3376 H   0  0  0  0  0
  -16.7724   -4.9745  -15.5715 H   0  0  0  0  0
  -10.1878   -2.3179  -16.9285 H   0  0  0  0  0
  -11.1920   -1.0184  -16.2402 H   0  0  0  0  0
  -10.6340   -2.3556  -15.2050 H   0  0  0  0  0
  -15.0310   -2.2443  -19.5602 H   0  0  0  0  0
  -14.0195   -3.5408  -20.2436 H   0  0  0  0  0
  -15.5666   -3.9394  -19.4570 H   0  0  0  0  0
  1 17  4  0  0  0
 18  1  4  0  0  0
  2 16  4  0  0  0
 19  2  4  0  0  0
  4  3  1  0  0  0
  3 19  1  0  0  0
  4 20  2  0  0  0
 21  4  1  0  0  0
  5  6  4  0  0  0
 24  5  4  0  0  0
  5 27  1  0  0  0
  6  7  4  0  0  0
  7 25  4  0  0  0
  7 26  1  0  0  0
  9  8  4  0  0  0
 13  8  4  0  0  0
 10  9  4  0  0  0
 11 10  4  0  0  0
 11 12  4  0  0  0
 14 11  1  0  0  0
 12 13  4  0  0  0
 15 14  1  0  0  0
 16 15  1  0  0  0
 16 17  4  0  0  0
 19 18  4  0  0  0
 22 21  1  0  0  0
 23 22  1  0  0  0
 23 24  4  0  0  0
 23 25  4  0  0  0
  1 28  1  0  0  0
  2 29  1  0  0  0
  3 30  1  0  0  0
  6 31  1  0  0  0
  8 32  1  0  0  0
  9 33  1  0  0  0
 10 34  1  0  0  0
 12 35  1  0  0  0
 13 36  1  0  0  0
 15 37  1  0  0  0
 15 38  1  0  0  0
 17 39  1  0  0  0
 18 40  1  0  0  0
 21 41  1  0  0  0
 21 42  1  0  0  0
 26 43  1  0  0  0
 26 44  1  0  0  0
 26 45  1  0  0  0
 27 46  1  0  0  0
 27 47  1  0  0  0
 27 48  1  0  0  0
M  END
$$$$
