1g9d_ligand
  -I-interpret- 

 39 42  0  0  0  0  0  0  0  0999 V2000
   10.7300   -9.4620   23.6580 C   0  0  0  0  0
    9.8430   -8.8330   24.5780 C   0  0  0  0  0
    8.7250   -8.1070   24.1030 C   0  0  0  0  0
    8.5430   -8.0410   22.7360 C   0  0  0  0  0
    9.3990   -8.6510   21.8570 C   0  0  0  0  0
   10.4960   -9.3630   22.2770 C   0  0  0  0  0
   11.9330  -10.2410   24.1410 C   0  0  0  0  0
    7.7300   -7.6130   20.5580 C   0  0  0  0  0
    6.8770   -7.1460   19.4090 C   0  0  0  0  0
   11.7500  -11.5360   24.8800 N   0  0  0  0  0
   13.3110   -9.7160   23.8620 N   0  0  0  0  0
    7.4620   -7.3610   21.9900 N   0  0  0  0  0
    8.9520   -8.4250   20.4650 N   0  0  0  0  0
    1.6580  -10.3520   20.7200 C   0  0  0  0  0
    1.0620   -9.2840   20.0330 C   0  0  0  0  0
    1.8470   -8.2510   19.5110 C   0  0  0  0  0
    3.1990   -8.2940   19.6790 C   0  0  0  0  0
    3.8070   -9.3240   20.3450 C   0  0  0  0  0
    3.0750  -10.3840   20.8910 C   0  0  0  0  0
    0.7540  -11.4460   21.2600 C   0  0  0  0  0
    5.5190   -7.8070   19.6370 C   0  0  0  0  0
    0.9390  -12.8650   20.7990 N   0  0  0  0  0
   -0.3590  -11.0920   22.2190 N   0  0  0  0  0
    4.2040   -7.2950   19.1980 N   0  0  0  0  0
    5.2760   -9.0980   20.3670 N   0  0  0  0  0
   10.0257   -8.9110   25.6498 H   0  0  0  0  0
    8.0340   -7.6186   24.7901 H   0  0  0  0  0
   11.1653   -9.8373   21.5593 H   0  0  0  0  0
    7.3064   -7.4229   18.4462 H   0  0  0  0  0
    6.7990   -6.0593   19.3771 H   0  0  0  0  0
   12.5646  -12.0631   25.1948 H   0  0  0  0  0
   10.8112  -11.8882   25.0670 H   0  0  0  0  0
   14.1290  -10.2390   24.1746 H   0  0  0  0  0
   -0.0202   -9.2591   19.9052 H   0  0  0  0  0
    1.3835   -7.4218   18.9765 H   0  0  0  0  0
    3.5653  -11.1988   21.4238 H   0  0  0  0  0
    1.6705  -13.0910   20.1250 H   0  0  0  0  0
   -0.9905  -11.8179   22.5577 H   0  0  0  0  0
   -0.4787  -10.1272   22.5276 H   0  0  0  0  0
  1  2  4  0  0  0
  6  1  4  0  0  0
  1  7  1  0  0  0
  3  2  4  0  0  0
  4  3  4  0  0  0
  5  4  4  0  0  0
 12  4  4  0  0  0
  5  6  4  0  0  0
 13  5  4  0  0  0
  7 10  1  0  0  0
  7 11  2  0  0  0
  9  8  1  0  0  0
  8 12  4  0  0  0
  8 13  4  0  0  0
 21  9  1  0  0  0
 15 14  4  0  0  0
 19 14  4  0  0  0
 14 20  1  0  0  0
 16 15  4  0  0  0
 17 16  4  0  0  0
 17 18  4  0  0  0
 24 17  4  0  0  0
 18 19  4  0  0  0
 18 25  4  0  0  0
 20 22  2  0  0  0
 20 23  1  0  0  0
 21 24  4  0  0  0
 21 25  4  0  0  0
  2 26  1  0  0  0
  3 27  1  0  0  0
  6 28  1  0  0  0
  9 29  1  0  0  0
  9 30  1  0  0  0
 10 31  1  0  0  0
 10 32  1  0  0  0
 11 33  1  0  0  0
 15 34  1  0  0  0
 16 35  1  0  0  0
 19 36  1  0  0  0
 22 37  1  0  0  0
 23 38  1  0  0  0
 23 39  1  0  0  0
M  END
$$$$
