6hoy_ligand
  -I-interpret- 

 44 44  0  0  0  0  0  0  0  0999 V2000
  -23.2720   17.5360   19.0920 O   0  0  0  0  0
  -22.8190   19.8750   17.9680 O   0  0  0  0  0
  -25.6750   25.9780   17.0730 O   0  0  0  0  0
  -23.9180   18.6530   19.4720 N   0  0  0  0  0
  -29.1220   31.1730   16.6110 N   0  0  0  0  0
  -26.7700   27.7350   17.6990 C   0  0  0  0  0
  -27.2030   28.6060   18.7030 C   0  0  0  0  0
  -27.9790   29.7360   18.3560 C   0  0  0  0  0
  -28.2890   30.0000   16.9910 C   0  0  0  0  0
  -27.8290   29.1330   16.0010 C   0  0  0  0  0
  -27.0700   28.0180   16.3440 C   0  0  0  0  0
  -25.8570   26.5490   18.0520 C   0  0  0  0  0
  -24.8900   26.1220   19.1720 C   0  0  0  0  0
  -24.2830   24.7110   18.7680 C   0  0  0  0  0
  -24.7120   23.4940   19.2660 C   0  0  0  0  0
  -24.1220   22.1540   18.9030 C   0  0  0  0  0
  -24.3880   20.9960   19.4230 C   0  0  0  0  0
  -23.6110   19.8080   18.9050 C   0  0  0  0  0
  -23.6270   27.0530   19.2010 C   0  0  0  0  0
  -25.7720   23.2750   20.3210 C   0  0  0  0  0
  -29.5350   31.3330   15.2130 C   0  0  0  0  0
  -29.5800   32.1760   17.5730 C   0  0  0  0  0
  -23.6064   16.7883   19.5927 H   0  0  0  0  0
  -24.6392   18.6097   20.1920 H   0  0  0  0  0
  -26.9446   28.4157   19.7447 H   0  0  0  0  0
  -28.3409   30.4069   19.1351 H   0  0  0  0  0
  -28.0645   29.3290   14.9550 H   0  0  0  0  0
  -26.7022   27.3550   15.5609 H   0  0  0  0  0
  -25.4372   26.1395   20.1146 H   0  0  0  0  0
  -23.4678   24.7010   18.0445 H   0  0  0  0  0
  -23.3800   22.1596   18.1046 H   0  0  0  0  0
  -25.1418   20.8842   20.2024 H   0  0  0  0  0
  -23.1084   26.9895   18.2444 H   0  0  0  0  0
  -23.9397   28.0820   19.3786 H   0  0  0  0  0
  -22.9588   26.7319   20.0000 H   0  0  0  0  0
  -25.4718   23.7706   21.2442 H   0  0  0  0  0
  -26.7184   23.6907   19.9751 H   0  0  0  0  0
  -25.8876   22.2063   20.5018 H   0  0  0  0  0
  -28.6505   31.4105   14.5808 H   0  0  0  0  0
  -30.1259   30.4690   14.9089 H   0  0  0  0  0
  -30.1345   32.2379   15.1139 H   0  0  0  0  0
  -30.1925   31.6938   18.3349 H   0  0  0  0  0
  -28.7169   32.6472   18.0434 H   0  0  0  0  0
  -30.1706   32.9315   17.0548 H   0  0  0  0  0
  4  1  1  0  0  0
 18  2  2  0  0  0
 12  3  2  0  0  0
 18  4  1  0  0  0
  9  5  1  0  0  0
  5 21  1  0  0  0
  5 22  1  0  0  0
  6  7  4  0  0  0
  6 11  4  0  0  0
 12  6  1  0  0  0
  7  8  4  0  0  0
  8  9  4  0  0  0
 10  9  4  0  0  0
 11 10  4  0  0  0
 13 12  1  0  0  0
 14 13  1  0  0  0
 13 19  1  0  0  0
 15 14  2  0  0  0
 16 15  1  0  0  0
 15 20  1  0  0  0
 17 16  2  0  0  0
 17 18  1  0  0  0
  1 23  1  0  0  0
  4 24  1  0  0  0
  7 25  1  0  0  0
  8 26  1  0  0  0
 10 27  1  0  0  0
 11 28  1  0  0  0
 13 29  1  0  0  0
 14 30  1  0  0  0
 16 31  1  0  0  0
 17 32  1  0  0  0
 19 33  1  0  0  0
 19 34  1  0  0  0
 19 35  1  0  0  0
 20 36  1  0  0  0
 20 37  1  0  0  0
 20 38  1  0  0  0
 21 39  1  0  0  0
 21 40  1  0  0  0
 21 41  1  0  0  0
 22 42  1  0  0  0
 22 43  1  0  0  0
 22 44  1  0  0  0
M  END
$$$$
