4lgu_ligand
  -I-interpret- 

 83 87  0  0  0  0  0  0  0  0999 V2000
   23.7850   -5.8610  -10.9070 N   0  3  0  0  0
   25.2260   -6.0880  -10.7120 C   0  0  0  0  0
   23.1100   -7.0420  -11.4580 C   0  0  0  0  0
   21.5960   -6.8540  -11.5310 C   0  0  0  0  0
   23.5690   -7.3530  -12.8500 C   0  0  0  0  0
   24.0170   -6.5020  -13.5800 O   0  0  0  0  0
   23.4320   -8.6090  -13.2650 N   0  0  0  0  0
   23.8630   -9.0650  -14.5640 C   0  0  0  0  0
   22.7090   -9.8280  -15.1760 C   0  0  0  0  0
   21.8500  -10.2440  -14.4290 O   0  0  0  0  0
   25.0390   -9.9050  -14.0430 C   0  0  0  0  0
   24.9350  -11.4170  -14.2730 C   0  0  0  0  0
   26.0560  -12.1570  -13.5270 C   0  0  0  0  0
   27.4320  -11.4630  -13.3890 C   0  0  0  0  0
   27.5320   -9.9510  -13.6880 C   0  0  0  0  0
   26.3740   -9.3450  -14.5060 C   0  0  0  0  0
   22.5780  -10.0200  -16.5090 N   0  0  0  0  0
   23.6230   -9.5560  -17.4660 C   0  0  0  0  0
   23.0300   -9.2730  -18.8410 C   0  0  0  0  0
   24.0980   -9.2820  -19.9520 C   0  0  0  0  0
   23.2610   -9.6120  -21.2220 C   0  0  0  0  0
   21.8500   -9.9590  -20.6600 C   0  0  0  0  0
   22.1200  -10.3620  -19.2590 N   0  3  0  0  0
   20.9290  -10.4760  -18.4140 C   0  0  0  0  0
   21.4100  -10.7970  -16.9530 C   0  0  0  0  0
   21.7630  -12.2600  -16.8110 C   0  0  0  0  0
   22.9200  -12.6940  -16.7380 O   0  0  0  0  0
   20.7180  -13.0750  -16.7300 N   0  0  0  0  0
   20.8380  -14.5130  -16.5850 C   0  0  0  0  0
   20.8340  -15.0420  -18.0220 C   0  0  0  0  0
   20.4930  -16.5310  -17.9710 C   0  0  0  0  0
   19.1460  -16.6230  -17.4930 O   0  0  0  0  0
   18.8450  -16.0160  -16.3020 C   0  0  0  0  0
   17.7220  -16.4390  -15.5720 C   0  0  0  0  0
   17.4090  -15.8220  -14.3670 C   0  0  0  0  0
   18.2100  -14.7950  -13.8780 C   0  0  0  0  0
   19.3130  -14.3810  -14.6050 C   0  0  0  0  0
   19.6270  -14.9820  -15.8170 C   0  0  0  0  0
   23.6704   -5.0920  -11.5672 H   0  0  0  0  0
   23.3700   -5.6519   -9.9990 H   0  0  0  0  0
   25.3715   -6.9171  -10.0195 H   0  0  0  0  0
   25.6876   -6.3278  -11.6699 H   0  0  0  0  0
   25.6824   -5.1867  -10.3028 H   0  0  0  0  0
   23.3642   -7.8556  -10.7786 H   0  0  0  0  0
   21.3654   -6.0330  -12.2099 H   0  0  0  0  0
   21.1346   -7.7709  -11.8977 H   0  0  0  0  0
   21.2113   -6.6244  -10.5373 H   0  0  0  0  0
   23.0006   -9.2837  -12.6332 H   0  0  0  0  0
   24.1434   -8.3690  -15.3546 H   0  0  0  0  0
   24.9776   -9.8079  -12.9591 H   0  0  0  0  0
   25.0284  -11.6188  -15.3401 H   0  0  0  0  0
   23.9724  -11.7654  -13.8987 H   0  0  0  0  0
   26.2466  -13.0544  -14.1156 H   0  0  0  0  0
   25.6913  -12.2734  -12.5064 H   0  0  0  0  0
   28.0674  -11.9421  -14.1338 H   0  0  0  0  0
   27.6954  -11.5620  -12.3359 H   0  0  0  0  0
   28.4327   -9.8166  -14.2870 H   0  0  0  0  0
   27.5205   -9.4467  -12.7217 H   0  0  0  0  0
   26.3708   -8.2641  -14.3651 H   0  0  0  0  0
   26.5160   -9.5958  -15.5572 H   0  0  0  0  0
   24.3732  -10.3403  -17.5669 H   0  0  0  0  0
   24.0608   -8.6350  -17.0812 H   0  0  0  0  0
   22.5421   -8.3040  -18.7353 H   0  0  0  0  0
   24.8978   -9.9998  -19.7695 H   0  0  0  0  0
   24.6398   -8.3395  -20.0309 H   0  0  0  0  0
   23.6898  -10.4310  -21.7994 H   0  0  0  0  0
   23.2332   -8.7813  -21.9272 H   0  0  0  0  0
   21.3563  -10.7451  -21.2313 H   0  0  0  0  0
   21.1580   -9.1194  -20.7255 H   0  0  0  0  0
   22.5045  -11.3028  -19.1725 H   0  0  0  0  0
   20.2770  -11.2683  -18.7817 H   0  0  0  0  0
   20.3610   -9.5458  -18.4309 H   0  0  0  0  0
   20.5627  -10.5204  -16.3255 H   0  0  0  0  0
   19.7832  -12.6691  -16.7719 H   0  0  0  0  0
   21.7286  -14.8492  -16.0541 H   0  0  0  0  0
   21.8106  -14.8931  -18.4827 H   0  0  0  0  0
   20.0978  -14.5056  -18.6206 H   0  0  0  0  0
   21.1781  -17.0662  -17.3135 H   0  0  0  0  0
   20.5899  -16.9877  -18.9560 H   0  0  0  0  0
   17.0979  -17.2489  -15.9497 H   0  0  0  0  0
   16.5333  -16.1436  -13.8032 H   0  0  0  0  0
   17.9703  -14.3187  -12.9273 H   0  0  0  0  0
   19.9407  -13.5760  -14.2227 H   0  0  0  0  0
  1  2  1  0  0  0
  1  3  1  0  0  0
  3  4  1  0  0  0
  3  5  1  0  0  0
  5  6  2  0  0  0
  5  7  1  0  0  0
  7  8  1  0  0  0
  8  9  1  0  0  0
  8 11  1  0  0  0
  9 10  2  0  0  0
  9 17  1  0  0  0
 11 12  1  0  0  0
 11 16  1  0  0  0
 12 13  1  0  0  0
 13 14  1  0  0  0
 14 15  1  0  0  0
 15 16  1  0  0  0
 17 18  1  0  0  0
 17 25  1  0  0  0
 18 19  1  0  0  0
 19 20  1  0  0  0
 19 23  1  0  0  0
 20 21  1  0  0  0
 21 22  1  0  0  0
 22 23  1  0  0  0
 23 24  1  0  0  0
 24 25  1  0  0  0
 25 26  1  0  0  0
 26 27  2  0  0  0
 26 28  1  0  0  0
 28 29  1  0  0  0
 29 30  1  0  0  0
 29 38  1  0  0  0
 30 31  1  0  0  0
 31 32  1  0  0  0
 32 33  1  0  0  0
 33 34  4  0  0  0
 33 38  4  0  0  0
 34 35  4  0  0  0
 35 36  4  0  0  0
 36 37  4  0  0  0
 37 38  4  0  0  0
  1 39  1  0  0  0
  1 40  1  0  0  0
  2 41  1  0  0  0
  2 42  1  0  0  0
  2 43  1  0  0  0
  3 44  1  0  0  0
  4 45  1  0  0  0
  4 46  1  0  0  0
  4 47  1  0  0  0
  7 48  1  0  0  0
  8 49  1  0  0  0
 11 50  1  0  0  0
 12 51  1  0  0  0
 12 52  1  0  0  0
 13 53  1  0  0  0
 13 54  1  0  0  0
 14 55  1  0  0  0
 14 56  1  0  0  0
 15 57  1  0  0  0
 15 58  1  0  0  0
 16 59  1  0  0  0
 16 60  1  0  0  0
 18 61  1  0  0  0
 18 62  1  0  0  0
 19 63  1  0  0  0
 20 64  1  0  0  0
 20 65  1  0  0  0
 21 66  1  0  0  0
 21 67  1  0  0  0
 22 68  1  0  0  0
 22 69  1  0  0  0
 23 70  1  0  0  0
 24 71  1  0  0  0
 24 72  1  0  0  0
 25 73  1  0  0  0
 28 74  1  0  0  0
 29 75  1  0  0  0
 30 76  1  0  0  0
 30 77  1  0  0  0
 31 78  1  0  0  0
 31 79  1  0  0  0
 34 80  1  0  0  0
 35 81  1  0  0  0
 36 82  1  0  0  0
 37 83  1  0  0  0
M  END
$$$$
