2vv9_ligand
  -I-interpret- 

 61 64  0  0  0  0  0  0  0  0999 V2000
    0.1430   27.8850   11.7300 C   0  0  0  0  0
   -0.2850   27.8580   10.2590 C   0  0  0  0  0
   -0.5410   26.4200    9.8130 C   0  0  0  0  0
   -1.4660   28.7070   10.0580 N   0  0  0  0  0
   -2.6860   28.5470   10.6050 C   0  0  0  0  0
   -3.0600   27.4100   11.5270 C   0  0  0  0  0
   -3.4770   29.5310   10.2210 N   0  0  0  0  0
   -2.8090   30.3540    9.4030 C   0  0  0  0  0
   -1.5400   29.8640    9.2960 C   0  0  0  0  0
   -0.4490   30.4510    8.4960 C   0  0  0  0  0
   -0.4440   31.8430    8.2470 C   0  0  0  0  0
    0.5960   32.3380    7.4780 C   0  0  0  0  0
    1.5450   31.5190    7.0220 N   0  0  0  0  0
    1.5440   30.2190    7.3010 C   0  0  0  0  0
    2.6180   29.5230    6.7600 N   0  0  0  0  0
    3.0890   28.2370    7.0170 C   0  0  0  0  0
    2.6380   27.4060    8.0430 C   0  0  0  0  0
    3.2010   26.1370    8.1780 C   0  0  0  0  0
    4.2020   25.6810    7.3260 C   0  0  0  0  0
    4.6660   26.5170    6.3170 C   0  0  0  0  0
    4.1070   27.7820    6.1860 C   0  0  0  0  0
    4.7890   24.4050    7.4980 N   0  0  0  0  0
    4.0950   23.6010    8.5120 C   0  0  0  0  0
    4.9130   22.3380    8.7680 C   0  0  0  0  0
    5.1630   21.6640    7.4750 N   0  0  0  0  0
    5.7820   22.4540    6.3990 C   0  0  0  0  0
    4.8900   23.6990    6.2130 C   0  0  0  0  0
    4.8460   20.3640    7.2700 C   0  0  0  0  0
    5.1040   19.8400    6.1920 O   0  0  0  0  0
    4.1920   19.5550    8.3640 C   0  0  0  0  0
    4.0100   18.1830    7.9730 O   0  0  0  0  0
    0.5460   29.6620    8.0220 N   0  0  0  0  0
    0.3855   28.9080   12.0178 H   0  0  0  0  0
   -0.6727   27.5150   12.3512 H   0  0  0  0  0
    1.0196   27.2511   11.8637 H   0  0  0  0  0
    0.5192   28.2595    9.6424 H   0  0  0  0  0
   -1.3663   26.0033   10.3904 H   0  0  0  0  0
   -0.7956   26.4095    8.7532 H   0  0  0  0  0
    0.3568   25.8244    9.9782 H   0  0  0  0  0
   -2.9240   26.4620   11.0064 H   0  0  0  0  0
   -2.4222   27.4355   12.4105 H   0  0  0  0  0
   -4.1027   27.5150   11.8269 H   0  0  0  0  0
   -3.2036   31.2455    8.9155 H   0  0  0  0  0
   -1.2224   32.4959    8.6419 H   0  0  0  0  0
    0.6393   33.4018    7.2443 H   0  0  0  0  0
    3.1496   30.0387    6.0587 H   0  0  0  0  0
    1.8592   27.7426    8.7272 H   0  0  0  0  0
    2.8462   25.4831    8.9747 H   0  0  0  0  0
    5.4542   26.1860    5.6408 H   0  0  0  0  0
    4.4800   28.4422    5.4030 H   0  0  0  0  0
    3.0986   23.3349    8.1592 H   0  0  0  0  0
    3.9921   24.1722    9.4346 H   0  0  0  0  0
    4.3651   21.6707    9.4333 H   0  0  0  0  0
    5.8609   22.5999    9.2382 H   0  0  0  0  0
    5.8497   21.8772    5.4766 H   0  0  0  0  0
    6.8030   22.7364    6.6557 H   0  0  0  0  0
    5.3270   24.3579    5.4627 H   0  0  0  0  0
    3.8977   23.3960    5.8788 H   0  0  0  0  0
    3.2127   19.9861    8.5719 H   0  0  0  0  0
    4.8370   19.5796    9.2423 H   0  0  0  0  0
    3.5931   17.6997    8.6901 H   0  0  0  0  0
  1  2  1  0  0  0
  2  3  1  0  0  0
  2  4  1  0  0  0
  4  5  4  0  0  0
  4  9  4  0  0  0
  5  6  1  0  0  0
  5  7  4  0  0  0
  7  8  4  0  0  0
  8  9  4  0  0  0
  9 10  1  0  0  0
 10 11  4  0  0  0
 10 32  4  0  0  0
 11 12  4  0  0  0
 12 13  4  0  0  0
 13 14  4  0  0  0
 14 15  1  0  0  0
 14 32  4  0  0  0
 15 16  1  0  0  0
 16 17  4  0  0  0
 16 21  4  0  0  0
 17 18  4  0  0  0
 18 19  4  0  0  0
 19 20  4  0  0  0
 19 22  1  0  0  0
 20 21  4  0  0  0
 22 23  1  0  0  0
 22 27  1  0  0  0
 23 24  1  0  0  0
 24 25  1  0  0  0
 25 26  1  0  0  0
 25 28  1  0  0  0
 26 27  1  0  0  0
 28 29  2  0  0  0
 28 30  1  0  0  0
 30 31  1  0  0  0
  1 33  1  0  0  0
  1 34  1  0  0  0
  1 35  1  0  0  0
  2 36  1  0  0  0
  3 37  1  0  0  0
  3 38  1  0  0  0
  3 39  1  0  0  0
  6 40  1  0  0  0
  6 41  1  0  0  0
  6 42  1  0  0  0
  8 43  1  0  0  0
 11 44  1  0  0  0
 12 45  1  0  0  0
 15 46  1  0  0  0
 17 47  1  0  0  0
 18 48  1  0  0  0
 20 49  1  0  0  0
 21 50  1  0  0  0
 23 51  1  0  0  0
 23 52  1  0  0  0
 24 53  1  0  0  0
 24 54  1  0  0  0
 26 55  1  0  0  0
 26 56  1  0  0  0
 27 57  1  0  0  0
 27 58  1  0  0  0
 30 59  1  0  0  0
 30 60  1  0  0  0
 31 61  1  0  0  0
M  END
$$$$
