3sw8_ligand
  -I-interpret- 

 27 27  0  0  0  0  0  0  0  0999 V2000
   25.1390   -6.8630    8.6880 C   0  0  0  0  0
   25.5200   -6.5720    7.4010 C   0  0  0  0  0
   25.2860   -5.9250    9.6850 C   0  0  0  0  0
   26.0490   -5.3380    7.0960 C   0  0  0  0  0
   25.8190   -4.6970    9.3710 C   0  0  0  0  0
   26.2050   -4.3880    8.0830 C   0  0  0  0  0
   29.5190   -2.1860    4.8800 C   0  0  0  0  0
   26.4350   -5.0900    5.6920 C   0  0  0  0  0
   28.1300   -5.4320    3.9910 C   0  0  0  0  0
   28.3030   -3.9790    3.5930 C   0  0  0  0  0
   27.6670   -5.5680    5.3510 N   0  0  0  0  0
   29.4470   -3.3960    4.2480 N   0  0  0  0  0
   30.5110   -1.7200    5.4180 O   0  0  0  0  0
   25.6800   -4.5330    4.9060 O   0  0  0  0  0
   30.6350   -4.1390    4.2460 O   0  0  0  0  0
   25.9810   -3.5600   10.6490 Cl  0  0  0  0  0
   26.8710   -2.8300    7.7190 Cl  0  0  0  0  0
   24.7183   -7.8411    8.9212 H   0  0  0  0  0
   25.4031   -7.3210    6.6178 H   0  0  0  0  0
   24.9845   -6.1523   10.7075 H   0  0  0  0  0
   28.6106   -1.5841    4.9059 H   0  0  0  0  0
   29.0984   -5.9256    3.9095 H   0  0  0  0  0
   27.3869   -5.8801    3.3314 H   0  0  0  0  0
   27.4113   -3.4268    3.8899 H   0  0  0  0  0
   28.4539   -3.9276    2.5147 H   0  0  0  0  0
   28.2559   -6.0178    6.0519 H   0  0  0  0  0
   30.4918   -4.9680    3.7836 H   0  0  0  0  0
  2  1  4  0  0  0
  1  3  4  0  0  0
  4  2  4  0  0  0
  5  3  4  0  0  0
  4  6  4  0  0  0
  8  4  1  0  0  0
  6  5  4  0  0  0
  5 16  1  0  0  0
  6 17  1  0  0  0
 12  7  1  0  0  0
  7 13  2  0  0  0
 11  8  1  0  0  0
  8 14  2  0  0  0
 10  9  1  0  0  0
  9 11  1  0  0  0
 10 12  1  0  0  0
 12 15  1  0  0  0
  1 18  1  0  0  0
  2 19  1  0  0  0
  3 20  1  0  0  0
  7 21  1  0  0  0
  9 22  1  0  0  0
  9 23  1  0  0  0
 10 24  1  0  0  0
 10 25  1  0  0  0
 11 26  1  0  0  0
 15 27  1  0  0  0
M  END
$$$$
