5g4n_ligand
  -I-interpret- 

 37 39  0  0  0  0  0  0  0  0999 V2000
  124.5860  102.9100  -44.0370 C   0  0  0  0  0
  127.3170  102.6330  -41.0550 F   0  0  0  0  0
  124.8920  103.0100  -42.7020 N   0  0  0  0  0
  124.3320  104.2040  -44.4910 C   0  0  0  0  0
  127.0220  100.4930  -41.2170 F   0  0  0  0  0
  123.1270  109.0030  -41.4740 N   0  3  0  0  0
  124.5000  105.0900  -43.3840 C   0  0  0  0  0
  124.8510  104.3160  -42.2740 C   0  0  0  0  0
  124.5120  101.7850  -44.8650 C   0  0  0  0  0
  124.1670  102.0000  -46.1990 C   0  0  0  0  0
  123.9080  103.2760  -46.6790 C   0  0  0  0  0
  123.9860  104.3930  -45.8430 C   0  0  0  0  0
  125.0950  104.8700  -41.0070 C   0  0  0  0  0
  124.9720  106.2580  -40.8830 C   0  0  0  0  0
  124.6190  107.0520  -41.9740 C   0  0  0  0  0
  124.3830  106.4800  -43.2260 C   0  0  0  0  0
  125.2300  101.8810  -41.8580 C   0  0  0  0  0
  126.7290  101.6760  -41.8130 C   0  0  0  0  0
  124.4980  108.5310  -41.8180 C   0  0  0  0  0
  123.1310  110.4820  -41.3060 C   0  0  0  0  0
  122.8281  108.5652  -40.6026 H   0  0  0  0  0
  122.4848  108.7504  -42.2251 H   0  0  0  0  0
  124.7151  100.7841  -44.4842 H   0  0  0  0  0
  124.0995  101.1496  -46.8775 H   0  0  0  0  0
  123.6389  103.4094  -47.7268 H   0  0  0  0  0
  123.7829  105.3916  -46.2299 H   0  0  0  0  0
  125.3685  104.2454  -40.1566 H   0  0  0  0  0
  125.1553  106.7274  -39.9165 H   0  0  0  0  0
  124.1100  107.1080  -44.0740 H   0  0  0  0  0
  124.7639  100.9842  -42.2661 H   0  0  0  0  0
  124.8707  102.0765  -40.8476 H   0  0  0  0  0
  127.0902  101.7081  -42.8409 H   0  0  0  0  0
  125.1520  108.8207  -40.9955 H   0  0  0  0  0
  124.7584  108.9765  -42.7781 H   0  0  0  0  0
  123.8182  110.7535  -40.5047 H   0  0  0  0  0
  123.4518  110.9512  -42.2361 H   0  0  0  0  0
  122.1259  110.8206  -41.0547 H   0  0  0  0  0
  3  1  4  0  0  0
  1  4  4  0  0  0
  1  9  4  0  0  0
 18  2  1  0  0  0
  3  8  4  0  0  0
 17  3  1  0  0  0
  7  4  4  0  0  0
  4 12  4  0  0  0
 18  5  1  0  0  0
 19  6  1  0  0  0
  6 20  1  0  0  0
  8  7  4  0  0  0
  7 16  4  0  0  0
  8 13  4  0  0  0
  9 10  4  0  0  0
 10 11  4  0  0  0
 12 11  4  0  0  0
 13 14  4  0  0  0
 14 15  4  0  0  0
 16 15  4  0  0  0
 15 19  1  0  0  0
 17 18  1  0  0  0
  6 21  1  0  0  0
  6 22  1  0  0  0
  9 23  1  0  0  0
 10 24  1  0  0  0
 11 25  1  0  0  0
 12 26  1  0  0  0
 13 27  1  0  0  0
 14 28  1  0  0  0
 16 29  1  0  0  0
 17 30  1  0  0  0
 17 31  1  0  0  0
 18 32  1  0  0  0
 19 33  1  0  0  0
 19 34  1  0  0  0
 20 35  1  0  0  0
 20 36  1  0  0  0
 20 37  1  0  0  0
M  END
$$$$
