2wxm_ligand
  -I-interpret- 

 35 37  0  0  0  0  0  0  0  0999 V2000
   -4.4840   -2.3900   24.1090 C   0  0  0  0  0
   -5.9100   -2.0270   23.6960 C   0  0  0  0  0
   -6.8930   -3.1060   24.1140 C   0  0  0  0  0
   -6.4190   -0.6920   24.1920 N   0  0  0  0  0
   -7.5620   -0.3290   23.8730 N   0  0  0  0  0
   -5.8250    0.2810   24.9200 C   0  0  0  0  0
   -4.6230    0.4490   25.5040 N   0  0  0  0  0
   -4.2880    1.5470   26.1820 C   0  0  0  0  0
   -5.1380    2.5370   26.3280 N   0  0  0  0  0
   -6.3750    2.4660   25.7580 C   0  0  0  0  0
   -7.2180    3.4860   25.8750 N   0  0  0  0  0
   -6.7310    1.3200   25.0380 C   0  0  0  0  0
   -7.8080    0.8930   24.3130 C   0  0  0  0  0
   -9.0470    1.5480   24.1570 C   0  0  0  0  0
  -10.1100    1.9990   23.9460 C   0  0  0  0  0
  -11.3890    2.4550   23.6400 C   0  0  0  0  0
  -11.9760    3.4370   24.4120 C   0  0  0  0  0
  -13.2480    3.8660   24.0550 C   0  0  0  0  0
  -13.8810    3.2860   22.9650 C   0  0  0  0  0
  -13.2930    2.3490   22.2520 N   0  0  0  0  0
  -12.0790    1.9050   22.5670 C   0  0  0  0  0
   -3.7937   -1.6385   23.7258 H   0  0  0  0  0
   -4.4195   -2.4236   25.1966 H   0  0  0  0  0
   -4.2254   -3.3659   23.6981 H   0  0  0  0  0
   -5.8467   -1.9457   22.6109 H   0  0  0  0  0
   -6.9748   -3.1199   25.2008 H   0  0  0  0  0
   -7.8693   -2.8951   23.6776 H   0  0  0  0  0
   -6.5382   -4.0749   23.7626 H   0  0  0  0  0
   -3.2936    1.6240   26.6217 H   0  0  0  0  0
   -6.9398    4.3210   26.3906 H   0  0  0  0  0
   -8.1434    3.4342   25.4492 H   0  0  0  0  0
  -11.4590    3.8615   25.2726 H   0  0  0  0  0
  -13.7442    4.6509   24.6258 H   0  0  0  0  0
  -14.8849    3.6128   22.6939 H   0  0  0  0  0
  -11.6240    1.1066   21.9809 H   0  0  0  0  0
  1  2  1  0  0  0
  2  3  1  0  0  0
  2  4  1  0  0  0
  4  5  4  0  0  0
  4  6  4  0  0  0
  5 13  4  0  0  0
  6  7  4  0  0  0
  6 12  4  0  0  0
  7  8  4  0  0  0
  8  9  4  0  0  0
  9 10  4  0  0  0
 10 11  1  0  0  0
 10 12  4  0  0  0
 12 13  4  0  0  0
 13 14  1  0  0  0
 14 15  3  0  0  0
 15 16  1  0  0  0
 16 17  4  0  0  0
 16 21  4  0  0  0
 17 18  4  0  0  0
 18 19  4  0  0  0
 19 20  4  0  0  0
 20 21  4  0  0  0
  1 22  1  0  0  0
  1 23  1  0  0  0
  1 24  1  0  0  0
  2 25  1  0  0  0
  3 26  1  0  0  0
  3 27  1  0  0  0
  3 28  1  0  0  0
  8 29  1  0  0  0
 11 30  1  0  0  0
 11 31  1  0  0  0
 17 32  1  0  0  0
 18 33  1  0  0  0
 19 34  1  0  0  0
 21 35  1  0  0  0
M  END
$$$$
