2xyr_ligand
  -I-interpret- 

 52 54  0  0  0  0  0  0  0  0999 V2000
   40.7110   61.3490   -4.3110 N   0  3  0  0  0
   41.1200   60.0970   -3.6060 C   0  0  0  0  0
   39.9600   59.1410   -3.6520 C   0  0  0  0  0
   39.1880   59.1470   -4.6060 O   0  0  0  0  0
   39.7500   58.3140   -2.7670 O   0  0  0  0  0
   41.5570   60.3950   -2.1710 C   0  0  0  0  0
   42.6310   61.4820   -2.1190 C   0  0  0  0  0
   43.4550   61.4620   -0.8310 C   0  0  0  0  0
   42.5750   61.5870    0.3250 N   0  3  0  0  0
   44.4560   62.6150   -0.8400 C   0  0  0  0  0
   45.6380   62.3420   -1.7650 C   0  0  0  0  0
   46.3810   63.5440   -2.0120 O   0  0  0  0  0
   46.6370   61.3350   -1.2050 C   0  0  0  0  0
   46.6020   60.1750   -2.0270 O   0  0  0  0  0
   47.9820   62.0130   -1.3270 C   0  0  0  0  0
   48.9750   61.1290   -1.8450 O   0  0  0  0  0
   47.7180   63.1440   -2.3090 C   0  0  0  0  0
   48.7340   64.2290   -2.2040 N   0  0  0  0  0
   49.0130   64.9800   -1.1320 C   0  0  0  0  0
   50.0160   65.8400   -1.4350 N   0  0  0  0  0
   50.3620   65.6240   -2.7160 C   0  0  0  0  0
   51.3120   66.1980   -3.5640 C   0  0  0  0  0
   52.1180   67.2000   -3.1270 N   0  0  0  0  0
   51.4260   65.7430   -4.8370 N   0  0  0  0  0
   50.6250   64.7460   -5.2640 C   0  0  0  0  0
   49.6970   64.1800   -4.4650 N   0  0  0  0  0
   49.5510   64.6040   -3.1900 C   0  0  0  0  0
   40.4248   61.1233   -5.2636 H   0  0  0  0  0
   39.9313   61.7789   -3.8132 H   0  0  0  0  0
   41.4986   61.9966   -4.3358 H   0  0  0  0  0
   41.9809   59.6467   -4.1001 H   0  0  0  0  0
   40.4145   58.4061   -2.0803 H   0  0  0  0  0
   41.9718   59.4826   -1.7426 H   0  0  0  0  0
   40.6880   60.7449   -1.6138 H   0  0  0  0  0
   42.1249   62.4461   -2.1699 H   0  0  0  0  0
   43.3154   61.3071   -2.9492 H   0  0  0  0  0
   43.9940   60.5166   -0.7696 H   0  0  0  0  0
   43.1330   61.5727    1.1787 H   0  0  0  0  0
   42.0625   62.4670    0.2671 H   0  0  0  0  0
   41.9161   60.8084    0.3350 H   0  0  0  0  0
   44.8389   62.7406    0.1728 H   0  0  0  0  0
   43.9431   63.5076   -1.1983 H   0  0  0  0  0
   45.1874   61.9386   -2.6718 H   0  0  0  0  0
   46.4262   61.0410   -0.1768 H   0  0  0  0  0
   47.2254   59.5270   -1.6907 H   0  0  0  0  0
   48.3638   62.3501   -0.3633 H   0  0  0  0  0
   49.8131   61.5928   -1.9082 H   0  0  0  0  0
   47.8102   62.8448   -3.3531 H   0  0  0  0  0
   48.5121   64.9109   -0.1664 H   0  0  0  0  0
   52.0335   67.5417   -2.1697 H   0  0  0  0  0
   52.8078   67.6108   -3.7561 H   0  0  0  0  0
   50.7306   64.3859   -6.2873 H   0  0  0  0  0
  1  2  1  0  0  0
  2  3  1  0  0  0
  2  6  1  0  0  0
  3  4  2  0  0  0
  3  5  1  0  0  0
  6  7  1  0  0  0
  7  8  1  0  0  0
  8  9  1  0  0  0
  8 10  1  0  0  0
 10 11  1  0  0  0
 11 12  1  0  0  0
 11 13  1  0  0  0
 12 17  1  0  0  0
 13 14  1  0  0  0
 13 15  1  0  0  0
 15 16  1  0  0  0
 15 17  1  0  0  0
 17 18  1  0  0  0
 18 19  4  0  0  0
 18 27  4  0  0  0
 19 20  4  0  0  0
 20 21  4  0  0  0
 21 22  4  0  0  0
 21 27  4  0  0  0
 22 23  1  0  0  0
 22 24  4  0  0  0
 24 25  4  0  0  0
 25 26  4  0  0  0
 26 27  4  0  0  0
  1 28  1  0  0  0
  1 29  1  0  0  0
  1 30  1  0  0  0
  2 31  1  0  0  0
  5 32  1  0  0  0
  6 33  1  0  0  0
  6 34  1  0  0  0
  7 35  1  0  0  0
  7 36  1  0  0  0
  8 37  1  0  0  0
  9 38  1  0  0  0
  9 39  1  0  0  0
  9 40  1  0  0  0
 10 41  1  0  0  0
 10 42  1  0  0  0
 11 43  1  0  0  0
 13 44  1  0  0  0
 14 45  1  0  0  0
 15 46  1  0  0  0
 16 47  1  0  0  0
 17 48  1  0  0  0
 19 49  1  0  0  0
 23 50  1  0  0  0
 23 51  1  0  0  0
 25 52  1  0  0  0
M  END
$$$$
