6te6_ligand
  -I-interpret- 

 52 55  0  0  0  0  0  0  0  0999 V2000
   31.5880  -10.4790   10.7210 C   0  0  0  0  0
   31.3270  -10.9550    9.4230 C   0  0  0  0  0
   30.1390  -11.6180    9.1400 C   0  0  0  0  0
   26.6780  -11.1420    9.0800 C   0  0  0  0  0
   33.8620   -9.8110   10.0460 C   0  0  0  0  0
   35.2020   -9.5050   10.7180 C   0  0  0  0  0
   36.2870   -8.5900   12.6320 C   0  0  0  0  0
   37.5470   -8.8450   12.0710 C   0  0  0  0  0
   37.6150   -9.4380   10.7990 C   0  0  0  0  0
   36.4380   -9.7880   10.1130 C   0  0  0  0  0
   33.5890   -8.6600    9.0590 C   0  0  0  0  0
   33.1070   -7.4120    9.4950 C   0  0  0  0  0
   32.9240   -6.3460    8.5750 C   0  0  0  0  0
   33.2530   -6.5300    7.2210 C   0  0  0  0  0
   33.7900   -7.7680    6.7970 C   0  0  0  0  0
   33.9430   -8.8250    7.7100 C   0  0  0  0  0
   30.5390  -10.4270   14.2270 C   0  0  0  0  0
   30.6100   -9.8940   16.5530 C   0  0  0  0  0
   29.8560  -11.0470   16.8500 C   0  0  0  0  0
   29.1740  -11.7440   10.1500 C   0  0  0  0  0
   29.4020  -11.2360   11.4320 C   0  0  0  0  0
   30.6290  -10.6120   11.7400 C   0  0  0  0  0
   32.7840   -9.9340   11.0160 N   0  0  0  0  0
   27.6400  -12.5140    9.7520 S   0  0  0  0  0
   27.0690  -12.9410   11.0240 O   0  0  0  0  0
   27.9040  -13.4820    8.7160 O   0  0  0  0  0
   35.1690   -8.9240   11.9420 N   0  0  0  0  0
   34.2170   -8.0640    5.1140 Cl  0  0  0  0  0
   30.8990  -10.0480   12.9650 N   0  0  0  0  0
   30.9220   -9.6150   15.2530 N   0  0  0  0  0
   29.4620  -11.8720   15.7730 C   0  0  0  0  0
   29.8030  -11.5410   14.4960 N   0  0  0  0  0
   32.0625  -10.8025    8.6331 H   0  0  0  0  0
   29.9599  -12.0337    8.1484 H   0  0  0  0  0
   25.6484  -11.4640    8.9237 H   0  0  0  0  0
   26.6967  -10.3085    9.7822 H   0  0  0  0  0
   27.1101  -10.8280    8.1298 H   0  0  0  0  0
   33.9088  -10.7696    9.5292 H   0  0  0  0  0
   36.2074   -8.1267   13.6154 H   0  0  0  0  0
   38.4574   -8.5877   12.6123 H   0  0  0  0  0
   38.5857   -9.6279   10.3411 H   0  0  0  0  0
   36.4838  -10.2674    9.1352 H   0  0  0  0  0
   32.8719   -7.2622   10.5487 H   0  0  0  0  0
   32.5301   -5.3891    8.9174 H   0  0  0  0  0
   33.0956   -5.7249    6.5032 H   0  0  0  0  0
   34.3398   -9.7810    7.3684 H   0  0  0  0  0
   30.9409   -9.2315   17.3529 H   0  0  0  0  0
   29.5858  -11.2940   17.8767 H   0  0  0  0  0
   28.6294  -11.3223   12.1960 H   0  0  0  0  0
   32.9415   -9.5914   11.9637 H   0  0  0  0  0
   31.4656   -9.2008   12.9241 H   0  0  0  0  0
   28.8836  -12.7759   15.9641 H   0  0  0  0  0
  1  2  4  0  0  0
 22  1  4  0  0  0
  1 23  1  0  0  0
  2  3  4  0  0  0
 20  3  4  0  0  0
 24  4  1  0  0  0
  5  6  1  0  0  0
  5 11  1  0  0  0
 23  5  1  0  0  0
  6 10  4  0  0  0
  6 27  4  0  0  0
  7  8  4  0  0  0
 27  7  4  0  0  0
  9  8  4  0  0  0
 10  9  4  0  0  0
 11 12  4  0  0  0
 11 16  4  0  0  0
 12 13  4  0  0  0
 13 14  4  0  0  0
 15 14  4  0  0  0
 16 15  4  0  0  0
 15 28  1  0  0  0
 29 17  1  0  0  0
 17 30  4  0  0  0
 17 32  4  0  0  0
 18 19  4  0  0  0
 30 18  4  0  0  0
 19 31  4  0  0  0
 21 20  4  0  0  0
 20 24  1  0  0  0
 22 21  4  0  0  0
 22 29  1  0  0  0
 24 25  2  0  0  0
 24 26  2  0  0  0
 31 32  4  0  0  0
  2 33  1  0  0  0
  3 34  1  0  0  0
  4 35  1  0  0  0
  4 36  1  0  0  0
  4 37  1  0  0  0
  5 38  1  0  0  0
  7 39  1  0  0  0
  8 40  1  0  0  0
  9 41  1  0  0  0
 10 42  1  0  0  0
 12 43  1  0  0  0
 13 44  1  0  0  0
 14 45  1  0  0  0
 16 46  1  0  0  0
 18 47  1  0  0  0
 19 48  1  0  0  0
 21 49  1  0  0  0
 23 50  1  0  0  0
 29 51  1  0  0  0
 31 52  1  0  0  0
M  END
$$$$
