2a29_ligand
  -I-interpret- 

 48 50  0  0  0  0  0  0  0  0999 V2000
  116.3370   -0.2220   -9.9420 P   0  0  0  0  0
  115.6550   -1.5310  -10.2470 O   0  0  0  0  0
  117.4230    0.0700  -10.9460 O   0  0  0  0  0
  116.8790   -0.2050   -8.5360 O   0  0  0  0  0
  115.4260    2.1870   -9.0350 P   0  0  0  0  0
  115.7610    1.6300   -7.6800 O   0  0  0  0  0
  116.5190    3.0670   -9.5700 O   0  0  0  0  0
  115.2340    0.9470  -10.0550 N   0  0  0  0  0
  113.7340    4.4110   -8.5360 P   0  0  0  0  0
  114.9620    4.8990   -7.8650 O   0  0  0  0  0
  113.2250    5.2460   -9.6500 O   0  0  0  0  0
  113.9820    2.9030   -9.0700 O   0  0  0  0  0
  112.5630    4.2190   -7.4350 O   0  0  0  0  0
  112.4810    3.0640   -6.5690 C   0  0  0  0  0
  111.8170    3.4490   -5.2550 C   0  0  0  0  0
  110.3880    3.2260   -5.3930 O   0  0  0  0  0
  112.3360    2.4100   -4.2800 C   0  0  0  0  0
  113.5560    2.8130   -3.6720 O   0  0  0  0  0
  111.2200    2.3460   -3.2720 C   0  0  0  0  0
  111.3940    3.3050   -2.2370 O   0  0  0  0  0
  109.9820    2.6670   -4.1090 C   0  0  0  0  0
  109.2100    1.4100   -4.4050 N   0  0  0  0  0
  109.7340    0.1780   -4.4510 C   0  0  0  0  0
  108.7870   -0.7230   -4.7280 N   0  0  0  0  0
  107.6430   -0.0700   -4.8650 C   0  0  0  0  0
  106.2920   -0.4270   -5.1400 C   0  0  0  0  0
  105.9550   -1.6990   -5.3200 N   0  0  0  0  0
  105.3250    0.5500   -5.2080 N   0  0  0  0  0
  105.5970    1.8790   -5.0190 C   0  0  0  0  0
  106.8860    2.2370   -4.7600 N   0  0  0  0  0
  107.9090    1.3070   -4.6650 C   0  0  0  0  0
  115.3202   -1.5141  -11.1466 H   0  0  0  0  0
  117.0518    0.0531  -11.8312 H   0  0  0  0  0
  115.0389    1.0754   -7.3758 H   0  0  0  0  0
  114.4660    0.9075  -10.7251 H   0  0  0  0  0
  112.4324    4.8443  -10.0132 H   0  0  0  0  0
  113.4859    2.6922   -6.3689 H   0  0  0  0  0
  111.8899    2.2893   -7.0574 H   0  0  0  0  0
  112.0105    4.4795   -4.9572 H   0  0  0  0  0
  112.5687    1.4540   -4.7491 H   0  0  0  0  0
  113.8500    2.1306   -3.0641 H   0  0  0  0  0
  111.1641    1.3833   -2.7639 H   0  0  0  0  0
  110.6671    3.2369   -1.6137 H   0  0  0  0  0
  109.3700    3.3713   -3.5455 H   0  0  0  0  0
  110.7855   -0.0566   -4.2856 H   0  0  0  0  0
  106.6659   -2.4281   -5.2616 H   0  0  0  0  0
  104.9853   -1.9468   -5.5166 H   0  0  0  0  0
  104.8065    2.6274   -5.0741 H   0  0  0  0  0
  1  2  1  0  0  0
  1  3  1  0  0  0
  1  4  2  0  0  0
  8  1  1  0  0  0
  5  6  1  0  0  0
  5  7  2  0  0  0
  5  8  1  0  0  0
 12  5  1  0  0  0
  9 10  2  0  0  0
  9 11  1  0  0  0
  9 12  1  0  0  0
  9 13  1  0  0  0
 13 14  1  0  0  0
 14 15  1  0  0  0
 15 16  1  0  0  0
 15 17  1  0  0  0
 16 21  1  0  0  0
 17 18  1  0  0  0
 17 19  1  0  0  0
 19 20  1  0  0  0
 19 21  1  0  0  0
 21 22  1  0  0  0
 22 23  4  0  0  0
 22 31  4  0  0  0
 23 24  4  0  0  0
 24 25  4  0  0  0
 25 26  4  0  0  0
 25 31  4  0  0  0
 26 27  1  0  0  0
 26 28  4  0  0  0
 28 29  4  0  0  0
 29 30  4  0  0  0
 30 31  4  0  0  0
  2 32  1  0  0  0
  3 33  1  0  0  0
  6 34  1  0  0  0
  8 35  1  0  0  0
 11 36  1  0  0  0
 14 37  1  0  0  0
 14 38  1  0  0  0
 15 39  1  0  0  0
 17 40  1  0  0  0
 18 41  1  0  0  0
 19 42  1  0  0  0
 20 43  1  0  0  0
 21 44  1  0  0  0
 23 45  1  0  0  0
 27 46  1  0  0  0
 27 47  1  0  0  0
 29 48  1  0  0  0
M  END
$$$$
