### 
### Created by X-TOOL on Mon Sep 10 21:12:53 2018
### 

@<TRIPOS>MOLECULE
2a29_ligand
   44    46     1     0     0
SMALL
GAST_HUCK


@<TRIPOS>ATOM
      1 PG        116.3370   -0.2220   -9.9420 P.3       1 ANP         0.1626
      2 O1G       115.6550   -1.5310  -10.2470 O.co2     1 ANP        -0.5485
      3 O2G       117.4230    0.0700  -10.9460 O.co2     1 ANP        -0.5485
      4 O3G       116.8790   -0.2050   -8.5360 O.co2     1 ANP        -0.5485
      5 PB        115.4260    2.1870   -9.0350 P.3       1 ANP         0.2597
      6 O1B       115.7610    1.6300   -7.6800 O.co2     1 ANP        -0.6016
      7 O2B       116.5190    3.0670   -9.5700 O.co2     1 ANP        -0.6016
      8 N3B       115.2340    0.9470  -10.0550 N.am      1 ANP        -0.1887
      9 PA        113.7340    4.4110   -8.5360 P.3       1 ANP         0.2975
     10 O1A       114.9620    4.8990   -7.8650 O.co2     1 ANP        -0.6125
     11 O2A       113.2250    5.2460   -9.6500 O.co2     1 ANP        -0.6125
     12 O3A       113.9820    2.9030   -9.0700 O.3       1 ANP        -0.1398
     13 O5        112.5630    4.2190   -7.4350 O.3       1 ANP        -0.2475
     14 C5        112.4810    3.0640   -6.5690 C.3       1 ANP         0.1128
     15 C4        111.8170    3.4490   -5.2550 C.3       1 ANP         0.1189
     16 O4        110.3880    3.2260   -5.3930 O.3       1 ANP        -0.3364
     17 C3        112.3360    2.4100   -4.2800 C.3       1 ANP         0.1149
     18 O3        113.5560    2.8130   -3.6720 O.3       1 ANP        -0.3864
     19 C2        111.2200    2.3460   -3.2720 C.3       1 ANP         0.1385
     20 O2        111.3940    3.3050   -2.2370 O.3       1 ANP        -0.3836
     21 C1        109.9820    2.6670   -4.1090 C.3       1 ANP         0.2010
     22 N9        109.2100    1.4100   -4.4050 N.pl3     1 ANP        -0.1919
     23 C8        109.7340    0.1780   -4.4510 C.2       1 ANP         0.1123
     24 N7        108.7870   -0.7230   -4.7280 N.2       1 ANP        -0.2958
     25 C5        107.6430   -0.0700   -4.8650 C.ar      1 ANP         0.1045
     26 C6        106.2920   -0.4270   -5.1400 C.ar      1 ANP         0.1298
     27 N6        105.9550   -1.6990   -5.3200 N.pl3     1 ANP        -0.3152
     28 N1        105.3250    0.5500   -5.2080 N.ar      1 ANP        -0.2698
     29 C2        105.5970    1.8790   -5.0190 C.ar      1 ANP         0.0533
     30 N3        106.8860    2.2370   -4.7600 N.ar      1 ANP        -0.2714
     31 C4        107.9090    1.3070   -4.6650 C.ar      1 ANP         0.1613
     32 H1        114.4811    0.9083  -10.7120 H         1 ANP         0.1880
     33 H2        113.4942    2.6855   -6.3686 H         1 ANP         0.0648
     34 H3        111.8874    2.2799   -7.0617 H         1 ANP         0.0648
     35 H4        112.0468    4.4797   -4.9472 H         1 ANP         0.0651
     36 H5        112.4812    1.4391   -4.7762 H         1 ANP         0.0648
     37 H6        113.4189    3.6242   -3.1969 H         1 ANP         0.2100
     38 H7        111.1481    1.3415   -2.8296 H         1 ANP         0.0676
     39 H8        112.2145    3.1391   -1.7877 H         1 ANP         0.2101
     40 H9        109.3463    3.3822   -3.5664 H         1 ANP         0.0996
     41 H10       110.7846   -0.0564   -4.2858 H         1 ANP         0.1349
     42 H11       104.9758   -1.9492   -5.5185 H         1 ANP         0.1820
     43 H12       106.6729   -2.4353   -5.2611 H         1 ANP         0.1820
     44 H13       104.8108    2.6233   -5.0738 H         1 ANP         0.0996
@<TRIPOS>BOND
     1    1    2 ar 
     2    1    3 ar 
     3    1    4 ar 
     4    8    1 am 
     5    5    6 ar 
     6    5    7 ar 
     7    5    8 am 
     8   12    5 1  
     9    9   10 ar 
    10    9   11 ar 
    11    9   12 1  
    12    9   13 1  
    13   13   14 1  
    14   14   15 1  
    15   15   16 1  
    16   15   17 1  
    17   16   21 1  
    18   17   18 1  
    19   17   19 1  
    20   19   20 1  
    21   19   21 1  
    22   21   22 1  
    23   22   23 1  
    24   22   31 1  
    25   23   24 2  
    26   24   25 1  
    27   25   26 ar 
    28   25   31 ar 
    29   26   27 1  
    30   26   28 ar 
    31   28   29 ar 
    32   29   30 ar 
    33   30   31 ar 
    34    8   32 1  
    35   14   33 1  
    36   14   34 1  
    37   15   35 1  
    38   17   36 1  
    39   18   37 1  
    40   19   38 1  
    41   20   39 1  
    42   21   40 1  
    43   23   41 1  
    44   27   42 1  
    45   27   43 1  
    46   29   44 1  
@<TRIPOS>SUBSTRUCTURE
     1 ANP         1

