5ur1_ligand
  -I-interpret- 

 67 71  0  0  0  0  0  0  0  0999 V2000
  -11.1320  -12.6360    6.9720 C   0  0  0  0  0
  -12.3590  -12.6530    7.7290 O   0  0  0  0  0
  -12.3100  -13.3930    8.8680 C   0  0  0  0  0
  -13.4920  -13.4750    9.5430 C   0  0  0  0  0
  -14.8490  -12.7360    9.0130 Cl  0  0  0  0  0
  -11.1890  -14.0500    9.3820 C   0  0  0  0  0
  -11.3040  -14.7750   10.5810 C   0  0  0  0  0
  -10.2730  -15.4590   11.1760 O   0  0  0  0  0
   -9.0220  -15.4630   10.4590 C   0  0  0  0  0
  -12.5150  -14.8420   11.2610 C   0  0  0  0  0
  -12.5120  -15.7330   12.7270 Cl  0  0  0  0  0
  -13.6240  -14.1930   10.7120 C   0  0  0  0  0
  -14.9660  -14.1190   11.3460 N   0  0  0  0  0
  -15.7700  -15.1900   11.4490 C   0  0  0  0  0
  -15.4970  -16.1780   10.7970 O   0  0  0  0  0
  -14.8300  -13.2410   12.5490 C   0  0  0  0  0
  -16.1650  -12.9840   13.0930 C   0  0  0  0  0
  -16.4370  -11.8020   13.7460 C   0  0  0  0  0
  -17.7110  -11.5980   14.2270 N   0  0  0  0  0
  -18.6510  -12.5400   14.0620 C   0  0  0  0  0
  -19.9570  -12.2230   14.6280 N   0  0  0  0  0
  -21.1270  -13.1020   14.5460 C   0  0  0  0  0
  -21.3800  -13.9610   13.4780 C   0  0  0  0  0
  -22.5450  -14.7300   13.4830 C   0  0  0  0  0
  -23.4650  -14.6150   14.5240 C   0  0  0  0  0
  -23.2240  -13.7360   15.5770 C   0  0  0  0  0
  -22.0620  -12.9750   15.5810 C   0  0  0  0  0
  -18.3710  -13.6900   13.4430 N   0  0  0  0  0
  -17.1540  -13.9250   12.9420 C   0  0  0  0  0
  -16.8450  -15.2200   12.2770 N   0  0  0  0  0
  -18.1250  -15.8770   11.8360 C   0  0  0  0  0
  -18.0480  -17.3930   11.7860 C   0  0  0  0  0
  -19.4630  -17.9150   12.0170 C   0  0  0  0  0
  -18.6830  -15.3950   10.5120 C   0  0  0  0  0
  -19.9850  -16.1170   10.1890 C   0  0  0  0  0
  -20.4500  -17.1900   11.1610 N   0  0  0  0  0
  -21.7550  -17.5440   11.2800 C   0  0  0  0  0
  -22.1430  -18.4120   12.0620 O   0  0  0  0  0
  -22.8090  -16.8240   10.4150 C   0  0  0  0  0
  -10.3334  -12.2200    7.5862 H   0  0  0  0  0
  -10.8737  -13.6534    6.6782 H   0  0  0  0  0
  -11.2646  -12.0218    6.0813 H   0  0  0  0  0
  -10.2343  -14.0009    8.8583 H   0  0  0  0  0
   -9.1667  -15.9219    9.4810 H   0  0  0  0  0
   -8.6737  -14.4379   10.3328 H   0  0  0  0  0
   -8.2832  -16.0322   11.0231 H   0  0  0  0  0
  -14.3554  -12.3002   12.2701 H   0  0  0  0  0
  -14.2117  -13.7332   13.2997 H   0  0  0  0  0
  -15.6626  -11.0465   13.8787 H   0  0  0  0  0
  -20.0632  -11.3317   15.1124 H   0  0  0  0  0
  -20.6764  -14.0315   12.6485 H   0  0  0  0  0
  -22.7369  -15.4260   12.6664 H   0  0  0  0  0
  -24.3752  -15.2145   14.5138 H   0  0  0  0  0
  -23.9420  -13.6459   16.3921 H   0  0  0  0  0
  -21.8766  -12.2743   16.3951 H   0  0  0  0  0
  -18.8098  -15.5641   12.6242 H   0  0  0  0  0
  -17.3665  -17.7714   12.5478 H   0  0  0  0  0
  -17.6634  -17.7297   10.8233 H   0  0  0  0  0
  -19.7265  -17.7577   13.0629 H   0  0  0  0  0
  -19.4904  -18.9740   11.7606 H   0  0  0  0  0
  -17.9579  -15.6021    9.7250 H   0  0  0  0  0
  -18.8779  -14.3246   10.5778 H   0  0  0  0  0
  -19.8094  -16.6319    9.2445 H   0  0  0  0  0
  -20.7589  -15.3496   10.2057 H   0  0  0  0  0
  -23.3274  -17.5542    9.7936 H   0  0  0  0  0
  -23.5270  -16.3213   11.0629 H   0  0  0  0  0
  -22.3150  -16.0893    9.7792 H   0  0  0  0  0
  1  2  1  0  0  0
  2  3  1  0  0  0
  3  4  4  0  0  0
  3  6  4  0  0  0
  4  5  1  0  0  0
  4 12  4  0  0  0
  6  7  4  0  0  0
  7  8  1  0  0  0
  7 10  4  0  0  0
  8  9  1  0  0  0
 10 11  1  0  0  0
 10 12  4  0  0  0
 12 13  1  0  0  0
 13 14  1  0  0  0
 13 16  1  0  0  0
 14 15  2  0  0  0
 14 30  1  0  0  0
 16 17  1  0  0  0
 17 18  4  0  0  0
 17 29  4  0  0  0
 18 19  4  0  0  0
 19 20  4  0  0  0
 20 21  1  0  0  0
 20 28  4  0  0  0
 21 22  1  0  0  0
 22 23  4  0  0  0
 22 27  4  0  0  0
 23 24  4  0  0  0
 24 25  4  0  0  0
 25 26  4  0  0  0
 26 27  4  0  0  0
 28 29  4  0  0  0
 29 30  1  0  0  0
 30 31  1  0  0  0
 31 32  1  0  0  0
 31 34  1  0  0  0
 32 33  1  0  0  0
 33 36  1  0  0  0
 34 35  1  0  0  0
 35 36  1  0  0  0
 36 37  1  0  0  0
 37 38  2  0  0  0
 37 39  1  0  0  0
  1 40  1  0  0  0
  1 41  1  0  0  0
  1 42  1  0  0  0
  6 43  1  0  0  0
  9 44  1  0  0  0
  9 45  1  0  0  0
  9 46  1  0  0  0
 16 47  1  0  0  0
 16 48  1  0  0  0
 18 49  1  0  0  0
 21 50  1  0  0  0
 23 51  1  0  0  0
 24 52  1  0  0  0
 25 53  1  0  0  0
 26 54  1  0  0  0
 27 55  1  0  0  0
 31 56  1  0  0  0
 32 57  1  0  0  0
 32 58  1  0  0  0
 33 59  1  0  0  0
 33 60  1  0  0  0
 34 61  1  0  0  0
 34 62  1  0  0  0
 35 63  1  0  0  0
 35 64  1  0  0  0
 39 65  1  0  0  0
 39 66  1  0  0  0
 39 67  1  0  0  0
M  END
$$$$
