### 
### Created by X-TOOL on Mon Sep 10 21:12:52 2018
### 

@<TRIPOS>MOLECULE
1pk0_ligand
   36    37     1     0     0
SMALL
GAST_HUCK


@<TRIPOS>ATOM
      1 PG         31.8310   72.3580   44.6520 P.3       1 EMA         0.1880
      2 O1G        30.6500   71.5090   44.8280 O.co2     1 EMA        -0.6091
      3 O2G        32.5140   72.7120   45.9040 O.co2     1 EMA        -0.6091
      4 O3G        31.5690   73.4940   43.6980 O.co2     1 EMA        -0.6091
      5 PB         33.0080   70.5340   42.5560 P.3       1 EMA         0.3533
      6 O1B        31.6760   69.8730   42.3120 O.co2     1 EMA        -0.5650
      7 O2B        33.5120   71.4410   41.5240 O.co2     1 EMA        -0.5650
      8 O3B        32.9580   71.3470   44.0090 O.3       1 EMA        -0.1545
      9 PA         34.1100   68.0690   43.6200 P.3       1 EMA         0.2167
     10 O1A        34.0740   68.4610   45.0350 O.co2     1 EMA        -0.5704
     11 O2A        33.0750   67.1140   43.1360 O.co2     1 EMA        -0.5704
     12 O3A        34.0580   69.4140   42.8250 O.3       1 EMA        -0.1428
     13 C5         35.6010   67.5400   43.3490 C.3       1 EMA         0.1451
     14 O5         36.1030   66.9960   42.1030 O.3       1 EMA        -0.3561
     15 C4         35.1390   65.9460   41.7350 C.3       1 EMA         0.0772
     16 C1         35.5920   64.7750   40.8530 C.3       1 EMA         0.0841
     17 N9         36.9850   64.6300   40.3220 N.pl3     1 EMA        -0.2194
     18 C8         37.6780   65.3810   39.3950 C.2       1 EMA         0.1098
     19 N7         38.8760   64.9470   39.1140 N.2       1 EMA        -0.2958
     20 C5         38.9530   63.8190   39.8850 C.ar      1 EMA         0.1044
     21 C6         40.0270   62.8550   40.0700 C.ar      1 EMA         0.1298
     22 N6         41.1110   62.9700   39.3620 N.pl3     1 EMA        -0.3152
     23 N1         39.8090   61.8460   40.9160 N.ar      1 EMA        -0.2698
     24 C2         38.6660   61.7440   41.6040 C.ar      1 EMA         0.0533
     25 N3         37.6050   62.5970   41.5370 N.ar      1 EMA        -0.2714
     26 C4         37.8370   63.6110   40.6420 C.ar      1 EMA         0.1592
     27 H1         35.7650   66.7483   44.0949 H         1 EMA         0.0796
     28 H2         36.2547   68.3959   43.5728 H         1 EMA         0.0796
     29 H3         34.3123   66.4428   41.2061 H         1 EMA         0.0588
     30 H4         34.7654   65.5122   42.6743 H         1 EMA         0.0588
     31 H5         34.9345   64.7910   39.9713 H         1 EMA         0.0637
     32 H6         35.3976   63.8646   41.4390 H         1 EMA         0.0637
     33 H7         37.2558   66.2714   38.9315 H         1 EMA         0.1348
     34 H8         41.8791   62.2945   39.4828 H         1 EMA         0.1820
     35 H9         41.2019   63.7366   38.6801 H         1 EMA         0.1820
     36 H10        38.5750   60.9015   42.2800 H         1 EMA         0.0996
@<TRIPOS>BOND
     1    1    2 ar 
     2    1    3 ar 
     3    1    4 ar 
     4    8    1 1  
     5    5    6 ar 
     6    5    7 ar 
     7    5    8 1  
     8   12    5 1  
     9    9   10 ar 
    10    9   11 ar 
    11    9   12 1  
    12    9   13 1  
    13   13   14 1  
    14   14   15 1  
    15   15   16 1  
    16   16   17 1  
    17   17   18 1  
    18   17   26 1  
    19   18   19 2  
    20   19   20 1  
    21   20   21 ar 
    22   20   26 ar 
    23   21   22 1  
    24   21   23 ar 
    25   23   24 ar 
    26   24   25 ar 
    27   25   26 ar 
    28   13   27 1  
    29   13   28 1  
    30   15   29 1  
    31   15   30 1  
    32   16   31 1  
    33   16   32 1  
    34   18   33 1  
    35   22   34 1  
    36   22   35 1  
    37   24   36 1  
@<TRIPOS>SUBSTRUCTURE
     1 EMA         1

