1pk0_ligand
  -I-interpret- 

 40 41  0  0  0  0  0  0  0  0999 V2000
   31.8310   72.3580   44.6520 P   0  0  0  0  0
   30.6500   71.5090   44.8280 O   0  0  0  0  0
   32.5140   72.7120   45.9040 O   0  0  0  0  0
   31.5690   73.4940   43.6980 O   0  0  0  0  0
   33.0080   70.5340   42.5560 P   0  0  0  0  0
   31.6760   69.8730   42.3120 O   0  0  0  0  0
   33.5120   71.4410   41.5240 O   0  0  0  0  0
   32.9580   71.3470   44.0090 O   0  0  0  0  0
   34.1100   68.0690   43.6200 P   0  0  0  0  0
   34.0740   68.4610   45.0350 O   0  0  0  0  0
   33.0750   67.1140   43.1360 O   0  0  0  0  0
   34.0580   69.4140   42.8250 O   0  0  0  0  0
   35.6010   67.5400   43.3490 C   0  0  0  0  0
   36.1030   66.9960   42.1030 O   0  0  0  0  0
   35.1390   65.9460   41.7350 C   0  0  0  0  0
   35.5920   64.7750   40.8530 C   0  0  0  0  0
   36.9850   64.6300   40.3220 N   0  0  0  0  0
   37.6780   65.3810   39.3950 C   0  0  0  0  0
   38.8760   64.9470   39.1140 N   0  0  0  0  0
   38.9530   63.8190   39.8850 C   0  0  0  0  0
   40.0270   62.8550   40.0700 C   0  0  0  0  0
   41.1110   62.9700   39.3620 N   0  0  0  0  0
   39.8090   61.8460   40.9160 N   0  0  0  0  0
   38.6660   61.7440   41.6040 C   0  0  0  0  0
   37.6050   62.5970   41.5370 N   0  0  0  0  0
   37.8370   63.6110   40.6420 C   0  0  0  0  0
   33.2730   73.2660   45.7076 H   0  0  0  0  0
   32.3635   74.0256   43.6093 H   0  0  0  0  0
   31.4596   69.3073   43.0568 H   0  0  0  0  0
   33.2111   66.9431   42.2012 H   0  0  0  0  0
   35.6535   66.6734   44.0080 H   0  0  0  0  0
   36.1835   68.4565   43.4430 H   0  0  0  0  0
   34.3835   66.4613   41.1419 H   0  0  0  0  0
   34.8589   65.4851   42.6822 H   0  0  0  0  0
   34.9985   64.9070   39.9483 H   0  0  0  0  0
   35.4936   63.9166   41.5175 H   0  0  0  0  0
   37.2554   66.2722   38.9310 H   0  0  0  0  0
   41.2010   63.7292   38.6868 H   0  0  0  0  0
   41.8717   62.3011   39.4817 H   0  0  0  0  0
   38.5745   60.8969   42.2838 H   0  0  0  0  0
  1  2  2  0  0  0
  1  3  1  0  0  0
  1  4  1  0  0  0
  8  1  1  0  0  0
  5  6  1  0  0  0
  5  7  2  0  0  0
  5  8  1  0  0  0
 12  5  1  0  0  0
  9 10  2  0  0  0
  9 11  1  0  0  0
  9 12  1  0  0  0
  9 13  1  0  0  0
 13 14  1  0  0  0
 14 15  1  0  0  0
 15 16  1  0  0  0
 16 17  1  0  0  0
 17 18  4  0  0  0
 17 26  4  0  0  0
 18 19  4  0  0  0
 19 20  4  0  0  0
 20 21  4  0  0  0
 20 26  4  0  0  0
 21 22  1  0  0  0
 21 23  4  0  0  0
 23 24  4  0  0  0
 24 25  4  0  0  0
 25 26  4  0  0  0
  3 27  1  0  0  0
  4 28  1  0  0  0
  6 29  1  0  0  0
 11 30  1  0  0  0
 13 31  1  0  0  0
 13 32  1  0  0  0
 15 33  1  0  0  0
 15 34  1  0  0  0
 16 35  1  0  0  0
 16 36  1  0  0  0
 18 37  1  0  0  0
 22 38  1  0  0  0
 22 39  1  0  0  0
 24 40  1  0  0  0
M  END
$$$$
