5mes_ligand
  -I-interpret- 

105110  0  0  0  0  0  0  0  0999 V2000
  -10.6100    0.0510  -28.2320 C   0  0  0  0  0
   -9.6390    1.1740  -27.8830 C   0  0  0  0  0
   -8.4710    0.7520  -27.0180 C   0  0  0  0  0
  -11.1690   -4.4610  -23.7960 C   0  0  0  0  0
  -11.7730   -5.0450  -22.5130 C   0  0  0  0  0
  -12.0030   -6.5610  -22.5960 C   0  0  0  0  0
  -11.1460   -7.2770  -23.6180 C   0  0  0  0  0
  -10.3220   -8.2850  -23.1190 C   0  0  0  0  0
   -9.5060   -9.0210  -23.9640 C   0  0  0  0  0
   -9.4920   -8.7570  -25.3210 C   0  0  0  0  0
  -10.2970   -7.7580  -25.8470 C   0  0  0  0  0
  -11.1340   -7.0260  -25.0000 C   0  0  0  0  0
  -12.0630   -4.7400  -25.0180 C   0  0  0  0  0
  -10.6450   -3.9270  -28.9020 C   0  0  0  0  0
  -11.3900   -2.5920  -28.9260 C   0  0  0  0  0
  -10.9710   -1.6140  -30.0070 C   0  0  0  0  0
   -9.1350   -3.7020  -28.7120 C   0  0  0  0  0
   -7.9500   -5.4640  -27.3440 C   0  0  0  0  0
   -7.1910   -6.8500  -29.6640 C   0  0  0  0  0
   -5.4850   -7.3470  -31.5560 C   0  0  0  0  0
   -5.0390   -8.5120  -32.4100 C   0  0  0  0  0
   -5.5780   -8.7160  -33.6770 C   0  0  0  0  0
   -5.2130   -9.8210  -34.4350 C   0  0  0  0  0
   -4.3070  -10.7370  -33.9360 C   0  0  0  0  0
   -3.7790  -10.5570  -32.6720 C   0  0  0  0  0
   -6.2560   -6.5590  -22.9290 Cl  0  0  0  0  0
   -6.5960   -4.8780  -23.2390 C   0  0  0  0  0
   -6.2600   -4.3360  -24.4620 C   0  0  0  0  0
   -6.5150   -2.9950  -24.6970 C   0  0  0  0  0
   -7.1930   -4.1150  -22.2580 C   0  0  0  0  0
   -7.4500   -2.7770  -22.5090 C   0  0  0  0  0
   -7.1040   -2.1940  -23.7250 C   0  0  0  0  0
   -7.4290   -0.7470  -24.0090 C   0  0  0  0  0
   -8.6340   -0.5660  -24.9440 C   0  0  0  0  0
   -8.6510    0.7730  -25.5630 N   0  3  0  0  0
   -9.9680   -0.8870  -24.2700 C   0  0  0  0  0
  -10.2980   -2.3250  -24.6070 C   0  0  0  0  0
  -10.0690   -2.7870  -25.7240 O   0  0  0  0  0
  -10.8430   -3.0520  -23.6250 N   0  0  0  0  0
  -12.7980   -3.8910  -25.5010 O   0  0  0  0  0
  -11.9570   -5.9920  -25.5570 N   0  0  0  0  0
  -12.7550   -6.2910  -26.7450 C   0  0  0  0  0
  -12.2830   -5.5370  -27.9800 C   0  0  0  0  0
  -12.9160   -5.6100  -29.0310 O   0  0  0  0  0
  -11.1750   -4.7910  -27.8480 N   0  0  0  0  0
  -10.9850   -1.9580  -31.1850 O   0  0  0  0  0
  -10.6010   -0.3670  -29.6400 N   0  0  0  0  0
  -10.1940    0.6260  -30.6290 C   0  0  0  0  0
   -8.3260   -4.9700  -28.5870 C   0  0  0  0  0
   -7.9610   -5.6850  -29.7260 C   0  0  0  0  0
   -6.8770   -7.3270  -28.3920 C   0  0  0  0  0
   -5.9510   -8.7820  -28.2240 Cl  0  0  0  0  0
   -7.2270   -6.6390  -27.2420 C   0  0  0  0  0
   -6.9230   -7.5860  -30.9590 C   0  0  0  0  0
   -4.1420   -9.4530  -31.9140 C   0  0  0  0  0
  -11.6117    0.4266  -28.0230 H   0  0  0  0  0
  -10.3090   -0.8171  -27.6455 H   0  0  0  0  0
  -10.2018    1.9163  -27.3170 H   0  0  0  0  0
   -9.2234    1.5383  -28.8225 H   0  0  0  0  0
   -7.6823    1.4760  -27.2228 H   0  0  0  0  0
   -8.2846   -0.2915  -27.2718 H   0  0  0  0  0
  -10.2265   -4.9702  -23.9973 H   0  0  0  0  0
  -12.7412   -4.5699  -22.3549 H   0  0  0  0  0
  -11.0709   -4.8591  -21.7003 H   0  0  0  0  0
  -13.0411   -6.7081  -22.8941 H   0  0  0  0  0
  -11.7453   -6.9744  -21.6209 H   0  0  0  0  0
  -10.3194   -8.4972  -22.0499 H   0  0  0  0  0
   -8.8736   -9.8102  -23.5574 H   0  0  0  0  0
   -8.8455   -9.3365  -25.9801 H   0  0  0  0  0
  -10.2772   -7.5446  -26.9157 H   0  0  0  0  0
  -10.7975   -4.4228  -29.8607 H   0  0  0  0  0
  -11.1759   -2.1056  -27.9744 H   0  0  0  0  0
  -12.4363   -2.8295  -29.1179 H   0  0  0  0  0
   -9.0088   -3.1492  -27.7811 H   0  0  0  0  0
   -8.7756   -3.1796  -29.5986 H   0  0  0  0  0
   -8.2273   -4.9206  -26.4407 H   0  0  0  0  0
   -5.5141   -6.4532  -32.1792 H   0  0  0  0  0
   -4.7825   -7.2354  -30.7301 H   0  0  0  0  0
   -6.2950   -8.0001  -34.0790 H   0  0  0  0  0
   -5.6425   -9.9660  -35.4263 H   0  0  0  0  0
   -4.0104  -11.5971  -34.5363 H   0  0  0  0  0
   -3.0748  -11.2848  -32.2689 H   0  0  0  0  0
   -5.8002   -4.9544  -25.2329 H   0  0  0  0  0
   -6.2493   -2.5601  -25.6605 H   0  0  0  0  0
   -7.4590   -4.5583  -21.2984 H   0  0  0  0  0
   -7.9311   -2.1706  -21.7416 H   0  0  0  0  0
   -6.5620   -0.3054  -24.5003 H   0  0  0  0  0
   -7.6754   -0.2726  -23.0591 H   0  0  0  0  0
   -8.5080   -1.2991  -25.7407 H   0  0  0  0  0
   -9.5651    1.1845  -25.3747 H   0  0  0  0  0
   -7.8739    1.3019  -25.1671 H   0  0  0  0  0
  -10.7512   -0.2176  -24.6257 H   0  0  0  0  0
   -9.8983   -0.7496  -23.1909 H   0  0  0  0  0
  -11.0362   -2.6054  -22.7285 H   0  0  0  0  0
  -13.7819   -5.9874  -26.5416 H   0  0  0  0  0
  -12.6610   -7.3575  -26.9497 H   0  0  0  0  0
  -10.6734   -4.8290  -26.9607 H   0  0  0  0  0
   -9.3260    0.2577  -31.1759 H   0  0  0  0  0
  -11.0149    0.8024  -31.3240 H   0  0  0  0  0
   -9.9381    1.5570  -30.1232 H   0  0  0  0  0
   -8.2878   -5.3227  -30.7007 H   0  0  0  0  0
   -6.9349   -7.0206  -26.2637 H   0  0  0  0  0
   -7.6398   -7.2160  -31.6921 H   0  0  0  0  0
   -7.0082   -8.6515  -30.7455 H   0  0  0  0  0
   -3.7194   -9.3213  -30.9179 H   0  0  0  0  0
  1  2  1  0  0  0
 47  1  1  0  0  0
  2  3  1  0  0  0
  3 35  1  0  0  0
  4  5  1  0  0  0
 13  4  1  0  0  0
  4 39  1  0  0  0
  5  6  1  0  0  0
  7  6  1  0  0  0
  7  8  4  0  0  0
 12  7  4  0  0  0
  8  9  4  0  0  0
 10  9  4  0  0  0
 11 10  4  0  0  0
 12 11  4  0  0  0
 41 12  1  0  0  0
 13 40  2  0  0  0
 41 13  1  0  0  0
 14 15  1  0  0  0
 17 14  1  0  0  0
 14 45  1  0  0  0
 15 16  1  0  0  0
 16 46  2  0  0  0
 16 47  1  0  0  0
 49 17  1  0  0  0
 49 18  4  0  0  0
 18 53  4  0  0  0
 50 19  4  0  0  0
 19 51  4  0  0  0
 19 54  1  0  0  0
 20 21  1  0  0  0
 54 20  1  0  0  0
 21 22  4  0  0  0
 21 55  4  0  0  0
 22 23  4  0  0  0
 23 24  4  0  0  0
 25 24  4  0  0  0
 55 25  4  0  0  0
 27 26  1  0  0  0
 28 27  4  0  0  0
 30 27  4  0  0  0
 29 28  4  0  0  0
 32 29  4  0  0  0
 31 30  4  0  0  0
 32 31  4  0  0  0
 33 32  1  0  0  0
 34 33  1  0  0  0
 35 34  1  0  0  0
 34 36  1  0  0  0
 37 36  1  0  0  0
 37 38  2  0  0  0
 39 37  1  0  0  0
 42 41  1  0  0  0
 43 42  1  0  0  0
 43 44  2  0  0  0
 45 43  1  0  0  0
 47 48  1  0  0  0
 49 50  4  0  0  0
 51 52  1  0  0  0
 51 53  4  0  0  0
  1 56  1  0  0  0
  1 57  1  0  0  0
  2 58  1  0  0  0
  2 59  1  0  0  0
  3 60  1  0  0  0
  3 61  1  0  0  0
  4 62  1  0  0  0
  5 63  1  0  0  0
  5 64  1  0  0  0
  6 65  1  0  0  0
  6 66  1  0  0  0
  8 67  1  0  0  0
  9 68  1  0  0  0
 10 69  1  0  0  0
 11 70  1  0  0  0
 14 71  1  0  0  0
 15 72  1  0  0  0
 15 73  1  0  0  0
 17 74  1  0  0  0
 17 75  1  0  0  0
 18 76  1  0  0  0
 20 77  1  0  0  0
 20 78  1  0  0  0
 22 79  1  0  0  0
 23 80  1  0  0  0
 24 81  1  0  0  0
 25 82  1  0  0  0
 28 83  1  0  0  0
 29 84  1  0  0  0
 30 85  1  0  0  0
 31 86  1  0  0  0
 33 87  1  0  0  0
 33 88  1  0  0  0
 34 89  1  0  0  0
 35 90  1  0  0  0
 35 91  1  0  0  0
 36 92  1  0  0  0
 36 93  1  0  0  0
 39 94  1  0  0  0
 42 95  1  0  0  0
 42 96  1  0  0  0
 45 97  1  0  0  0
 48 98  1  0  0  0
 48 99  1  0  0  0
 48100  1  0  0  0
 50101  1  0  0  0
 53102  1  0  0  0
 54103  1  0  0  0
 54104  1  0  0  0
 55105  1  0  0  0
M  END
$$$$
