6oi8_ligand
  -I-interpret- 

 52 57  0  0  0  0  0  0  0  0999 V2000
   34.4490  101.3020    0.8400 C   0  0  0  0  0
   35.6130  100.7470    0.0330 C   0  0  0  0  0
   36.8900  101.5780   -0.1280 C   0  0  0  0  0
   38.1130  100.8440   -0.4810 N   0  3  0  0  0
   35.7670  101.6500   -1.1720 C   0  0  0  0  0
   34.7920  102.7980   -1.0890 C   0  0  0  0  0
   34.1460  102.6780    0.3030 N   0  0  0  0  0
   33.3580  103.4740    1.0670 C   0  0  0  0  0
   32.6570  102.8780    2.0610 N   0  0  0  0  0
   31.8410  103.5460    2.9000 C   0  0  0  0  0
   31.1720  102.8800    3.8650 N   0  0  0  0  0
   30.3480  103.5160    4.7240 C   0  0  0  0  0
   29.7200  102.8090    5.6650 N   0  0  0  0  0
   30.1650  104.8540    4.6340 N   0  0  0  0  0
   30.8400  105.5920    3.6380 C   0  0  0  0  0
   31.6880  104.9240    2.7650 C   0  0  0  0  0
   32.3830  105.5930    1.7620 C   0  0  0  0  0
   33.2190  104.8690    0.9050 C   0  0  0  0  0
   33.9190  105.5420   -0.0910 C   0  0  0  0  0
   35.2710  105.8280    0.1350 C   0  0  0  0  0
   36.0360  105.3580    1.6440 Cl  0  0  0  0  0
   36.0150  106.4880   -0.8430 C   0  0  0  0  0
   35.4110  106.8580   -2.0380 C   0  0  0  0  0
   34.0650  106.5730   -2.2650 C   0  0  0  0  0
   33.3070  105.9090   -1.3020 C   0  0  0  0  0
   31.9560  105.6580   -1.5670 C   0  0  0  0  0
   31.5060  104.4200   -2.0150 C   0  0  0  0  0
   30.1580  104.1910   -2.2790 C   0  0  0  0  0
   29.2320  105.2060   -2.0970 C   0  0  0  0  0
   29.6670  106.4540   -1.6430 N   0  0  0  0  0
   31.0280  106.6770   -1.3830 C   0  0  0  0  0
   34.7063  101.3522    1.8980 H   0  0  0  0  0
   33.5767  100.6548    0.7484 H   0  0  0  0  0
   35.4940   99.6950    0.2923 H   0  0  0  0  0
   37.4295  102.3106    0.4723 H   0  0  0  0  0
   38.7667  100.8788    0.3012 H   0  0  0  0  0
   37.8780   99.8729   -0.6863 H   0  0  0  0  0
   38.5403  101.2725   -1.3021 H   0  0  0  0  0
   35.7787  101.5666   -2.2587 H   0  0  0  0  0
   34.0473  102.7517   -1.8836 H   0  0  0  0  0
   35.2896  103.7589   -1.2202 H   0  0  0  0  0
   29.8657  101.8014    5.7282 H   0  0  0  0  0
   29.0942  103.2760    6.3212 H   0  0  0  0  0
   30.6977  106.6695    3.5555 H   0  0  0  0  0
   32.2770  106.6715    1.6451 H   0  0  0  0  0
   37.0674  106.7128   -0.6701 H   0  0  0  0  0
   35.9923  107.3738   -2.8023 H   0  0  0  0  0
   33.6010  106.8724   -3.2048 H   0  0  0  0  0
   32.2234  103.6127   -2.1624 H   0  0  0  0  0
   29.8307  103.2121   -2.6293 H   0  0  0  0  0
   28.1763  105.0328   -2.3056 H   0  0  0  0  0
   31.3597  107.6551   -1.0346 H   0  0  0  0  0
  1  2  1  0  0  0
  1  7  1  0  0  0
  2  3  1  0  0  0
  2  5  1  0  0  0
  3  4  1  0  0  0
  3  5  1  0  0  0
  5  6  1  0  0  0
  6  7  1  0  0  0
  7  8  1  0  0  0
  8  9  4  0  0  0
  8 18  4  0  0  0
  9 10  4  0  0  0
 10 11  4  0  0  0
 10 16  4  0  0  0
 11 12  4  0  0  0
 12 13  1  0  0  0
 12 14  4  0  0  0
 14 15  4  0  0  0
 15 16  4  0  0  0
 16 17  4  0  0  0
 17 18  4  0  0  0
 18 19  1  0  0  0
 19 20  4  0  0  0
 19 25  4  0  0  0
 20 21  1  0  0  0
 20 22  4  0  0  0
 22 23  4  0  0  0
 23 24  4  0  0  0
 24 25  4  0  0  0
 25 26  1  0  0  0
 26 27  4  0  0  0
 26 31  4  0  0  0
 27 28  4  0  0  0
 28 29  4  0  0  0
 29 30  4  0  0  0
 30 31  4  0  0  0
  1 32  1  0  0  0
  1 33  1  0  0  0
  2 34  1  0  0  0
  3 35  1  0  0  0
  4 36  1  0  0  0
  4 37  1  0  0  0
  4 38  1  0  0  0
  5 39  1  0  0  0
  6 40  1  0  0  0
  6 41  1  0  0  0
 13 42  1  0  0  0
 13 43  1  0  0  0
 15 44  1  0  0  0
 17 45  1  0  0  0
 22 46  1  0  0  0
 23 47  1  0  0  0
 24 48  1  0  0  0
 27 49  1  0  0  0
 28 50  1  0  0  0
 29 51  1  0  0  0
 31 52  1  0  0  0
M  END
$$$$
