4xtv_ligand
  -I-interpret- 

 67 71  0  0  0  0  0  0  0  0999 V2000
   -2.2530   -9.9730   13.7990 C   0  0  0  0  0
   -1.0420   -9.2320   13.5260 N   0  0  0  0  0
   -0.1130   -9.4510   14.4520 C   0  0  0  0  0
    0.9670   -8.8740   14.5180 O   0  0  0  0  0
   -0.5230  -10.3760   15.3120 N   0  0  0  0  0
   -1.9270  -10.6590   15.1220 C   0  0  0  0  0
   -2.6690  -10.0260   16.2820 C   0  0  0  0  0
   -3.4200   -8.5770   15.6420 S   0  0  0  0  0
   -3.4480   -9.0420   13.9420 C   0  0  0  0  0
   -3.3740   -7.8740   12.9640 C   0  0  0  0  0
   -3.6930   -8.3460   11.5460 C   0  0  0  0  0
   -4.0040   -7.1770   10.6130 C   0  0  0  0  0
   -4.1370   -7.6200    9.1590 C   0  0  0  0  0
   -4.5300   -6.4400    8.2980 C   0  0  0  0  0
   -5.6260   -5.9210    8.4470 O   0  0  0  0  0
   -3.6370   -6.0300    7.3910 N   0  0  0  0  0
   -4.0320   -4.9920    6.2310 S   0  0  0  0  0
   -5.2380   -5.4110    5.5760 O   0  0  0  0  0
   -2.9550   -4.9110    5.2720 O   0  0  0  0  0
   -4.2870   -3.5350    6.8420 N   0  0  0  0  0
   -3.3230   -2.8690    7.6960 C   0  0  0  0  0
   -3.6590   -1.3810    7.7000 C   0  0  0  0  0
   -4.8610   -1.1270    8.6040 C   0  0  0  0  0
   -2.5290   -0.5190    8.2490 C   0  0  0  0  0
   -3.1580    0.5520    9.1300 C   0  0  0  0  0
   -4.5930    0.1340    9.4180 C   0  0  0  0  0
   -4.7100   -0.1670   10.8650 N   0  0  0  0  0
   -3.6920   -0.2370   11.7330 C   0  0  0  0  0
   -4.1680   -0.5340   12.9590 N   0  0  0  0  0
   -5.5060   -0.6520   12.8520 C   0  0  0  0  0
   -5.8380   -0.4240   11.5270 C   0  0  0  0  0
   -7.1300   -0.4800   11.1340 N   0  0  0  0  0
   -8.0780   -0.7700   12.0360 C   0  0  0  0  0
   -7.7820   -0.9940   13.3240 N   0  0  0  0  0
   -6.5090   -0.9470   13.7640 C   0  0  0  0  0
   -6.2180   -1.1770   15.0690 N   0  0  0  0  0
   -2.5266  -10.6671   13.0044 H   0  0  0  0  0
   -0.9157   -8.6170   12.7221 H   0  0  0  0  0
    0.0707  -10.8244   16.0097 H   0  0  0  0  0
   -2.1938  -11.7154   15.0925 H   0  0  0  0  0
   -1.9914   -9.7901   17.1025 H   0  0  0  0  0
   -3.4133  -10.7076   16.6937 H   0  0  0  0  0
   -4.3987   -9.5094   13.6855 H   0  0  0  0  0
   -2.3662   -7.4591   12.9819 H   0  0  0  0  0
   -4.1014   -7.1175   13.2586 H   0  0  0  0  0
   -4.5705   -8.9911   11.5898 H   0  0  0  0  0
   -2.8212   -8.8716   11.1565 H   0  0  0  0  0
   -3.1818   -6.4642   10.6766 H   0  0  0  0  0
   -4.9531   -6.7392   10.9224 H   0  0  0  0  0
   -4.9040   -8.3910    9.0858 H   0  0  0  0  0
   -3.1818   -8.0158    8.8139 H   0  0  0  0  0
   -2.6819   -6.3851    7.4370 H   0  0  0  0  0
   -5.1608   -3.0568    6.6223 H   0  0  0  0  0
   -2.3112   -3.0289    7.3234 H   0  0  0  0  0
   -3.3700   -3.2717    8.7078 H   0  0  0  0  0
   -3.8492   -1.1150    6.6602 H   0  0  0  0  0
   -5.0124   -1.9761    9.2705 H   0  0  0  0  0
   -5.7601   -0.9980    8.0015 H   0  0  0  0  0
   -1.9677   -0.0616    7.4342 H   0  0  0  0  0
   -1.8316   -1.1264    8.8259 H   0  0  0  0  0
   -3.1394    1.5172    8.6239 H   0  0  0  0  0
   -2.5993    0.6527   10.0605 H   0  0  0  0  0
   -5.3055    0.9163    9.1561 H   0  0  0  0  0
   -2.6421   -0.0785   11.4864 H   0  0  0  0  0
   -9.1177   -0.8252   11.7135 H   0  0  0  0  0
   -5.2512   -1.1342   15.3912 H   0  0  0  0  0
   -6.9661   -1.3928   15.7280 H   0  0  0  0  0
  1  2  1  0  0  0
  1  6  1  0  0  0
  1  9  1  0  0  0
  2  3  1  0  0  0
  3  4  2  0  0  0
  3  5  1  0  0  0
  5  6  1  0  0  0
  6  7  1  0  0  0
  7  8  1  0  0  0
  8  9  1  0  0  0
  9 10  1  0  0  0
 10 11  1  0  0  0
 11 12  1  0  0  0
 12 13  1  0  0  0
 13 14  1  0  0  0
 14 15  2  0  0  0
 14 16  1  0  0  0
 16 17  1  0  0  0
 17 18  2  0  0  0
 17 19  2  0  0  0
 17 20  1  0  0  0
 20 21  1  0  0  0
 21 22  1  0  0  0
 22 23  1  0  0  0
 22 24  1  0  0  0
 23 26  1  0  0  0
 24 25  1  0  0  0
 25 26  1  0  0  0
 26 27  1  0  0  0
 27 28  4  0  0  0
 27 31  4  0  0  0
 28 29  4  0  0  0
 29 30  4  0  0  0
 30 31  4  0  0  0
 30 35  4  0  0  0
 31 32  4  0  0  0
 32 33  4  0  0  0
 33 34  4  0  0  0
 34 35  4  0  0  0
 35 36  1  0  0  0
  1 37  1  0  0  0
  2 38  1  0  0  0
  5 39  1  0  0  0
  6 40  1  0  0  0
  7 41  1  0  0  0
  7 42  1  0  0  0
  9 43  1  0  0  0
 10 44  1  0  0  0
 10 45  1  0  0  0
 11 46  1  0  0  0
 11 47  1  0  0  0
 12 48  1  0  0  0
 12 49  1  0  0  0
 13 50  1  0  0  0
 13 51  1  0  0  0
 16 52  1  0  0  0
 20 53  1  0  0  0
 21 54  1  0  0  0
 21 55  1  0  0  0
 22 56  1  0  0  0
 23 57  1  0  0  0
 23 58  1  0  0  0
 24 59  1  0  0  0
 24 60  1  0  0  0
 25 61  1  0  0  0
 25 62  1  0  0  0
 26 63  1  0  0  0
 28 64  1  0  0  0
 33 65  1  0  0  0
 36 66  1  0  0  0
 36 67  1  0  0  0
M  END
$$$$
