6guc_ligand
  -I-interpret- 

 28 30  0  0  0  0  0  0  0  0999 V2000
   -7.2760  -24.9170   25.2830 N   0  0  0  0  0
   -6.5780  -25.9210   25.7950 C   0  0  0  0  0
   -5.4150  -25.9640   25.1600 N   0  0  0  0  0
   -5.3020  -24.8580   24.3610 C   0  0  0  0  0
   -6.5170  -24.2220   24.3740 C   0  0  0  0  0
   -6.8470  -23.0980   23.6280 C   0  0  0  0  0
   -8.1210  -22.5920   23.4260 C   0  0  0  0  0
   -9.4320  -22.8910   24.0900 C   0  0  0  0  0
   -9.6830  -23.7250   24.9790 O   0  0  0  0  0
  -10.3710  -22.1300   23.4580 N   0  0  0  0  0
   -9.7940  -21.2890   22.4980 C   0  0  0  0  0
  -10.3970  -20.3680   21.6640 C   0  0  0  0  0
   -9.5930  -19.7190   20.7280 C   0  0  0  0  0
   -8.2260  -19.9560   20.6500 C   0  0  0  0  0
   -7.5340  -19.2050   19.7310 O   0  0  0  0  0
   -6.1370  -19.4340   19.6050 C   0  0  0  0  0
   -7.6310  -20.9010   21.4830 C   0  0  0  0  0
   -8.4210  -21.5610   22.4140 C   0  0  0  0  0
   -6.9014  -26.5895   26.5929 H   0  0  0  0  0
   -4.4124  -24.5419   23.8162 H   0  0  0  0  0
   -6.0239  -22.5619   23.1556 H   0  0  0  0  0
  -11.3701  -22.1686   23.6596 H   0  0  0  0  0
  -11.4638  -20.1560   21.7351 H   0  0  0  0  0
  -10.0485  -19.0072   20.0395 H   0  0  0  0  0
   -5.6502  -19.2368   20.5601 H   0  0  0  0  0
   -5.9647  -20.4705   19.3151 H   0  0  0  0  0
   -5.7284  -18.7697   18.8435 H   0  0  0  0  0
   -6.5656  -21.1179   21.4051 H   0  0  0  0  0
  1  2  4  0  0  0
  1  5  4  0  0  0
  2  3  4  0  0  0
  3  4  4  0  0  0
  4  5  4  0  0  0
  5  6  1  0  0  0
  6  7  2  0  0  0
  7  8  1  0  0  0
  7 18  1  0  0  0
  8  9  2  0  0  0
  8 10  1  0  0  0
 10 11  1  0  0  0
 11 12  4  0  0  0
 11 18  4  0  0  0
 12 13  4  0  0  0
 13 14  4  0  0  0
 14 15  1  0  0  0
 14 17  4  0  0  0
 15 16  1  0  0  0
 17 18  4  0  0  0
  2 19  1  0  0  0
  4 20  1  0  0  0
  6 21  1  0  0  0
 10 22  1  0  0  0
 12 23  1  0  0  0
 13 24  1  0  0  0
 16 25  1  0  0  0
 16 26  1  0  0  0
 16 27  1  0  0  0
 17 28  1  0  0  0
M  END
$$$$
