5jsg_ligand
  -I-interpret- 

 96101  0  0  0  0  0  0  0  0999 V2000
   11.4030   44.3780   20.1600 C   0  0  0  0  0
   13.0380   50.5570   15.7600 C   0  0  0  0  0
   13.5370   50.4450   17.2000 C   0  0  0  0  0
   13.3940   48.9690   17.5900 C   0  0  0  0  0
   12.2500   49.2850   15.4800 C   0  0  0  0  0
   12.5720   45.1460   19.5090 C   0  0  0  0  0
    8.8480   42.4550   18.4840 O   0  0  0  0  0
    9.7170   42.6930   19.2710 C   0  0  0  0  0
   10.3510   43.9680   19.2700 N   0  0  0  0  0
    9.9910   45.0510   18.3470 C   0  0  0  0  0
   11.1280   45.3220   17.3610 C   0  0  0  0  0
   12.5410   45.2330   17.9640 C   0  0  0  0  0
   13.4270   46.3950   17.5320 C   0  0  0  0  0
   12.8910   47.0870   16.2670 C   0  0  0  0  0
   12.3180   48.4110   16.7150 N   0  3  0  0  0
   10.1680   41.6250   20.2690 C   0  0  0  0  0
    9.4170   41.1920   21.4160 C   0  0  0  0  0
    8.1290   41.7770   21.6910 N   0  0  0  0  0
    7.2080   41.6120   22.8130 C   0  0  0  0  0
    5.8090   41.5560   22.6250 C   0  0  0  0  0
    4.9180   41.4030   23.6940 C   0  0  0  0  0
    5.3690   41.2980   25.0030 C   0  0  0  0  0
    6.7390   41.3510   25.2210 C   0  0  0  0  0
    7.6370   41.5080   24.1630 C   0  0  0  0  0
    9.9930   40.1730   22.2490 C   0  0  0  0  0
   11.2630   39.5580   22.0440 C   0  0  0  0  0
   11.8700   38.4470   22.9470 C   0  0  0  0  0
   11.6840   37.0500   22.7070 N   0  0  0  0  0
   12.2630   35.9250   23.5450 C   0  0  0  0  0
   12.9980   34.8600   22.6750 C   0  0  0  0  0
   12.1260   34.3080   21.5620 C   0  0  0  0  0
   12.8470   33.3050   20.7160 C   0  0  0  0  0
   11.8720   32.7390   19.6490 C   0  0  0  0  0
   12.6640   31.9220   18.7320 N   0  3  0  0  0
   13.0670   30.7880   19.6010 C   0  0  0  0  0
   13.0990   29.5550   18.6870 C   0  0  0  0  0
   12.4210   29.9830   17.3820 C   0  0  0  0  0
   11.7540   31.3020   17.7230 C   0  0  0  0  0
   11.6470   35.4840   20.7300 C   0  0  0  0  0
   10.8990   36.4810   21.6140 C   0  0  0  0  0
   12.5470   38.7670   23.8880 O   0  0  0  0  0
   11.9150   40.0280   20.9180 C   0  0  0  0  0
   11.4100   41.0030   20.0750 C   0  0  0  0  0
   10.9494   45.0598   20.8793 H   0  0  0  0  0
   11.8283   43.4644   20.5754 H   0  0  0  0  0
   13.8702   50.6635   15.0641 H   0  0  0  0  0
   12.4141   51.4412   15.6292 H   0  0  0  0  0
   12.9589   51.0849   17.8666 H   0  0  0  0  0
   14.5727   50.7744   17.2833 H   0  0  0  0  0
   13.1384   48.8633   18.6443 H   0  0  0  0  0
   14.3325   48.4323   17.4509 H   0  0  0  0  0
   12.6736   48.7604   14.6236 H   0  0  0  0  0
   11.2132   49.5278   15.2471 H   0  0  0  0  0
   13.4807   44.6031   19.7692 H   0  0  0  0  0
   12.5111   46.1702   19.8769 H   0  0  0  0  0
    9.8014   45.9565   18.9234 H   0  0  0  0  0
    9.1028   44.7566   17.7880 H   0  0  0  0  0
   11.0003   46.3440   17.0042 H   0  0  0  0  0
   11.0653   44.5562   16.5879 H   0  0  0  0  0
   12.9298   44.2950   17.5677 H   0  0  0  0  0
   14.4203   46.0036   17.3122 H   0  0  0  0  0
   13.4473   47.1273   18.3391 H   0  0  0  0  0
   12.1306   46.4766   15.7798 H   0  0  0  0  0
   13.6851   47.2324   15.5346 H   0  0  0  0  0
   11.4073   48.3472   17.1700 H   0  0  0  0  0
    7.8013   42.4228   20.9727 H   0  0  0  0  0
    5.4099   41.6345   21.6137 H   0  0  0  0  0
    3.8471   41.3655   23.4944 H   0  0  0  0  0
    4.6709   41.1780   25.8315 H   0  0  0  0  0
    7.1215   41.2684   26.2383 H   0  0  0  0  0
    8.7041   41.5523   24.3808 H   0  0  0  0  0
    9.4108   39.8426   23.1092 H   0  0  0  0  0
   11.4412   35.4308   24.0632 H   0  0  0  0  0
   12.9869   36.3557   24.2369 H   0  0  0  0  0
   13.2748   34.0303   23.3255 H   0  0  0  0  0
   13.8612   35.3416   22.2156 H   0  0  0  0  0
   11.2808   33.7734   21.9955 H   0  0  0  0  0
   13.2121   32.4926   21.3443 H   0  0  0  0  0
   13.6914   33.7846   20.2210 H   0  0  0  0  0
   11.3770   33.5486   19.1127 H   0  0  0  0  0
   11.0916   32.1413   20.1200 H   0  0  0  0  0
   13.4100   32.4477   18.2764 H   0  0  0  0  0
   12.3688   30.6525   20.4270 H   0  0  0  0  0
   14.0384   30.9663   20.0621 H   0  0  0  0  0
   12.5823   28.7106   19.1431 H   0  0  0  0  0
   14.1209   29.2194   18.5106 H   0  0  0  0  0
   11.7060   29.2405   17.0277 H   0  0  0  0  0
   13.1328   30.0823   16.5625 H   0  0  0  0  0
   11.6206   31.9346   16.8455 H   0  0  0  0  0
   10.7440   31.1647   18.1092 H   0  0  0  0  0
   10.9758   35.1220   19.9512 H   0  0  0  0  0
   12.5079   35.9792   20.2808 H   0  0  0  0  0
   10.6063   37.3118   20.9720 H   0  0  0  0  0
   10.0725   35.9369   22.0711 H   0  0  0  0  0
   12.8898   39.6029   20.6790 H   0  0  0  0  0
   12.0091   41.3031   19.2153 H   0  0  0  0  0
  6  1  1  0  0  0
  1  9  1  0  0  0
  2  3  1  0  0  0
  5  2  1  0  0  0
  4  3  1  0  0  0
 15  4  1  0  0  0
 15  5  1  0  0  0
 12  6  1  0  0  0
  8  7  2  0  0  0
  9  8  1  0  0  0
  8 16  1  0  0  0
 10  9  1  0  0  0
 11 10  1  0  0  0
 12 11  1  0  0  0
 13 12  1  0  0  0
 14 13  1  0  0  0
 14 15  1  0  0  0
 16 17  4  0  0  0
 16 43  4  0  0  0
 17 18  1  0  0  0
 17 25  4  0  0  0
 18 19  1  0  0  0
 19 20  4  0  0  0
 19 24  4  0  0  0
 20 21  4  0  0  0
 21 22  4  0  0  0
 22 23  4  0  0  0
 23 24  4  0  0  0
 25 26  4  0  0  0
 26 27  1  0  0  0
 26 42  4  0  0  0
 27 28  1  0  0  0
 27 41  2  0  0  0
 28 29  1  0  0  0
 28 40  1  0  0  0
 29 30  1  0  0  0
 30 31  1  0  0  0
 31 32  1  0  0  0
 31 39  1  0  0  0
 32 33  1  0  0  0
 33 34  1  0  0  0
 34 35  1  0  0  0
 34 38  1  0  0  0
 35 36  1  0  0  0
 36 37  1  0  0  0
 37 38  1  0  0  0
 39 40  1  0  0  0
 42 43  4  0  0  0
  1 44  1  0  0  0
  1 45  1  0  0  0
  2 46  1  0  0  0
  2 47  1  0  0  0
  3 48  1  0  0  0
  3 49  1  0  0  0
  4 50  1  0  0  0
  4 51  1  0  0  0
  5 52  1  0  0  0
  5 53  1  0  0  0
  6 54  1  0  0  0
  6 55  1  0  0  0
 10 56  1  0  0  0
 10 57  1  0  0  0
 11 58  1  0  0  0
 11 59  1  0  0  0
 12 60  1  0  0  0
 13 61  1  0  0  0
 13 62  1  0  0  0
 14 63  1  0  0  0
 14 64  1  0  0  0
 15 65  1  0  0  0
 18 66  1  0  0  0
 20 67  1  0  0  0
 21 68  1  0  0  0
 22 69  1  0  0  0
 23 70  1  0  0  0
 24 71  1  0  0  0
 25 72  1  0  0  0
 29 73  1  0  0  0
 29 74  1  0  0  0
 30 75  1  0  0  0
 30 76  1  0  0  0
 31 77  1  0  0  0
 32 78  1  0  0  0
 32 79  1  0  0  0
 33 80  1  0  0  0
 33 81  1  0  0  0
 34 82  1  0  0  0
 35 83  1  0  0  0
 35 84  1  0  0  0
 36 85  1  0  0  0
 36 86  1  0  0  0
 37 87  1  0  0  0
 37 88  1  0  0  0
 38 89  1  0  0  0
 38 90  1  0  0  0
 39 91  1  0  0  0
 39 92  1  0  0  0
 40 93  1  0  0  0
 40 94  1  0  0  0
 42 95  1  0  0  0
 43 96  1  0  0  0
M  END
$$$$
