2vj8_ligand
  -I-interpret- 

 58 59  0  0  0  0  0  0  0  0999 V2000
    8.1010   39.2790   67.5910 C   0  0  0  0  0
    8.0020   37.9160   67.9260 C   0  0  0  0  0
    7.7700   37.5000   69.2450 C   0  0  0  0  0
    7.6320   38.4700   70.2610 C   0  0  0  0  0
    7.7190   39.8380   69.9300 C   0  0  0  0  0
    7.9510   40.2510   68.6080 C   0  0  0  0  0
    8.0420   41.7380   68.2960 C   0  0  0  0  0
    8.3770   41.9640   66.9270 O   0  0  0  0  0
    9.7120   42.1700   66.4550 C   0  0  0  0  0
    9.9750   43.1500   65.4750 C   0  0  0  0  0
   11.2920   43.3460   65.0070 C   0  0  0  0  0
   10.7740   41.3750   66.9610 C   0  0  0  0  0
   12.0850   41.5780   66.4950 C   0  0  0  0  0
   12.3420   42.5640   65.5250 C   0  0  0  0  0
   13.7930   42.7920   65.0760 C   0  0  0  0  0
   14.0900   42.0900   63.7170 C   0  0  0  0  0
   13.5620   40.7250   63.7290 N   0  3  0  0  0
   15.6120   42.0380   63.4580 C   0  0  0  0  0
   16.3700   41.7450   64.7040 N   0  0  0  0  0
   16.1120   40.6190   65.3950 O   0  0  0  0  0
   17.2980   42.6210   65.1480 C   0  0  0  0  0
   17.5160   43.6810   64.5390 O   0  0  0  0  0
   18.0540   42.3010   66.4240 C   0  0  0  0  0
   18.9630   43.4560   66.8290 C   0  0  0  0  0
   18.4750   44.0680   68.1380 C   0  0  0  0  0
   18.8490   45.5480   68.2010 C   0  0  0  0  0
   17.6250   46.4020   68.4790 C   0  0  0  0  0
   17.7790   47.3410   69.2660 O   0  0  0  0  0
   16.5540   46.0980   67.8910 O   0  0  0  0  0
    8.2908   39.5821   66.5613 H   0  0  0  0  0
    8.1081   37.1661   67.1421 H   0  0  0  0  0
    7.6970   36.4388   69.4831 H   0  0  0  0  0
    7.4596   38.1642   71.2929 H   0  0  0  0  0
    7.6043   40.5873   70.7133 H   0  0  0  0  0
    8.8217   42.1752   68.9196 H   0  0  0  0  0
    7.0716   42.1931   68.4943 H   0  0  0  0  0
    9.1604   43.7564   65.0789 H   0  0  0  0  0
   11.4956   44.1003   64.2470 H   0  0  0  0  0
   10.5733   40.6085   67.7095 H   0  0  0  0  0
   12.9022   40.9714   66.8853 H   0  0  0  0  0
   14.4572   42.3735   65.8321 H   0  0  0  0  0
   13.9507   43.8634   64.9519 H   0  0  0  0  0
   13.6078   42.6631   62.9250 H   0  0  0  0  0
   13.7624   40.2764   62.8351 H   0  0  0  0  0
   14.0036   40.1975   64.4821 H   0  0  0  0  0
   12.5534   40.7532   63.8781 H   0  0  0  0  0
   15.9306   43.0101   63.0817 H   0  0  0  0  0
   15.8119   41.2439   62.7386 H   0  0  0  0  0
   16.6820   40.5806   66.1665 H   0  0  0  0  0
   18.6688   41.4174   66.2525 H   0  0  0  0  0
   17.3324   42.1289   67.2227 H   0  0  0  0  0
   18.9461   44.2168   66.0487 H   0  0  0  0  0
   19.9785   43.0836   66.9634 H   0  0  0  0  0
   18.9437   43.5460   68.9722 H   0  0  0  0  0
   17.3907   43.9715   68.1943 H   0  0  0  0  0
   19.2738   45.8443   67.2419 H   0  0  0  0  0
   19.5698   45.6944   69.0054 H   0  0  0  0  0
   16.7022   45.3289   67.3359 H   0  0  0  0  0
  1  2  4  0  0  0
  1  6  4  0  0  0
  2  3  4  0  0  0
  3  4  4  0  0  0
  4  5  4  0  0  0
  5  6  4  0  0  0
  6  7  1  0  0  0
  7  8  1  0  0  0
  8  9  1  0  0  0
  9 10  4  0  0  0
  9 12  4  0  0  0
 10 11  4  0  0  0
 11 14  4  0  0  0
 12 13  4  0  0  0
 13 14  4  0  0  0
 14 15  1  0  0  0
 15 16  1  0  0  0
 16 17  1  0  0  0
 16 18  1  0  0  0
 18 19  1  0  0  0
 19 20  1  0  0  0
 19 21  1  0  0  0
 21 22  2  0  0  0
 21 23  1  0  0  0
 23 24  1  0  0  0
 24 25  1  0  0  0
 25 26  1  0  0  0
 26 27  1  0  0  0
 27 28  2  0  0  0
 27 29  1  0  0  0
  1 30  1  0  0  0
  2 31  1  0  0  0
  3 32  1  0  0  0
  4 33  1  0  0  0
  5 34  1  0  0  0
  7 35  1  0  0  0
  7 36  1  0  0  0
 10 37  1  0  0  0
 11 38  1  0  0  0
 12 39  1  0  0  0
 13 40  1  0  0  0
 15 41  1  0  0  0
 15 42  1  0  0  0
 16 43  1  0  0  0
 17 44  1  0  0  0
 17 45  1  0  0  0
 17 46  1  0  0  0
 18 47  1  0  0  0
 18 48  1  0  0  0
 20 49  1  0  0  0
 23 50  1  0  0  0
 23 51  1  0  0  0
 24 52  1  0  0  0
 24 53  1  0  0  0
 25 54  1  0  0  0
 25 55  1  0  0  0
 26 56  1  0  0  0
 26 57  1  0  0  0
 29 58  1  0  0  0
M  END
$$$$
