4jaj_ligand
  -I-interpret- 

 23 25  0  0  0  0  0  0  0  0999 V2000
   -5.7120  -30.1240    3.4730 C   0  0  0  0  0
   -5.6200  -30.0330    4.8690 C   0  0  0  0  0
   -4.9410  -31.0610    5.4390 C   0  0  0  0  0
   -4.8580  -31.0160    6.8830 C   0  0  0  0  0
   -5.1240  -31.1930    2.7480 C   0  0  0  0  0
   -4.4300  -32.2100    3.4070 C   0  0  0  0  0
   -4.3530  -32.1030    4.7670 C   0  0  0  0  0
   -3.6480  -33.0940    5.6190 C   0  0  0  0  0
   -3.0290  -34.0860    5.2040 O   0  0  0  0  0
   -3.6260  -32.9770    6.9320 N   0  0  0  0  0
   -4.1970  -31.9900    7.5850 C   0  0  0  0  0
   -4.0920  -31.9490    8.9170 N   0  0  0  0  0
   -4.6730  -30.9450    9.5720 C   0  0  0  0  0
   -5.3490  -29.9520    8.8780 C   0  0  0  0  0
   -5.4440  -29.9720    7.5290 C   0  0  0  0  0
   -6.2518  -29.3498    2.9277 H   0  0  0  0  0
   -6.0531  -29.2137    5.4428 H   0  0  0  0  0
   -5.2153  -31.2206    1.6622 H   0  0  0  0  0
   -3.9759  -33.0412    2.8676 H   0  0  0  0  0
   -3.1385  -33.6926    7.4711 H   0  0  0  0  0
   -4.6169  -30.9034   10.6598 H   0  0  0  0  0
   -5.8142  -29.1371    9.4326 H   0  0  0  0  0
   -5.9669  -29.1864    6.9836 H   0  0  0  0  0
  1  2  4  0  0  0
  1  5  4  0  0  0
  2  3  4  0  0  0
  3  4  1  0  0  0
  3  7  4  0  0  0
  4 11  4  0  0  0
  4 15  4  0  0  0
  5  6  4  0  0  0
  6  7  4  0  0  0
  7  8  1  0  0  0
  8  9  2  0  0  0
  8 10  1  0  0  0
 10 11  1  0  0  0
 11 12  4  0  0  0
 12 13  4  0  0  0
 13 14  4  0  0  0
 14 15  4  0  0  0
  1 16  1  0  0  0
  2 17  1  0  0  0
  5 18  1  0  0  0
  6 19  1  0  0  0
 10 20  1  0  0  0
 13 21  1  0  0  0
 14 22  1  0  0  0
 15 23  1  0  0  0
M  END
$$$$
