6st3_ligand
  -I-interpret- 

 46 49  0  0  0  0  0  0  0  0999 V2000
    6.6140   22.6940   28.7260 C   0  0  0  0  0
    6.0230   23.1190   27.3870 C   0  0  0  0  0
    5.2910   24.2850   27.2600 C   0  0  0  0  0
    4.9070   23.8240   25.0500 C   0  0  0  0  0
    3.2540   25.4430   22.3240 C   0  0  0  0  0
    3.6180   24.2250   21.7560 C   0  0  0  0  0
    4.2740   23.4920   22.7100 C   0  0  0  0  0
    6.1300   22.3150   26.2580 C   0  0  0  0  0
    7.9400   21.1360   30.1210 C   0  0  0  0  0
    9.1890   21.8630   30.5690 C   0  0  0  0  0
    9.7940   21.4450   31.7390 C   0  0  0  0  0
   10.9360   22.0860   32.1750 C   0  0  0  0  0
    9.7000   22.9110   29.8320 C   0  0  0  0  0
   10.8440   23.5520   30.2790 C   0  0  0  0  0
   11.4550   23.1430   31.4510 C   0  0  0  0  0
   12.7920   23.8630   33.2490 C   0  0  0  0  0
   13.9620   23.3720   33.7850 C   0  0  0  0  0
   14.1730   23.4280   35.1480 C   0  0  0  0  0
   13.2100   23.9790   35.9750 C   0  0  0  0  0
   12.0340   24.4760   35.4400 C   0  0  0  0  0
   11.8270   24.4230   34.0700 C   0  0  0  0  0
    4.7690   24.6050   26.0930 N   0  0  0  0  0
    4.3040   24.2260   23.7960 N   0  0  0  0  0
    3.6800   25.4350   23.5900 N   0  0  0  0  0
    5.5830   22.6900   25.1110 N   0  0  0  0  0
    7.4570   21.5380   28.8140 N   0  0  0  0  0
    6.3590   23.2910   29.7130 O   0  0  0  0  0
    6.8440   21.1240   26.3330 O   0  0  0  0  0
   12.6170   23.8040   31.8570 O   0  0  0  0  0
    5.1462   24.9369   28.1215 H   0  0  0  0  0
    2.7201   26.2532   21.8274 H   0  0  0  0  0
    3.4165   23.9099   20.7322 H   0  0  0  0  0
    4.6904   22.4919   22.5893 H   0  0  0  0  0
    7.1553   21.3699   30.8405 H   0  0  0  0  0
    8.1879   20.0763   30.0611 H   0  0  0  0  0
    9.3739   20.6180   32.3114 H   0  0  0  0  0
   11.4287   21.7586   33.0905 H   0  0  0  0  0
    9.2110   23.2301   28.9116 H   0  0  0  0  0
   11.2632   24.3795   29.7067 H   0  0  0  0  0
   14.7210   22.9394   33.1331 H   0  0  0  0  0
   15.0981   23.0382   35.5728 H   0  0  0  0  0
   13.3780   24.0218   37.0511 H   0  0  0  0  0
   11.2745   24.9068   36.0924 H   0  0  0  0  0
   10.9076   24.8208   33.6403 H   0  0  0  0  0
    5.6830   22.1070   24.2800 H   0  0  0  0  0
    7.7108   21.0113   27.9782 H   0  0  0  0  0
  1  2  1  0  0  0
 26  1  1  0  0  0
  1 27  2  0  0  0
  2  3  2  0  0  0
  2  8  1  0  0  0
  3 22  1  0  0  0
 22  4  2  0  0  0
  4 23  1  0  0  0
 25  4  1  0  0  0
  6  5  4  0  0  0
  5 24  4  0  0  0
  7  6  4  0  0  0
 23  7  4  0  0  0
  8 25  1  0  0  0
  8 28  2  0  0  0
 10  9  1  0  0  0
  9 26  1  0  0  0
 11 10  4  0  0  0
 13 10  4  0  0  0
 12 11  4  0  0  0
 15 12  4  0  0  0
 14 13  4  0  0  0
 15 14  4  0  0  0
 29 15  1  0  0  0
 16 17  4  0  0  0
 16 21  4  0  0  0
 16 29  1  0  0  0
 17 18  4  0  0  0
 18 19  4  0  0  0
 19 20  4  0  0  0
 20 21  4  0  0  0
 23 24  4  0  0  0
  3 30  1  0  0  0
  5 31  1  0  0  0
  6 32  1  0  0  0
  7 33  1  0  0  0
  9 34  1  0  0  0
  9 35  1  0  0  0
 11 36  1  0  0  0
 12 37  1  0  0  0
 13 38  1  0  0  0
 14 39  1  0  0  0
 17 40  1  0  0  0
 18 41  1  0  0  0
 19 42  1  0  0  0
 20 43  1  0  0  0
 21 44  1  0  0  0
 25 45  1  0  0  0
 26 46  1  0  0  0
M  END
$$$$
