### 
### Created by X-TOOL on Mon Sep 10 21:13:04 2018
### 

@<TRIPOS>MOLECULE
3kx1_ligand
   57    59     1     0     0
SMALL
GAST_HUCK


@<TRIPOS>ATOM
      1 N1        -16.9260   12.0360   -4.1590 N.ar      1 KX1        -0.2583
      2 C2        -16.8330   13.3810   -4.1810 C.ar      1 KX1         0.0464
      3 C3        -16.1480   14.0510   -3.1420 C.ar      1 KX1        -0.0023
      4 C4        -15.6040   13.2800   -2.1000 C.ar      1 KX1         0.0436
      5 N5        -15.6960   11.9390   -2.1110 N.ar      1 KX1        -0.2586
      6 C6        -16.3520   11.3800   -3.1390 C.ar      1 KX1         0.1416
      7 C7        -14.8070   13.8190   -0.9160 C.3       1 KX1         0.0068
      8 C8        -15.6030   14.5560    0.1760 C.3       1 KX1         0.0010
      9 C9        -15.2720   14.0560    1.5930 C.3       1 KX1        -0.0296
     10 C10       -17.5540   13.9210   -5.4470 C.3       1 KX1         0.0136
     11 C11       -19.0410   14.2250   -5.1970 C.3       1 KX1        -0.0367
     12 C12       -20.0310   13.9550   -6.3310 C.3       1 KX1        -0.0506
     13 C13       -16.9350   15.1360   -6.1150 C.3       1 KX1        -0.0367
     14 C14       -20.0260   14.8590   -7.5680 C.3       1 KX1        -0.0529
     15 C15       -17.4990   15.2980   -7.5260 C.3       1 KX1        -0.0506
     16 C16       -18.9050   15.8820   -7.6390 C.3       1 KX1        -0.0529
     17 C17       -16.5590    9.9250   -3.2250 C.2       1 KX1         0.0572
     18 N18       -16.2690   14.5740    2.6480 N.4       1 KX1         0.2354
     19 N19       -16.3120    9.0120   -2.3410 N.2       1 KX1        -0.3300
     20 C20       -15.5600   14.8270    3.9770 C.3       1 KX1        -0.0319
     21 C21       -16.5410   15.3120    5.0450 C.3       1 KX1        -0.0123
     22 C22       -17.7030   14.3330    5.2480 C.3       1 KX1        -0.0434
     23 C23       -18.4220   14.1000    3.9220 C.3       1 KX1        -0.0123
     24 C24       -17.4670   13.6420    2.8200 C.3       1 KX1        -0.0319
     25 H1        -16.0449   15.1301   -3.1485 H         1 KX1         0.0697
     26 H2        -14.0562   14.5192   -1.3108 H         1 KX1         0.0480
     27 H3        -14.2994   12.9669   -0.4404 H         1 KX1         0.0480
     28 H4        -16.6767   14.4044   -0.0086 H         1 KX1         0.0344
     29 H5        -15.3689   15.6292    0.1181 H         1 KX1         0.0344
     30 H6        -14.2626   14.4005    1.8621 H         1 KX1         0.0816
     31 H7        -15.2966   12.9563    1.5941 H         1 KX1         0.0816
     32 H8        -17.5079   13.1046   -6.1827 H         1 KX1         0.0514
     33 H9        -19.1182   15.2925   -4.9431 H         1 KX1         0.0295
     34 H10       -19.3581   13.6193   -4.3353 H         1 KX1         0.0295
     35 H11       -21.0396   14.0137   -5.8960 H         1 KX1         0.0267
     36 H12       -19.8425   12.9301   -6.6830 H         1 KX1         0.0267
     37 H13       -15.8443   15.0052   -6.1711 H         1 KX1         0.0295
     38 H14       -17.1667   16.0346   -5.5243 H         1 KX1         0.0295
     39 H15       -20.9812   15.4040   -7.5908 H         1 KX1         0.0265
     40 H16       -19.9503   14.2143   -8.4560 H         1 KX1         0.0265
     41 H17       -17.5123   14.3035   -7.9960 H         1 KX1         0.0267
     42 H18       -16.8181   15.9580   -8.0835 H         1 KX1         0.0267
     43 H19       -19.0444   16.6004   -6.8177 H         1 KX1         0.0265
     44 H20       -18.9812   16.4072   -8.6025 H         1 KX1         0.0265
     45 H21       -16.9787    9.5665   -4.1637 H         1 KX1         0.1162
     46 H22       -16.6238   15.4584    2.3193 H         1 KX1         0.2033
     47 H23       -16.5092    8.0451   -2.5465 H         1 KX1         0.1393
     48 H24       -14.7837   15.5922    3.8293 H         1 KX1         0.0814
     49 H25       -15.0926   13.8914    4.3179 H         1 KX1         0.0814
     50 H26       -16.9479   16.2863    4.7366 H         1 KX1         0.0317
     51 H27       -16.0017   15.4246    5.9971 H         1 KX1         0.0317
     52 H28       -18.4107   14.7529    5.9780 H         1 KX1         0.0269
     53 H29       -17.3125   13.3760    5.6244 H         1 KX1         0.0269
     54 H30       -18.9001   15.0397    3.6084 H         1 KX1         0.0317
     55 H31       -19.1916   13.3276    4.0673 H         1 KX1         0.0317
     56 H32       -17.0970   12.6371    3.0713 H         1 KX1         0.0814
     57 H33       -18.0202   13.6021    1.8701 H         1 KX1         0.0814
@<TRIPOS>BOND
     1    1    2 ar 
     2    1    6 ar 
     3    2    3 ar 
     4    2   10 1  
     5    3    4 ar 
     6    4    5 ar 
     7    4    7 1  
     8    5    6 ar 
     9    6   17 1  
    10    7    8 1  
    11    8    9 1  
    12    9   18 1  
    13   10   11 1  
    14   10   13 1  
    15   11   12 1  
    16   12   14 1  
    17   13   15 1  
    18   14   16 1  
    19   15   16 1  
    20   17   19 2  
    21   18   20 1  
    22   18   24 1  
    23   20   21 1  
    24   21   22 1  
    25   22   23 1  
    26   23   24 1  
    27    3   25 1  
    28    7   26 1  
    29    7   27 1  
    30    8   28 1  
    31    8   29 1  
    32    9   30 1  
    33    9   31 1  
    34   10   32 1  
    35   11   33 1  
    36   11   34 1  
    37   12   35 1  
    38   12   36 1  
    39   13   37 1  
    40   13   38 1  
    41   14   39 1  
    42   14   40 1  
    43   15   41 1  
    44   15   42 1  
    45   16   43 1  
    46   16   44 1  
    47   17   45 1  
    48   18   46 1  
    49   19   47 1  
    50   20   48 1  
    51   20   49 1  
    52   21   50 1  
    53   21   51 1  
    54   22   52 1  
    55   22   53 1  
    56   23   54 1  
    57   23   55 1  
    58   24   56 1  
    59   24   57 1  
@<TRIPOS>SUBSTRUCTURE
     1 KX1         1

