3kx1_ligand
  -I-interpret- 

 57 59  0  0  0  0  0  0  0  0999 V2000
  -16.9260   12.0360   -4.1590 N   0  0  0  0  0
  -16.8330   13.3810   -4.1810 C   0  0  0  0  0
  -16.1480   14.0510   -3.1420 C   0  0  0  0  0
  -15.6040   13.2800   -2.1000 C   0  0  0  0  0
  -15.6960   11.9390   -2.1110 N   0  0  0  0  0
  -16.3520   11.3800   -3.1390 C   0  0  0  0  0
  -14.8070   13.8190   -0.9160 C   0  0  0  0  0
  -15.6030   14.5560    0.1760 C   0  0  0  0  0
  -15.2720   14.0560    1.5930 C   0  0  0  0  0
  -17.5540   13.9210   -5.4470 C   0  0  0  0  0
  -19.0410   14.2250   -5.1970 C   0  0  0  0  0
  -20.0310   13.9550   -6.3310 C   0  0  0  0  0
  -16.9350   15.1360   -6.1150 C   0  0  0  0  0
  -20.0260   14.8590   -7.5680 C   0  0  0  0  0
  -17.4990   15.2980   -7.5260 C   0  0  0  0  0
  -18.9050   15.8820   -7.6390 C   0  0  0  0  0
  -16.5590    9.9250   -3.2250 C   0  0  0  0  0
  -16.2690   14.5740    2.6480 N   0  3  0  0  0
  -16.3120    9.0120   -2.3410 N   0  0  0  0  0
  -15.5600   14.8270    3.9770 C   0  0  0  0  0
  -16.5410   15.3120    5.0450 C   0  0  0  0  0
  -17.7030   14.3330    5.2480 C   0  0  0  0  0
  -18.4220   14.1000    3.9220 C   0  0  0  0  0
  -17.4670   13.6420    2.8200 C   0  0  0  0  0
  -16.0444   15.1360   -3.1485 H   0  0  0  0  0
  -14.1148   14.5526   -1.3294 H   0  0  0  0  0
  -14.3661   12.9486   -0.4300 H   0  0  0  0  0
  -16.6629   14.3752   -0.0033 H   0  0  0  0  0
  -15.3413   15.6129    0.1247 H   0  0  0  0  0
  -14.2806   14.4242    1.8571 H   0  0  0  0  0
  -15.3238   12.9672    1.5866 H   0  0  0  0  0
  -17.4320   13.0861   -6.1370 H   0  0  0  0  0
  -19.0903   15.2995   -5.0206 H   0  0  0  0  0
  -19.3399   13.5584   -4.3881 H   0  0  0  0  0
  -21.0130   14.1052   -5.8825 H   0  0  0  0  0
  -19.7581   12.9692   -6.7076 H   0  0  0  0  0
  -15.8547   15.0030   -6.1729 H   0  0  0  0  0
  -17.1687   16.0257   -5.5302 H   0  0  0  0  0
  -20.9567   15.4256   -7.5374 H   0  0  0  0  0
  -19.8960   14.2016   -8.4277 H   0  0  0  0  0
  -17.5568   14.2929   -7.9437 H   0  0  0  0  0
  -16.8397   16.0017   -8.0341 H   0  0  0  0  0
  -19.0371   16.5562   -6.7927 H   0  0  0  0  0
  -18.9725   16.3588   -8.6169 H   0  0  0  0  0
  -16.9791    9.5661   -4.1646 H   0  0  0  0  0
  -16.6405   15.4614    2.3090 H   0  0  0  0  0
  -15.9179    9.2711   -1.4366 H   0  0  0  0  0
  -14.8027   15.5962    3.8259 H   0  0  0  0  0
  -15.1121   13.8926    4.3153 H   0  0  0  0  0
  -16.9538   16.2667    4.7190 H   0  0  0  0  0
  -16.0012   15.3992    5.9879 H   0  0  0  0  0
  -18.4048   14.7519    5.9692 H   0  0  0  0  0
  -17.3140   13.3844    5.6181 H   0  0  0  0  0
  -18.8724   15.0424    3.6103 H   0  0  0  0  0
  -19.1661   13.3178    4.0726 H   0  0  0  0  0
  -17.0871   12.6582    3.0957 H   0  0  0  0  0
  -18.0207   13.6341    1.8811 H   0  0  0  0  0
  1  2  4  0  0  0
  1  6  4  0  0  0
  2  3  4  0  0  0
  2 10  1  0  0  0
  3  4  4  0  0  0
  4  5  4  0  0  0
  4  7  1  0  0  0
  5  6  4  0  0  0
  6 17  1  0  0  0
  7  8  1  0  0  0
  8  9  1  0  0  0
  9 18  1  0  0  0
 10 11  1  0  0  0
 10 13  1  0  0  0
 11 12  1  0  0  0
 12 14  1  0  0  0
 13 15  1  0  0  0
 14 16  1  0  0  0
 15 16  1  0  0  0
 17 19  2  0  0  0
 18 20  1  0  0  0
 18 24  1  0  0  0
 20 21  1  0  0  0
 21 22  1  0  0  0
 22 23  1  0  0  0
 23 24  1  0  0  0
  3 25  1  0  0  0
  7 26  1  0  0  0
  7 27  1  0  0  0
  8 28  1  0  0  0
  8 29  1  0  0  0
  9 30  1  0  0  0
  9 31  1  0  0  0
 10 32  1  0  0  0
 11 33  1  0  0  0
 11 34  1  0  0  0
 12 35  1  0  0  0
 12 36  1  0  0  0
 13 37  1  0  0  0
 13 38  1  0  0  0
 14 39  1  0  0  0
 14 40  1  0  0  0
 15 41  1  0  0  0
 15 42  1  0  0  0
 16 43  1  0  0  0
 16 44  1  0  0  0
 17 45  1  0  0  0
 18 46  1  0  0  0
 19 47  1  0  0  0
 20 48  1  0  0  0
 20 49  1  0  0  0
 21 50  1  0  0  0
 21 51  1  0  0  0
 22 52  1  0  0  0
 22 53  1  0  0  0
 23 54  1  0  0  0
 23 55  1  0  0  0
 24 56  1  0  0  0
 24 57  1  0  0  0
M  END
$$$$
