5mob_ligand
  -I-interpret- 

 41 41  0  0  0  0  0  0  0  0999 V2000
   19.4410   13.5410    4.6480 C   0  0  0  0  0
   19.2200   12.9370    3.2970 C   0  0  0  0  0
   18.0870   12.3300    2.8290 C   0  0  0  0  0
   16.8590   12.2550    3.6850 C   0  0  0  0  0
   15.6990   11.6550    3.2820 C   0  0  0  0  0
   18.1160   11.6660    1.4880 C   0  0  0  0  0
   14.4750   11.6740    4.1620 C   0  0  0  0  0
   14.7580   12.3370    5.3470 O   0  0  0  0  0
   13.4600   12.5170    3.4150 C   0  0  0  0  0
   12.4550   11.8640    2.5350 C   0  0  0  0  0
   12.3730   10.3840    2.5620 C   0  0  0  0  0
   11.4230    9.8290    2.0070 O   0  0  0  0  0
   13.4270    9.5910    3.2620 C   0  0  0  0  0
   18.5270   13.7180    5.4980 O   0  0  0  0  0
   13.9920   10.2750    4.4680 C   0  0  0  0  0
   20.5980   13.8980    4.9490 O   0  0  0  0  0
   13.5640   14.0060    3.3950 C   0  0  0  0  0
   12.8970   10.2790    5.5020 C   0  0  0  0  0
   15.0650    9.4000    5.0410 C   0  0  0  0  0
   20.0604   12.9865    2.6046 H   0  0  0  0  0
   16.8927   12.7014    4.6788 H   0  0  0  0  0
   15.6584   11.1570    2.3132 H   0  0  0  0  0
   18.3655   12.4028    0.7245 H   0  0  0  0  0
   18.8668   10.8758    1.4914 H   0  0  0  0  0
   17.1367   11.2375    1.2749 H   0  0  0  0  0
   15.4004   11.8311    5.8499 H   0  0  0  0  0
   12.9265   12.4975    4.3653 H   0  0  0  0  0
   12.7478   12.1213    1.5171 H   0  0  0  0  0
   11.4857   12.2162    2.8880 H   0  0  0  0  0
   14.2455    9.4427    2.5576 H   0  0  0  0  0
   12.9665    8.6624    3.5994 H   0  0  0  0  0
   17.6939   13.4017    5.1409 H   0  0  0  0  0
   13.5095   14.3865    4.4150 H   0  0  0  0  0
   14.5146   14.2966    2.9478 H   0  0  0  0  0
   12.7436   14.4184    2.8077 H   0  0  0  0  0
   13.2715   10.7233    6.4242 H   0  0  0  0  0
   12.0529   10.8616    5.1331 H   0  0  0  0  0
   12.5769    9.2550    5.6944 H   0  0  0  0  0
   15.8860    9.3201    4.3284 H   0  0  0  0  0
   15.4302    9.8366    5.9706 H   0  0  0  0  0
   14.6566    8.4091    5.2394 H   0  0  0  0  0
  1  2  1  0  0  0
  1 14  1  0  0  0
  1 16  2  0  0  0
  2  3  2  0  0  0
  3  4  1  0  0  0
  3  6  1  0  0  0
  4  5  2  0  0  0
  5  7  1  0  0  0
  7  8  1  0  0  0
  7  9  1  0  0  0
  7 15  1  0  0  0
  9 10  1  0  0  0
  9 17  1  0  0  0
 10 11  1  0  0  0
 11 12  2  0  0  0
 11 13  1  0  0  0
 13 15  1  0  0  0
 15 18  1  0  0  0
 15 19  1  0  0  0
  2 20  1  0  0  0
  4 21  1  0  0  0
  5 22  1  0  0  0
  6 23  1  0  0  0
  6 24  1  0  0  0
  6 25  1  0  0  0
  8 26  1  0  0  0
  9 27  1  0  0  0
 10 28  1  0  0  0
 10 29  1  0  0  0
 13 30  1  0  0  0
 13 31  1  0  0  0
 14 32  1  0  0  0
 17 33  1  0  0  0
 17 34  1  0  0  0
 17 35  1  0  0  0
 18 36  1  0  0  0
 18 37  1  0  0  0
 18 38  1  0  0  0
 19 39  1  0  0  0
 19 40  1  0  0  0
 19 41  1  0  0  0
M  END
$$$$
