4dgg_ligand
  -I-interpret- 

 54 58  0  0  0  0  0  0  0  0999 V2000
   -8.1100  -40.8200    5.1400 C   0  0  0  0  0
   -8.8210  -39.5710    4.5810 C   0  0  0  0  0
   -8.4360  -39.2830    3.1190 C   0  0  0  0  0
   -8.4960  -38.4330    5.4500 N   0  0  0  0  0
   -7.3660  -38.2020    5.8820 N   0  0  0  0  0
   -9.4140  -37.5650    5.8630 C   0  0  0  0  0
  -10.7440  -37.4630    5.6360 N   0  0  0  0  0
  -11.4210  -36.4690    6.1940 C   0  0  0  0  0
  -10.8230  -35.5560    6.9680 N   0  0  0  0  0
   -9.5020  -35.6020    7.2380 C   0  0  0  0  0
   -8.9700  -34.6570    8.0160 N   0  0  0  0  0
   -8.7410  -36.6480    6.6750 C   0  0  0  0  0
   -7.4080  -37.1160    6.6540 C   0  0  0  0  0
   -6.2700  -36.6150    7.2870 C   0  0  0  0  0
   -6.1880  -36.3770    8.6640 C   0  0  0  0  0
   -5.1350  -36.4380    6.5050 C   0  0  0  0  0
   -3.9380  -35.9830    7.0410 C   0  0  0  0  0
   -3.8540  -35.7230    8.3950 C   0  0  0  0  0
   -2.6400  -35.2680    8.9080 C   0  0  0  0  0
   -4.9780  -35.9170    9.2140 C   0  0  0  0  0
   -4.8700  -35.6500   10.5780 C   0  0  0  0  0
   -3.6510  -35.1910   11.0960 C   0  0  0  0  0
   -2.5330  -35.0070   10.2720 C   0  0  0  0  0
   -1.3590  -34.5210   10.7850 O   0  0  0  0  0
   -0.2380  -35.3960   11.0100 C   0  0  0  0  0
    0.5850  -35.0880   12.0910 C   0  0  0  0  0
    0.2310  -34.0210   12.9060 C   0  0  0  0  0
    1.0170  -33.6880   14.0010 C   0  0  0  0  0
    0.5320  -32.3620   15.0010 Cl  0  0  0  0  0
    2.1690  -34.4170   14.2890 C   0  0  0  0  0
    2.5320  -35.4850   13.4690 C   0  0  0  0  0
    1.7370  -35.8240   12.3730 C   0  0  0  0  0
   -7.0334  -40.6498    5.1496 H   0  0  0  0  0
   -8.4581  -41.0108    6.1552 H   0  0  0  0  0
   -8.3377  -41.6791    4.5089 H   0  0  0  0  0
   -9.8967  -39.7466    4.5759 H   0  0  0  0  0
   -8.9824  -38.4083    2.7663 H   0  0  0  0  0
   -7.3645  -39.0928    3.0575 H   0  0  0  0  0
   -8.6894  -40.1447    2.5014 H   0  0  0  0  0
  -12.4939  -36.3935    6.0174 H   0  0  0  0  0
   -9.5603  -33.9167    8.3953 H   0  0  0  0  0
   -7.9731  -34.6751    8.2313 H   0  0  0  0  0
   -7.0538  -36.5466    9.3040 H   0  0  0  0  0
   -5.1861  -36.6630    5.4397 H   0  0  0  0  0
   -3.0708  -35.8320    6.3981 H   0  0  0  0  0
   -1.7846  -35.1183    8.2493 H   0  0  0  0  0
   -5.7263  -35.7969   11.2362 H   0  0  0  0  0
   -3.5714  -34.9729   12.1610 H   0  0  0  0  0
    0.3889  -35.3173   10.1218 H   0  0  0  0  0
   -0.6602  -36.3782   11.2227 H   0  0  0  0  0
   -0.6665  -33.4432   12.6855 H   0  0  0  0  0
    2.7830  -34.1540   15.1504 H   0  0  0  0  0
    3.4361  -36.0547   13.6839 H   0  0  0  0  0
    2.0159  -36.6640   11.7369 H   0  0  0  0  0
  1  2  1  0  0  0
  2  3  1  0  0  0
  2  4  1  0  0  0
  4  5  4  0  0  0
  4  6  4  0  0  0
  5 13  4  0  0  0
  6  7  4  0  0  0
  6 12  4  0  0  0
  7  8  4  0  0  0
  8  9  4  0  0  0
  9 10  4  0  0  0
 10 11  1  0  0  0
 10 12  4  0  0  0
 12 13  4  0  0  0
 13 14  1  0  0  0
 14 15  4  0  0  0
 14 16  4  0  0  0
 15 20  4  0  0  0
 16 17  4  0  0  0
 17 18  4  0  0  0
 18 19  4  0  0  0
 18 20  4  0  0  0
 19 23  4  0  0  0
 20 21  4  0  0  0
 21 22  4  0  0  0
 22 23  4  0  0  0
 23 24  1  0  0  0
 24 25  1  0  0  0
 25 26  1  0  0  0
 26 27  4  0  0  0
 26 32  4  0  0  0
 27 28  4  0  0  0
 28 29  1  0  0  0
 28 30  4  0  0  0
 30 31  4  0  0  0
 31 32  4  0  0  0
  1 33  1  0  0  0
  1 34  1  0  0  0
  1 35  1  0  0  0
  2 36  1  0  0  0
  3 37  1  0  0  0
  3 38  1  0  0  0
  3 39  1  0  0  0
  8 40  1  0  0  0
 11 41  1  0  0  0
 11 42  1  0  0  0
 15 43  1  0  0  0
 16 44  1  0  0  0
 17 45  1  0  0  0
 19 46  1  0  0  0
 21 47  1  0  0  0
 22 48  1  0  0  0
 25 49  1  0  0  0
 25 50  1  0  0  0
 27 51  1  0  0  0
 30 52  1  0  0  0
 31 53  1  0  0  0
 32 54  1  0  0  0
M  END
$$$$
