5u5t_ligand
  -I-interpret- 

 38 40  0  0  0  0  0  0  0  0999 V2000
   28.1280   71.6780   95.2540 C   0  0  0  0  0
   27.3490   70.9540   94.3240 C   0  0  0  0  0
   25.9390   70.9600   94.4050 C   0  0  0  0  0
   30.0300   72.7270   94.1550 C   0  0  0  0  0
   31.2650   72.3080   93.3890 C   0  0  0  0  0
   31.5820   74.6340   92.5910 C   0  0  0  0  0
   30.4650   75.1060   93.5310 C   0  0  0  0  0
   30.2690   74.1330   94.7040 C   0  0  0  0  0
   31.1540   72.7470   90.9890 C   0  0  0  0  0
   25.2670   71.7110   95.3860 C   0  0  0  0  0
   26.0730   72.4430   96.2530 C   0  0  0  0  0
   27.4470   72.4350   96.1850 C   0  0  0  0  0
   25.6830   73.2210   97.3000 O   0  0  0  0  0
   26.8620   73.8130   97.8910 C   0  0  0  0  0
   27.9670   73.2370   97.1690 O   0  0  0  0  0
   29.6370   71.7150   95.2220 C   0  0  0  0  0
   31.3150   73.2190   92.2460 N   0  0  0  0  0
   31.5390   73.4410   89.9190 N   0  0  0  0  0
   30.5740   71.4590   90.7570 N   0  0  0  0  0
   27.8414   70.3847   93.5356 H   0  0  0  0  0
   25.3603   70.3711   93.6933 H   0  0  0  0  0
   29.1686   72.7533   93.4876 H   0  0  0  0  0
   31.2176   71.2645   93.0775 H   0  0  0  0  0
   32.1652   72.3705   94.0004 H   0  0  0  0  0
   32.5522   74.7281   93.0788 H   0  0  0  0  0
   31.6019   75.2462   91.6894 H   0  0  0  0  0
   29.5350   75.1565   92.9647 H   0  0  0  0  0
   30.7405   76.0810   93.9330 H   0  0  0  0  0
   31.1592   74.1339   95.3331 H   0  0  0  0  0
   29.4103   74.4447   95.2986 H   0  0  0  0  0
   24.1797   71.7193   95.4627 H   0  0  0  0  0
   26.9257   73.6081   98.9597 H   0  0  0  0  0
   26.8510   74.9002   97.8144 H   0  0  0  0  0
   30.0438   70.7306   94.9908 H   0  0  0  0  0
   30.0382   72.0015   96.1941 H   0  0  0  0  0
   31.9701   74.3582   90.0341 H   0  0  0  0  0
   30.4709   71.1102   89.8040 H   0  0  0  0  0
   30.2638   70.8900   91.5447 H   0  0  0  0  0
  1  2  4  0  0  0
  1 12  4  0  0  0
 16  1  1  0  0  0
  2  3  4  0  0  0
  3 10  4  0  0  0
  5  4  1  0  0  0
  4  8  1  0  0  0
  4 16  1  0  0  0
 17  5  1  0  0  0
  6  7  1  0  0  0
  6 17  1  0  0  0
  7  8  1  0  0  0
 17  9  1  0  0  0
  9 18  2  0  0  0
  9 19  1  0  0  0
 10 11  4  0  0  0
 11 12  4  0  0  0
 11 13  1  0  0  0
 12 15  1  0  0  0
 13 14  1  0  0  0
 14 15  1  0  0  0
  2 20  1  0  0  0
  3 21  1  0  0  0
  4 22  1  0  0  0
  5 23  1  0  0  0
  5 24  1  0  0  0
  6 25  1  0  0  0
  6 26  1  0  0  0
  7 27  1  0  0  0
  7 28  1  0  0  0
  8 29  1  0  0  0
  8 30  1  0  0  0
 10 31  1  0  0  0
 14 32  1  0  0  0
 14 33  1  0  0  0
 16 34  1  0  0  0
 16 35  1  0  0  0
 18 36  1  0  0  0
 19 37  1  0  0  0
 19 38  1  0  0  0
M  END
$$$$
