5k05_ligand
  -I-interpret- 

 30 32  0  0  0  0  0  0  0  0999 V2000
   23.5070    0.0140  -20.8410 C   0  0  0  0  0
   26.8110    6.5310  -19.4260 C   0  0  0  0  0
   22.1390   -0.4690  -21.2560 C   0  0  0  0  0
   24.3740   -2.2380  -21.3410 C   0  0  0  0  0
   22.1520    4.5320  -18.5100 C   0  0  0  0  0
   23.1560   -2.6600  -21.7310 C   0  0  0  0  0
   22.9710   -4.0760  -22.2220 C   0  0  0  0  0
   24.4400    3.6790  -19.5890 C   0  0  0  0  0
   24.9310    2.3650  -20.2910 S   0  0  0  0  0
   22.5600    2.0950  -19.6950 N   0  0  0  0  0
   23.6580    1.4190  -20.3220 C   0  0  0  0  0
   23.0400    3.5320  -19.2170 C   0  0  0  0  0
   25.2770    4.8930  -19.2900 C   0  0  0  0  0
   25.2030    5.6080  -18.1470 N   0  0  0  0  0
   26.1110    6.6210  -18.2000 N   0  0  0  0  0
   26.2740    5.4320  -20.1050 C   0  0  0  0  0
   24.5570   -0.8210  -20.8510 C   0  0  0  0  0
   21.9720   -1.7250  -21.6900 C   0  0  0  0  0
   27.6095    7.1871  -19.7725 H   0  0  0  0  0
   21.2847    0.2059  -21.2024 H   0  0  0  0  0
   25.2256   -2.9173  -21.3789 H   0  0  0  0  0
   22.5755    4.7650  -17.5330 H   0  0  0  0  0
   22.0865    5.4426  -19.1056 H   0  0  0  0  0
   21.1565    4.1064  -18.3838 H   0  0  0  0  0
   23.6011   -4.2414  -23.0959 H   0  0  0  0  0
   23.2525   -4.7727  -21.4324 H   0  0  0  0  0
   21.9263   -4.2324  -22.4909 H   0  0  0  0  0
   26.5770    5.0656  -21.0858 H   0  0  0  0  0
   25.5339   -0.4798  -20.5084 H   0  0  0  0  0
   20.9888   -2.0692  -22.0110 H   0  0  0  0  0
  1  3  4  0  0  0
 11  1  1  0  0  0
  1 17  4  0  0  0
  2 15  4  0  0  0
 16  2  4  0  0  0
  3 18  4  0  0  0
  4  6  4  0  0  0
 17  4  4  0  0  0
 12  5  1  0  0  0
  6  7  1  0  0  0
 18  6  4  0  0  0
  8  9  4  0  0  0
  8 12  4  0  0  0
 13  8  1  0  0  0
  9 11  4  0  0  0
 10 11  4  0  0  0
 12 10  4  0  0  0
 13 14  4  0  0  0
 13 16  4  0  0  0
 14 15  4  0  0  0
  2 19  1  0  0  0
  3 20  1  0  0  0
  4 21  1  0  0  0
  5 22  1  0  0  0
  5 23  1  0  0  0
  5 24  1  0  0  0
  7 25  1  0  0  0
  7 26  1  0  0  0
  7 27  1  0  0  0
 16 28  1  0  0  0
 17 29  1  0  0  0
 18 30  1  0  0  0
M  END
$$$$
