5if6_ligand
  -I-interpret- 

 54 57  0  0  0  0  0  0  0  0999 V2000
    9.7690   21.5740   27.6160 C   0  0  0  0  0
    2.8090   25.0250   27.3520 C   0  0  0  0  0
    6.4600   22.3570   26.0990 C   0  0  0  0  0
    9.2780   21.2820   25.3280 O   0  0  0  0  0
    1.9210   29.4900   28.9630 O   0  0  0  0  0
    9.5740   24.2000   26.9990 O   0  0  0  0  0
    2.7380   28.2280   27.2320 C   0  0  0  0  0
    3.9340   27.1160   25.4900 C   0  0  0  0  0
    2.4470   27.2530   29.5270 C   0  0  0  0  0
    5.3450   26.6620   25.2980 C   0  0  0  0  0
    5.5790   24.2410   28.2080 C   0  0  0  0  0
    7.4810   24.4370   24.4310 C   0  0  0  0  0
    3.6600   26.4090   29.2300 C   0  0  0  0  0
    7.0250   23.8220   28.0110 C   0  0  0  0  0
    8.8680   23.9190   24.7410 C   0  0  0  0  0
    9.2830   22.0220   26.2850 C   0  0  0  0  0
    2.3400   28.4110   28.6120 C   0  0  0  0  0
    3.6160   27.2980   26.9220 C   0  0  0  0  0
    5.5580   25.3320   25.9700 C   0  0  0  0  0
    5.2630   25.5290   27.4650 C   0  0  0  0  0
    6.9850   24.8300   25.7950 C   0  0  0  0  0
    3.8340   26.0630   27.7460 C   0  0  0  0  0
    7.3010   23.5510   26.5550 C   0  0  0  0  0
    8.7770   23.4030   26.1700 C   0  0  0  0  0
    9.1658   20.7327   27.9573 H   0  0  0  0  0
   10.8116   21.2664   27.5360 H   0  0  0  0  0
    9.6847   22.3954   28.3275 H   0  0  0  0  0
    2.9511   24.1285   27.9555 H   0  0  0  0  0
    1.8081   25.4226   27.5198 H   0  0  0  0  0
    2.9310   24.7777   26.2975 H   0  0  0  0  0
    6.7236   21.4810   26.6917 H   0  0  0  0  0
    5.4030   22.5853   26.2359 H   0  0  0  0  0
    6.6564   22.1570   25.0457 H   0  0  0  0  0
    9.5185   23.8768   27.9012 H   0  0  0  0  0
    2.3116   28.8588   26.4520 H   0  0  0  0  0
    3.2674   26.3566   25.0812 H   0  0  0  0  0
    3.8061   28.0723   24.9828 H   0  0  0  0  0
    2.5355   27.6305   30.5457 H   0  0  0  0  0
    1.5601   26.6328   29.3971 H   0  0  0  0  0
    6.0196   27.3965   25.7379 H   0  0  0  0  0
    5.5452   26.5594   24.2315 H   0  0  0  0  0
    5.4107   24.4072   29.2720 H   0  0  0  0  0
    4.9358   23.4520   27.8182 H   0  0  0  0  0
    6.8460   23.7032   23.9345 H   0  0  0  0  0
    7.4761   25.2591   23.7153 H   0  0  0  0  0
    3.5384   25.4690   29.7682 H   0  0  0  0  0
    4.5351   26.9846   29.5317 H   0  0  0  0  0
    7.2116   22.9127   28.5824 H   0  0  0  0  0
    7.6768   24.6265   28.3516 H   0  0  0  0  0
    9.6252   24.6961   24.6366 H   0  0  0  0  0
    9.1754   23.1382   24.0454 H   0  0  0  0  0
    4.8998   24.5881   25.5211 H   0  0  0  0  0
    5.9140   26.3171   27.8434 H   0  0  0  0  0
    7.4595   25.7477   26.1425 H   0  0  0  0  0
 16  1  1  0  0  0
 22  2  1  0  0  0
 23  3  1  0  0  0
 16  4  2  0  0  0
 17  5  2  0  0  0
 24  6  1  0  0  0
  7 17  1  0  0  0
 18  7  2  0  0  0
 10  8  1  0  0  0
  8 18  1  0  0  0
 13  9  1  0  0  0
 17  9  1  0  0  0
 19 10  1  0  0  0
 11 14  1  0  0  0
 20 11  1  0  0  0
 12 15  1  0  0  0
 21 12  1  0  0  0
 22 13  1  0  0  0
 14 23  1  0  0  0
 15 24  1  0  0  0
 24 16  1  0  0  0
 18 22  1  0  0  0
 19 20  1  0  0  0
 19 21  1  0  0  0
 20 22  1  0  0  0
 21 23  1  0  0  0
 23 24  1  0  0  0
  1 25  1  0  0  0
  1 26  1  0  0  0
  1 27  1  0  0  0
  2 28  1  0  0  0
  2 29  1  0  0  0
  2 30  1  0  0  0
  3 31  1  0  0  0
  3 32  1  0  0  0
  3 33  1  0  0  0
  6 34  1  0  0  0
  7 35  1  0  0  0
  8 36  1  0  0  0
  8 37  1  0  0  0
  9 38  1  0  0  0
  9 39  1  0  0  0
 10 40  1  0  0  0
 10 41  1  0  0  0
 11 42  1  0  0  0
 11 43  1  0  0  0
 12 44  1  0  0  0
 12 45  1  0  0  0
 13 46  1  0  0  0
 13 47  1  0  0  0
 14 48  1  0  0  0
 14 49  1  0  0  0
 15 50  1  0  0  0
 15 51  1  0  0  0
 19 52  1  0  0  0
 20 53  1  0  0  0
 21 54  1  0  0  0
M  END
$$$$
