2y71_ligand
  -I-interpret- 

 42 44  0  0  0  0  0  0  0  0999 V2000
    5.6510  -29.0870  -49.4140 C   0  0  0  0  0
    5.9390  -29.5490  -50.6510 C   0  0  0  0  0
    5.1090  -29.9770  -51.6870 C   0  0  0  0  0
    5.6510  -30.4120  -52.9030 C   0  0  0  0  0
    7.0340  -30.4370  -53.0910 C   0  0  0  0  0
    7.8550  -30.0220  -52.0780 C   0  0  0  0  0
    7.3120  -29.5940  -50.8940 C   0  0  0  0  0
    8.0990  -29.0760  -49.5360 S   0  0  0  0  0
    6.7090  -28.7630  -48.6650 C   0  0  0  0  0
    6.7420  -28.2850  -47.3390 C   0  0  0  0  0
    8.0960  -27.9670  -46.6890 O   0  0  0  0  0
    8.2250  -28.3980  -45.4140 C   0  0  0  0  0
    7.1110  -28.5960  -44.6010 C   0  0  0  0  0
    7.2310  -29.0660  -43.2800 C   0  0  0  0  0
    6.0570  -29.9960  -42.9330 C   0  0  0  0  0
    6.2270  -31.2030  -42.6100 O   0  0  0  0  0
    4.9450  -29.4430  -42.9650 O   0  0  0  0  0
    7.1080  -27.8790  -42.4100 O   0  0  0  0  0
    8.5800  -29.7490  -42.9660 C   0  0  0  0  0
    9.7320  -28.8760  -43.4530 C   0  0  0  0  0
   10.9570  -29.5260  -43.0940 O   0  0  0  0  0
    9.6340  -28.8020  -44.9640 C   0  0  0  0  0
   10.5890  -27.8680  -45.5530 O   0  0  0  0  0
    4.7770  -30.8840  -54.0840 C   0  0  0  0  0
    4.6276  -28.9858  -49.0528 H   0  0  0  0  0
    4.0278  -29.9729  -51.5489 H   0  0  0  0  0
    7.4554  -30.7834  -54.0347 H   0  0  0  0  0
    8.9367  -30.0316  -52.2119 H   0  0  0  0  0
    6.3294  -29.0968  -46.7400 H   0  0  0  0  0
    6.2188  -27.3294  -47.3744 H   0  0  0  0  0
    6.1193  -28.3810  -44.9991 H   0  0  0  0  0
    7.1619  -31.4163  -42.6544 H   0  0  0  0  0
    7.1836  -28.1477  -41.4915 H   0  0  0  0  0
    8.6209  -30.7128  -43.4734 H   0  0  0  0  0
    8.6680  -29.8911  -41.8889 H   0  0  0  0  0
    9.6960  -27.8776  -43.0170 H   0  0  0  0  0
   11.6991  -28.9941  -43.3908 H   0  0  0  0  0
    9.8692  -29.8063  -45.3164 H   0  0  0  0  0
   11.4781  -28.1070  -45.2808 H   0  0  0  0  0
    4.1781  -31.7396  -53.7719 H   0  0  0  0  0
    4.1191  -30.0723  -54.3946 H   0  0  0  0  0
    5.4186  -31.1723  -54.9167 H   0  0  0  0  0
  1  2  4  0  0  0
  1  9  4  0  0  0
  2  3  4  0  0  0
  2  7  4  0  0  0
  3  4  4  0  0  0
  4  5  4  0  0  0
  4 24  1  0  0  0
  5  6  4  0  0  0
  6  7  4  0  0  0
  7  8  4  0  0  0
  8  9  4  0  0  0
  9 10  1  0  0  0
 10 11  1  0  0  0
 11 12  1  0  0  0
 12 13  2  0  0  0
 12 22  1  0  0  0
 13 14  1  0  0  0
 14 15  1  0  0  0
 14 18  1  0  0  0
 14 19  1  0  0  0
 15 16  1  0  0  0
 15 17  2  0  0  0
 19 20  1  0  0  0
 20 21  1  0  0  0
 20 22  1  0  0  0
 22 23  1  0  0  0
  1 25  1  0  0  0
  3 26  1  0  0  0
  5 27  1  0  0  0
  6 28  1  0  0  0
 10 29  1  0  0  0
 10 30  1  0  0  0
 13 31  1  0  0  0
 16 32  1  0  0  0
 18 33  1  0  0  0
 19 34  1  0  0  0
 19 35  1  0  0  0
 20 36  1  0  0  0
 21 37  1  0  0  0
 22 38  1  0  0  0
 23 39  1  0  0  0
 24 40  1  0  0  0
 24 41  1  0  0  0
 24 42  1  0  0  0
M  END
$$$$
