4iwd_ligand
  -I-interpret- 

 68 73  0  0  0  0  0  0  0  0999 V2000
   -3.5650   -8.5290  -16.5910 C   0  0  0  0  0
   -4.6650   -9.2760  -17.0390 C   0  0  0  0  0
   -5.9120   -9.1320  -16.4790 N   0  0  0  0  0
   -6.0960   -8.2430  -15.4640 C   0  0  0  0  0
   -5.0510   -7.4750  -14.9340 C   0  0  0  0  0
   -3.8130   -7.6680  -15.5330 C   0  0  0  0  0
   -7.4570   -8.2120  -15.0570 C   0  0  0  0  0
   -8.0200   -7.1690  -14.2730 C   0  0  0  0  0
   -7.4990   -5.9920  -13.6890 C   0  0  0  0  0
   -6.1640   -5.6980  -13.4680 C   0  0  0  0  0
   -5.0640   -6.5170  -13.8250 C   0  0  0  0  0
   -8.4030   -4.9850  -13.2880 C   0  0  0  0  0
   -8.0220   -3.7610  -12.7060 C   0  0  0  0  0
   -6.6710   -3.4940  -12.4820 C   0  0  0  0  0
   -5.7900   -4.4600  -12.8720 C   0  0  0  0  0
   -6.1270   -2.2150  -11.8610 C   0  0  0  0  0
   -5.6840   -1.2620  -13.3020 S   0  0  0  0  0
   -5.3610    0.2600  -12.6410 N   0  0  0  0  0
   -3.9820   -6.3010  -13.1980 O   0  0  0  0  0
   -4.3020   -1.8620  -13.8580 O   0  0  0  0  0
   -6.9290   -1.1650  -14.2870 O   0  0  0  0  0
   -2.2150   -8.6270  -17.1880 C   0  0  0  0  0
   -1.9830   -9.2190  -18.4010 C   0  0  0  0  0
   -0.6430   -9.1380  -18.6360 N   0  0  0  0  0
    0.0080   -8.5080  -17.6650 N   0  0  0  0  0
   -0.9380   -8.2040  -16.7840 C   0  0  0  0  0
   -3.9460    0.5500  -12.2710 C   0  0  0  0  0
   -3.8700    1.3370  -10.9670 C   0  0  0  0  0
   -2.6670    1.8440  -10.6350 N   0  0  0  0  0
   -2.4990    2.5910   -9.4780 C   0  0  0  0  0
   -3.5570    2.8110   -8.6070 C   0  0  0  0  0
   -4.8320    2.2720   -8.9460 C   0  0  0  0  0
   -4.9880    1.5400  -10.1170 C   0  0  0  0  0
    0.0800   -9.6380  -19.8260 C   0  0  0  0  0
    1.1180  -10.6950  -19.3630 C   0  0  0  0  0
    2.2010  -11.0330  -20.4050 C   0  0  0  0  0
    2.7680   -9.8420  -21.1120 N   0  3  0  0  0
    1.8690   -8.6880  -21.4790 C   0  0  0  0  0
    0.7910   -8.3730  -20.4490 C   0  0  0  0  0
   -4.5271   -9.9888  -17.8520 H   0  0  0  0  0
   -2.9707   -7.0982  -15.1408 H   0  0  0  0  0
   -8.1049   -9.0334  -15.3630 H   0  0  0  0  0
   -9.0840   -7.3064  -14.0803 H   0  0  0  0  0
   -9.4670   -5.1671  -13.4390 H   0  0  0  0  0
   -8.7785   -3.0258  -12.4318 H   0  0  0  0  0
   -4.7277   -4.2713  -12.7168 H   0  0  0  0  0
   -5.2909   -2.3861  -11.1830 H   0  0  0  0  0
   -6.8443   -1.7105  -11.2137 H   0  0  0  0  0
   -6.1004    0.9486  -12.5016 H   0  0  0  0  0
   -2.7293   -9.6699  -19.0551 H   0  0  0  0  0
   -0.7441   -7.6818  -15.8471 H   0  0  0  0  0
   -3.4928    1.1445  -13.0642 H   0  0  0  0  0
   -3.4191   -0.3951  -12.1393 H   0  0  0  0  0
   -1.5200    3.0121   -9.2493 H   0  0  0  0  0
   -3.4165    3.3807   -7.6884 H   0  0  0  0  0
   -5.6849    2.4339   -8.2868 H   0  0  0  0  0
   -5.9610    1.1253  -10.3803 H   0  0  0  0  0
   -0.5725  -10.1121  -20.5591 H   0  0  0  0  0
    0.5679  -11.6154  -19.1672 H   0  0  0  0  0
    1.6308  -10.2777  -18.4964 H   0  0  0  0  0
    1.7328  -11.6625  -21.1617 H   0  0  0  0  0
    3.0226  -11.5101  -19.8707 H   0  0  0  0  0
    3.0944  -10.2069  -22.0068 H   0  0  0  0  0
    3.4361   -9.4459  -20.4508 H   0  0  0  0  0
    1.3576   -8.9633  -22.4014 H   0  0  0  0  0
    2.5017   -7.8040  -21.5586 H   0  0  0  0  0
    1.2811   -7.8493  -19.6282 H   0  0  0  0  0
    0.0206   -7.7982  -20.9630 H   0  0  0  0  0
  1  2  4  0  0  0
  1  6  4  0  0  0
  1 22  1  0  0  0
  2  3  4  0  0  0
  3  4  4  0  0  0
  4  5  4  0  0  0
  4  7  1  0  0  0
  5  6  4  0  0  0
  5 11  1  0  0  0
  7  8  2  0  0  0
  8  9  1  0  0  0
  9 10  4  0  0  0
  9 12  4  0  0  0
 10 11  1  0  0  0
 10 15  4  0  0  0
 11 19  2  0  0  0
 12 13  4  0  0  0
 13 14  4  0  0  0
 14 15  4  0  0  0
 14 16  1  0  0  0
 16 17  1  0  0  0
 17 18  1  0  0  0
 17 20  2  0  0  0
 17 21  2  0  0  0
 18 27  1  0  0  0
 22 23  4  0  0  0
 22 26  4  0  0  0
 23 24  4  0  0  0
 24 25  4  0  0  0
 24 34  1  0  0  0
 25 26  4  0  0  0
 27 28  1  0  0  0
 28 29  4  0  0  0
 28 33  4  0  0  0
 29 30  4  0  0  0
 30 31  4  0  0  0
 31 32  4  0  0  0
 32 33  4  0  0  0
 34 35  1  0  0  0
 34 39  1  0  0  0
 35 36  1  0  0  0
 36 37  1  0  0  0
 37 38  1  0  0  0
 38 39  1  0  0  0
  2 40  1  0  0  0
  6 41  1  0  0  0
  7 42  1  0  0  0
  8 43  1  0  0  0
 12 44  1  0  0  0
 13 45  1  0  0  0
 15 46  1  0  0  0
 16 47  1  0  0  0
 16 48  1  0  0  0
 18 49  1  0  0  0
 23 50  1  0  0  0
 26 51  1  0  0  0
 27 52  1  0  0  0
 27 53  1  0  0  0
 30 54  1  0  0  0
 31 55  1  0  0  0
 32 56  1  0  0  0
 33 57  1  0  0  0
 34 58  1  0  0  0
 35 59  1  0  0  0
 35 60  1  0  0  0
 36 61  1  0  0  0
 36 62  1  0  0  0
 37 63  1  0  0  0
 37 64  1  0  0  0
 38 65  1  0  0  0
 38 66  1  0  0  0
 39 67  1  0  0  0
 39 68  1  0  0  0
M  END
$$$$
