5btr_ligand
  -I-interpret- 

110112  0  0  0  0  0  0  0  0999 V2000
  -18.8160   72.0050   20.9450 N   0  3  0  0  0
  -20.0150   71.8570   20.1360 C   0  0  0  0  0
  -19.6720   71.5900   18.6730 C   0  0  0  0  0
  -20.5090   71.0840   17.9230 O   0  0  0  0  0
  -20.9110   73.0920   20.2550 C   0  0  0  0  0
  -20.5220   74.2540   19.3560 C   0  0  0  0  0
  -21.7340   75.1170   18.9940 C   0  0  0  0  0
  -22.3500   75.7410   20.1640 N   0  0  0  0  0
  -23.4620   75.3080   20.7500 C   0  0  0  0  0
  -24.0960   74.2410   20.2780 N   0  0  0  0  0
  -23.9420   75.9440   21.8100 N   0  0  0  0  0
  -18.4470   71.9220   18.2690 N   0  0  0  0  0
  -18.0080   71.6760   16.8950 C   0  0  0  0  0
  -17.1980   70.3920   16.7780 C   0  0  0  0  0
  -15.9990   70.4380   16.5090 O   0  0  0  0  0
  -17.1730   72.8420   16.3740 C   0  0  0  0  0
  -17.7790   74.1820   16.6360 C   0  0  0  0  0
  -18.8710   74.6500   15.9400 N   0  0  0  0  0
  -17.4440   75.1560   17.5140 C   0  0  0  0  0
  -19.1830   75.8580   16.3770 C   0  0  0  0  0
  -18.3320   76.1880   17.3310 N   0  0  0  0  0
  -17.8440   69.2500   16.9900 N   0  0  0  0  0
  -17.1730   67.9700   16.8120 C   0  0  0  0  0
  -17.2900   67.5320   15.3690 C   0  0  0  0  0
  -18.2630   67.8390   14.6940 O   0  0  0  0  0
  -17.7570   66.8990   17.7320 C   0  0  0  0  0
  -17.6320   67.2130   19.2100 C   0  0  0  0  0
  -18.0660   66.0360   20.0690 C   0  0  0  0  0
  -17.9300   66.3430   21.5480 C   0  0  0  0  0
  -18.3380   65.1630   22.3630 N   0  3  0  0  0
  -23.1440   61.2800   10.4900 C   0  0  0  0  0
  -22.7350   62.6450    9.9490 C   0  0  0  0  0
  -23.4420   63.2550    8.8480 C   0  0  0  0  0
  -23.0180   64.5130    8.3970 C   0  0  0  0  0
  -23.6700   65.1320    7.3360 O   0  0  0  0  0
  -21.9800   65.1530    8.9620 O   0  0  0  0  0
  -21.2950   64.6050    9.9980 C   0  0  0  0  0
  -20.1800   65.3660   10.5460 C   0  0  0  0  0
  -21.6130   63.3790   10.5320 C   0  0  0  0  0
  -20.7990   62.8260   11.6980 C   0  0  0  0  0
  -19.7540   63.5420   12.2140 C   0  0  0  0  0
  -19.4240   64.8640   11.6450 C   0  0  0  0  0
  -18.3020   65.6870   12.1130 N   0  0  0  0  0
  -17.4130   65.3880   13.2580 C   0  0  0  0  0
  -17.5640   64.4290   13.9340 O   0  0  0  0  0
  -16.2780   66.3550   13.5270 C   0  0  0  0  0
  -16.2900   66.8070   14.8970 N   0  0  0  0  0
  -14.9840   65.6220   13.2160 C   0  0  0  0  0
  -14.9660   65.0770   11.7240 C   0  0  0  0  0
  -14.1470   63.8120   11.5470 C   0  0  0  0  0
  -13.3530   63.8220   10.2060 C   0  0  0  0  0
  -12.1890   63.0010   10.2990 N   0  0  0  0  0
  -11.9300   62.0280    9.2670 C   0  0  0  0  0
  -12.6640   61.9250    8.3710 O   0  0  0  0  0
  -10.7210   61.1520    9.3360 C   0  0  0  0  0
  -18.2371   71.1707   20.8486 H   0  0  0  0  0
  -18.2929   72.8217   20.6292 H   0  0  0  0  0
  -19.0799   72.1260   21.9228 H   0  0  0  0  0
  -20.5606   70.9940   20.5175 H   0  0  0  0  0
  -20.8258   73.4458   21.2825 H   0  0  0  0  0
  -21.9134   72.7844   19.9571 H   0  0  0  0  0
  -20.0991   73.8509   18.4358 H   0  0  0  0  0
  -19.8031   74.8762   19.8891 H   0  0  0  0  0
  -22.4781   74.4713   18.5277 H   0  0  0  0  0
  -21.3934   75.9118   18.3304 H   0  0  0  0  0
  -21.8954   76.5649   20.5576 H   0  0  0  0  0
  -24.9493   73.9131   20.7306 H   0  0  0  0  0
  -23.7297   73.7493   19.4629 H   0  0  0  0  0
  -23.4581   76.7645   22.1749 H   0  0  0  0  0
  -17.8027   72.3560   18.9300 H   0  0  0  0  0
  -18.9102   71.5729   16.2921 H   0  0  0  0  0
  -17.0931   72.7271   15.2930 H   0  0  0  0  0
  -16.2142   72.8120   16.8916 H   0  0  0  0  0
  -16.6239   75.1270   18.2314 H   0  0  0  0  0
  -20.0031   76.4763   16.0119 H   0  0  0  0  0
  -18.8214   69.2704   17.2808 H   0  0  0  0  0
  -16.1227   68.0972   17.0741 H   0  0  0  0  0
  -17.1992   65.9803   17.5503 H   0  0  0  0  0
  -18.8212   66.8279   17.5074 H   0  0  0  0  0
  -18.2759   68.0625   19.4379 H   0  0  0  0  0
  -16.5871   67.4331   19.4288 H   0  0  0  0  0
  -17.4272   65.1846   19.8342 H   0  0  0  0  0
  -19.1137   65.8229   19.8567 H   0  0  0  0  0
  -18.5745   67.1862   21.7964 H   0  0  0  0  0
  -16.8895   66.5831   21.7667 H   0  0  0  0  0
  -18.2409   65.3855   23.3537 H   0  0  0  0  0
  -19.3100   64.9303   22.1593 H   0  0  0  0  0
  -17.7413   64.3688   22.1316 H   0  0  0  0  0
  -24.1736   61.3249   10.8451 H   0  0  0  0  0
  -23.0642   60.5372    9.6963 H   0  0  0  0  0
  -22.4857   61.0051   11.3142 H   0  0  0  0  0
  -24.2857   62.7494    8.3783 H   0  0  0  0  0
  -19.9209   66.3309   10.1102 H   0  0  0  0  0
  -21.0518   61.8544   12.1224 H   0  0  0  0  0
  -19.1683   63.1391   13.0403 H   0  0  0  0  0
  -18.1171   66.5485   11.5992 H   0  0  0  0  0
  -16.3816   67.2428   12.9031 H   0  0  0  0  0
  -15.5137   66.5631   15.5121 H   0  0  0  0  0
  -14.8971   64.7731   13.8942 H   0  0  0  0  0
  -14.1550   66.3190   13.3385 H   0  0  0  0  0
  -14.5136   65.8482   11.1006 H   0  0  0  0  0
  -15.9944   64.8405   11.4508 H   0  0  0  0  0
  -14.8278   62.9608   11.5366 H   0  0  0  0  0
  -13.4332   63.7474   12.3682 H   0  0  0  0  0
  -13.0449   64.8446    9.9879 H   0  0  0  0  0
  -13.9946   63.4333    9.4151 H   0  0  0  0  0
  -11.5481   63.1015   11.0861 H   0  0  0  0  0
  -11.0317   60.1076    9.3629 H   0  0  0  0  0
  -10.0982   61.3247    8.4583 H   0  0  0  0  0
  -10.1545   61.3872   10.2370 H   0  0  0  0  0
  2  1  1  0  0  0
  3  2  1  0  0  0
  2  5  1  0  0  0
  3  4  2  0  0  0
 12  3  1  0  0  0
  5  6  1  0  0  0
  6  7  1  0  0  0
  7  8  1  0  0  0
  8  9  1  0  0  0
  9 10  1  0  0  0
  9 11  2  0  0  0
 13 12  1  0  0  0
 14 13  1  0  0  0
 13 16  1  0  0  0
 14 15  2  0  0  0
 22 14  1  0  0  0
 16 17  1  0  0  0
 17 18  4  0  0  0
 17 19  4  0  0  0
 18 20  4  0  0  0
 19 21  4  0  0  0
 21 20  4  0  0  0
 23 22  1  0  0  0
 24 23  1  0  0  0
 23 26  1  0  0  0
 24 25  2  0  0  0
 47 24  1  0  0  0
 26 27  1  0  0  0
 27 28  1  0  0  0
 28 29  1  0  0  0
 29 30  1  0  0  0
 32 31  1  0  0  0
 32 33  2  0  0  0
 39 32  1  0  0  0
 34 33  1  0  0  0
 34 35  2  0  0  0
 36 34  1  0  0  0
 37 36  1  0  0  0
 38 37  4  0  0  0
 37 39  4  0  0  0
 42 38  4  0  0  0
 40 39  4  0  0  0
 41 40  4  0  0  0
 42 41  4  0  0  0
 43 42  1  0  0  0
 44 43  1  0  0  0
 44 45  2  0  0  0
 46 44  1  0  0  0
 46 47  1  0  0  0
 46 48  1  0  0  0
 48 49  1  0  0  0
 49 50  1  0  0  0
 50 51  1  0  0  0
 51 52  1  0  0  0
 52 53  1  0  0  0
 53 54  2  0  0  0
 53 55  1  0  0  0
  1 56  1  0  0  0
  1 57  1  0  0  0
  1 58  1  0  0  0
  2 59  1  0  0  0
  5 60  1  0  0  0
  5 61  1  0  0  0
  6 62  1  0  0  0
  6 63  1  0  0  0
  7 64  1  0  0  0
  7 65  1  0  0  0
  8 66  1  0  0  0
 10 67  1  0  0  0
 10 68  1  0  0  0
 11 69  1  0  0  0
 12 70  1  0  0  0
 13 71  1  0  0  0
 16 72  1  0  0  0
 16 73  1  0  0  0
 19 74  1  0  0  0
 20 75  1  0  0  0
 22 76  1  0  0  0
 23 77  1  0  0  0
 26 78  1  0  0  0
 26 79  1  0  0  0
 27 80  1  0  0  0
 27 81  1  0  0  0
 28 82  1  0  0  0
 28 83  1  0  0  0
 29 84  1  0  0  0
 29 85  1  0  0  0
 30 86  1  0  0  0
 30 87  1  0  0  0
 30 88  1  0  0  0
 31 89  1  0  0  0
 31 90  1  0  0  0
 31 91  1  0  0  0
 33 92  1  0  0  0
 38 93  1  0  0  0
 40 94  1  0  0  0
 41 95  1  0  0  0
 43 96  1  0  0  0
 46 97  1  0  0  0
 47 98  1  0  0  0
 48 99  1  0  0  0
 48100  1  0  0  0
 49101  1  0  0  0
 49102  1  0  0  0
 50103  1  0  0  0
 50104  1  0  0  0
 51105  1  0  0  0
 51106  1  0  0  0
 52107  1  0  0  0
 55108  1  0  0  0
 55109  1  0  0  0
 55110  1  0  0  0
M  END
$$$$
