### 
### Created by X-TOOL on Mon Sep 10 21:13:24 2018
### 

@<TRIPOS>MOLECULE
5btr_ligand
  112   114     1     0     0
SMALL
GAST_HUCK


@<TRIPOS>ATOM
      1 N         -18.8160   72.0050   20.9450 N.4       1 ARG         0.2379
      2 CA        -20.0150   71.8570   20.1360 C.3       1 ARG         0.0651
      3 C         -19.6720   71.5900   18.6730 C.2       1 ARG         0.2268
      4 O         -20.5090   71.0840   17.9230 O.2       1 ARG        -0.3907
      5 CB        -20.9110   73.0920   20.2550 C.3       1 ARG         0.0110
      6 CG        -20.5220   74.2540   19.3560 C.3       1 ARG        -0.0125
      7 CD        -21.7340   75.1170   18.9940 C.3       1 ARG         0.0629
      8 NE        -22.3500   75.7410   20.1640 N.pl3     1 ARG        -0.2723
      9 CZ        -23.4620   75.3080   20.7500 C.cat     1 ARG         0.2882
     10 NH1       -24.0960   74.2410   20.2780 N.pl3     1 ARG        -0.2849
     11 NH2       -23.9420   75.9440   21.8100 N.pl3     1 ARG        -0.2849
     12 N         -18.4470   71.9220   18.2690 N.am      1 HIS        -0.2598
     13 CA        -18.0080   71.6760   16.8950 C.3       1 HIS         0.1370
     14 C         -17.1980   70.3920   16.7780 C.2       1 HIS         0.2054
     15 O         -15.9990   70.4380   16.5090 O.2       1 HIS        -0.3942
     16 CB        -17.1730   72.8420   16.3740 C.3       1 HIS         0.0145
     17 CG        -17.7790   74.1820   16.6360 C.2       1 HIS        -0.0027
     18 ND1       -18.8710   74.6500   15.9400 N.2       1 HIS        -0.3252
     19 CD2       -17.4440   75.1560   17.5140 C.2       1 HIS         0.0291
     20 CE1       -19.1830   75.8580   16.3770 C.2       1 HIS         0.0907
     21 NE2       -18.3320   76.1880   17.3310 N.pl3     1 HIS        -0.2752
     22 N         -17.8440   69.2500   16.9900 N.am      1 LYS        -0.2636
     23 CA        -17.1730   67.9700   16.8120 C.3       1 LYS         0.1310
     24 C         -17.2900   67.5320   15.3690 C.2       1 LYS         0.2039
     25 O         -18.2630   67.8390   14.6940 O.2       1 LYS        -0.3944
     26 CB        -17.7570   66.8990   17.7320 C.3       1 LYS        -0.0122
     27 CG        -17.6320   67.2130   19.2100 C.3       1 LYS        -0.0440
     28 CD        -18.0660   66.0360   20.0690 C.3       1 LYS        -0.0124
     29 CE        -17.9300   66.3430   21.5480 C.3       1 LYS        -0.0354
     30 NZ        -18.3380   65.1630   22.3630 N.4       1 LYS         0.2185
     31 CAL       -23.1440   61.2800   10.4900 C.3       1 FDL        -0.0261
     32 CAD       -22.7350   62.6450    9.9490 C.2       1 FDL        -0.0346
     33 CAC       -23.4420   63.2550    8.8480 C.2       1 FDL         0.0039
     34 CAB       -23.0180   64.5130    8.3970 C.2       1 FDL         0.2426
     35 OAK       -23.6700   65.1320    7.3360 O.2       1 FDL        -0.3892
     36 OAA       -21.9800   65.1530    8.9620 O.3       1 FDL        -0.2185
     37 CAF       -21.2950   64.6050    9.9980 C.ar      1 FDL         0.1301
     38 CAG       -20.1800   65.3660   10.5460 C.ar      1 FDL         0.0001
     39 CAE       -21.6130   63.3790   10.5320 C.ar      1 FDL         0.0189
     40 CAH       -20.7990   62.8260   11.6980 C.ar      1 FDL        -0.0630
     41 CAI       -19.7540   63.5420   12.2140 C.ar      1 FDL        -0.0419
     42 CAJ       -19.4240   64.8640   11.6450 C.ar      1 FDL         0.0670
     43 NAM       -18.3020   65.6870   12.1130 N.am      1 FDL        -0.2295
     44 C         -17.4130   65.3880   13.2580 C.2       1 FDL         0.2319
     45 O         -17.5640   64.4290   13.9340 O.2       1 FDL        -0.3808
     46 CA        -16.2780   66.3550   13.5270 C.3       1 FDL         0.1373
     47 N         -16.2900   66.8070   14.8970 N.am      1 FDL        -0.2631
     48 CB        -14.9840   65.6220   13.2160 C.3       1 FDL        -0.0118
     49 CAS       -14.9660   65.0770   11.7240 C.3       1 FDL        -0.0470
     50 CAT       -14.1470   63.8120   11.5470 C.3       1 FDL        -0.0325
     51 CAU       -13.3530   63.8220   10.2060 C.3       1 FDL         0.0309
     52 NAV       -12.1890   63.0010   10.2990 N.am      1 FDL        -0.2872
     53 CAW       -11.9300   62.0280    9.2670 C.2       1 FDL         0.1729
     54 OAY       -12.6640   61.9250    8.3710 O.2       1 FDL        -0.3974
     55 CAX       -10.7210   61.1520    9.3360 C.3       1 FDL         0.0256
     56 H1        -19.0765   72.1798   21.9029 H         1 ARG         0.2015
     57 H2        -18.2703   72.7786   20.5987 H         1 ARG         0.2015
     58 H3        -18.2699   71.1593   20.8943 H         1 ARG         0.2015
     59 H4        -20.5750   70.9905   20.5175 H         1 ARG         0.1098
     60 H5        -20.8761   73.4403   21.2978 H         1 ARG         0.0347
     61 H6        -21.9392   72.7938   20.0022 H         1 ARG         0.0347
     62 H7        -20.0777   73.8569   18.4314 H         1 ARG         0.0302
     63 H8        -19.7828   74.8783   19.8793 H         1 ARG         0.0302
     64 H9        -22.4830   74.4821   18.4982 H         1 ARG         0.0689
     65 H10       -21.4089   75.9086   18.3029 H         1 ARG         0.0689
     66 H11       -21.8910   76.5730   20.5614 H         1 ARG         0.2642
     67 H12       -24.9572   73.9094   20.7355 H         1 ARG         0.2615
     68 H13       -23.7266   73.7449   19.4544 H         1 ARG         0.2615
     69 H14       -23.4529   76.7720   22.1789 H         1 ARG         0.2615
     70 H15       -24.8039   75.6100   22.2644 H         1 ARG         0.2615
     71 H16       -17.8153   72.3475   18.9170 H         1 HIS         0.1886
     72 H17       -18.9041   71.5784   16.2646 H         1 HIS         0.0817
     73 H18       -17.0511   72.7230   15.2873 H         1 HIS         0.0420
     74 H19       -16.1867   72.8065   16.8597 H         1 HIS         0.0420
     75 H20       -16.6246   75.1270   18.2307 H         1 HIS         0.0729
     76 H21       -20.0023   76.4757   16.0123 H         1 HIS         0.1199
     77 H22       -18.3337   77.0756   17.8535 H         1 HIS         0.2361
     78 H23       -18.8023   69.2700   17.2751 H         1 LYS         0.1883
     79 H24       -16.1085   68.0969   17.0585 H         1 LYS         0.0800
     80 H25       -17.2329   65.9521   17.5351 H         1 LYS         0.0312
     81 H26       -18.8245   66.7838   17.4930 H         1 LYS         0.0312
     82 H27       -18.2660   68.0804   19.4459 H         1 LYS         0.0269
     83 H28       -16.5828   67.4531   19.4368 H         1 LYS         0.0269
     84 H29       -17.4381   65.1662   19.8260 H         1 LYS         0.0317
     85 H30       -19.1179   65.8020   19.8485 H         1 LYS         0.0317
     86 H31       -18.5734   67.1985   21.8014 H         1 LYS         0.0813
     87 H32       -16.8824   66.5932   21.7715 H         1 LYS         0.0813
     88 H33       -18.2424   65.3818   23.3423 H         1 LYS         0.1994
     89 H34       -17.7489   64.3774   22.1352 H         1 LYS         0.1994
     90 H35       -19.2985   64.9321   22.1626 H         1 LYS         0.1994
     91 H36       -24.0035   60.9012    9.9174 H         1 FDL         0.0431
     92 H37       -23.4224   61.3741   11.5500 H         1 FDL         0.0431
     93 H38       -22.3014   60.5796   10.3929 H         1 FDL         0.0431
     94 H39       -24.2849   62.7498    8.3787 H         1 FDL         0.0388
     95 H40       -19.9223   66.3256   10.1126 H         1 FDL         0.0445
     96 H41       -21.0504   61.8597   12.1201 H         1 FDL         0.0608
     97 H42       -19.1716   63.1413   13.0358 H         1 FDL         0.0462
     98 H43       -18.1208   66.5316   11.6093 H         1 FDL         0.2293
     99 H44       -16.3755   67.2282   12.8653 H         1 FDL         0.0806
    100 H45       -15.5290   66.5679   15.5000 H         1 FDL         0.1884
    101 H46       -14.8793   64.7731   13.9076 H         1 FDL         0.0313
    102 H47       -14.1398   66.3135   13.3538 H         1 FDL         0.0313
    103 H48       -14.5440   65.8577   11.0741 H         1 FDL         0.0268
    104 H49       -16.0015   64.8659   11.4188 H         1 FDL         0.0268
    105 H50       -14.8241   62.9451   11.5538 H         1 FDL         0.0285
    106 H51       -13.4356   63.7282   12.3818 H         1 FDL         0.0285
    107 H52       -13.0489   64.8535    9.9748 H         1 FDL         0.0520
    108 H53       -13.9993   63.4411    9.4015 H         1 FDL         0.0520
    109 H54       -11.5607   63.0995   11.0707 H         1 FDL         0.1850
    110 H55       -10.7027   60.4830    8.4630 H         1 FDL         0.0467
    111 H56       -10.7551   60.5518   10.2572 H         1 FDL         0.0467
    112 H57        -9.8154   61.7764    9.3385 H         1 FDL         0.0467
@<TRIPOS>BOND
     1    2    1 1  
     2    3    2 1  
     3    2    5 1  
     4    3    4 2  
     5   12    3 am 
     6    5    6 1  
     7    6    7 1  
     8    7    8 1  
     9    8    9 ar 
    10    9   10 ar 
    11    9   11 ar 
    12   13   12 1  
    13   14   13 1  
    14   13   16 1  
    15   14   15 2  
    16   22   14 am 
    17   16   17 1  
    18   17   18 1  
    19   17   19 2  
    20   18   20 2  
    21   19   21 1  
    22   21   20 1  
    23   23   22 1  
    24   24   23 1  
    25   23   26 1  
    26   24   25 2  
    27   47   24 am 
    28   26   27 1  
    29   27   28 1  
    30   28   29 1  
    31   29   30 1  
    32   32   31 1  
    33   32   33 2  
    34   39   32 1  
    35   34   33 1  
    36   34   35 2  
    37   36   34 1  
    38   37   36 1  
    39   38   37 ar 
    40   37   39 ar 
    41   42   38 ar 
    42   40   39 ar 
    43   41   40 ar 
    44   42   41 ar 
    45   43   42 1  
    46   44   43 am 
    47   44   45 2  
    48   46   44 1  
    49   46   47 1  
    50   46   48 1  
    51   48   49 1  
    52   49   50 1  
    53   50   51 1  
    54   51   52 1  
    55   52   53 am 
    56   53   54 2  
    57   53   55 1  
    58    1   56 1  
    59    1   57 1  
    60    1   58 1  
    61    2   59 1  
    62    5   60 1  
    63    5   61 1  
    64    6   62 1  
    65    6   63 1  
    66    7   64 1  
    67    7   65 1  
    68    8   66 1  
    69   10   67 1  
    70   10   68 1  
    71   11   69 1  
    72   11   70 1  
    73   12   71 1  
    74   13   72 1  
    75   16   73 1  
    76   16   74 1  
    77   19   75 1  
    78   20   76 1  
    79   21   77 1  
    80   22   78 1  
    81   23   79 1  
    82   26   80 1  
    83   26   81 1  
    84   27   82 1  
    85   27   83 1  
    86   28   84 1  
    87   28   85 1  
    88   29   86 1  
    89   29   87 1  
    90   30   88 1  
    91   30   89 1  
    92   30   90 1  
    93   31   91 1  
    94   31   92 1  
    95   31   93 1  
    96   33   94 1  
    97   38   95 1  
    98   40   96 1  
    99   41   97 1  
   100   43   98 1  
   101   46   99 1  
   102   47  100 1  
   103   48  101 1  
   104   48  102 1  
   105   49  103 1  
   106   49  104 1  
   107   50  105 1  
   108   50  106 1  
   109   51  107 1  
   110   51  108 1  
   111   52  109 1  
   112   55  110 1  
   113   55  111 1  
   114   55  112 1  
@<TRIPOS>SUBSTRUCTURE
     1 ARG         1

