4gih_ligand
  -I-interpret- 

 36 38  0  0  0  0  0  0  0  0999 V2000
   -6.7680   -6.0290  -15.4960 C   0  0  0  0  0
   -7.3630   -4.7560  -15.5870 C   0  0  0  0  0
   -6.5920   -3.6260  -15.8250 C   0  0  0  0  0
   -8.7620   -9.1860  -16.0280 C   0  0  0  0  0
   -7.6480   -7.1690  -15.1630 C   0  0  0  0  0
   -9.5760   -9.5140  -14.9230 C   0  0  0  0  0
  -10.4480  -10.5960  -15.0330 C   0  0  0  0  0
   -5.3790   -6.1530  -15.6880 C   0  0  0  0  0
   -5.2250   -3.7570  -16.0030 C   0  0  0  0  0
   -4.6220   -5.0120  -15.9350 C   0  0  0  0  0
   -9.0780   -4.6020  -15.4470 Cl  0  0  0  0  0
   -8.1400   -7.2160  -14.0310 O   0  0  0  0  0
   -7.9150   -8.0780  -16.1160 N   0  0  0  0  0
  -10.4840  -11.3230  -16.1490 N   0  0  0  0  0
   -9.7280  -11.0610  -17.2160 C   0  0  0  0  0
   -8.8640   -9.9630  -17.1810 C   0  0  0  0  0
   -9.8320  -11.8770  -18.3640 N   0  0  0  0  0
   -8.8750  -11.9800  -19.3360 C   0  0  0  0  0
   -7.8420  -11.3390  -19.2710 O   0  0  0  0  0
   -9.0940  -12.9030  -20.5280 C   0  0  0  0  0
   -8.4480  -12.5430  -21.8730 C   0  0  0  0  0
   -7.9000  -13.7090  -21.0550 C   0  0  0  0  0
   -4.5810   -7.6960  -15.6770 Cl  0  0  0  0  0
   -7.0596   -2.6425  -15.8714 H   0  0  0  0  0
   -9.5240   -8.9331  -14.0021 H   0  0  0  0  0
  -11.1047  -10.8490  -14.2006 H   0  0  0  0  0
   -4.6169   -2.8736  -16.1974 H   0  0  0  0  0
   -3.5449   -5.1005  -16.0770 H   0  0  0  0  0
   -7.4432   -7.9432  -17.0102 H   0  0  0  0  0
   -8.2676   -9.7132  -18.0585 H   0  0  0  0  0
  -10.6821  -12.4294  -18.4765 H   0  0  0  0  0
  -10.1056  -13.1402  -20.1986 H   0  0  0  0  0
   -8.0719  -11.6585  -22.3871 H   0  0  0  0  0
   -8.7568  -12.3390  -22.8982 H   0  0  0  0  0
   -7.6229  -14.7523  -21.2059 H   0  0  0  0  0
   -6.9373  -14.0712  -20.6943 H   0  0  0  0  0
  1  2  4  0  0  0
  5  1  1  0  0  0
  1  8  4  0  0  0
  2  3  4  0  0  0
  2 11  1  0  0  0
  3  9  4  0  0  0
  4  6  4  0  0  0
 13  4  1  0  0  0
  4 16  4  0  0  0
  5 12  2  0  0  0
  5 13  1  0  0  0
  6  7  4  0  0  0
  7 14  4  0  0  0
  8 10  4  0  0  0
  8 23  1  0  0  0
  9 10  4  0  0  0
 14 15  4  0  0  0
 15 16  4  0  0  0
 15 17  1  0  0  0
 17 18  1  0  0  0
 18 19  2  0  0  0
 18 20  1  0  0  0
 20 21  1  0  0  0
 20 22  1  0  0  0
 21 22  1  0  0  0
  3 24  1  0  0  0
  6 25  1  0  0  0
  7 26  1  0  0  0
  9 27  1  0  0  0
 10 28  1  0  0  0
 13 29  1  0  0  0
 16 30  1  0  0  0
 17 31  1  0  0  0
 20 32  1  0  0  0
 21 33  1  0  0  0
 21 34  1  0  0  0
 22 35  1  0  0  0
 22 36  1  0  0  0
M  END
$$$$
