4m12_ligand
  -I-interpret- 

 42 44  0  0  0  0  0  0  0  0999 V2000
   -4.8520    8.2250   13.2540 N   0  0  0  0  0
   -5.9410    7.5450   13.6640 N   0  0  0  0  0
   -5.4700    6.6200   14.5570 C   0  0  0  0  0
   -4.0450    6.7350   14.6910 C   0  0  0  0  0
   -3.6590    7.7730   13.8350 C   0  0  0  0  0
   -3.2870    5.9330   15.5370 N   0  0  0  0  0
   -1.8990    6.1020   15.6570 C   0  0  0  0  0
   -1.2680    5.3260   16.6210 N   0  0  0  0  0
   -1.2530    6.8870   14.9540 O   0  0  0  0  0
   -6.3310    5.6780   15.2720 C   0  0  0  0  0
   -7.6620    5.6490   14.9370 N   0  0  0  0  0
   -5.8870    4.9340   16.1540 O   0  0  0  0  0
   -4.9620    9.3460   12.3640 C   0  0  0  0  0
   -4.2780    9.2990   11.1760 C   0  0  0  0  0
   -4.3800   10.3860   10.2800 C   0  0  0  0  0
   -5.1510   11.4700   10.5940 C   0  0  0  0  0
   -5.7580   10.4690   12.7410 C   0  0  0  0  0
   -5.8290   11.5410   11.8370 C   0  0  0  0  0
   -6.5650   12.7060   12.1940 C   0  0  0  0  0
   -7.2030   12.7920   13.3940 C   0  0  0  0  0
   -7.1330   11.6860   14.2930 C   0  0  0  0  0
   -6.4320   10.5490   13.9830 C   0  0  0  0  0
   -7.7980   11.9020   15.4610 O   0  0  0  0  0
   -7.8100   10.8420   16.4030 C   0  0  0  0  0
   -8.4840   11.4180   17.6420 C   0  0  0  0  0
   -2.6508    8.1480   13.6587 H   0  0  0  0  0
   -3.7499    5.2059   16.0823 H   0  0  0  0  0
   -0.2596    5.4001   16.7555 H   0  0  0  0  0
   -1.8131    4.6821   17.1944 H   0  0  0  0  0
   -8.2950    5.0094   15.4173 H   0  0  0  0  0
   -8.0180    6.2671   14.2078 H   0  0  0  0  0
   -3.6636    8.4339   10.9266 H   0  0  0  0  0
   -3.8409   10.3603    9.3330 H   0  0  0  0  0
   -5.2456   12.2889    9.8809 H   0  0  0  0  0
   -6.6187   13.5418   11.4964 H   0  0  0  0  0
   -7.7579   13.6907   13.6633 H   0  0  0  0  0
   -6.3943    9.7162   14.6852 H   0  0  0  0  0
   -6.8032   10.4859   16.6212 H   0  0  0  0  0
   -8.3438    9.9712   16.0224 H   0  0  0  0  0
   -7.9089   12.2703   18.0038 H   0  0  0  0  0
   -9.4936   11.7409   17.3879 H   0  0  0  0  0
   -8.5300   10.6535   18.4176 H   0  0  0  0  0
  1  2  4  0  0  0
  1  5  4  0  0  0
  1 13  1  0  0  0
  2  3  4  0  0  0
  3  4  4  0  0  0
  3 10  1  0  0  0
  4  5  4  0  0  0
  4  6  1  0  0  0
  6  7  1  0  0  0
  7  8  1  0  0  0
  7  9  2  0  0  0
 10 11  1  0  0  0
 10 12  2  0  0  0
 13 14  4  0  0  0
 13 17  4  0  0  0
 14 15  4  0  0  0
 15 16  4  0  0  0
 16 18  4  0  0  0
 17 18  4  0  0  0
 17 22  4  0  0  0
 18 19  4  0  0  0
 19 20  4  0  0  0
 20 21  4  0  0  0
 21 22  4  0  0  0
 21 23  1  0  0  0
 23 24  1  0  0  0
 24 25  1  0  0  0
  5 26  1  0  0  0
  6 27  1  0  0  0
  8 28  1  0  0  0
  8 29  1  0  0  0
 11 30  1  0  0  0
 11 31  1  0  0  0
 14 32  1  0  0  0
 15 33  1  0  0  0
 16 34  1  0  0  0
 19 35  1  0  0  0
 20 36  1  0  0  0
 22 37  1  0  0  0
 24 38  1  0  0  0
 24 39  1  0  0  0
 25 40  1  0  0  0
 25 41  1  0  0  0
 25 42  1  0  0  0
M  END
$$$$
