6g0w_ligand
  -I-interpret- 

 54 57  0  0  0  0  0  0  0  0999 V2000
    7.9400  -12.7340  -19.2960 C   0  0  0  0  0
    7.3950  -13.1060  -18.2630 O   0  0  0  0  0
   13.5720  -12.9710  -19.2630 O   0  0  0  0  0
    9.4180  -12.7890  -19.3920 C   0  0  0  0  0
    7.2630  -12.3070  -20.3550 N   0  0  0  0  0
   14.9580  -11.3120  -20.2120 C   0  0  0  0  0
   16.6430   -9.8260  -21.2700 C   0  0  0  0  0
   18.2110  -11.6290  -20.7520 C   0  0  0  0  0
   19.7190  -11.6770  -20.7070 C   0  0  0  0  0
   20.2550  -11.8560  -22.1140 C   0  0  0  0  0
   19.8690  -10.6220  -22.9280 C   0  0  0  0  0
   18.3550  -10.3900  -22.9370 C   0  0  0  0  0
   19.8250  -13.1860  -22.7090 C   0  0  0  0  0
   20.2290  -14.3700  -22.1120 C   0  0  0  0  0
   19.8670  -15.5970  -22.6380 C   0  0  0  0  0
   10.0700  -13.8750  -18.8250 C   0  0  0  0  0
   19.0950  -15.6160  -23.7640 C   0  0  0  0  0
   18.6490  -14.4830  -24.3750 C   0  0  0  0  0
   19.0270  -13.2630  -23.8450 C   0  0  0  0  0
   11.5570  -11.8120  -19.9090 C   0  0  0  0  0
   10.1750  -11.7660  -19.9480 C   0  0  0  0  0
   11.4470  -13.9280  -18.7840 C   0  0  0  0  0
   12.1890  -12.8930  -19.3210 C   0  0  0  0  0
   14.3080  -11.8090  -19.0970 C   0  0  0  0  0
   14.5010  -11.2500  -17.8480 C   0  0  0  0  0
   15.3980  -10.2030  -17.7140 C   0  0  0  0  0
   16.0820   -9.7180  -18.8140 C   0  0  0  0  0
   15.8680  -10.2680  -20.0710 C   0  0  0  0  0
   18.8150  -16.8160  -24.3360 F   0  0  0  0  0
   17.7260  -10.5430  -21.6140 N   0  0  0  0  0
   16.2360   -8.9070  -21.9580 O   0  0  0  0  0
    6.2437  -12.2784  -20.3311 H   0  0  0  0  0
    7.7621  -12.0075  -21.1926 H   0  0  0  0  0
   14.7587  -11.7357  -21.1963 H   0  0  0  0  0
   17.8432  -11.4545  -19.7409 H   0  0  0  0  0
   17.8498  -12.5747  -21.1560 H   0  0  0  0  0
   20.0397  -12.5124  -20.0846 H   0  0  0  0  0
   20.1019  -10.7476  -20.2854 H   0  0  0  0  0
   21.3433  -11.9175  -22.1183 H   0  0  0  0  0
   20.1960  -10.7764  -23.9563 H   0  0  0  0  0
   20.3441   -9.7523  -22.4740 H   0  0  0  0  0
   17.9141  -11.1376  -23.5964 H   0  0  0  0  0
   18.1839   -9.3641  -23.2631 H   0  0  0  0  0
   20.8429  -14.3335  -21.2120 H   0  0  0  0  0
   20.1897  -16.5249  -22.1657 H   0  0  0  0  0
    9.4866  -14.6955  -18.4073 H   0  0  0  0  0
   18.0116  -14.5367  -25.2576 H   0  0  0  0  0
   18.6930  -12.3442  -24.3270 H   0  0  0  0  0
   12.1447  -11.0010  -20.3392 H   0  0  0  0  0
    9.6758  -10.9194  -20.4193 H   0  0  0  0  0
   11.9485  -14.7827  -18.3299 H   0  0  0  0  0
   13.9562  -11.6268  -16.9824 H   0  0  0  0  0
   15.5662   -9.7576  -16.7335 H   0  0  0  0  0
   16.7924   -8.9001  -18.6936 H   0  0  0  0  0
  1  2  2  0  0  0
  4  1  1  0  0  0
  1  5  1  0  0  0
 23  3  1  0  0  0
  3 24  1  0  0  0
  4 16  4  0  0  0
 21  4  4  0  0  0
 24  6  4  0  0  0
  6 28  4  0  0  0
 28  7  1  0  0  0
  7 30  1  0  0  0
  7 31  2  0  0  0
  8  9  1  0  0  0
 30  8  1  0  0  0
  9 10  1  0  0  0
 11 10  1  0  0  0
 10 13  1  0  0  0
 12 11  1  0  0  0
 30 12  1  0  0  0
 13 14  4  0  0  0
 13 19  4  0  0  0
 14 15  4  0  0  0
 15 17  4  0  0  0
 16 22  4  0  0  0
 18 17  4  0  0  0
 17 29  1  0  0  0
 19 18  4  0  0  0
 20 21  4  0  0  0
 20 23  4  0  0  0
 22 23  4  0  0  0
 24 25  4  0  0  0
 25 26  4  0  0  0
 26 27  4  0  0  0
 27 28  4  0  0  0
  5 32  1  0  0  0
  5 33  1  0  0  0
  6 34  1  0  0  0
  8 35  1  0  0  0
  8 36  1  0  0  0
  9 37  1  0  0  0
  9 38  1  0  0  0
 10 39  1  0  0  0
 11 40  1  0  0  0
 11 41  1  0  0  0
 12 42  1  0  0  0
 12 43  1  0  0  0
 14 44  1  0  0  0
 15 45  1  0  0  0
 16 46  1  0  0  0
 18 47  1  0  0  0
 19 48  1  0  0  0
 20 49  1  0  0  0
 21 50  1  0  0  0
 22 51  1  0  0  0
 25 52  1  0  0  0
 26 53  1  0  0  0
 27 54  1  0  0  0
M  END
$$$$
