4rs0_ligand
  -I-interpret- 

 33 33  0  0  0  0  0  0  0  0999 V2000
    9.1830  -22.4180  -72.5250 C   0  0  0  0  0
    2.9730  -20.4990  -72.6990 C   0  0  0  0  0
    2.4440  -21.2090  -71.5000 C   0  0  0  0  0
    2.7150  -20.3960  -70.2820 C   0  0  0  0  0
    0.9700  -21.3790  -71.6580 C   0  0  0  0  0
    8.5900  -21.5200  -73.5610 C   0  0  0  0  0
    8.7930  -22.1190  -74.9140 C   0  0  0  0  0
    7.1300  -21.2840  -73.3340 C   0  0  0  0  0
    6.7130  -20.0750  -72.8040 C   0  0  0  0  0
    5.3650  -19.8310  -72.5990 C   0  0  0  0  0
    4.4210  -20.7940  -72.9240 C   0  0  0  0  0
    4.8330  -22.0050  -73.4650 C   0  0  0  0  0
    6.1870  -22.2480  -73.6680 C   0  0  0  0  0
    9.9920  -21.9490  -71.6790 O   0  0  0  0  0
    8.8900  -23.6440  -72.5010 O   0  0  0  0  0
    2.8624  -19.4265  -72.5389 H   0  0  0  0  0
    2.4145  -20.8372  -73.5719 H   0  0  0  0  0
    2.9267  -22.1813  -71.4010 H   0  0  0  0  0
    2.2424  -19.4193  -70.3861 H   0  0  0  0  0
    2.3091  -20.9062  -69.4085 H   0  0  0  0  0
    3.7911  -20.2696  -70.1631 H   0  0  0  0  0
    0.5681  -21.8869  -70.7813 H   0  0  0  0  0
    0.5014  -20.4001  -71.7590 H   0  0  0  0  0
    0.7676  -21.9737  -72.5487 H   0  0  0  0  0
    9.0952  -20.5566  -73.4918 H   0  0  0  0  0
    8.2574  -23.0664  -74.9746 H   0  0  0  0  0
    8.4124  -21.4358  -75.6732 H   0  0  0  0  0
    9.8568  -22.2904  -75.0781 H   0  0  0  0  0
    7.4481  -19.3123  -72.5471 H   0  0  0  0  0
    5.0443  -18.8772  -72.1801 H   0  0  0  0  0
    4.0964  -22.7635  -73.7300 H   0  0  0  0  0
    6.5100  -23.1992  -74.0911 H   0  0  0  0  0
   10.1056  -21.0084  -71.8338 H   0  0  0  0  0
  6  1  1  0  0  0
  1 14  1  0  0  0
  1 15  2  0  0  0
  2  3  1  0  0  0
 11  2  1  0  0  0
  3  4  1  0  0  0
  3  5  1  0  0  0
  6  7  1  0  0  0
  8  6  1  0  0  0
  9  8  4  0  0  0
  8 13  4  0  0  0
 10  9  4  0  0  0
 10 11  4  0  0  0
 11 12  4  0  0  0
 12 13  4  0  0  0
  2 16  1  0  0  0
  2 17  1  0  0  0
  3 18  1  0  0  0
  4 19  1  0  0  0
  4 20  1  0  0  0
  4 21  1  0  0  0
  5 22  1  0  0  0
  5 23  1  0  0  0
  5 24  1  0  0  0
  6 25  1  0  0  0
  7 26  1  0  0  0
  7 27  1  0  0  0
  7 28  1  0  0  0
  9 29  1  0  0  0
 10 30  1  0  0  0
 12 31  1  0  0  0
 13 32  1  0  0  0
 14 33  1  0  0  0
M  END
$$$$
