4kwf_ligand
  -I-interpret- 

 29 31  0  0  0  0  0  0  0  0999 V2000
   -1.0030  -27.7940   50.7030 O   0  0  0  0  0
    0.1720  -27.8260   50.1980 C   0  0  0  0  0
    0.4960  -28.6420   49.0470 C   0  0  0  0  0
   -0.3520  -29.3770   48.4320 O   0  0  0  0  0
    1.9240  -28.4020   48.7900 C   0  0  0  0  0
    1.2220  -27.1330   50.6400 N   0  0  0  0  0
    2.3040  -27.4250   49.8620 C   0  0  0  0  0
    3.6200  -26.9900   49.8820 C   0  0  0  0  0
    4.5290  -27.4740   48.9400 C   0  0  0  0  0
    4.1470  -28.3950   47.9410 C   0  0  0  0  0
    2.8380  -28.8650   47.8560 C   0  0  0  0  0
    1.2030  -26.2360   51.7760 C   0  0  0  0  0
   -0.1700  -25.6190   51.9500 C   0  0  0  0  0
   -0.8150  -25.7430   53.1780 C   0  0  0  0  0
   -2.0770  -25.1960   53.3590 C   0  0  0  0  0
   -2.7080  -24.5260   52.3160 C   0  0  0  0  0
   -2.0770  -24.4030   51.0840 C   0  0  0  0  0
   -0.8050  -24.9440   50.8950 C   0  0  0  0  0
    3.9448  -26.2701   50.6332 H   0  0  0  0  0
    5.5630  -27.1311   48.9768 H   0  0  0  0  0
    4.8891  -28.7448   47.2233 H   0  0  0  0  0
    2.5426  -29.5727   47.0814 H   0  0  0  0  0
    1.9279  -25.4396   51.6077 H   0  0  0  0  0
    1.4514  -26.8008   52.6745 H   0  0  0  0  0
   -0.3277  -26.2705   53.9980 H   0  0  0  0  0
   -2.5765  -25.2917   54.3231 H   0  0  0  0  0
   -3.6988  -24.0969   52.4653 H   0  0  0  0  0
   -2.5758  -23.8840   50.2655 H   0  0  0  0  0
   -0.3056  -24.8430   49.9314 H   0  0  0  0  0
  1  2  2  0  0  0
  2  3  1  0  0  0
  2  6  1  0  0  0
  3  4  2  0  0  0
  3  5  1  0  0  0
  5  7  4  0  0  0
  5 11  4  0  0  0
  6  7  1  0  0  0
  6 12  1  0  0  0
  7  8  4  0  0  0
  8  9  4  0  0  0
  9 10  4  0  0  0
 10 11  4  0  0  0
 12 13  1  0  0  0
 13 14  4  0  0  0
 13 18  4  0  0  0
 14 15  4  0  0  0
 15 16  4  0  0  0
 16 17  4  0  0  0
 17 18  4  0  0  0
  8 19  1  0  0  0
  9 20  1  0  0  0
 10 21  1  0  0  0
 11 22  1  0  0  0
 12 23  1  0  0  0
 12 24  1  0  0  0
 14 25  1  0  0  0
 15 26  1  0  0  0
 16 27  1  0  0  0
 17 28  1  0  0  0
 18 29  1  0  0  0
M  END
$$$$
