### 
### Created by X-TOOL on Mon Sep 10 21:13:15 2018
### 

@<TRIPOS>MOLECULE
4dzw_ligand
   33    33     1     0     0
SMALL
GAST_HUCK


@<TRIPOS>ATOM
      1 O6        -15.1070  -14.8370  -16.3970 O.co2     1 0MQ        -0.5610
      2 P2        -15.5830  -15.6840  -17.5510 P.3       1 0MQ         0.0831
      3 O4        -15.5820  -17.1840  -17.4160 O.co2     1 0MQ        -0.5610
      4 O5        -17.0930  -15.2480  -17.8900 O.co2     1 0MQ        -0.5610
      5 C1        -14.5450  -15.2570  -18.9730 C.3       1 0MQ         0.1400
      6 P1        -14.8160  -13.5100  -19.4030 P.3       1 0MQ         0.0831
      7 O3        -15.8380  -13.3990  -20.5110 O.co2     1 0MQ        -0.5610
      8 O2        -15.4400  -12.7880  -18.0990 O.co2     1 0MQ        -0.5610
      9 O1        -13.4490  -12.9260  -19.6540 O.co2     1 0MQ        -0.5610
     10 C2        -14.8900  -16.1740  -20.1360 C.3       1 0MQ         0.0004
     11 N1        -14.3160  -17.4760  -19.8710 N.4       1 0MQ         0.2314
     12 C3        -13.6580  -18.2090  -20.9370 C.3       1 0MQ        -0.0225
     13 C4        -12.2890  -17.6080  -21.2700 C.3       1 0MQ        -0.0097
     14 C5        -11.5860  -18.3930  -22.3760 C.3       1 0MQ        -0.0480
     15 C6        -11.5190  -19.8930  -22.0730 C.3       1 0MQ        -0.0527
     16 C7        -12.8690  -20.4830  -21.6660 C.3       1 0MQ        -0.0480
     17 C8        -13.4880  -19.6720  -20.5290 C.3       1 0MQ        -0.0097
     18 H1        -13.4869  -15.3995  -18.7084 H         1 0MQ         0.0732
     19 H2        -14.4728  -15.7660  -21.0684 H         1 0MQ         0.0845
     20 H3        -15.9825  -16.2609  -20.2303 H         1 0MQ         0.0845
     21 H4        -15.0646  -18.0611  -19.5344 H         1 0MQ         0.2017
     22 H5        -13.6334  -17.3499  -19.1401 H         1 0MQ         0.2017
     23 H6        -14.2898  -18.1606  -21.8361 H         1 0MQ         0.0850
     24 H7        -11.6621  -17.6247  -20.3663 H         1 0MQ         0.0320
     25 H8        -12.4264  -16.5683  -21.6019 H         1 0MQ         0.0320
     26 H9        -10.5613  -18.0085  -22.4860 H         1 0MQ         0.0267
     27 H10       -12.1356  -18.2467  -23.3175 H         1 0MQ         0.0267
     28 H11       -10.8051  -20.0528  -21.2515 H         1 0MQ         0.0265
     29 H12       -11.1652  -20.4167  -22.9733 H         1 0MQ         0.0265
     30 H13       -12.7243  -21.5212  -21.3326 H         1 0MQ         0.0267
     31 H14       -13.5467  -20.4671  -22.5323 H         1 0MQ         0.0267
     32 H15       -14.4728  -20.0938  -20.2796 H         1 0MQ         0.0320
     33 H16       -12.8318  -19.7269  -19.6479 H         1 0MQ         0.0320
@<TRIPOS>BOND
     1    1    2 ar 
     2    2    3 ar 
     3    2    4 ar 
     4    2    5 1  
     5    5    6 1  
     6    5   10 1  
     7    6    7 ar 
     8    6    8 ar 
     9    6    9 ar 
    10   10   11 1  
    11   11   12 1  
    12   12   13 1  
    13   12   17 1  
    14   13   14 1  
    15   14   15 1  
    16   15   16 1  
    17   16   17 1  
    18    5   18 1  
    19   10   19 1  
    20   10   20 1  
    21   11   21 1  
    22   11   22 1  
    23   12   23 1  
    24   13   24 1  
    25   13   25 1  
    26   14   26 1  
    27   14   27 1  
    28   15   28 1  
    29   15   29 1  
    30   16   30 1  
    31   16   31 1  
    32   17   32 1  
    33   17   33 1  
@<TRIPOS>SUBSTRUCTURE
     1 0MQ         1

