4dzw_ligand
  -I-interpret- 

 37 37  0  0  0  0  0  0  0  0999 V2000
  -15.1070  -14.8370  -16.3970 O   0  0  0  0  0
  -15.5830  -15.6840  -17.5510 P   0  0  0  0  0
  -15.5820  -17.1840  -17.4160 O   0  0  0  0  0
  -17.0930  -15.2480  -17.8900 O   0  0  0  0  0
  -14.5450  -15.2570  -18.9730 C   0  0  0  0  0
  -14.8160  -13.5100  -19.4030 P   0  0  0  0  0
  -15.8380  -13.3990  -20.5110 O   0  0  0  0  0
  -15.4400  -12.7880  -18.0990 O   0  0  0  0  0
  -13.4490  -12.9260  -19.6540 O   0  0  0  0  0
  -14.8900  -16.1740  -20.1360 C   0  0  0  0  0
  -14.3160  -17.4760  -19.8710 N   0  3  0  0  0
  -13.6580  -18.2090  -20.9370 C   0  0  0  0  0
  -12.2890  -17.6080  -21.2700 C   0  0  0  0  0
  -11.5860  -18.3930  -22.3760 C   0  0  0  0  0
  -11.5190  -19.8930  -22.0730 C   0  0  0  0  0
  -12.8690  -20.4830  -21.6660 C   0  0  0  0  0
  -13.4880  -19.6720  -20.5290 C   0  0  0  0  0
  -15.1679  -13.9092  -16.6360 H   0  0  0  0  0
  -17.1358  -14.2936  -17.9843 H   0  0  0  0  0
  -13.4904  -15.3920  -18.7327 H   0  0  0  0  0
  -16.6602  -13.8059  -20.2283 H   0  0  0  0  0
  -16.3126  -13.1472  -17.9225 H   0  0  0  0  0
  -14.4877  -15.7691  -21.0646 H   0  0  0  0  0
  -15.9719  -16.2557  -20.2406 H   0  0  0  0  0
  -15.1129  -18.0588  -19.6147 H   0  0  0  0  0
  -13.5770  -17.2956  -19.1915 H   0  0  0  0  0
  -14.2840  -18.1410  -21.8267 H   0  0  0  0  0
  -11.6693  -17.6441  -20.3740 H   0  0  0  0  0
  -12.4361  -16.5841  -21.6138 H   0  0  0  0  0
  -10.5655  -18.0192  -22.4592 H   0  0  0  0  0
  -12.1526  -18.2595  -23.2975 H   0  0  0  0  0
  -10.8315  -20.0321  -21.2387 H   0  0  0  0  0
  -11.1961  -20.4005  -22.9820 H   0  0  0  0  0
  -12.7194  -21.5085  -21.3282 H   0  0  0  0  0
  -13.5397  -20.4569  -22.5248 H   0  0  0  0  0
  -14.4677  -20.0876  -20.2933 H   0  0  0  0  0
  -12.8287  -19.7212  -19.6624 H   0  0  0  0  0
  1  2  1  0  0  0
  2  3  2  0  0  0
  2  4  1  0  0  0
  2  5  1  0  0  0
  5  6  1  0  0  0
  5 10  1  0  0  0
  6  7  1  0  0  0
  6  8  1  0  0  0
  6  9  2  0  0  0
 10 11  1  0  0  0
 11 12  1  0  0  0
 12 13  1  0  0  0
 12 17  1  0  0  0
 13 14  1  0  0  0
 14 15  1  0  0  0
 15 16  1  0  0  0
 16 17  1  0  0  0
  1 18  1  0  0  0
  4 19  1  0  0  0
  5 20  1  0  0  0
  7 21  1  0  0  0
  8 22  1  0  0  0
 10 23  1  0  0  0
 10 24  1  0  0  0
 11 25  1  0  0  0
 11 26  1  0  0  0
 12 27  1  0  0  0
 13 28  1  0  0  0
 13 29  1  0  0  0
 14 30  1  0  0  0
 14 31  1  0  0  0
 15 32  1  0  0  0
 15 33  1  0  0  0
 16 34  1  0  0  0
 16 35  1  0  0  0
 17 36  1  0  0  0
 17 37  1  0  0  0
M  END
$$$$
