6g4z_ligand
  -I-interpret- 

 45 48  0  0  0  0  0  0  0  0999 V2000
   32.3060   49.9920    2.1890 C   0  0  0  0  0
   29.7980   54.1210   -0.5620 C   0  0  0  0  0
   30.8480   50.3730    2.3140 C   0  0  0  0  0
   29.2920   56.3270    0.8960 C   0  0  0  0  0
   30.5610   51.6980    1.7730 C   0  0  0  0  0
   30.2430   52.7960    1.3900 C   0  0  0  0  0
   29.8800   54.0440    0.8070 C   0  0  0  0  0
   29.6290   55.1680    1.5570 C   0  0  0  0  0
   29.4570   55.3290   -1.1280 C   0  0  0  0  0
   30.9760   48.4720    1.0120 N   0  0  0  0  0
   32.3360   48.7270    1.3600 C   0  0  0  0  0
   30.6090   47.3570    0.1880 C   0  0  0  0  0
   30.4220   50.2280    3.6600 O   0  0  0  0  0
   29.2000   56.4400   -0.4320 N   0  0  0  0  0
   29.4260   55.3650   -2.5230 N   0  0  0  0  0
   30.0200   54.3710   -3.2020 N   0  0  0  0  0
   29.8210   54.6700   -4.4850 C   0  0  0  0  0
   30.3160   53.8240   -5.5340 C   0  0  0  0  0
   30.5710   52.5400   -5.1200 N   0  0  0  0  0
   30.4800   54.2450   -6.6690 O   0  0  0  0  0
   29.0970   55.8750   -4.6230 C   0  0  0  0  0
   28.8560   56.3090   -3.3360 C   0  0  0  0  0
   28.1660   57.4660   -3.0550 C   0  0  0  0  0
   27.7210   58.1810   -4.1430 C   0  0  0  0  0
   27.9580   57.7490   -5.4230 C   0  0  0  0  0
   27.5040   58.4720   -6.4460 F   0  0  0  0  0
   28.6450   56.5980   -5.7070 C   0  0  0  0  0
   30.0870   49.3640    1.5270 C   0  0  0  0  0
   28.8780   49.3850    1.3800 O   0  0  0  0  0
   32.7583   49.8336    3.1680 H   0  0  0  0  0
   32.8831   50.7873    1.7172 H   0  0  0  0  0
   29.9977   53.2485   -1.1841 H   0  0  0  0  0
   29.0862   57.2129    1.4967 H   0  0  0  0  0
   29.6950   55.1422    2.6447 H   0  0  0  0  0
   32.7710   47.8949    1.9137 H   0  0  0  0  0
   32.9616   48.8424    0.4749 H   0  0  0  0  0
   31.1013   47.4450   -0.7805 H   0  0  0  0  0
   30.9197   46.4312    0.6722 H   0  0  0  0  0
   29.5280   47.3504    0.0482 H   0  0  0  0  0
   30.8871   50.8612    4.2116 H   0  0  0  0  0
   30.9270   51.8516   -5.7831 H   0  0  0  0  0
   30.4044   52.2745   -4.1493 H   0  0  0  0  0
   27.9831   57.7960   -2.0324 H   0  0  0  0  0
   27.1699   59.1080   -3.9848 H   0  0  0  0  0
   28.8241   56.2722   -6.7316 H   0  0  0  0  0
  3  1  1  0  0  0
  1 11  1  0  0  0
  7  2  4  0  0  0
  2  9  4  0  0  0
  5  3  1  0  0  0
  3 13  1  0  0  0
  3 28  1  0  0  0
  8  4  4  0  0  0
  4 14  4  0  0  0
  6  5  3  0  0  0
  7  6  1  0  0  0
  7  8  4  0  0  0
  9 14  4  0  0  0
  9 15  1  0  0  0
 11 10  1  0  0  0
 10 12  1  0  0  0
 10 28  1  0  0  0
 15 16  4  0  0  0
 15 22  4  0  0  0
 16 17  4  0  0  0
 17 18  1  0  0  0
 17 21  4  0  0  0
 18 19  1  0  0  0
 18 20  2  0  0  0
 21 22  4  0  0  0
 21 27  4  0  0  0
 22 23  4  0  0  0
 23 24  4  0  0  0
 24 25  4  0  0  0
 25 26  1  0  0  0
 25 27  4  0  0  0
 28 29  2  0  0  0
  1 30  1  0  0  0
  1 31  1  0  0  0
  2 32  1  0  0  0
  4 33  1  0  0  0
  8 34  1  0  0  0
 11 35  1  0  0  0
 11 36  1  0  0  0
 12 37  1  0  0  0
 12 38  1  0  0  0
 12 39  1  0  0  0
 13 40  1  0  0  0
 19 41  1  0  0  0
 19 42  1  0  0  0
 23 43  1  0  0  0
 24 44  1  0  0  0
 27 45  1  0  0  0
M  END
$$$$
