3i4y_ligand
  -I-interpret- 

 14 14  0  0  0  0  0  0  0  0999 V2000
    2.9630   -2.8590   18.8800 C   0  0  0  0  0
    3.5640   -1.6650   19.2320 C   0  0  0  0  0
    3.0350   -0.8680   20.2370 C   0  0  0  0  0
    1.8910   -1.2670   20.8990 C   0  0  0  0  0
    1.3010   -2.4640   20.5310 C   0  0  0  0  0
    1.8150   -3.2670   19.5290 C   0  0  0  0  0
    3.4880   -3.6370   17.8990 O   0  0  0  0  0
    4.6770   -1.2600   18.5690 O   0  0  0  0  0
    3.8000    0.6870   20.6870 Cl  0  0  0  0  0
   -0.1770   -2.9770   21.3740 Cl  0  0  0  0  0
    1.4627   -0.6543   21.6923 H   0  0  0  0  0
    1.3242   -4.2017   19.2577 H   0  0  0  0  0
    2.9453   -4.4212   17.7892 H   0  0  0  0  0
    4.9729   -0.4195   18.9263 H   0  0  0  0  0
  1  2  4  0  0  0
  1  6  4  0  0  0
  1  7  1  0  0  0
  2  3  4  0  0  0
  2  8  1  0  0  0
  3  4  4  0  0  0
  3  9  1  0  0  0
  4  5  4  0  0  0
  5  6  4  0  0  0
  5 10  1  0  0  0
  4 11  1  0  0  0
  6 12  1  0  0  0
  7 13  1  0  0  0
  8 14  1  0  0  0
M  END
$$$$
