5ff6_ligand
  -I-interpret- 

203204  0  0  0  0  0  0  0  0999 V2000
   14.9870  -32.2590  -28.5980 N   0  3  0  0  0
   16.3280  -32.5450  -29.1080 C   0  0  0  0  0
   16.8080  -33.9260  -28.6660 C   0  0  0  0  0
   16.4510  -34.4000  -27.5880 O   0  0  0  0  0
   17.3410  -31.5020  -28.6270 C   0  0  0  0  0
   17.0170  -29.7530  -28.9630 S   0  0  0  0  0
   17.6410  -34.5580  -29.4900 N   0  0  0  0  0
   18.2420  -35.8460  -29.1710 C   0  0  0  0  0
   19.7480  -35.7870  -29.3670 C   0  0  0  0  0
   20.2420  -35.1800  -30.3250 O   0  0  0  0  0
   17.6720  -36.9790  -30.0300 C   0  0  0  0  0
   16.4270  -37.6020  -29.4500 C   0  0  0  0  0
   16.2520  -39.0420  -29.8810 C   0  0  0  0  0
   16.9300  -39.5150  -30.7990 O   0  0  0  0  0
   15.3410  -39.7530  -29.2140 N   0  0  0  0  0
   20.4650  -36.4280  -28.4490 N   0  0  0  0  0
   21.9020  -36.5950  -28.5900 C   0  0  0  0  0
   22.2210  -37.3650  -29.8650 C   0  0  0  0  0
   21.5770  -38.3710  -30.1790 O   0  0  0  0  0
   22.4580  -37.3340  -27.3730 C   0  0  0  0  0
   23.9410  -37.5340  -27.4080 C   0  0  0  0  0
   24.8080  -36.4760  -27.1310 C   0  0  0  0  0
   24.4770  -38.7870  -27.6940 C   0  0  0  0  0
   26.1880  -36.6650  -27.1460 C   0  0  0  0  0
   25.8540  -38.9880  -27.7150 C   0  0  0  0  0
   26.7100  -37.9290  -27.4430 C   0  0  0  0  0
   23.2280  -36.8870  -30.5960 N   0  0  0  0  0
   23.6520  -37.4830  -31.8590 C   0  0  0  0  0
   25.0180  -38.1320  -31.6630 C   0  0  0  0  0
   25.9830  -37.4490  -31.3010 O   0  0  0  0  0
   23.6960  -36.4190  -32.9560 C   0  0  0  0  0
   24.1430  -36.9640  -34.2950 C   0  0  0  0  0
   24.2550  -38.1980  -34.4500 O   0  0  0  0  0
   24.3720  -36.1440  -35.2060 O   0  0  0  0  0
   25.0960  -39.4440  -31.9190 N   0  0  0  0  0
   26.3440  -40.1830  -31.7310 C   0  0  0  0  0
   27.4380  -39.7140  -32.6740 C   0  0  0  0  0
   28.6250  -39.7960  -32.3310 O   0  0  0  0  0
   26.1040  -41.6780  -31.9290 C   0  0  0  0  0
   25.1980  -42.2820  -30.8640 C   0  0  0  0  0
   24.6730  -43.6330  -31.3030 C   0  0  0  0  0
   25.9580  -42.3880  -29.5620 C   0  0  0  0  0
   27.0640  -39.2300  -33.8610 N   0  0  0  0  0
   28.0620  -38.8150  -34.8450 C   0  0  0  0  0
   28.8380  -37.5860  -34.3800 C   0  0  0  0  0
   30.0620  -37.5190  -34.5420 O   0  0  0  0  0
   27.3890  -38.5310  -36.1840 C   0  0  0  0  0
   26.8070  -39.7050  -36.7190 O   0  0  0  0  0
   28.1420  -36.5990  -33.8130 N   0  0  0  0  0
   28.7390  -35.3170  -33.4660 C   0  0  0  0  0
   28.9010  -35.1020  -31.9700 C   0  0  0  0  0
   29.5310  -34.1160  -31.5730 O   0  0  0  0  0
   27.8970  -34.1630  -34.0320 C   0  0  0  0  0
   26.5810  -34.1990  -33.4560 O   0  0  0  0  0
   27.7960  -34.2710  -35.5560 C   0  0  0  0  0
   28.3660  -36.0010  -31.1400 N   0  0  0  0  0
   28.3050  -35.8220  -29.6860 C   0  0  0  0  0
   27.6140  -34.5140  -29.3200 C   0  0  0  0  0
   27.8500  -33.9370  -28.2580 O   0  0  0  0  0
   29.6920  -35.9120  -29.0490 C   0  0  0  0  0
   30.3900  -37.2200  -29.3480 C   0  0  0  0  0
   31.5610  -37.3940  -28.4340 C   0  0  0  0  0
   32.3450  -38.5690  -28.7910 N   0  0  0  0  0
   33.4430  -38.9550  -28.1520 C   0  0  0  0  0
   33.8770  -38.2460  -27.1200 N   0  0  0  0  0
   34.1030  -40.0420  -28.5430 N   0  0  0  0  0
   26.7450  -34.0480  -30.2020 N   0  0  0  0  0
   25.9930  -32.8370  -29.9780 C   0  0  0  0  0
   24.5040  -33.1450  -29.9970 C   0  0  0  0  0
   24.0430  -34.1420  -30.5550 O   0  0  0  0  0
   26.3350  -31.7800  -31.0270 C   0  0  0  0  0
   27.7290  -31.2170  -30.8660 C   0  0  0  0  0
   27.9030  -30.4950  -29.5280 C   0  0  0  0  0
   26.8350  -29.5300  -29.2770 N   0  0  0  0  0
   26.7460  -28.3280  -29.8440 C   0  0  0  0  0
   27.6670  -27.9210  -30.7110 N   0  0  0  0  0
   25.7240  -27.5330  -29.5490 N   0  0  0  0  0
   23.7620  -32.2610  -29.3620 N   0  0  0  0  0
   22.3090  -32.3160  -29.3450 C   0  0  0  0  0
   21.7640  -31.8980  -30.7120 C   0  0  0  0  0
   22.1700  -30.8720  -31.2740 O   0  0  0  0  0
   21.7920  -31.3940  -28.2320 C   0  0  0  0  0
   20.5030  -31.8070  -27.5960 C   0  0  0  0  0
   20.5950  -33.0920  -26.8100 C   0  0  0  0  0
   19.6620  -33.8990  -26.8250 O   0  0  0  0  0
   21.7020  -33.2900  -26.1120 N   0  0  0  0  0
   20.8580  -32.7040  -31.2590 N   0  0  0  0  0
   20.2970  -32.4570  -32.5820 C   0  0  0  0  0
   18.8000  -32.2550  -32.4460 C   0  0  0  0  0
   18.0990  -33.1230  -31.9200 O   0  0  0  0  0
   20.5850  -33.6040  -33.5480 C   0  0  0  0  0
   19.7440  -33.5090  -34.8160 C   0  0  0  0  0
   20.3420  -34.3110  -35.9580 C   0  0  0  0  0
   21.6470  -33.6920  -36.4500 C   0  0  0  0  0
   22.0950  -34.2660  -37.7510 N   0  3  0  0  0
   18.3160  -31.1190  -32.9250 N   0  0  0  0  0
   16.9330  -30.7310  -32.7240 C   0  0  0  0  0
   16.2070  -30.6410  -34.0560 C   0  0  0  0  0
   16.8330  -30.4040  -35.0940 O   0  0  0  0  0
   16.8660  -29.3910  -31.9880 C   0  0  0  0  0
   18.0740  -29.2680  -30.6370 S   0  0  0  0  0
   14.9730  -30.8080  -34.1050 O   0  0  0  0  0
   14.3376  -32.9696  -28.9352 H   0  0  0  0  0
   15.0033  -32.2681  -27.5782 H   0  0  0  0  0
   14.6884  -31.3406  -28.9263 H   0  0  0  0  0
   16.2605  -32.5135  -30.1955 H   0  0  0  0  0
   18.2591  -31.7286  -29.1691 H   0  0  0  0  0
   17.3390  -31.5862  -27.5403 H   0  0  0  0  0
   17.8682  -34.1214  -30.3834 H   0  0  0  0  0
   18.0053  -36.0565  -28.1280 H   0  0  0  0  0
   18.4314  -37.7585  -30.0917 H   0  0  0  0  0
   17.4068  -36.5554  -30.9987 H   0  0  0  0  0
   15.5671  -37.0351  -29.8068 H   0  0  0  0  0
   16.5131  -37.5820  -28.3636 H   0  0  0  0  0
   15.1806  -40.7310  -29.4553 H   0  0  0  0  0
   14.8050  -39.3185  -28.4628 H   0  0  0  0  0
   19.9964  -36.8109  -27.6279 H   0  0  0  0  0
   22.3691  -35.6122  -28.6532 H   0  0  0  0  0
   21.9986  -38.3223  -27.3569 H   0  0  0  0  0
   22.2340  -36.7270  -26.4958 H   0  0  0  0  0
   24.4010  -35.4915  -26.9005 H   0  0  0  0  0
   23.8088  -39.6221  -27.9044 H   0  0  0  0  0
   26.8575  -35.8330  -26.9276 H   0  0  0  0  0
   26.2592  -39.9736  -27.9442 H   0  0  0  0  0
   27.7890  -38.0823  -27.4608 H   0  0  0  0  0
   23.7265  -36.0646  -30.2561 H   0  0  0  0  0
   22.9388  -38.2464  -32.1699 H   0  0  0  0  0
   24.4154  -35.6590  -32.6512 H   0  0  0  0  0
   22.6860  -36.0279  -33.0784 H   0  0  0  0  0
   24.0331  -38.6439  -33.6293 H   0  0  0  0  0
   24.2681  -39.9381  -32.2519 H   0  0  0  0  0
   26.6802  -39.9919  -30.7119 H   0  0  0  0  0
   27.0695  -42.1802  -31.8671 H   0  0  0  0  0
   25.6156  -41.8107  -32.8944 H   0  0  0  0  0
   24.3352  -41.6322  -30.7174 H   0  0  0  0  0
   24.1025  -43.5177  -32.2246 H   0  0  0  0  0
   25.5109  -44.3086  -31.4750 H   0  0  0  0  0
   24.0291  -44.0417  -30.5243 H   0  0  0  0  0
   26.8309  -43.0253  -29.7032 H   0  0  0  0  0
   26.2787  -41.3947  -29.2481 H   0  0  0  0  0
   25.3106  -42.8202  -28.7990 H   0  0  0  0  0
   26.0718  -39.1491  -34.0833 H   0  0  0  0  0
   28.7733  -39.6328  -34.9606 H   0  0  0  0  0
   28.1413  -38.1644  -36.8824 H   0  0  0  0  0
   26.6040  -37.7905  -36.0305 H   0  0  0  0  0
   26.3910  -39.5001  -37.5596 H   0  0  0  0  0
   27.1527  -36.7483  -33.6148 H   0  0  0  0  0
   29.7353  -35.3311  -33.9078 H   0  0  0  0  0
   28.3806  -33.2192  -33.7799 H   0  0  0  0  0
   26.0575  -33.4771  -33.8114 H   0  0  0  0  0
   28.7953  -34.2269  -35.9891 H   0  0  0  0  0
   27.3250  -35.2175  -35.8215 H   0  0  0  0  0
   27.1961  -33.4452  -35.9385 H   0  0  0  0  0
   27.9796  -36.8568  -31.5383 H   0  0  0  0  0
   27.7074  -36.6392  -29.2820 H   0  0  0  0  0
   29.5687  -35.8386  -27.9685 H   0  0  0  0  0
   30.3011  -35.1069  -29.4599 H   0  0  0  0  0
   30.7385  -37.2132  -30.3808 H   0  0  0  0  0
   29.6911  -38.0427  -29.1968 H   0  0  0  0  0
   31.1900  -37.5217  -27.4171 H   0  0  0  0  0
   32.1989  -36.5141  -28.5177 H   0  0  0  0  0
   32.0304  -39.1308  -29.5821 H   0  0  0  0  0
   33.3686  -37.4128  -26.8238 H   0  0  0  0  0
   34.9462  -40.3323  -28.0480 H   0  0  0  0  0
   33.7658  -40.5851  -29.3378 H   0  0  0  0  0
   26.6015  -34.5628  -31.0708 H   0  0  0  0  0
   26.2610  -32.4364  -29.0003 H   0  0  0  0  0
   25.6293  -30.9573  -30.9117 H   0  0  0  0  0
   26.2797  -32.2545  -32.0067 H   0  0  0  0  0
   27.9014  -30.4980  -31.6669 H   0  0  0  0  0
   28.4376  -32.0444  -30.9021 H   0  0  0  0  0
   28.8487  -29.9538  -29.5558 H   0  0  0  0  0
   27.8779  -31.2418  -28.7345 H   0  0  0  0  0
   26.1031  -29.7967  -28.6185 H   0  0  0  0  0
   27.5869  -27.0020  -31.1463 H   0  0  0  0  0
   28.4541  -28.5275  -30.9412 H   0  0  0  0  0
   25.0101  -27.8434  -28.8899 H   0  0  0  0  0
   24.2272  -31.5046  -28.8601 H   0  0  0  0  0
   21.9679  -33.3316  -29.1443 H   0  0  0  0  0
   21.6118  -30.4231  -28.6936 H   0  0  0  0  0
   22.5445  -31.4091  -27.4436 H   0  0  0  0  0
   19.7821  -31.9675  -28.3976 H   0  0  0  0  0
   20.2180  -31.0194  -26.8985 H   0  0  0  0  0
   21.8095  -34.1384  -25.5561 H   0  0  0  0  0
   22.4476  -32.5942  -26.1300 H   0  0  0  0  0
   20.5454  -33.5218  -30.7356 H   0  0  0  0  0
   20.7661  -31.5641  -32.9952 H   0  0  0  0  0
   20.3407  -34.5406  -33.0468 H   0  0  0  0  0
   21.6361  -33.5540  -33.8321 H   0  0  0  0  0
   19.7029  -32.4629  -35.1196 H   0  0  0  0  0
   18.7545  -33.9113  -34.5991 H   0  0  0  0  0
   19.6306  -34.3206  -36.7838 H   0  0  0  0  0
   20.5505  -35.3194  -35.6006 H   0  0  0  0  0
   22.4182  -33.8979  -35.7077 H   0  0  0  0  0
   21.4805  -32.6243  -36.5926 H   0  0  0  0  0
   22.9677  -33.8209  -38.0351 H   0  0  0  0  0
   22.2425  -35.2698  -37.6456 H   0  0  0  0  0
   21.3803  -34.0987  -38.4592 H   0  0  0  0  0
   18.9333  -30.4995  -33.4500 H   0  0  0  0  0
   16.4413  -31.4905  -32.1161 H   0  0  0  0  0
   15.8702  -29.2978  -31.5546 H   0  0  0  0  0
   17.0892  -28.6035  -32.7078 H   0  0  0  0  0
   14.6394  -30.9816  -33.2217 H   0  0  0  0  0
  1  2  1  0  0  0
  2  3  1  0  0  0
  2  5  1  0  0  0
  3  4  2  0  0  0
  3  7  1  0  0  0
  5  6  1  0  0  0
  6101  1  0  0  0
  7  8  1  0  0  0
  8  9  1  0  0  0
  8 11  1  0  0  0
  9 10  2  0  0  0
  9 16  1  0  0  0
 11 12  1  0  0  0
 12 13  1  0  0  0
 13 14  2  0  0  0
 13 15  1  0  0  0
 16 17  1  0  0  0
 17 18  1  0  0  0
 17 20  1  0  0  0
 18 19  2  0  0  0
 18 27  1  0  0  0
 20 21  1  0  0  0
 21 22  4  0  0  0
 21 23  4  0  0  0
 22 24  4  0  0  0
 23 25  4  0  0  0
 24 26  4  0  0  0
 25 26  4  0  0  0
 27 28  1  0  0  0
 28 29  1  0  0  0
 28 31  1  0  0  0
 29 30  2  0  0  0
 29 35  1  0  0  0
 31 32  1  0  0  0
 32 33  1  0  0  0
 32 34  2  0  0  0
 35 36  1  0  0  0
 36 37  1  0  0  0
 36 39  1  0  0  0
 37 38  2  0  0  0
 37 43  1  0  0  0
 39 40  1  0  0  0
 40 41  1  0  0  0
 40 42  1  0  0  0
 43 44  1  0  0  0
 44 45  1  0  0  0
 44 47  1  0  0  0
 45 46  2  0  0  0
 45 49  1  0  0  0
 47 48  1  0  0  0
 49 50  1  0  0  0
 50 51  1  0  0  0
 50 53  1  0  0  0
 51 52  2  0  0  0
 51 56  1  0  0  0
 53 54  1  0  0  0
 53 55  1  0  0  0
 56 57  1  0  0  0
 57 58  1  0  0  0
 57 60  1  0  0  0
 58 59  2  0  0  0
 58 67  1  0  0  0
 60 61  1  0  0  0
 61 62  1  0  0  0
 62 63  1  0  0  0
 63 64  1  0  0  0
 64 65  2  0  0  0
 64 66  1  0  0  0
 67 68  1  0  0  0
 68 69  1  0  0  0
 68 71  1  0  0  0
 69 70  2  0  0  0
 69 78  1  0  0  0
 71 72  1  0  0  0
 72 73  1  0  0  0
 73 74  1  0  0  0
 74 75  1  0  0  0
 75 76  1  0  0  0
 75 77  2  0  0  0
 78 79  1  0  0  0
 79 80  1  0  0  0
 79 82  1  0  0  0
 80 81  2  0  0  0
 80 87  1  0  0  0
 82 83  1  0  0  0
 83 84  1  0  0  0
 84 85  2  0  0  0
 84 86  1  0  0  0
 87 88  1  0  0  0
 88 89  1  0  0  0
 88 91  1  0  0  0
 89 90  2  0  0  0
 89 96  1  0  0  0
 91 92  1  0  0  0
 92 93  1  0  0  0
 93 94  1  0  0  0
 94 95  1  0  0  0
 96 97  1  0  0  0
 97 98  1  0  0  0
 97100  1  0  0  0
 98 99  2  0  0  0
 98102  1  0  0  0
100101  1  0  0  0
  1103  1  0  0  0
  1104  1  0  0  0
  1105  1  0  0  0
  2106  1  0  0  0
  5107  1  0  0  0
  5108  1  0  0  0
  7109  1  0  0  0
  8110  1  0  0  0
 11111  1  0  0  0
 11112  1  0  0  0
 12113  1  0  0  0
 12114  1  0  0  0
 15115  1  0  0  0
 15116  1  0  0  0
 16117  1  0  0  0
 17118  1  0  0  0
 20119  1  0  0  0
 20120  1  0  0  0
 22121  1  0  0  0
 23122  1  0  0  0
 24123  1  0  0  0
 25124  1  0  0  0
 26125  1  0  0  0
 27126  1  0  0  0
 28127  1  0  0  0
 31128  1  0  0  0
 31129  1  0  0  0
 33130  1  0  0  0
 35131  1  0  0  0
 36132  1  0  0  0
 39133  1  0  0  0
 39134  1  0  0  0
 40135  1  0  0  0
 41136  1  0  0  0
 41137  1  0  0  0
 41138  1  0  0  0
 42139  1  0  0  0
 42140  1  0  0  0
 42141  1  0  0  0
 43142  1  0  0  0
 44143  1  0  0  0
 47144  1  0  0  0
 47145  1  0  0  0
 48146  1  0  0  0
 49147  1  0  0  0
 50148  1  0  0  0
 53149  1  0  0  0
 54150  1  0  0  0
 55151  1  0  0  0
 55152  1  0  0  0
 55153  1  0  0  0
 56154  1  0  0  0
 57155  1  0  0  0
 60156  1  0  0  0
 60157  1  0  0  0
 61158  1  0  0  0
 61159  1  0  0  0
 62160  1  0  0  0
 62161  1  0  0  0
 63162  1  0  0  0
 65163  1  0  0  0
 66164  1  0  0  0
 66165  1  0  0  0
 67166  1  0  0  0
 68167  1  0  0  0
 71168  1  0  0  0
 71169  1  0  0  0
 72170  1  0  0  0
 72171  1  0  0  0
 73172  1  0  0  0
 73173  1  0  0  0
 74174  1  0  0  0
 76175  1  0  0  0
 76176  1  0  0  0
 77177  1  0  0  0
 78178  1  0  0  0
 79179  1  0  0  0
 82180  1  0  0  0
 82181  1  0  0  0
 83182  1  0  0  0
 83183  1  0  0  0
 86184  1  0  0  0
 86185  1  0  0  0
 87186  1  0  0  0
 88187  1  0  0  0
 91188  1  0  0  0
 91189  1  0  0  0
 92190  1  0  0  0
 92191  1  0  0  0
 93192  1  0  0  0
 93193  1  0  0  0
 94194  1  0  0  0
 94195  1  0  0  0
 95196  1  0  0  0
 95197  1  0  0  0
 95198  1  0  0  0
 96199  1  0  0  0
 97200  1  0  0  0
100201  1  0  0  0
100202  1  0  0  0
102203  1  0  0  0
M  END
$$$$
