### 
### Created by X-TOOL on Mon Sep 10 21:13:26 2018
### 

@<TRIPOS>MOLECULE
5ff6_ligand
  203   204     1     0     0
SMALL
GAST_HUCK


@<TRIPOS>ATOM
      1 N          14.9870  -32.2590  -28.5980 N.4       1 CYS         0.2385
      2 CA         16.3280  -32.5450  -29.1080 C.3       1 CYS         0.0749
      3 C          16.8080  -33.9260  -28.6660 C.2       1 CYS         0.2275
      4 O          16.4510  -34.4000  -27.5880 O.2       1 CYS        -0.3907
      5 CB         17.3410  -31.5020  -28.6270 C.3       1 CYS         0.0643
      6 SG         17.0170  -29.7530  -28.9630 S.3       1 CYS        -0.0848
      7 N          17.6410  -34.5580  -29.4900 N.am      1 GLN        -0.2608
      8 CA         18.2420  -35.8460  -29.1710 C.3       1 GLN         0.1331
      9 C          19.7480  -35.7870  -29.3670 C.2       1 GLN         0.2042
     10 O          20.2420  -35.1800  -30.3250 O.2       1 GLN        -0.3944
     11 CB         17.6720  -36.9790  -30.0300 C.3       1 GLN         0.0045
     12 CG         16.4270  -37.6020  -29.4500 C.3       1 GLN         0.0412
     13 CD         16.2520  -39.0420  -29.8810 C.2       1 GLN         0.1737
     14 OE1        16.9300  -39.5150  -30.7990 O.2       1 GLN        -0.3973
     15 NE2        15.3410  -39.7530  -29.2140 N.am      1 GLN        -0.3009
     16 N          20.4650  -36.4280  -28.4490 N.am      1 PHE        -0.2619
     17 CA         21.9020  -36.5950  -28.5900 C.3       1 PHE         0.1404
     18 C          22.2210  -37.3650  -29.8650 C.2       1 PHE         0.2060
     19 O          21.5770  -38.3710  -30.1790 O.2       1 PHE        -0.3942
     20 CB         22.4580  -37.3340  -27.3730 C.3       1 PHE         0.0214
     21 CG         23.9410  -37.5340  -27.4080 C.ar      1 PHE        -0.0386
     22 CD1        24.8080  -36.4760  -27.1310 C.ar      1 PHE        -0.0601
     23 CD2        24.4770  -38.7870  -27.6940 C.ar      1 PHE        -0.0601
     24 CE1        26.1880  -36.6650  -27.1460 C.ar      1 PHE        -0.0686
     25 CE2        25.8540  -38.9880  -27.7150 C.ar      1 PHE        -0.0686
     26 CZ         26.7100  -37.9290  -27.4430 C.ar      1 PHE        -0.0687
     27 N          23.2280  -36.8870  -30.5960 N.am      1 ASP        -0.2620
     28 CA         23.6520  -37.4830  -31.8590 C.3       1 ASP         0.1423
     29 C          25.0180  -38.1320  -31.6630 C.2       1 ASP         0.2056
     30 O          25.9830  -37.4490  -31.3010 O.2       1 ASP        -0.3943
     31 CB         23.6960  -36.4190  -32.9560 C.3       1 ASP         0.0406
     32 CG         24.1430  -36.9640  -34.2950 C.2       1 ASP         0.0393
     33 OD1        24.2550  -38.1980  -34.4500 O.co2     1 ASP        -0.5688
     34 OD2        24.3720  -36.1440  -35.2060 O.co2     1 ASP        -0.5688
     35 N          25.0960  -39.4440  -31.9190 N.am      1 LEU        -0.2636
     36 CA         26.3440  -40.1830  -31.7310 C.3       1 LEU         0.1312
     37 C          27.4380  -39.7140  -32.6740 C.2       1 LEU         0.2040
     38 O          28.6250  -39.7960  -32.3310 O.2       1 LEU        -0.3944
     39 CB         26.1040  -41.6780  -31.9290 C.3       1 LEU        -0.0101
     40 CG         25.1980  -42.2820  -30.8640 C.3       1 LEU        -0.0425
     41 CD1        24.6730  -43.6330  -31.3030 C.3       1 LEU        -0.0625
     42 CD2        25.9580  -42.3880  -29.5620 C.3       1 LEU        -0.0625
     43 N          27.0640  -39.2300  -33.8610 N.am      1 SER        -0.2616
     44 CA         28.0620  -38.8150  -34.8450 C.3       1 SER         0.1539
     45 C          28.8380  -37.5860  -34.3800 C.2       1 SER         0.2063
     46 O          30.0620  -37.5190  -34.5420 O.2       1 SER        -0.3943
     47 CB         27.3890  -38.5310  -36.1840 C.3       1 SER         0.0843
     48 OG         26.8070  -39.7050  -36.7190 O.3       1 SER        -0.3903
     49 N          28.1420  -36.5990  -33.8130 N.am      1 THR        -0.2613
     50 CA         28.7390  -35.3170  -33.4660 C.3       1 THR         0.1565
     51 C          28.9010  -35.1020  -31.9700 C.2       1 THR         0.2065
     52 O          29.5310  -34.1160  -31.5730 O.2       1 THR        -0.3943
     53 CB         27.8970  -34.1630  -34.0320 C.3       1 THR         0.0924
     54 OG1        26.5810  -34.1990  -33.4560 O.3       1 THR        -0.3874
     55 CG2        27.7960  -34.2710  -35.5560 C.3       1 THR        -0.0346
     56 N          28.3660  -36.0010  -31.1400 N.am      1 ARG        -0.2636
     57 CA         28.3050  -35.8220  -29.6860 C.3       1 ARG         0.1311
     58 C          27.6140  -34.5140  -29.3200 C.2       1 ARG         0.2039
     59 O          27.8500  -33.9370  -28.2580 O.2       1 ARG        -0.3944
     60 CB         29.6920  -35.9120  -29.0490 C.3       1 ARG        -0.0092
     61 CG         30.3900  -37.2200  -29.3480 C.3       1 ARG        -0.0156
     62 CD         31.5610  -37.3940  -28.4340 C.3       1 ARG         0.0627
     63 NE         32.3450  -38.5690  -28.7910 N.pl3     1 ARG        -0.2723
     64 CZ         33.4430  -38.9550  -28.1520 C.cat     1 ARG         0.2882
     65 NH1        33.8770  -38.2460  -27.1200 N.pl3     1 ARG        -0.2849
     66 NH2        34.1030  -40.0420  -28.5430 N.pl3     1 ARG        -0.2849
     67 N          26.7450  -34.0480  -30.2020 N.am      1 ARG        -0.2637
     68 CA         25.9930  -32.8370  -29.9780 C.3       1 ARG         0.1311
     69 C          24.5040  -33.1450  -29.9970 C.2       1 ARG         0.2039
     70 O          24.0430  -34.1420  -30.5550 O.2       1 ARG        -0.3944
     71 CB         26.3350  -31.7800  -31.0270 C.3       1 ARG        -0.0092
     72 CG         27.7290  -31.2170  -30.8660 C.3       1 ARG        -0.0156
     73 CD         27.9030  -30.4950  -29.5280 C.3       1 ARG         0.0627
     74 NE         26.8350  -29.5300  -29.2770 N.pl3     1 ARG        -0.2723
     75 CZ         26.7460  -28.3280  -29.8440 C.cat     1 ARG         0.2882
     76 NH1        27.6670  -27.9210  -30.7110 N.pl3     1 ARG        -0.2849
     77 NH2        25.7240  -27.5330  -29.5490 N.pl3     1 ARG        -0.2849
     78 N          23.7620  -32.2610  -29.3620 N.am      1 GLN        -0.2636
     79 CA         22.3090  -32.3160  -29.3450 C.3       1 GLN         0.1330
     80 C          21.7640  -31.8980  -30.7120 C.2       1 GLN         0.2040
     81 O          22.1700  -30.8720  -31.2740 O.2       1 GLN        -0.3944
     82 CB         21.7920  -31.3940  -28.2320 C.3       1 GLN         0.0045
     83 CG         20.5030  -31.8070  -27.5960 C.3       1 GLN         0.0412
     84 CD         20.5950  -33.0920  -26.8100 C.2       1 GLN         0.1737
     85 OE1        19.6620  -33.8990  -26.8250 O.2       1 GLN        -0.3973
     86 NE2        21.7020  -33.2900  -26.1120 N.am      1 GLN        -0.3009
     87 N          20.8580  -32.7040  -31.2590 N.am      1 LYS        -0.2637
     88 CA         20.2970  -32.4570  -32.5820 C.3       1 LYS         0.1309
     89 C          18.8000  -32.2550  -32.4460 C.2       1 LYS         0.2034
     90 O          18.0990  -33.1230  -31.9200 O.2       1 LYS        -0.3944
     91 CB         20.5850  -33.6040  -33.5480 C.3       1 LYS        -0.0122
     92 CG         19.7440  -33.5090  -34.8160 C.3       1 LYS        -0.0440
     93 CD         20.3420  -34.3110  -35.9580 C.3       1 LYS        -0.0124
     94 CE         21.6470  -33.6920  -36.4500 C.3       1 LYS        -0.0354
     95 NZ         22.0950  -34.2660  -37.7510 N.4       1 LYS         0.2185
     96 N          18.3160  -31.1190  -32.9250 N.am      1 CYS        -0.2687
     97 CA         16.9330  -30.7310  -32.7240 C.3       1 CYS         0.1041
     98 C          16.2070  -30.6410  -34.0560 C.2       1 CYS         0.0609
     99 O          16.8330  -30.4040  -35.0940 O.co2     1 CYS        -0.5666
    100 CB         16.8660  -29.3910  -31.9880 C.3       1 CYS         0.0388
    101 SG         18.0740  -29.2680  -30.6370 S.3       1 CYS        -0.0887
    102 OXT        14.9730  -30.8080  -34.1050 O.co2     1 CYS        -0.5666
    103 H1         14.6988  -31.3434  -28.9056 H         1 CYS         0.2015
    104 H2         14.9976  -32.2870  -27.5905 H         1 CYS         0.2015
    105 H3         14.3406  -32.9494  -28.9466 H         1 CYS         0.2015
    106 H4         16.2896  -32.5195  -30.2070 H         1 CYS         0.1107
    107 H5         18.3055  -31.7479  -29.0952 H         1 CYS         0.0466
    108 H6         17.4246  -31.6115  -27.5357 H         1 CYS         0.0466
    109 H7         17.8638  -34.1300  -30.3659 H         1 GLN         0.1885
    110 H8         18.0306  -36.0707  -28.1152 H         1 GLN         0.0801
    111 H9         18.4392  -37.7609  -30.1296 H         1 GLN         0.0337
    112 H10        17.4291  -36.5748  -31.0238 H         1 GLN         0.0337
    113 H11        15.5531  -37.0238  -29.7846 H         1 GLN         0.0504
    114 H12        16.4918  -37.5665  -28.3525 H         1 GLN         0.0504
    115 H13        15.1806  -40.7105  -29.4536 H         1 GLN         0.1814
    116 H14        14.8187  -39.3283  -28.4745 H         1 GLN         0.1814
    117 H15        20.0056  -36.8034  -27.6440 H         1 PHE         0.1885
    118 H16        22.3717  -35.6021  -28.6489 H         1 PHE         0.0823
    119 H17        21.9769  -38.3217  -27.3184 H         1 PHE         0.0474
    120 H18        22.2083  -36.7542  -26.4722 H         1 PHE         0.0474
    121 H19        24.4032  -35.4969  -26.9018 H         1 PHE         0.0557
    122 H20        23.8124  -39.6175  -27.9032 H         1 PHE         0.0557
    123 H21        26.8538  -35.8376  -26.9288 H         1 PHE         0.0599
    124 H22        26.2570  -39.9681  -27.9430 H         1 PHE         0.0599
    125 H23        27.7831  -38.0815  -27.4607 H         1 PHE         0.0559
    126 H24        23.7168  -36.0807  -30.2628 H         1 ASP         0.1884
    127 H25        22.9286  -38.2584  -32.1514 H         1 ASP         0.0819
    128 H26        24.3962  -35.6283  -32.6487 H         1 ASP         0.0478
    129 H27        22.6885  -35.9925  -33.0705 H         1 ASP         0.0478
    130 H28        24.2843  -39.9284  -32.2454 H         1 LEU         0.1883
    131 H29        26.6865  -40.0166  -30.6990 H         1 LEU         0.0800
    132 H30        27.0741  -42.1957  -31.8985 H         1 LEU         0.0315
    133 H31        25.6376  -41.8307  -32.9135 H         1 LEU         0.0315
    134 H32        24.3389  -41.6117  -30.7135 H         1 LEU         0.0298
    135 H33        24.0229  -44.0465  -30.5179 H         1 LEU         0.0232
    136 H34        25.5177  -44.3158  -31.4769 H         1 LEU         0.0232
    137 H35        24.0970  -43.5180  -32.2330 H         1 LEU         0.0232
    138 H36        26.3258  -41.3932  -29.2701 H         1 LEU         0.0232
    139 H37        26.8106  -43.0712  -29.6897 H         1 LEU         0.0232
    140 H38        25.2908  -42.7766  -28.7785 H         1 LEU         0.0232
    141 H39        26.0913  -39.1507  -34.0789 H         1 SER         0.1884
    142 H40        28.7755  -39.6412  -34.9802 H         1 SER         0.0823
    143 H41        28.1405  -38.1483  -36.8902 H         1 SER         0.0606
    144 H42        26.6038  -37.7746  -36.0385 H         1 SER         0.0606
    145 H43        27.4821  -40.3604  -36.8499 H         1 SER         0.2097
    146 H44        27.1721  -36.7454  -33.6187 H         1 THR         0.1884
    147 H45        29.7383  -35.2810  -33.9243 H         1 THR         0.0826
    148 H46        28.3781  -33.2084  -33.7726 H         1 THR         0.0639
    149 H47        26.0629  -33.4846  -33.8077 H         1 THR         0.2101
    150 H48        27.1907  -33.4381  -35.9433 H         1 THR         0.0257
    151 H49        27.3208  -35.2258  -35.8253 H         1 THR         0.0257
    152 H50        28.8039  -34.2266  -35.9944 H         1 THR         0.0257
    153 H51        27.9872  -36.8401  -31.5305 H         1 ARG         0.1883
    154 H52        27.6991  -36.6437  -29.2766 H         1 ARG         0.0800
    155 H53        29.5854  -35.8117  -27.9588 H         1 ARG         0.0313
    156 H54        30.3100  -35.0877  -29.4344 H         1 ARG         0.0313
    157 H55        30.7392  -37.2167  -30.3911 H         1 ARG         0.0301
    158 H56        29.6853  -38.0515  -29.1998 H         1 ARG         0.0301
    159 H57        31.1960  -37.5074  -27.4025 H         1 ARG         0.0689
    160 H58        32.2021  -36.5026  -28.5002 H         1 ARG         0.0689
    161 H59        32.0273  -39.1363  -29.5899 H         1 ARG         0.2642
    162 H60        34.7277  -38.5363  -26.6170 H         1 ARG         0.2615
    163 H61        33.3637  -37.4046  -26.8209 H         1 ARG         0.2615
    164 H62        33.7624  -40.5904  -29.3456 H         1 ARG         0.2615
    165 H63        34.9545  -40.3351  -28.0431 H         1 ARG         0.2615
    166 H64        26.6044  -34.5527  -31.0538 H         1 ARG         0.1883
    167 H65        26.2568  -32.4399  -28.9867 H         1 ARG         0.0800
    168 H66        25.6120  -30.9553  -30.9423 H         1 ARG         0.0313
    169 H67        26.2547  -32.2371  -32.0243 H         1 ARG         0.0313
    170 H68        27.9210  -30.5046  -31.6818 H         1 ARG         0.0301
    171 H69        28.4542  -32.0422  -30.9215 H         1 ARG         0.0301
    172 H70        28.8659  -29.9633  -29.5353 H         1 ARG         0.0689
    173 H71        27.9025  -31.2416  -28.7202 H         1 ARG         0.0689
    174 H72        26.0959  -29.7993  -28.6121 H         1 ARG         0.2642
    175 H73        27.5903  -26.9899  -31.1447 H         1 ARG         0.2615
    176 H74        28.4576  -28.5366  -30.9494 H         1 ARG         0.2615
    177 H75        25.0072  -27.8434  -28.8776 H         1 ARG         0.2615
    178 H76        25.6481  -26.6060  -29.9916 H         1 ARG         0.2615
    179 H77        24.2180  -31.5194  -28.8700 H         1 GLN         0.1883
    180 H78        21.9863  -33.3463  -29.1344 H         1 GLN         0.0801
    181 H79        21.6511  -30.3913  -28.6617 H         1 GLN         0.0337
    182 H80        22.5590  -31.3511  -27.4447 H         1 GLN         0.0337
    183 H81        19.7518  -31.9386  -28.3887 H         1 GLN         0.0504
    184 H82        20.1805  -31.0061  -26.9144 H         1 GLN         0.0504
    185 H83        21.8113  -34.1261  -25.5745 H         1 GLN         0.1814
    186 H84        22.4290  -32.6035  -26.1222 H         1 GLN         0.1814
    187 H85        20.5516  -33.5058  -30.7459 H         1 LYS         0.1883
    188 H86        20.7471  -31.5396  -32.9891 H         1 LYS         0.0800
    189 H87        20.3620  -34.5564  -33.0448 H         1 LYS         0.0312
    190 H88        21.6492  -33.5760  -33.8250 H         1 LYS         0.0312
    191 H89        19.6779  -32.4539  -35.1198 H         1 LYS         0.0269
    192 H90        18.7355  -33.8930  -34.6026 H         1 LYS         0.0269
    193 H91        19.6233  -34.3392  -36.7903 H         1 LYS         0.0317
    194 H92        20.5407  -35.3355  -35.6102 H         1 LYS         0.0317
    195 H93        22.4287  -33.8715  -35.6972 H         1 LYS         0.0813
    196 H94        21.4993  -32.6091  -36.5742 H         1 LYS         0.0813
    197 H95        22.9574  -33.8268  -38.0328 H         1 LYS         0.1994
    198 H96        21.3894  -34.1012  -38.4518 H         1 LYS         0.1994
    199 H97        22.2411  -35.2580  -37.6481 H         1 LYS         0.1994
    200 H98        18.9212  -30.5117  -33.4397 H         1 CYS         0.1876
    201 H99        16.4393  -31.4962  -32.1071 H         1 CYS         0.0734
    202 H100       15.8563  -29.2707  -31.5685 H         1 CYS         0.0425
    203 H101       17.0621  -28.5838  -32.7091 H         1 CYS         0.0425
@<TRIPOS>BOND
     1    1    2 1  
     2    2    3 1  
     3    2    5 1  
     4    3    4 2  
     5    3    7 am 
     6    5    6 1  
     7    6  101 1  
     8    7    8 1  
     9    8    9 1  
    10    8   11 1  
    11    9   10 2  
    12    9   16 am 
    13   11   12 1  
    14   12   13 1  
    15   13   14 2  
    16   13   15 am 
    17   16   17 1  
    18   17   18 1  
    19   17   20 1  
    20   18   19 2  
    21   18   27 am 
    22   20   21 1  
    23   21   22 ar 
    24   21   23 ar 
    25   22   24 ar 
    26   23   25 ar 
    27   24   26 ar 
    28   25   26 ar 
    29   27   28 1  
    30   28   29 1  
    31   28   31 1  
    32   29   30 2  
    33   29   35 am 
    34   31   32 1  
    35   32   33 ar 
    36   32   34 ar 
    37   35   36 1  
    38   36   37 1  
    39   36   39 1  
    40   37   38 2  
    41   37   43 am 
    42   39   40 1  
    43   40   41 1  
    44   40   42 1  
    45   43   44 1  
    46   44   45 1  
    47   44   47 1  
    48   45   46 2  
    49   45   49 am 
    50   47   48 1  
    51   49   50 1  
    52   50   51 1  
    53   50   53 1  
    54   51   52 2  
    55   51   56 am 
    56   53   54 1  
    57   53   55 1  
    58   56   57 1  
    59   57   58 1  
    60   57   60 1  
    61   58   59 2  
    62   58   67 am 
    63   60   61 1  
    64   61   62 1  
    65   62   63 1  
    66   63   64 ar 
    67   64   65 ar 
    68   64   66 ar 
    69   67   68 1  
    70   68   69 1  
    71   68   71 1  
    72   69   70 2  
    73   69   78 am 
    74   71   72 1  
    75   72   73 1  
    76   73   74 1  
    77   74   75 ar 
    78   75   76 ar 
    79   75   77 ar 
    80   78   79 1  
    81   79   80 1  
    82   79   82 1  
    83   80   81 2  
    84   80   87 am 
    85   82   83 1  
    86   83   84 1  
    87   84   85 2  
    88   84   86 am 
    89   87   88 1  
    90   88   89 1  
    91   88   91 1  
    92   89   90 2  
    93   89   96 am 
    94   91   92 1  
    95   92   93 1  
    96   93   94 1  
    97   94   95 1  
    98   96   97 1  
    99   97   98 1  
   100   97  100 1  
   101   98   99 ar 
   102   98  102 ar 
   103  100  101 1  
   104    1  103 1  
   105    1  104 1  
   106    1  105 1  
   107    2  106 1  
   108    5  107 1  
   109    5  108 1  
   110    7  109 1  
   111    8  110 1  
   112   11  111 1  
   113   11  112 1  
   114   12  113 1  
   115   12  114 1  
   116   15  115 1  
   117   15  116 1  
   118   16  117 1  
   119   17  118 1  
   120   20  119 1  
   121   20  120 1  
   122   22  121 1  
   123   23  122 1  
   124   24  123 1  
   125   25  124 1  
   126   26  125 1  
   127   27  126 1  
   128   28  127 1  
   129   31  128 1  
   130   31  129 1  
   131   35  130 1  
   132   36  131 1  
   133   39  132 1  
   134   39  133 1  
   135   40  134 1  
   136   41  135 1  
   137   41  136 1  
   138   41  137 1  
   139   42  138 1  
   140   42  139 1  
   141   42  140 1  
   142   43  141 1  
   143   44  142 1  
   144   47  143 1  
   145   47  144 1  
   146   48  145 1  
   147   49  146 1  
   148   50  147 1  
   149   53  148 1  
   150   54  149 1  
   151   55  150 1  
   152   55  151 1  
   153   55  152 1  
   154   56  153 1  
   155   57  154 1  
   156   60  155 1  
   157   60  156 1  
   158   61  157 1  
   159   61  158 1  
   160   62  159 1  
   161   62  160 1  
   162   63  161 1  
   163   65  162 1  
   164   65  163 1  
   165   66  164 1  
   166   66  165 1  
   167   67  166 1  
   168   68  167 1  
   169   71  168 1  
   170   71  169 1  
   171   72  170 1  
   172   72  171 1  
   173   73  172 1  
   174   73  173 1  
   175   74  174 1  
   176   76  175 1  
   177   76  176 1  
   178   77  177 1  
   179   77  178 1  
   180   78  179 1  
   181   79  180 1  
   182   82  181 1  
   183   82  182 1  
   184   83  183 1  
   185   83  184 1  
   186   86  185 1  
   187   86  186 1  
   188   87  187 1  
   189   88  188 1  
   190   91  189 1  
   191   91  190 1  
   192   92  191 1  
   193   92  192 1  
   194   93  193 1  
   195   93  194 1  
   196   94  195 1  
   197   94  196 1  
   198   95  197 1  
   199   95  198 1  
   200   95  199 1  
   201   96  200 1  
   202   97  201 1  
   203  100  202 1  
   204  100  203 1  
@<TRIPOS>SUBSTRUCTURE
     1 CYS         1

