3kqm_ligand
  -I-interpret- 

  8  8  0  0  0  0  0  0  0  0999 V2000
   26.7400   42.5740   16.1100 Br  0  0  0  0  0
   27.4980   44.2390   16.7550 C   0  0  0  0  0
   28.2280   44.4040   17.9250 C   0  0  0  0  0
   28.5990   45.6940   18.0070 N   0  0  0  0  0
   28.1170   46.3290   16.8920 C   0  0  0  0  0
   27.4400   45.4220   16.1210 N   0  0  0  0  0
   28.4598   43.6240   18.6502 H   0  0  0  0  0
   28.2509   47.3849   16.6570 H   0  0  0  0  0
  1  2  1  0  0  0
  2  3  4  0  0  0
  2  6  4  0  0  0
  3  4  4  0  0  0
  4  5  4  0  0  0
  5  6  4  0  0  0
  3  7  1  0  0  0
  5  8  1  0  0  0
M  END
$$$$
