4eym_ligand
  -I-interpret- 

 48 51  0  0  0  0  0  0  0  0999 V2000
  -13.3930   12.3820  -26.5740 O   0  0  0  0  0
  -14.2360   11.5210  -26.4060 C   0  0  0  0  0
  -14.9400   11.4950  -25.0830 C   0  0  0  0  0
  -15.2410   10.2920  -24.4700 C   0  0  0  0  0
  -15.8890   10.3030  -23.2410 C   0  0  0  0  0
  -16.1680    9.0870  -22.6130 N   0  0  0  0  0
  -16.4390    9.0650  -21.1810 C   0  0  0  0  0
  -17.4310    7.9360  -20.9340 C   0  0  0  0  0
  -16.9610    6.6850  -21.4430 O   0  0  0  0  0
  -15.8660    6.7730  -22.3540 C   0  0  0  0  0
  -16.1500    7.8560  -23.3860 C   0  0  0  0  0
  -16.2240   11.4670  -22.6440 N   0  0  0  0  0
  -15.9480   12.6380  -23.2250 C   0  0  0  0  0
  -15.2990   12.6790  -24.4560 C   0  0  0  0  0
  -14.5590   10.6180  -27.3330 N   0  0  0  0  0
  -13.8530   10.4180  -28.4740 C   0  0  0  0  0
  -14.4200    9.6530  -29.4810 C   0  0  0  0  0
  -13.7300    9.4190  -30.6650 C   0  0  0  0  0
  -12.4650    9.9570  -30.8570 C   0  0  0  0  0
  -11.8830   10.7140  -29.8490 C   0  0  0  0  0
  -12.5780   10.9450  -28.6620 C   0  0  0  0  0
  -11.8040    9.7060  -32.0340 O   0  0  0  0  0
  -11.3200   10.7100  -32.8340 C   0  0  0  0  0
  -11.8910   11.9800  -32.8140 C   0  0  0  0  0
  -11.3790   12.9720  -33.6450 C   0  0  0  0  0
  -10.3580   12.7070  -34.4720 N   0  0  0  0  0
   -9.8020   11.4900  -34.5180 C   0  0  0  0  0
  -10.2650   10.4620  -33.7020 C   0  0  0  0  0
  -14.9734    9.3480  -24.9448 H   0  0  0  0  0
  -16.8500   10.0191  -20.8512 H   0  0  0  0  0
  -15.5207    8.9024  -20.6167 H   0  0  0  0  0
  -18.3612    8.1831  -21.4457 H   0  0  0  0  0
  -17.5690    7.8345  -19.8575 H   0  0  0  0  0
  -15.7353    5.8157  -22.8585 H   0  0  0  0  0
  -14.9570    7.0223  -21.8065 H   0  0  0  0  0
  -15.4008    7.8775  -24.1774 H   0  0  0  0  0
  -17.0890    7.6867  -23.9130 H   0  0  0  0  0
  -16.2328   13.5674  -22.7319 H   0  0  0  0  0
  -15.0741   13.6370  -24.9248 H   0  0  0  0  0
  -15.3866   10.0433  -27.1745 H   0  0  0  0  0
  -15.4156    9.2311  -29.3435 H   0  0  0  0  0
  -14.1847    8.8100  -31.4464 H   0  0  0  0  0
  -10.8837   11.1274  -29.9852 H   0  0  0  0  0
  -12.1191   11.5432  -27.8748 H   0  0  0  0  0
  -12.7311   12.1951  -32.1536 H   0  0  0  0  0
  -11.8116   13.9722  -33.6232 H   0  0  0  0  0
   -8.9758   11.3018  -35.2036 H   0  0  0  0  0
   -9.8052    9.4746  -33.7438 H   0  0  0  0  0
  1  2  2  0  0  0
  2  3  1  0  0  0
  2 15  1  0  0  0
  3  4  4  0  0  0
  3 14  4  0  0  0
  4  5  4  0  0  0
  5  6  1  0  0  0
  5 12  4  0  0  0
  6  7  1  0  0  0
  6 11  1  0  0  0
  7  8  1  0  0  0
  8  9  1  0  0  0
  9 10  1  0  0  0
 10 11  1  0  0  0
 12 13  4  0  0  0
 13 14  4  0  0  0
 15 16  1  0  0  0
 16 17  4  0  0  0
 16 21  4  0  0  0
 17 18  4  0  0  0
 18 19  4  0  0  0
 19 20  4  0  0  0
 19 22  1  0  0  0
 20 21  4  0  0  0
 22 23  1  0  0  0
 23 24  4  0  0  0
 23 28  4  0  0  0
 24 25  4  0  0  0
 25 26  4  0  0  0
 26 27  4  0  0  0
 27 28  4  0  0  0
  4 29  1  0  0  0
  7 30  1  0  0  0
  7 31  1  0  0  0
  8 32  1  0  0  0
  8 33  1  0  0  0
 10 34  1  0  0  0
 10 35  1  0  0  0
 11 36  1  0  0  0
 11 37  1  0  0  0
 13 38  1  0  0  0
 14 39  1  0  0  0
 15 40  1  0  0  0
 17 41  1  0  0  0
 18 42  1  0  0  0
 20 43  1  0  0  0
 21 44  1  0  0  0
 24 45  1  0  0  0
 25 46  1  0  0  0
 27 47  1  0  0  0
 28 48  1  0  0  0
M  END
$$$$
