2ygf_ligand
  -I-interpret- 

 86 87  0  0  0  0  0  0  0  0999 V2000
   25.8940  -34.1360   -5.6360 C   0  0  0  0  0
   26.0240  -33.9190   -4.1290 C   0  0  0  0  0
   25.4390  -32.6570   -3.4950 C   0  0  0  0  0
   24.7680  -31.6410   -4.3100 C   0  0  0  0  0
   24.6500  -31.8480   -5.8220 C   0  0  0  0  0
   25.2170  -33.1240   -6.4490 C   0  0  0  0  0
   25.9310  -35.5850   -6.1410 C   0  0  0  0  0
   24.4920  -36.0830   -5.9440 C   0  0  0  0  0
   23.7890  -36.1460   -7.3140 C   0  0  0  0  0
   22.5190  -37.0000   -7.1990 C   0  0  0  0  0
   21.5500  -36.5240   -8.2950 C   0  0  0  0  0
   21.0410  -35.0920   -8.0000 C   0  0  0  0  0
   20.3620  -35.0260   -6.6230 C   0  0  0  0  0
   20.3800  -33.8240   -5.7870 C   0  0  0  0  0
   19.6330  -33.8950   -4.4500 C   0  0  0  0  0
   20.6460  -33.8730   -3.2950 C   0  0  0  0  0
   21.1130  -35.2980   -2.9900 C   0  0  0  0  0
   22.2140  -35.4480   -2.0290 C   0  0  0  0  0
   23.4980  -34.6670   -2.3080 C   0  0  0  0  0
   24.6510  -34.7500   -1.4020 C   0  0  0  0  0
   25.2940  -33.4120   -1.0280 C   0  0  0  0  0
   25.5620  -32.4200   -2.0590 N   0  0  0  0  0
   26.5710  -34.7510   -3.4490 O   0  0  0  0  0
   24.1030  -31.0370   -6.5110 O   0  0  0  0  0
   25.1070  -33.2960   -7.8490 O   0  0  0  0  0
   26.2330  -32.6210   -8.4220 C   0  0  0  0  0
   24.5120  -37.4340   -5.2220 C   0  0  0  0  0
   22.9080  -38.3660   -7.4420 O   0  0  0  0  0
   21.7750  -39.2360   -7.4850 C   0  0  0  0  0
   22.2820  -36.5090   -9.5270 O   0  0  0  0  0
   19.9670  -34.7170   -9.0410 C   0  0  0  0  0
   21.0880  -32.5220   -6.2130 C   0  0  0  0  0
   18.7980  -32.7450   -4.2920 O   0  0  0  0  0
   17.6400  -32.7150   -5.1230 C   0  0  0  0  0
   17.3610  -33.6100   -5.8690 O   0  0  0  0  0
   16.7840  -31.5310   -5.0200 N   0  0  0  0  0
   19.9950  -33.3840   -2.1210 O   0  0  0  0  0
   18.9760  -34.3050   -1.7100 C   0  0  0  0  0
   24.7920  -35.9220   -0.4250 C   0  0  0  0  0
   25.5600  -33.1450    0.1100 O   0  0  0  0  0
   26.8968  -33.8215   -5.9252 H   0  0  0  0  0
   24.3565  -30.7458   -3.8438 H   0  0  0  0  0
   24.7768  -33.7689   -5.6884 H   0  0  0  0  0
   26.6565  -36.1928   -5.6004 H   0  0  0  0  0
   26.2533  -35.6526   -7.1801 H   0  0  0  0  0
   23.9244  -35.3956   -5.3168 H   0  0  0  0  0
   24.4613  -36.5918   -8.0470 H   0  0  0  0  0
   23.5215  -35.1382   -7.6316 H   0  0  0  0  0
   22.0415  -36.9161   -6.2228 H   0  0  0  0  0
   20.6876  -37.1890   -8.3410 H   0  0  0  0  0
   21.8963  -34.4171   -8.0321 H   0  0  0  0  0
   19.8451  -35.9114   -6.2530 H   0  0  0  0  0
   19.0387  -34.8087   -4.4396 H   0  0  0  0  0
   21.4906  -33.2438   -3.5759 H   0  0  0  0  0
   21.4851  -35.6974   -3.9334 H   0  0  0  0  0
   20.2566  -35.8023   -2.5423 H   0  0  0  0  0
   22.4950  -36.5006   -2.0637 H   0  0  0  0  0
   21.8342  -35.0636   -1.0823 H   0  0  0  0  0
   23.1895  -33.6234   -2.2457 H   0  0  0  0  0
   23.8664  -35.0921   -3.2417 H   0  0  0  0  0
   25.3680  -35.1851   -2.0981 H   0  0  0  0  0
   25.8572  -31.4917   -1.7566 H   0  0  0  0  0
   26.1987  -31.5657   -8.1514 H   0  0  0  0  0
   27.1531  -33.0651   -8.0421 H   0  0  0  0  0
   26.2010  -32.7204   -9.5070 H   0  0  0  0  0
   25.0678  -38.1560   -5.8202 H   0  0  0  0  0
   24.9928  -37.3183   -4.2506 H   0  0  0  0  0
   23.4896  -37.7855   -5.0833 H   0  0  0  0  0
   21.2483  -39.1920   -6.5317 H   0  0  0  0  0
   21.1063  -38.9204   -8.2859 H   0  0  0  0  0
   22.1092  -40.2568   -7.6701 H   0  0  0  0  0
   21.7059  -36.2155  -10.2366 H   0  0  0  0  0
   20.4020  -34.7548  -10.0397 H   0  0  0  0  0
   19.1388  -35.4227   -8.9771 H   0  0  0  0  0
   19.6037  -33.7093   -8.8395 H   0  0  0  0  0
   22.1490  -32.7200   -6.3653 H   0  0  0  0  0
   20.6481  -32.1577   -7.1414 H   0  0  0  0  0
   20.9656  -31.7712   -5.4323 H   0  0  0  0  0
   15.9392  -31.4616   -5.5873 H   0  0  0  0  0
   17.0327  -30.7759   -4.3810 H   0  0  0  0  0
   18.2432  -34.4146   -2.5095 H   0  0  0  0  0
   19.4284  -35.2731   -1.4947 H   0  0  0  0  0
   18.4844  -33.9250   -0.8144 H   0  0  0  0  0
   23.9338  -35.9386    0.2468 H   0  0  0  0  0
   24.8352  -36.8565   -0.9844 H   0  0  0  0  0
   25.7069  -35.8017    0.1551 H   0  0  0  0  0
  1  2  1  0  0  0
  1  6  1  0  0  0
  1  7  1  0  0  0
  2  3  1  0  0  0
  2 23  2  0  0  0
  3  4  2  0  0  0
  3 22  1  0  0  0
  4  5  1  0  0  0
  5  6  1  0  0  0
  5 24  2  0  0  0
  6 25  1  0  0  0
  7  8  1  0  0  0
  8  9  1  0  0  0
  8 27  1  0  0  0
  9 10  1  0  0  0
 10 11  1  0  0  0
 10 28  1  0  0  0
 11 12  1  0  0  0
 11 30  1  0  0  0
 12 13  1  0  0  0
 12 31  1  0  0  0
 13 14  2  0  0  0
 14 15  1  0  0  0
 14 32  1  0  0  0
 15 16  1  0  0  0
 15 33  1  0  0  0
 16 17  1  0  0  0
 16 37  1  0  0  0
 17 18  1  0  0  0
 18 19  1  0  0  0
 19 20  1  0  0  0
 20 21  1  0  0  0
 20 39  1  0  0  0
 21 22  1  0  0  0
 21 40  2  0  0  0
 25 26  1  0  0  0
 28 29  1  0  0  0
 33 34  1  0  0  0
 34 35  2  0  0  0
 34 36  1  0  0  0
 37 38  1  0  0  0
  1 41  1  0  0  0
  4 42  1  0  0  0
  6 43  1  0  0  0
  7 44  1  0  0  0
  7 45  1  0  0  0
  8 46  1  0  0  0
  9 47  1  0  0  0
  9 48  1  0  0  0
 10 49  1  0  0  0
 11 50  1  0  0  0
 12 51  1  0  0  0
 13 52  1  0  0  0
 15 53  1  0  0  0
 16 54  1  0  0  0
 17 55  1  0  0  0
 17 56  1  0  0  0
 18 57  1  0  0  0
 18 58  1  0  0  0
 19 59  1  0  0  0
 19 60  1  0  0  0
 20 61  1  0  0  0
 22 62  1  0  0  0
 26 63  1  0  0  0
 26 64  1  0  0  0
 26 65  1  0  0  0
 27 66  1  0  0  0
 27 67  1  0  0  0
 27 68  1  0  0  0
 29 69  1  0  0  0
 29 70  1  0  0  0
 29 71  1  0  0  0
 30 72  1  0  0  0
 31 73  1  0  0  0
 31 74  1  0  0  0
 31 75  1  0  0  0
 32 76  1  0  0  0
 32 77  1  0  0  0
 32 78  1  0  0  0
 36 79  1  0  0  0
 36 80  1  0  0  0
 38 81  1  0  0  0
 38 82  1  0  0  0
 38 83  1  0  0  0
 39 84  1  0  0  0
 39 85  1  0  0  0
 39 86  1  0  0  0
M  END
$$$$
