1o0d_ligand
  -I-interpret- 

 68 70  0  0  0  0  0  0  0  0999 V2000
   10.2890   23.3880   24.1280 N   0  0  0  0  0
   10.9060   22.2110   24.0120 C   0  0  0  0  0
   10.7810   21.2900   24.9610 N   0  0  0  0  0
   11.7380   21.9180   22.8080 C   0  0  0  0  0
   12.6610   22.7550   22.1970 N   0  0  0  0  0
   13.0120   24.1320   22.6350 C   0  0  0  0  0
   11.7240   20.7530   22.0930 C   0  0  0  0  0
   12.6380   20.8830   21.0480 C   0  0  0  0  0
   13.1940   22.1020   21.1310 C   0  0  0  0  0
   14.2400   22.6440   20.1860 C   0  0  0  0  0
   15.5650   22.4780   20.8110 N   0  0  0  0  0
   16.4810   21.5910   20.3380 C   0  0  0  0  0
   16.2410   20.8910   19.3670 O   0  0  0  0  0
   17.8170   21.4760   21.0540 C   0  0  0  0  0
   18.9750   21.6320   20.0990 C   0  0  0  0  0
   19.6660   20.5270   20.0440 C   0  0  0  0  0
   19.0570   19.4920   20.9520 C   0  0  0  0  0
   17.9560   20.1500   21.6980 N   0  0  0  0  0
   17.2280   19.6440   22.7510 C   0  0  0  0  0
   16.3490   20.3130   23.2630 O   0  0  0  0  0
   17.5060   18.2500   23.2910 C   0  0  0  0  0
   18.1890   18.3340   24.6740 C   0  0  0  0  0
   19.6680   18.7370   24.5350 C   0  0  0  0  0
   20.1410   19.4300   25.8330 C   0  0  0  0  0
   21.6290   19.8410   25.7070 C   0  0  0  0  0
   22.5080   18.6000   25.4120 C   0  0  0  0  0
   22.0220   17.8880   24.1260 C   0  0  0  0  0
   20.5360   17.4820   24.2680 C   0  0  0  0  0
   16.2410   17.5120   23.4180 N   0  3  0  0  0
   15.7640   16.6570   22.3240 C   0  0  0  0  0
   14.7640   15.6560   22.8530 C   0  0  0  0  0
   14.7490   15.3700   24.0400 O   0  0  0  0  0
   13.9700   15.1290   22.0920 O   0  0  0  0  0
    9.7170   23.5852   24.9491 H   0  0  0  0  0
   10.3892   24.0908   23.3955 H   0  0  0  0  0
   11.2518   20.3904   24.8638 H   0  0  0  0  0
   12.1202   24.7582   22.6101 H   0  0  0  0  0
   13.4064   24.0994   23.6506 H   0  0  0  0  0
   13.7658   24.5442   21.9642 H   0  0  0  0  0
   11.1082   19.8784   22.3024 H   0  0  0  0  0
   12.8619   20.1270   20.2954 H   0  0  0  0  0
   14.0515   23.6991   19.9874 H   0  0  0  0  0
   14.2038   22.1028   19.2405 H   0  0  0  0  0
   15.8022   23.0465   21.6240 H   0  0  0  0  0
   17.8366   22.2726   21.7977 H   0  0  0  0  0
   19.2014   22.5376   19.5362 H   0  0  0  0  0
   20.5541   20.3752   19.4306 H   0  0  0  0  0
   19.8051   19.1003   21.6412 H   0  0  0  0  0
   18.6767   18.6510   20.3722 H   0  0  0  0  0
   18.1700   17.7319   22.5990 H   0  0  0  0  0
   18.1365   17.3549   25.1500 H   0  0  0  0  0
   17.6760   19.0870   25.2723 H   0  0  0  0  0
   19.7725   19.4264   23.6972 H   0  0  0  0  0
   20.0311   18.7379   26.6678 H   0  0  0  0  0
   19.5373   20.3216   26.0022 H   0  0  0  0  0
   21.9538   20.2916   26.6448 H   0  0  0  0  0
   21.7329   20.5528   24.8881 H   0  0  0  0  0
   22.4366   17.9069   26.2502 H   0  0  0  0  0
   23.5401   18.9212   25.2716 H   0  0  0  0  0
   22.6224   16.9925   23.9658 H   0  0  0  0  0
   22.1264   18.5683   23.2808 H   0  0  0  0  0
   20.2043   17.0058   23.3453 H   0  0  0  0  0
   20.4315   16.7890   25.1029 H   0  0  0  0  0
   15.5316   18.2409   23.4947 H   0  0  0  0  0
   16.4041   16.8651   24.1895 H   0  0  0  0  0
   16.6097   16.1248   21.8885 H   0  0  0  0  0
   15.2857   17.2767   21.5655 H   0  0  0  0  0
   15.4310   15.8679   24.4966 H   0  0  0  0  0
  1  2  1  0  0  0
  2  3  2  0  0  0
  2  4  1  0  0  0
  4  5  4  0  0  0
  4  7  4  0  0  0
  5  6  1  0  0  0
  5  9  4  0  0  0
  7  8  4  0  0  0
  8  9  4  0  0  0
  9 10  1  0  0  0
 10 11  1  0  0  0
 11 12  1  0  0  0
 12 13  2  0  0  0
 12 14  1  0  0  0
 14 15  1  0  0  0
 14 18  1  0  0  0
 15 16  2  0  0  0
 16 17  1  0  0  0
 17 18  1  0  0  0
 18 19  1  0  0  0
 19 20  2  0  0  0
 19 21  1  0  0  0
 21 22  1  0  0  0
 21 29  1  0  0  0
 22 23  1  0  0  0
 23 24  1  0  0  0
 23 28  1  0  0  0
 24 25  1  0  0  0
 25 26  1  0  0  0
 26 27  1  0  0  0
 27 28  1  0  0  0
 29 30  1  0  0  0
 30 31  1  0  0  0
 31 32  1  0  0  0
 31 33  2  0  0  0
  1 34  1  0  0  0
  1 35  1  0  0  0
  3 36  1  0  0  0
  6 37  1  0  0  0
  6 38  1  0  0  0
  6 39  1  0  0  0
  7 40  1  0  0  0
  8 41  1  0  0  0
 10 42  1  0  0  0
 10 43  1  0  0  0
 11 44  1  0  0  0
 14 45  1  0  0  0
 15 46  1  0  0  0
 16 47  1  0  0  0
 17 48  1  0  0  0
 17 49  1  0  0  0
 21 50  1  0  0  0
 22 51  1  0  0  0
 22 52  1  0  0  0
 23 53  1  0  0  0
 24 54  1  0  0  0
 24 55  1  0  0  0
 25 56  1  0  0  0
 25 57  1  0  0  0
 26 58  1  0  0  0
 26 59  1  0  0  0
 27 60  1  0  0  0
 27 61  1  0  0  0
 28 62  1  0  0  0
 28 63  1  0  0  0
 29 64  1  0  0  0
 29 65  1  0  0  0
 30 66  1  0  0  0
 30 67  1  0  0  0
 32 68  1  0  0  0
M  END
$$$$
