3h3c_ligand
  -I-interpret- 

 57 59  0  0  0  0  0  0  0  0999 V2000
   16.9110  -10.3060    1.1380 C   0  0  0  0  0
   18.8950  -10.7860    2.4290 C   0  0  0  0  0
   14.6980   -9.5710    2.0190 C   0  0  0  0  0
   12.5790   -8.7150    2.4970 C   0  0  0  0  0
   12.2010   -7.7260    5.7620 F   0  0  0  0  0
   11.7480   -8.6460    4.8470 C   0  0  0  0  0
   10.7250   -7.9740    4.2090 F   0  0  0  0  0
   11.3180   -9.8180    5.4780 F   0  0  0  0  0
   12.8050   -8.9840    3.8250 C   0  0  0  0  0
   13.5630   -9.0200    1.6430 N   0  0  0  0  0
   14.0260   -9.5520    4.2190 C   0  0  0  0  0
   14.2920   -9.8180    5.5540 N   0  0  0  0  0
   15.5940  -10.3650    5.9030 C   0  0  0  0  0
   15.5630  -11.9050    5.7560 C   0  0  0  0  0
   15.7660  -12.4540    7.1820 C   0  0  0  0  0
   16.3970  -11.3130    8.0170 C   0  0  0  0  0
   15.9710   -9.9870    7.3760 C   0  0  0  0  0
   17.1250   -9.0630    7.4200 N   0  3  0  0  0
   17.4810   -8.6910    8.8030 C   0  0  0  0  0
   16.7650   -7.7880    6.7900 C   0  0  0  0  0
   14.9340   -9.8600    3.2990 N   0  0  0  0  0
   15.6110   -9.8330    1.0280 N   0  0  0  0  0
   17.5890  -10.3440    2.3740 C   0  0  0  0  0
   17.5600  -10.6950   -0.0500 C   0  0  0  0  0
   18.8740  -11.1500    0.0340 C   0  0  0  0  0
   19.5570  -11.1970    1.2570 C   0  0  0  0  0
   21.2710  -11.7650    1.3980 S   0  0  0  0  0
   21.2630  -13.0550    2.0400 O   0  0  0  0  0
   21.9290  -11.4690    0.1760 O   0  0  0  0  0
   21.8560  -10.6820    2.5200 N   0  0  0  0  0
   22.0240   -9.2280    2.2960 C   0  0  0  0  0
   19.4168  -10.8170    3.3855 H   0  0  0  0  0
   11.6426   -8.2741    2.1551 H   0  0  0  0  0
   13.5922   -9.6347    6.2731 H   0  0  0  0  0
   16.3427   -9.9454    5.2311 H   0  0  0  0  0
   16.3379  -12.2587    5.0759 H   0  0  0  0  0
   14.6228  -12.2479    5.3242 H   0  0  0  0  0
   16.4150  -13.3297    7.1707 H   0  0  0  0  0
   14.8163  -12.7698    7.6138 H   0  0  0  0  0
   17.4834  -11.4016    8.0259 H   0  0  0  0  0
   16.0577  -11.3638    9.0516 H   0  0  0  0  0
   15.1373   -9.4961    7.8781 H   0  0  0  0  0
   17.8913   -9.5480    6.9531 H   0  0  0  0  0
   16.6311   -8.1988    9.2757 H   0  0  0  0  0
   17.7407   -9.5888    9.3640 H   0  0  0  0  0
   18.3333   -8.0117    8.7872 H   0  0  0  0  0
   16.4828   -7.9640    5.7520 H   0  0  0  0  0
   15.9261   -7.3436    7.3256 H   0  0  0  0  0
   17.6196   -7.1124    6.8260 H   0  0  0  0  0
   15.2885   -9.6550    0.0768 H   0  0  0  0  0
   17.0821  -10.0247    3.2846 H   0  0  0  0  0
   17.0473  -10.6414   -1.0104 H   0  0  0  0  0
   19.3829  -11.4771   -0.8727 H   0  0  0  0  0
   22.1195  -11.0496    3.4342 H   0  0  0  0  0
   22.7132   -9.0666    1.4671 H   0  0  0  0  0
   21.0573   -8.7843    2.0580 H   0  0  0  0  0
   22.4247   -8.7665    3.1985 H   0  0  0  0  0
 22  1  1  0  0  0
  1 23  4  0  0  0
  1 24  4  0  0  0
 23  2  4  0  0  0
  2 26  4  0  0  0
 10  3  4  0  0  0
  3 21  4  0  0  0
  3 22  1  0  0  0
  9  4  4  0  0  0
  4 10  4  0  0  0
  6  5  1  0  0  0
  6  7  1  0  0  0
  6  8  1  0  0  0
  6  9  1  0  0  0
  9 11  4  0  0  0
 11 12  1  0  0  0
 11 21  4  0  0  0
 12 13  1  0  0  0
 13 14  1  0  0  0
 13 17  1  0  0  0
 14 15  1  0  0  0
 15 16  1  0  0  0
 16 17  1  0  0  0
 17 18  1  0  0  0
 18 19  1  0  0  0
 18 20  1  0  0  0
 24 25  4  0  0  0
 25 26  4  0  0  0
 26 27  1  0  0  0
 27 28  2  0  0  0
 27 29  2  0  0  0
 27 30  1  0  0  0
 30 31  1  0  0  0
  2 32  1  0  0  0
  4 33  1  0  0  0
 12 34  1  0  0  0
 13 35  1  0  0  0
 14 36  1  0  0  0
 14 37  1  0  0  0
 15 38  1  0  0  0
 15 39  1  0  0  0
 16 40  1  0  0  0
 16 41  1  0  0  0
 17 42  1  0  0  0
 18 43  1  0  0  0
 19 44  1  0  0  0
 19 45  1  0  0  0
 19 46  1  0  0  0
 20 47  1  0  0  0
 20 48  1  0  0  0
 20 49  1  0  0  0
 22 50  1  0  0  0
 23 51  1  0  0  0
 24 52  1  0  0  0
 25 53  1  0  0  0
 30 54  1  0  0  0
 31 55  1  0  0  0
 31 56  1  0  0  0
 31 57  1  0  0  0
M  END
$$$$
