4g8m_ligand
  -I-interpret- 

 24 24  0  0  0  0  0  0  0  0999 V2000
    5.7850   25.8130   20.9120 C   0  0  0  0  0
    4.8530   25.1800   20.3670 O   0  0  0  0  0
    6.3420   25.3880   21.9490 O   0  0  0  0  0
    6.2570   27.1350   20.2690 C   0  0  0  0  0
    7.6860   25.4090   17.6040 C   0  0  0  0  0
    6.4760   25.4020   17.3190 O   0  0  0  0  0
    8.5500   25.2250   16.7240 O   0  0  0  0  0
    8.1300   25.6480   19.0650 C   0  0  0  0  0
    9.5980   25.4850   19.1450 N   0  3  0  0  0
    7.6510   27.0270   19.5990 C   0  0  0  0  0
    8.2680   27.6350   20.8750 C   0  0  0  0  0
    6.8680   28.1110   21.2990 C   0  0  0  0  0
    4.5546   25.6580   19.5898 H   0  0  0  0  0
    5.3734   27.3978   19.6873 H   0  0  0  0  0
    9.4231   25.2635   17.1213 H   0  0  0  0  0
    7.6592   24.9100   19.7145 H   0  0  0  0  0
    9.8572   24.5671   18.7835 H   0  0  0  0  0
   10.0503   26.2108   18.5890 H   0  0  0  0  0
    9.8953   25.5651   20.1174 H   0  0  0  0  0
    7.8536   27.4763   18.6268 H   0  0  0  0  0
    9.0948   28.3419   20.8063 H   0  0  0  0  0
    8.8693   27.0205   21.5451 H   0  0  0  0  0
    6.5630   28.0775   22.3449 H   0  0  0  0  0
    6.6121   29.1704   21.2802 H   0  0  0  0  0
  1  2  1  0  0  0
  1  3  2  0  0  0
  4  1  1  0  0  0
 10  4  1  0  0  0
  4 12  1  0  0  0
  5  6  2  0  0  0
  5  7  1  0  0  0
  8  5  1  0  0  0
  8  9  1  0  0  0
  8 10  1  0  0  0
 10 11  1  0  0  0
 11 12  1  0  0  0
  2 13  1  0  0  0
  4 14  1  0  0  0
  7 15  1  0  0  0
  8 16  1  0  0  0
  9 17  1  0  0  0
  9 18  1  0  0  0
  9 19  1  0  0  0
 10 20  1  0  0  0
 11 21  1  0  0  0
 11 22  1  0  0  0
 12 23  1  0  0  0
 12 24  1  0  0  0
M  END
$$$$
