3rx8_ligand
  -I-interpret- 

 45 46  0  0  0  0  0  0  0  0999 V2000
  -12.7060   35.7470  -33.7090 O   0  0  0  0  0
  -14.1260   35.8420  -33.9310 C   0  0  0  0  0
  -14.5640   36.9740  -34.9650 C   0  0  0  0  0
  -14.5110   36.7960  -36.4340 O   0  0  0  0  0
  -15.9370   37.7240  -34.6880 C   0  0  0  0  0
  -15.4110   38.9170  -35.0680 O   0  0  0  0  0
  -15.9760   38.0070  -33.1740 C   0  0  0  0  0
  -16.7980   39.1380  -32.4660 C   0  0  0  0  0
  -17.9520   39.2630  -33.1440 O   0  0  0  0  0
  -15.9590   36.7420  -32.4810 O   0  0  0  0  0
  -14.6130   36.2330  -32.4910 C   0  0  0  0  0
  -14.5540   35.9560  -31.2560 O   0  0  0  0  0
  -14.5960   35.8910  -29.8250 C   0  0  0  0  0
  -15.9630   35.2000  -29.6190 C   0  0  0  0  0
  -17.0330   36.0210  -30.0530 O   0  0  0  0  0
  -16.2480   34.6610  -28.2000 C   0  0  0  0  0
  -15.0090   34.2550  -27.4320 N   0  3  0  0  0
  -13.6350   34.8690  -27.7370 C   0  0  0  0  0
  -13.5890   34.8600  -29.2870 C   0  0  0  0  0
  -12.2110   34.5970  -29.9660 C   0  0  0  0  0
  -11.2800   35.5640  -29.6880 O   0  0  0  0  0
  -12.2702   35.5076  -34.5302 H   0  0  0  0  0
  -14.5357   34.9292  -34.3634 H   0  0  0  0  0
  -13.6775   37.5474  -34.6940 H   0  0  0  0  0
  -13.6978   36.3443  -36.6713 H   0  0  0  0  0
  -16.8526   37.2834  -35.0826 H   0  0  0  0  0
  -15.3080   38.9306  -36.0224 H   0  0  0  0  0
  -15.0843   38.6271  -33.0817 H   0  0  0  0  0
  -16.2447   40.0772  -32.4668 H   0  0  0  0  0
  -16.9872   38.8841  -31.4230 H   0  0  0  0  0
  -18.4868   39.9499  -32.7393 H   0  0  0  0  0
  -13.5499   36.4425  -32.6090 H   0  0  0  0  0
  -14.4148   36.8596  -29.3592 H   0  0  0  0  0
  -15.8906   34.3120  -30.2470 H   0  0  0  0  0
  -17.8645   35.5626  -29.9111 H   0  0  0  0  0
  -16.8644   33.7690  -28.3120 H   0  0  0  0  0
  -16.7253   35.4650  -27.6398 H   0  0  0  0  0
  -14.8912   33.2691  -27.6655 H   0  0  0  0  0
  -15.2043   34.5594  -26.4783 H   0  0  0  0  0
  -12.8131   34.3133  -27.2856 H   0  0  0  0  0
  -13.5139   35.8668  -27.3154 H   0  0  0  0  0
  -13.9609   33.9161  -29.6855 H   0  0  0  0  0
  -12.3695   34.5907  -31.0444 H   0  0  0  0  0
  -11.8291   33.6505  -29.5835 H   0  0  0  0  0
  -10.4557   35.3497  -30.1309 H   0  0  0  0  0
  1  2  1  0  0  0
  2  3  1  0  0  0
  2 11  1  0  0  0
  3  4  1  0  0  0
  3  5  1  0  0  0
  5  6  1  0  0  0
  5  7  1  0  0  0
  7  8  1  0  0  0
  7 10  1  0  0  0
  8  9  1  0  0  0
 10 11  1  0  0  0
 11 12  1  0  0  0
 12 13  1  0  0  0
 13 14  1  0  0  0
 13 19  1  0  0  0
 14 15  1  0  0  0
 14 16  1  0  0  0
 16 17  1  0  0  0
 17 18  1  0  0  0
 18 19  1  0  0  0
 19 20  1  0  0  0
 20 21  1  0  0  0
  1 22  1  0  0  0
  2 23  1  0  0  0
  3 24  1  0  0  0
  4 25  1  0  0  0
  5 26  1  0  0  0
  6 27  1  0  0  0
  7 28  1  0  0  0
  8 29  1  0  0  0
  8 30  1  0  0  0
  9 31  1  0  0  0
 11 32  1  0  0  0
 13 33  1  0  0  0
 14 34  1  0  0  0
 15 35  1  0  0  0
 16 36  1  0  0  0
 16 37  1  0  0  0
 17 38  1  0  0  0
 17 39  1  0  0  0
 18 40  1  0  0  0
 18 41  1  0  0  0
 19 42  1  0  0  0
 20 43  1  0  0  0
 20 44  1  0  0  0
 21 45  1  0  0  0
M  END
$$$$
