### 
### Created by X-TOOL on Wed Jan  1 15:39:38 2020
### 

@<TRIPOS>MOLECULE
6cus_ligand
   42    42     1     0     0
SMALL
GAST_HUCK


@<TRIPOS>ATOM
      1 C1         14.1190    9.9920    1.5970 C.3       1 IHP         0.1556
      2 C2         12.9350   10.6590    2.3010 C.3       1 IHP         0.1556
      3 C3         12.2290   11.6000    1.3240 C.3       1 IHP         0.1556
      4 C4         11.7230   10.8020    0.1200 C.3       1 IHP         0.1556
      5 C5         12.9080   10.1370   -0.5840 C.3       1 IHP         0.1556
      6 C6         13.6150    9.1940    0.3930 C.3       1 IHP         0.1556
      7 O11        14.7810    9.1120    2.5070 O.3       1 IHP        -0.2668
      8 P1         16.3260    9.2850    2.9270 P.3       1 IHP         0.2013
      9 O21        16.5450   10.6490    3.4550 O.co2     1 IHP        -0.5537
     10 O31        16.6960    8.2040    4.0610 O.co2     1 IHP        -0.5537
     11 O41        17.2620    9.0500    1.6360 O.co2     1 IHP        -0.5537
     12 O12        12.0190    9.6550    2.7430 O.3       1 IHP        -0.2668
     13 P2         11.6240    9.4520    4.2890 P.3       1 IHP         0.2013
     14 O22        11.1210   10.7290    4.8430 O.co2     1 IHP        -0.5537
     15 O32        10.4760    8.3280    4.4070 O.co2     1 IHP        -0.5537
     16 O42        12.9210    8.9820    5.1190 O.co2     1 IHP        -0.5537
     17 O13        11.1200   12.2230    1.9800 O.3       1 IHP        -0.2668
     18 P3         10.9910   13.8180    2.1570 P.3       1 IHP         0.2013
     19 O23        12.2030   14.3380    2.8280 O.co2     1 IHP        -0.5537
     20 O33        10.8370   14.5080    0.7120 O.co2     1 IHP        -0.5537
     21 O43         9.6950   14.1540    3.0520 O.co2     1 IHP        -0.5537
     22 O14        11.0600   11.6820   -0.7910 O.3       1 IHP        -0.2668
     23 P4          9.5160   11.5120   -1.2110 P.3       1 IHP         0.2013
     24 O24         9.0730   12.7460   -2.1430 O.co2     1 IHP        -0.5537
     25 O34         9.3290   10.1320   -2.0210 O.co2     1 IHP        -0.5537
     26 O44         8.6760   11.4860    0.0050 O.co2     1 IHP        -0.5537
     27 O15        12.4360    9.3910   -1.7070 O.3       1 IHP        -0.2668
     28 P5         12.9080    9.6910   -3.2180 P.3       1 IHP         0.2013
     29 O25        14.3850    9.6410   -3.2930 O.co2     1 IHP        -0.5537
     30 O35        12.2820    8.5820   -4.2040 O.co2     1 IHP        -0.5537
     31 O45        12.3970   11.1530   -3.6610 O.co2     1 IHP        -0.5537
     32 O16        14.7210    8.5730   -0.2640 O.3       1 IHP        -0.2668
     33 P6         14.8500    6.9780   -0.4420 P.3       1 IHP         0.2013
     34 O26        13.6400    6.4540   -1.1130 O.co2     1 IHP        -0.5537
     35 O36        16.1480    6.6420   -1.3370 O.co2     1 IHP        -0.5537
     36 O46        15.0040    6.2870    1.0040 O.co2     1 IHP        -0.5537
     37 H1         14.8241   10.7641    1.2555 H         1 IHP         0.0710
     38 H2         13.2973   11.2326    3.1669 H         1 IHP         0.0710
     39 H3         12.9349   12.3716    0.9828 H         1 IHP         0.0710
     40 H4         11.0185   10.0294    0.4617 H         1 IHP         0.0710
     41 H5         13.6132   10.9089   -0.9257 H         1 IHP         0.0710
     42 H6         12.9096    8.4218    0.7338 H         1 IHP         0.0710
@<TRIPOS>BOND
     1    1    2 1  
     2    1    6 1  
     3    1    7 1  
     4    2    3 1  
     5    2   12 1  
     6    3    4 1  
     7    3   17 1  
     8    4    5 1  
     9    4   22 1  
    10    5    6 1  
    11    5   27 1  
    12    6   32 1  
    13    7    8 1  
    14    8    9 ar 
    15    8   10 ar 
    16    8   11 ar 
    17   12   13 1  
    18   13   14 ar 
    19   13   15 ar 
    20   13   16 ar 
    21   17   18 1  
    22   18   19 ar 
    23   18   20 ar 
    24   18   21 ar 
    25   22   23 1  
    26   23   24 ar 
    27   23   25 ar 
    28   23   26 ar 
    29   27   28 1  
    30   28   29 ar 
    31   28   30 ar 
    32   28   31 ar 
    33   32   33 1  
    34   33   34 ar 
    35   33   35 ar 
    36   33   36 ar 
    37    1   37 1  
    38    2   38 1  
    39    3   39 1  
    40    4   40 1  
    41    5   41 1  
    42    6   42 1  
@<TRIPOS>SUBSTRUCTURE
     1 IHP         1

