6cus_ligand
  -I-interpret- 

 54 54  0  0  0  0  0  0  0  0999 V2000
   14.1190    9.9920    1.5970 C   0  0  0  0  0
   12.9350   10.6590    2.3010 C   0  0  0  0  0
   12.2290   11.6000    1.3240 C   0  0  0  0  0
   11.7230   10.8020    0.1200 C   0  0  0  0  0
   12.9080   10.1370   -0.5840 C   0  0  0  0  0
   13.6150    9.1940    0.3930 C   0  0  0  0  0
   14.7810    9.1120    2.5070 O   0  0  0  0  0
   16.3260    9.2850    2.9270 P   0  0  0  0  0
   16.5450   10.6490    3.4550 O   0  0  0  0  0
   16.6960    8.2040    4.0610 O   0  0  0  0  0
   17.2620    9.0500    1.6360 O   0  0  0  0  0
   12.0190    9.6550    2.7430 O   0  0  0  0  0
   11.6240    9.4520    4.2890 P   0  0  0  0  0
   11.1210   10.7290    4.8430 O   0  0  0  0  0
   10.4760    8.3280    4.4070 O   0  0  0  0  0
   12.9210    8.9820    5.1190 O   0  0  0  0  0
   11.1200   12.2230    1.9800 O   0  0  0  0  0
   10.9910   13.8180    2.1570 P   0  0  0  0  0
   12.2030   14.3380    2.8280 O   0  0  0  0  0
   10.8370   14.5080    0.7120 O   0  0  0  0  0
    9.6950   14.1540    3.0520 O   0  0  0  0  0
   11.0600   11.6820   -0.7910 O   0  0  0  0  0
    9.5160   11.5120   -1.2110 P   0  0  0  0  0
    9.0730   12.7460   -2.1430 O   0  0  0  0  0
    9.3290   10.1320   -2.0210 O   0  0  0  0  0
    8.6760   11.4860    0.0050 O   0  0  0  0  0
   12.4360    9.3910   -1.7070 O   0  0  0  0  0
   12.9080    9.6910   -3.2180 P   0  0  0  0  0
   14.3850    9.6410   -3.2930 O   0  0  0  0  0
   12.2820    8.5820   -4.2040 O   0  0  0  0  0
   12.3970   11.1530   -3.6610 O   0  0  0  0  0
   14.7210    8.5730   -0.2640 O   0  0  0  0  0
   14.8500    6.9780   -0.4420 P   0  0  0  0  0
   13.6400    6.4540   -1.1130 O   0  0  0  0  0
   16.1480    6.6420   -1.3370 O   0  0  0  0  0
   15.0040    6.2870    1.0040 O   0  0  0  0  0
   14.8170   10.7578    1.2587 H   0  0  0  0  0
   13.2927   11.2276    3.1594 H   0  0  0  0  0
   12.9297   12.3634    0.9860 H   0  0  0  0  0
   11.0244   10.0367    0.4584 H   0  0  0  0  0
   13.6067   10.9018   -0.9231 H   0  0  0  0  0
   12.9163    8.4290    0.7316 H   0  0  0  0  0
   16.5533    7.3192    3.7168 H   0  0  0  0  0
   17.1183    8.1642    1.2949 H   0  0  0  0  0
   10.8025    7.4998    4.0476 H   0  0  0  0  0
   13.2469    8.1537    4.7593 H   0  0  0  0  0
   10.0501   14.1690    0.2790 H   0  0  0  0  0
    8.9096   13.8161    2.6154 H   0  0  0  0  0
    9.6193   12.7617   -2.9323 H   0  0  0  0  0
    9.8747   10.1493   -2.8106 H   0  0  0  0  0
   11.3239    8.6156   -4.1543 H   0  0  0  0  0
   11.4388   11.1843   -3.6120 H   0  0  0  0  0
   16.9327    6.9823   -0.9010 H   0  0  0  0  0
   15.7894    6.6278    1.4383 H   0  0  0  0  0
  1  2  1  0  0  0
  1  6  1  0  0  0
  1  7  1  0  0  0
  2  3  1  0  0  0
  2 12  1  0  0  0
  3  4  1  0  0  0
  3 17  1  0  0  0
  4  5  1  0  0  0
  4 22  1  0  0  0
  5  6  1  0  0  0
  5 27  1  0  0  0
  6 32  1  0  0  0
  7  8  1  0  0  0
  8  9  2  0  0  0
  8 10  1  0  0  0
  8 11  1  0  0  0
 12 13  1  0  0  0
 13 14  2  0  0  0
 13 15  1  0  0  0
 13 16  1  0  0  0
 17 18  1  0  0  0
 18 19  2  0  0  0
 18 20  1  0  0  0
 18 21  1  0  0  0
 22 23  1  0  0  0
 23 24  1  0  0  0
 23 25  1  0  0  0
 23 26  2  0  0  0
 27 28  1  0  0  0
 28 29  2  0  0  0
 28 30  1  0  0  0
 28 31  1  0  0  0
 32 33  1  0  0  0
 33 34  2  0  0  0
 33 35  1  0  0  0
 33 36  1  0  0  0
  1 37  1  0  0  0
  2 38  1  0  0  0
  3 39  1  0  0  0
  4 40  1  0  0  0
  5 41  1  0  0  0
  6 42  1  0  0  0
 10 43  1  0  0  0
 11 44  1  0  0  0
 15 45  1  0  0  0
 16 46  1  0  0  0
 20 47  1  0  0  0
 21 48  1  0  0  0
 24 49  1  0  0  0
 25 50  1  0  0  0
 30 51  1  0  0  0
 31 52  1  0  0  0
 35 53  1  0  0  0
 36 54  1  0  0  0
M  END
$$$$
