5alr_ligand
  -I-interpret- 

 32 34  0  0  0  0  0  0  0  0999 V2000
  -13.9720  -13.5910   19.2640 C   0  0  0  0  0
  -13.5040  -12.9710   20.4020 C   0  0  0  0  0
  -14.6810  -12.8660   18.3330 C   0  0  0  0  0
  -13.7460  -11.6280   20.5950 C   0  0  0  0  0
  -16.6450   -9.4940   14.9730 C   0  0  0  0  0
  -17.7860  -11.5540   14.6930 C   0  0  0  0  0
  -17.3440   -8.9500   13.9150 C   0  0  0  0  0
  -18.5030  -11.0150   13.6450 C   0  0  0  0  0
  -15.3280   -8.9460   18.9160 C   0  0  0  0  0
  -14.9220  -11.5200   18.5250 C   0  0  0  0  0
  -14.4450  -10.8800   19.6650 C   0  0  0  0  0
  -16.8500  -10.8000   15.3780 C   0  0  0  0  0
  -18.2810   -9.7110   13.2490 C   0  0  0  0  0
  -15.6230  -10.7700   17.5910 C   0  0  0  0  0
  -20.4340   -8.1260   12.8720 C   0  0  0  0  0
  -14.6430   -9.5710   19.8760 N   0  0  0  0  0
  -15.8370   -9.4660   17.7970 N   0  0  0  0  0
  -16.1140  -11.3920   16.4230 N   0  0  0  0  0
  -21.1160   -7.2600   12.0810 F   0  0  0  0  0
  -19.9000   -7.3790   13.8780 F   0  0  0  0  0
  -21.3310   -8.9990   13.4090 F   0  0  0  0  0
  -19.1900   -9.0080   11.9050 S   0  0  0  0  0
  -13.7815  -14.6518   19.1015 H   0  0  0  0  0
  -12.9454  -13.5396   21.1455 H   0  0  0  0  0
  -15.0556  -13.3590   17.4360 H   0  0  0  0  0
  -13.3785  -11.1448   21.5003 H   0  0  0  0  0
  -15.9150   -8.8806   15.5012 H   0  0  0  0  0
  -17.9595  -12.5895   14.9858 H   0  0  0  0  0
  -17.1559   -7.9216   13.6067 H   0  0  0  0  0
  -19.2473  -11.6205   13.1278 H   0  0  0  0  0
  -15.4921   -7.8787   19.0642 H   0  0  0  0  0
  -15.9122  -12.3869   16.3240 H   0  0  0  0  0
  1  2  4  0  0  0
  3  1  4  0  0  0
  4  2  4  0  0  0
 10  3  4  0  0  0
 11  4  4  0  0  0
  7  5  4  0  0  0
  5 12  4  0  0  0
  8  6  4  0  0  0
  6 12  4  0  0  0
 13  7  4  0  0  0
 13  8  4  0  0  0
  9 16  4  0  0  0
 17  9  4  0  0  0
 10 11  4  0  0  0
 14 10  4  0  0  0
 11 16  4  0  0  0
 12 18  1  0  0  0
 22 13  1  0  0  0
 14 17  4  0  0  0
 18 14  1  0  0  0
 15 19  1  0  0  0
 15 20  1  0  0  0
 15 21  1  0  0  0
 15 22  1  0  0  0
  1 23  1  0  0  0
  2 24  1  0  0  0
  3 25  1  0  0  0
  4 26  1  0  0  0
  5 27  1  0  0  0
  6 28  1  0  0  0
  7 29  1  0  0  0
  8 30  1  0  0  0
  9 31  1  0  0  0
 18 32  1  0  0  0
M  END
$$$$
