1gjb_ligand
  -I-interpret- 

 40 43  0  0  0  0  0  0  0  0999 V2000
    8.5770    1.4330   24.7450 C   0  0  0  0  0
    9.3890    1.2760   23.5690 C   0  0  0  0  0
    9.9820    2.3660   22.9110 C   0  0  0  0  0
    9.7350    3.5850   23.4590 C   0  0  0  0  0
    8.9740    3.7750   24.5540 C   0  0  0  0  0
    8.3750    2.7410   25.2340 C   0  0  0  0  0
    8.0160    0.3180   25.3880 C   0  0  0  0  0
    7.6460    0.3810   26.6530 N   0  0  0  0  0
    7.8750   -0.7900   24.7110 N   0  0  0  0  0
   10.1270    4.7610   23.0840 N   0  0  0  0  0
    8.8650    5.0490   24.9010 N   0  0  0  0  0
    9.6080    5.5890   23.9410 C   0  0  0  0  0
    9.8450    6.9610   23.8680 C   0  0  0  0  0
    9.4350    7.8020   24.9020 C   0  0  0  0  0
    9.6540    9.1710   24.8690 C   0  0  0  0  0
   10.2920    9.7260   23.7760 C   0  0  0  0  0
   10.7260    8.9440   22.7130 C   0  0  0  0  0
   10.4980    7.5650   22.7660 C   0  0  0  0  0
   10.9450    6.8030   21.7010 O   0  0  0  0  0
   11.3660    9.5550   21.6460 C   0  0  0  0  0
   12.5390    9.0410   21.0810 C   0  0  0  0  0
   13.1740    9.6850   20.0270 C   0  0  0  0  0
   12.6500   10.8610   19.5070 C   0  0  0  0  0
   11.4860   11.3860   20.0500 C   0  0  0  0  0
   10.8590   10.7380   21.1040 C   0  0  0  0  0
    9.5505    0.2733   23.1732 H   0  0  0  0  0
   10.5988    2.2426   22.0208 H   0  0  0  0  0
    7.7660    2.9251   26.1190 H   0  0  0  0  0
    7.2466   -0.4393   27.1090 H   0  0  0  0  0
    7.7594    1.2500   27.1749 H   0  0  0  0  0
    7.4764   -1.6147   25.1598 H   0  0  0  0  0
    8.9262    7.3696   25.7636 H   0  0  0  0  0
    9.3267    9.8018   25.6955 H   0  0  0  0  0
   10.4586   10.8028   23.7473 H   0  0  0  0  0
   11.3596    7.3753   21.0512 H   0  0  0  0  0
   12.9623    8.1174   21.4759 H   0  0  0  0  0
   14.0877    9.2654   19.6061 H   0  0  0  0  0
   13.1483   11.3670   18.6801 H   0  0  0  0  0
   11.0644   12.3074   19.6484 H   0  0  0  0  0
    9.9460   11.1636   21.5204 H   0  0  0  0  0
  7  1  1  0  0  0
  1  6  4  0  0  0
  1  2  4  0  0  0
  2  3  4  0  0  0
  3  4  4  0  0  0
  4 10  4  0  0  0
  4  5  4  0  0  0
  5 11  4  0  0  0
  6  5  4  0  0  0
 11 12  4  0  0  0
 12 13  1  0  0  0
 10 12  4  0  0  0
 13 18  4  0  0  0
 13 14  4  0  0  0
 14 15  4  0  0  0
 15 16  4  0  0  0
 16 17  4  0  0  0
 17 20  1  0  0  0
 18 17  4  0  0  0
 18 19  1  0  0  0
 20 25  4  0  0  0
 20 21  4  0  0  0
 21 22  4  0  0  0
 22 23  4  0  0  0
 23 24  4  0  0  0
 25 24  4  0  0  0
  7  9  2  0  0  0
  7  8  1  0  0  0
  2 26  1  0  0  0
  3 27  1  0  0  0
  6 28  1  0  0  0
  8 29  1  0  0  0
  8 30  1  0  0  0
  9 31  1  0  0  0
 14 32  1  0  0  0
 15 33  1  0  0  0
 16 34  1  0  0  0
 19 35  1  0  0  0
 21 36  1  0  0  0
 22 37  1  0  0  0
 23 38  1  0  0  0
 24 39  1  0  0  0
 25 40  1  0  0  0
M  END
$$$$
