1vfn_ligand
  -I-interpret- 

 13 14  0  0  0  0  0  0  0  0999 V2000
   74.5940   49.8230   49.6500 N   0  0  0  0  0
   75.5050   48.7720   49.5940 C   0  0  0  0  0
   75.1940   47.4740   49.7740 N   0  0  0  0  0
   73.8670   47.3080   49.9700 C   0  0  0  0  0
   72.8860   48.2940   50.0930 C   0  0  0  0  0
   73.2290   49.6670   49.9560 C   0  0  0  0  0
   72.4870   50.6560   50.0020 O   0  0  0  0  0
   71.6350   47.7090   50.3590 N   0  0  0  0  0
   71.8970   46.4310   50.3920 C   0  0  0  0  0
   73.2370   46.1020   50.1700 N   0  0  0  0  0
   74.9367   50.7642   49.4574 H   0  0  0  0  0
   76.5471   49.0177   49.3894 H   0  0  0  0  0
   71.1305   45.6788   50.5782 H   0  0  0  0  0
  1  6  1  0  0  0
  1  2  1  0  0  0
  2  3  2  0  0  0
  3  4  1  0  0  0
  4 10  4  0  0  0
  4  5  4  0  0  0
  5  8  4  0  0  0
  5  6  1  0  0  0
  6  7  2  0  0  0
  8  9  4  0  0  0
  9 10  4  0  0  0
  1 11  1  0  0  0
  2 12  1  0  0  0
  9 13  1  0  0  0
M  END
$$$$
