2xzg_ligand
  -I-interpret- 

 41 44  0  0  0  0  0  0  0  0999 V2000
   46.0830   -7.5620   26.2510 C   0  0  0  0  0
   46.1750   -6.2670   26.7830 C   0  0  0  0  0
   46.5190   -5.1940   25.9590 C   0  0  0  0  0
   46.5910   -3.9400   26.4740 N   0  0  0  0  0
   46.7920   -5.4120   24.6050 C   0  0  0  0  0
   46.7260   -6.7070   24.0820 C   0  0  0  0  0
   46.3680   -7.7760   24.9120 C   0  0  0  0  0
   46.2630   -9.1560   24.2810 C   0  0  0  0  0
   47.4900   -9.9620   24.3130 N   0  0  0  0  0
   48.4100   -9.8270   23.2980 C   0  0  0  0  0
   48.1570   -9.0130   22.4290 O   0  0  0  0  0
   49.5740  -10.5970   23.2920 C   0  0  0  0  0
   49.7590  -11.5290   24.3490 C   0  0  0  0  0
   50.5050  -10.4670   22.2750 C   0  0  0  0  0
   51.6400  -11.2560   22.3080 C   0  0  0  0  0
   52.8450  -11.1720   21.0200 S   0  0  0  0  0
   52.6130  -12.2710   20.1830 O   0  0  0  0  0
   54.1560  -11.4150   21.6630 O   0  0  0  0  0
   52.8090   -9.8950   20.2520 O   0  0  0  0  0
   51.8430  -12.1770   23.3420 C   0  0  0  0  0
   50.9090  -12.3400   24.3740 C   0  0  0  0  0
   51.1200  -13.2500   25.4260 C   0  0  0  0  0
   50.1860  -13.3960   26.4600 C   0  0  0  0  0
   49.0230  -12.5950   26.4200 C   0  0  0  0  0
   48.8090  -11.6690   25.3680 C   0  0  0  0  0
   47.6530  -10.8870   25.3300 C   0  0  0  0  0
   46.7960  -10.9340   26.1950 O   0  0  0  0  0
   45.7887   -8.3960   26.8882 H   0  0  0  0  0
   45.9775   -6.0985   27.8416 H   0  0  0  0  0
   46.3938   -3.7824   27.4623 H   0  0  0  0  0
   46.8423   -3.1554   25.8727 H   0  0  0  0  0
   47.0556   -4.5746   23.9590 H   0  0  0  0  0
   46.9527   -6.8838   23.0306 H   0  0  0  0  0
   46.0229   -8.9986   23.2295 H   0  0  0  0  0
   45.5170   -9.7041   24.8566 H   0  0  0  0  0
   50.3460   -9.7563   21.4640 H   0  0  0  0  0
   52.9705   -9.1599   20.8479 H   0  0  0  0  0
   52.7495  -12.7822   23.3447 H   0  0  0  0  0
   52.0278  -13.8532   25.4368 H   0  0  0  0  0
   50.3516  -14.1058   27.2705 H   0  0  0  0  0
   48.2785  -12.6904   27.2104 H   0  0  0  0  0
  1  2  4  0  0  0
  1  7  4  0  0  0
  2  3  4  0  0  0
  3  4  1  0  0  0
  3  5  4  0  0  0
  5  6  4  0  0  0
  6  7  4  0  0  0
  7  8  1  0  0  0
  8  9  1  0  0  0
  9 10  1  0  0  0
  9 26  1  0  0  0
 10 11  2  0  0  0
 10 12  1  0  0  0
 12 13  4  0  0  0
 12 14  4  0  0  0
 13 21  4  0  0  0
 13 25  4  0  0  0
 14 15  4  0  0  0
 15 16  1  0  0  0
 15 20  4  0  0  0
 16 17  2  0  0  0
 16 18  2  0  0  0
 16 19  1  0  0  0
 20 21  4  0  0  0
 21 22  4  0  0  0
 22 23  4  0  0  0
 23 24  4  0  0  0
 24 25  4  0  0  0
 25 26  1  0  0  0
 26 27  2  0  0  0
  1 28  1  0  0  0
  2 29  1  0  0  0
  4 30  1  0  0  0
  4 31  1  0  0  0
  5 32  1  0  0  0
  6 33  1  0  0  0
  8 34  1  0  0  0
  8 35  1  0  0  0
 14 36  1  0  0  0
 19 37  1  0  0  0
 20 38  1  0  0  0
 22 39  1  0  0  0
 23 40  1  0  0  0
 24 41  1  0  0  0
M  END
$$$$
