2zz6_ligand
  -I-interpret- 

 34 35  0  0  0  0  0  0  0  0999 V2000
   24.5270  -17.2120    7.6980 O   0  0  0  0  0
   24.4090  -16.2970    8.8980 P   0  0  0  0  0
   25.7120  -15.5080    9.1220 O   0  0  0  0  0
   23.2400  -15.3200    8.7530 O   0  0  0  0  0
   24.0840  -17.1920   10.1620 O   0  0  0  0  0
   25.1370  -17.6540   11.0230 C   0  0  0  0  0
   24.4140  -18.2770   12.2190 C   0  0  0  0  0
   23.7250  -17.3310   13.1670 C   0  0  0  0  0
   22.6350  -17.9880   13.8090 O   0  0  0  0  0
   24.8350  -16.9690   14.1710 C   0  0  0  0  0
   24.3210  -16.4520   15.3550 O   0  0  0  0  0
   25.3730  -18.9650   13.0840 O   0  0  0  0  0
   25.5210  -18.2670   14.3630 C   0  0  0  0  0
   26.9820  -18.3140   14.7210 N   0  0  0  0  0
   27.4470  -18.9910   15.9160 C   0  0  0  0  0
   28.7770  -19.2080   16.0810 C   0  0  0  0  0
   29.7210  -18.8060   15.1090 C   0  0  0  0  0
   30.9280  -19.0110   15.1240 O   0  0  0  0  0
   29.2050  -18.1020   13.9940 N   0  0  0  0  0
   27.9060  -17.8160   13.7550 C   0  0  0  0  0
   27.5320  -17.2070   12.8000 O   0  0  0  0  0
   25.6113  -14.9367    9.8869 H   0  0  0  0  0
   23.1962  -14.7576    9.5298 H   0  0  0  0  0
   25.8006  -16.8438   11.3254 H   0  0  0  0  0
   25.7875  -18.3709   10.5220 H   0  0  0  0  0
   23.6687  -18.9052   11.7311 H   0  0  0  0  0
   23.2997  -16.4531   12.6807 H   0  0  0  0  0
   22.2035  -17.3765   14.4103 H   0  0  0  0  0
   25.5024  -16.1816   13.8207 H   0  0  0  0  0
   25.0435  -16.2404   15.9507 H   0  0  0  0  0
   25.0505  -18.6940   15.2487 H   0  0  0  0  0
   26.7366  -19.3220   16.6735 H   0  0  0  0  0
   29.1257  -19.7050   16.9863 H   0  0  0  0  0
   29.8812  -17.7785   13.3022 H   0  0  0  0  0
  1  2  2  0  0  0
  2  3  1  0  0  0
  2  4  1  0  0  0
  2  5  1  0  0  0
  5  6  1  0  0  0
  6  7  1  0  0  0
  7  8  1  0  0  0
  7 12  1  0  0  0
  8  9  1  0  0  0
  8 10  1  0  0  0
 10 11  1  0  0  0
 10 13  1  0  0  0
 12 13  1  0  0  0
 13 14  1  0  0  0
 14 15  1  0  0  0
 14 20  1  0  0  0
 15 16  2  0  0  0
 16 17  1  0  0  0
 17 18  2  0  0  0
 17 19  1  0  0  0
 19 20  1  0  0  0
 20 21  2  0  0  0
  3 22  1  0  0  0
  4 23  1  0  0  0
  6 24  1  0  0  0
  6 25  1  0  0  0
  7 26  1  0  0  0
  8 27  1  0  0  0
  9 28  1  0  0  0
 10 29  1  0  0  0
 11 30  1  0  0  0
 13 31  1  0  0  0
 15 32  1  0  0  0
 16 33  1  0  0  0
 19 34  1  0  0  0
M  END
$$$$
