### 
### Created by X-TOOL on Mon Sep 10 21:12:59 2018
### 

@<TRIPOS>MOLECULE
2zz6_ligand
   32    33     1     0     0
SMALL
GAST_HUCK


@<TRIPOS>ATOM
      1 O3P        24.5270  -17.2120    7.6980 O.co2     1 6AZ        -0.5537
      2 P          24.4090  -16.2970    8.8980 P.3       1 6AZ         0.2008
      3 O1P        25.7120  -15.5080    9.1220 O.co2     1 6AZ        -0.5537
      4 O2P        23.2400  -15.3200    8.7530 O.co2     1 6AZ        -0.5537
      5 O5'        24.0840  -17.1920   10.1620 O.3       1 6AZ        -0.2734
      6 C5'        25.1370  -17.6540   11.0230 C.3       1 6AZ         0.1072
      7 C4'        24.4140  -18.2770   12.2190 C.3       1 6AZ         0.1182
      8 C3'        23.7250  -17.3310   13.1670 C.3       1 6AZ         0.1149
      9 O3'        22.6350  -17.9880   13.8090 O.3       1 6AZ        -0.3864
     10 C2'        24.8350  -16.9690   14.1710 C.3       1 6AZ         0.1387
     11 O2'        24.3210  -16.4520   15.3550 O.3       1 6AZ        -0.3836
     12 O4'        25.3730  -18.9650   13.0840 O.3       1 6AZ        -0.3363
     13 C1'        25.5210  -18.2670   14.3630 C.3       1 6AZ         0.2059
     14 N1         26.9820  -18.3140   14.7210 N.am      1 6AZ        -0.1592
     15 C6         27.4470  -18.9910   15.9160 C.2       1 6AZ         0.0591
     16 C5         28.7770  -19.2080   16.0810 C.2       1 6AZ         0.0062
     17 C4         29.7210  -18.8060   15.1090 C.2       1 6AZ         0.1822
     18 O4         30.9280  -19.0110   15.1240 O.2       1 6AZ        -0.4124
     19 N3         29.2050  -18.1020   13.9940 N.am      1 6AZ        -0.1865
     20 C2         27.9060  -17.8160   13.7550 C.2       1 6AZ         0.3328
     21 O2         27.5320  -17.2070   12.8000 O.2       1 6AZ        -0.3815
     22 H1         25.7702  -16.8147   11.3465 H         1 6AZ         0.0639
     23 H2         25.7566  -18.4044   10.5102 H         1 6AZ         0.0639
     24 H3         23.6742  -18.9895   11.8253 H         1 6AZ         0.0650
     25 H4         23.3601  -16.4354   12.6428 H         1 6AZ         0.0648
     26 H5         22.0130  -18.2812   13.1535 H         1 6AZ         0.2100
     27 H6         25.5243  -16.2301   13.7365 H         1 6AZ         0.0676
     28 H7         25.0360  -16.2426   15.9445 H         1 6AZ         0.2101
     29 H8         24.9805  -18.8083   15.1534 H         1 6AZ         0.0997
     30 H9         26.7372  -19.3217   16.6728 H         1 6AZ         0.1178
     31 H10        29.1254  -19.7045   16.9855 H         1 6AZ         0.0258
     32 H11        29.8679  -17.7848   13.3158 H         1 6AZ         0.2259
@<TRIPOS>BOND
     1    1    2 ar 
     2    2    3 ar 
     3    2    4 ar 
     4    2    5 1  
     5    5    6 1  
     6    6    7 1  
     7    7    8 1  
     8    7   12 1  
     9    8    9 1  
    10    8   10 1  
    11   10   11 1  
    12   10   13 1  
    13   12   13 1  
    14   13   14 1  
    15   14   15 1  
    16   14   20 am 
    17   15   16 2  
    18   16   17 1  
    19   17   18 2  
    20   17   19 am 
    21   19   20 am 
    22   20   21 2  
    23    6   22 1  
    24    6   23 1  
    25    7   24 1  
    26    8   25 1  
    27    9   26 1  
    28   10   27 1  
    29   11   28 1  
    30   13   29 1  
    31   15   30 1  
    32   16   31 1  
    33   19   32 1  
@<TRIPOS>SUBSTRUCTURE
     1 6AZ         1

