3vzg_ligand
  -I-interpret- 

 39 39  0  0  0  0  0  0  0  0999 V2000
   23.8050   -0.9000    7.1800 N   0  3  0  0  0
   23.5930   -0.0650    8.3530 C   0  0  0  0  0
   24.2560   -0.6740    9.5600 C   0  0  0  0  0
   24.2190   -1.9150    9.7180 O   0  0  0  0  0
   22.0950    0.2000    8.5930 C   0  0  0  0  0
   21.8460    0.7600    9.8910 O   0  0  0  0  0
   21.2290   -1.0500    8.4320 C   0  0  0  0  0
   24.8270    0.0980   10.3620 O   0  0  0  0  0
   21.9320    2.1930    9.9670 C   0  0  0  0  0
   21.7010    2.6560   11.4100 C   0  0  0  0  0
   20.2210    2.6070   11.8060 C   0  0  0  0  0
   19.3120    3.2600   10.7630 C   0  0  0  0  0
   19.6270    2.7530    9.3520 C   0  0  0  0  0
   18.8480    3.5160    8.2840 C   0  0  0  0  0
   22.2060    3.9880   11.5660 O   0  0  0  0  0
   20.0320    3.2460   13.0750 O   0  0  0  0  0
   17.9470    2.9730   11.0910 O   0  0  0  0  0
   21.0290    2.8570    9.0610 O   0  0  0  0  0
   19.3850    4.8320    8.1170 O   0  0  0  0  0
   24.8048   -1.0552    7.0508 H   0  0  0  0  0
   23.3350   -1.7956    7.3122 H   0  0  0  0  0
   23.4232   -0.4324    6.3578 H   0  0  0  0  0
   24.0578    0.9040    8.1710 H   0  0  0  0  0
   23.7343   -2.3146    8.9921 H   0  0  0  0  0
   21.8159    0.9184    7.8222 H   0  0  0  0  0
   21.4882   -1.7722    9.2062 H   0  0  0  0  0
   20.1779   -0.7768    8.5254 H   0  0  0  0  0
   21.4058   -1.4889    7.4501 H   0  0  0  0  0
   22.9378    2.4742    9.6548 H   0  0  0  0  0
   22.2329    1.9711   12.0703 H   0  0  0  0  0
   19.9425    1.5551   11.8696 H   0  0  0  0  0
   19.4837    4.3363   10.7746 H   0  0  0  0  0
   19.3249    1.7059    9.3305 H   0  0  0  0  0
   17.8061    3.5952    8.5942 H   0  0  0  0  0
   18.9246    2.9794    7.3383 H   0  0  0  0  0
   22.0622    4.2798   12.4692 H   0  0  0  0  0
   19.1031    3.2105   13.3147 H   0  0  0  0  0
   17.3703    3.3799   10.4403 H   0  0  0  0  0
   18.8845    5.2975    7.4429 H   0  0  0  0  0
  1  2  1  0  0  0
  2  3  1  0  0  0
  2  5  1  0  0  0
  3  4  1  0  0  0
  3  8  2  0  0  0
  5  6  1  0  0  0
  5  7  1  0  0  0
  6  9  1  0  0  0
  9 10  1  0  0  0
  9 18  1  0  0  0
 10 11  1  0  0  0
 10 15  1  0  0  0
 11 12  1  0  0  0
 11 16  1  0  0  0
 12 13  1  0  0  0
 12 17  1  0  0  0
 13 14  1  0  0  0
 13 18  1  0  0  0
 14 19  1  0  0  0
  1 20  1  0  0  0
  1 21  1  0  0  0
  1 22  1  0  0  0
  2 23  1  0  0  0
  4 24  1  0  0  0
  5 25  1  0  0  0
  7 26  1  0  0  0
  7 27  1  0  0  0
  7 28  1  0  0  0
  9 29  1  0  0  0
 10 30  1  0  0  0
 11 31  1  0  0  0
 12 32  1  0  0  0
 13 33  1  0  0  0
 14 34  1  0  0  0
 14 35  1  0  0  0
 15 36  1  0  0  0
 16 37  1  0  0  0
 17 38  1  0  0  0
 19 39  1  0  0  0
M  END
$$$$
