5h0b_ligand
  -I-interpret- 

 74 78  0  0  0  0  0  0  0  0999 V2000
    5.0260   -2.8340   -1.1980 C   0  0  0  0  0
    3.9240   -3.4420   -1.9490 C   0  0  0  0  0
    4.1970   -4.7110   -2.6590 C   0  0  0  0  0
    5.4480   -5.2160   -2.5530 N   0  0  0  0  0
    6.4050   -4.6100   -1.8270 C   0  0  0  0  0
    6.2390   -3.4550   -1.1660 N   0  0  0  0  0
    4.5970   -1.7000   -0.6440 N   0  0  0  0  0
    3.2950   -1.4840   -0.9660 C   0  0  0  0  0
    2.7890   -2.4990   -1.7900 C   0  0  0  0  0
    3.2610   -5.3320   -3.4110 N   0  0  0  0  0
    1.3800   -2.5840   -2.2620 C   0  0  0  0  0
    5.5050   -0.8280    0.1650 C   0  0  0  0  0
    5.0450    0.6150    0.0070 C   0  0  0  0  0
    6.0840    1.5440    0.6320 C   0  0  0  0  0
    6.2650    1.2220    2.1110 C   0  0  0  0  0
    6.6620   -0.2400    2.2900 C   0  0  0  0  0
    5.6210   -1.1700    1.6440 C   0  0  0  0  0
    0.6550   -3.7660   -2.0760 C   0  0  0  0  0
   -0.6850   -3.8290   -2.4680 C   0  0  0  0  0
   -1.3020   -2.7200   -3.0390 C   0  0  0  0  0
   -0.5840   -1.5380   -3.1910 C   0  0  0  0  0
    0.7530   -1.4650   -2.7990 C   0  0  0  0  0
   -2.6430   -2.7880   -3.4010 O   0  0  0  0  0
    7.3150    2.1170    2.6690 N   0  3  0  0  0
    6.2380    2.7750    4.7680 C   0  0  0  0  0
    7.3800    2.0210    4.1380 C   0  0  0  0  0
    8.6890    2.6480    4.6230 C   0  0  0  0  0
    9.8710    1.7080    4.4590 C   0  0  0  0  0
    9.8090    0.5490    5.4490 C   0  0  0  0  0
   11.1810    2.4790    4.5960 C   0  0  0  0  0
   -3.1430   -2.2840   -4.5710 C   0  0  0  0  0
   -4.4010   -1.6630   -4.5660 C   0  0  0  0  0
   -4.9120   -1.1700   -5.7640 C   0  0  0  0  0
   -4.1810   -1.2710   -6.9420 C   0  0  0  0  0
   -2.9270   -1.8880   -6.9490 C   0  0  0  0  0
   -2.4220   -2.3980   -5.7590 C   0  0  0  0  0
    5.8610    2.4290    5.9100 O   0  0  0  0  0
    5.7180    3.7240    4.1490 O   0  0  0  0  0
    7.3818   -5.0906   -1.7723 H   0  0  0  0  0
    2.7148   -0.6264   -0.6254 H   0  0  0  0  0
    2.3296   -4.9265   -3.5034 H   0  0  0  0  0
    3.4861   -6.2061   -3.8861 H   0  0  0  0  0
    6.5073   -0.9968   -0.2287 H   0  0  0  0  0
    4.0856    0.7501    0.5065 H   0  0  0  0  0
    4.9337    0.8499   -1.0516 H   0  0  0  0  0
    5.7436    2.5747    0.5325 H   0  0  0  0  0
    7.0364    1.4065    0.1200 H   0  0  0  0  0
    5.3262    1.3836    2.6407 H   0  0  0  0  0
    6.7186   -0.4615    3.3558 H   0  0  0  0  0
    7.6267   -0.4041    1.8099 H   0  0  0  0  0
    5.9326   -2.2082    1.7589 H   0  0  0  0  0
    4.6547   -1.0357    2.1302 H   0  0  0  0  0
    1.1341   -4.6357   -1.6264 H   0  0  0  0  0
   -1.2492   -4.7507   -2.3259 H   0  0  0  0  0
   -1.0701   -0.6617   -3.6199 H   0  0  0  0  0
    1.3052   -0.5322   -2.9135 H   0  0  0  0  0
    7.0873    3.0789    2.4174 H   0  0  0  0  0
    8.2174    1.8350    2.2861 H   0  0  0  0  0
    7.3226    0.9697    4.4202 H   0  0  0  0  0
    8.5827    2.8773    5.6833 H   0  0  0  0  0
    8.8795    3.5397    4.0258 H   0  0  0  0  0
    9.8242    1.2777    3.4586 H   0  0  0  0  0
    9.8189    0.9407    6.4661 H   0  0  0  0  0
    8.8926   -0.0181    5.2856 H   0  0  0  0  0
   10.6714   -0.1008    5.3001 H   0  0  0  0  0
   11.2290    3.2507    3.8277 H   0  0  0  0  0
   11.2271    2.9423    5.5816 H   0  0  0  0  0
   12.0193    1.7927    4.4762 H   0  0  0  0  0
   -4.9687   -1.5680   -3.6404 H   0  0  0  0  0
   -5.8954   -0.7000   -5.7781 H   0  0  0  0  0
   -4.5892   -0.8657   -7.8679 H   0  0  0  0  0
   -2.3543   -1.9679   -7.8730 H   0  0  0  0  0
   -1.4509   -2.8930   -5.7543 H   0  0  0  0  0
    6.3871    1.6829    6.2070 H   0  0  0  0  0
  1  2  4  0  0  0
  1  6  4  0  0  0
  1  7  4  0  0  0
  2  3  4  0  0  0
  2  9  4  0  0  0
  3  4  4  0  0  0
  3 10  1  0  0  0
  4  5  4  0  0  0
  5  6  4  0  0  0
  7  8  4  0  0  0
  7 12  1  0  0  0
  8  9  4  0  0  0
  9 11  1  0  0  0
 11 18  4  0  0  0
 11 22  4  0  0  0
 12 13  1  0  0  0
 12 17  1  0  0  0
 13 14  1  0  0  0
 14 15  1  0  0  0
 15 16  1  0  0  0
 15 24  1  0  0  0
 16 17  1  0  0  0
 18 19  4  0  0  0
 19 20  4  0  0  0
 20 21  4  0  0  0
 20 23  1  0  0  0
 21 22  4  0  0  0
 23 31  1  0  0  0
 24 26  1  0  0  0
 26 25  1  0  0  0
 25 37  1  0  0  0
 25 38  2  0  0  0
 26 27  1  0  0  0
 27 28  1  0  0  0
 28 29  1  0  0  0
 28 30  1  0  0  0
 31 32  4  0  0  0
 31 36  4  0  0  0
 32 33  4  0  0  0
 33 34  4  0  0  0
 34 35  4  0  0  0
 35 36  4  0  0  0
  5 39  1  0  0  0
  8 40  1  0  0  0
 10 41  1  0  0  0
 10 42  1  0  0  0
 12 43  1  0  0  0
 13 44  1  0  0  0
 13 45  1  0  0  0
 14 46  1  0  0  0
 14 47  1  0  0  0
 15 48  1  0  0  0
 16 49  1  0  0  0
 16 50  1  0  0  0
 17 51  1  0  0  0
 17 52  1  0  0  0
 18 53  1  0  0  0
 19 54  1  0  0  0
 21 55  1  0  0  0
 22 56  1  0  0  0
 24 57  1  0  0  0
 24 58  1  0  0  0
 26 59  1  0  0  0
 27 60  1  0  0  0
 27 61  1  0  0  0
 28 62  1  0  0  0
 29 63  1  0  0  0
 29 64  1  0  0  0
 29 65  1  0  0  0
 30 66  1  0  0  0
 30 67  1  0  0  0
 30 68  1  0  0  0
 32 69  1  0  0  0
 33 70  1  0  0  0
 34 71  1  0  0  0
 35 72  1  0  0  0
 36 73  1  0  0  0
 37 74  1  0  0  0
M  END
$$$$
