1ogx_ligand
  -I-interpret- 

 38 41  0  0  0  0  0  0  0  0999 V2000
   13.0500  -41.7260  -15.9310 C   0  0  0  0  0
   13.1500  -42.7880  -16.7980 C   0  0  0  0  0
   13.2880  -44.0860  -16.2630 C   0  0  0  0  0
   13.3290  -44.3010  -14.8030 C   0  0  0  0  0
   13.2330  -43.1840  -13.9590 C   0  0  0  0  0
   13.0960  -41.9190  -14.5060 C   0  0  0  0  0
   13.3780  -45.1850  -17.1970 C   0  0  0  0  0
   13.5000  -46.5080  -16.6790 C   0  0  0  0  0
   13.5350  -46.7280  -15.2560 C   0  0  0  0  0
   13.4560  -45.6370  -14.3100 C   0  0  0  0  0
   13.6440  -48.1280  -14.7670 C   0  0  0  0  0
   13.0080  -48.3130  -13.3610 C   0  0  0  0  0
   13.6260  -47.3300  -12.3510 C   0  0  0  0  0
   13.4910  -45.8560  -12.8140 C   0  0  0  0  0
   12.9060  -49.2430  -15.5570 C   0  0  0  0  0
   13.2730  -50.4740  -14.6690 C   0  0  0  0  0
   13.3170  -49.7990  -13.2450 C   0  0  0  0  0
   11.4770  -48.1500  -13.3650 C   0  0  0  0  0
   12.9080  -40.5500  -16.4790 O   0  0  0  0  0
   13.5680  -50.3610  -12.2070 O   0  0  0  0  0
   13.1232  -42.6305  -17.8762 H   0  0  0  0  0
   13.2661  -43.3115  -12.8770 H   0  0  0  0  0
   13.0218  -41.0550  -13.8457 H   0  0  0  0  0
   13.3532  -45.0069  -18.2721 H   0  0  0  0  0
   13.5669  -47.3550  -17.3618 H   0  0  0  0  0
   14.7249  -48.2460  -14.8427 H   0  0  0  0  0
   14.6871  -47.5611  -12.2573 H   0  0  0  0  0
   13.0975  -47.4386  -11.4039 H   0  0  0  0  0
   12.5365  -45.4981  -12.4280 H   0  0  0  0  0
   14.3758  -45.3357  -12.4472 H   0  0  0  0  0
   13.2015  -49.3317  -16.6024 H   0  0  0  0  0
   11.8364  -49.0776  -15.6859 H   0  0  0  0  0
   14.2005  -50.9695  -14.9559 H   0  0  0  0  0
   12.5713  -51.3044  -14.7468 H   0  0  0  0  0
   11.2202  -47.1503  -13.7155 H   0  0  0  0  0
   11.0355  -48.8936  -14.0285 H   0  0  0  0  0
   11.0952  -48.2911  -12.3538 H   0  0  0  0  0
   12.8481  -39.8829  -15.7913 H   0  0  0  0  0
  1  2  4  0  0  0
  1  6  4  0  0  0
  1 19  1  0  0  0
  2  3  4  0  0  0
  3  4  4  0  0  0
  3  7  4  0  0  0
  4  5  4  0  0  0
  4 10  4  0  0  0
  5  6  4  0  0  0
  7  8  4  0  0  0
  8  9  4  0  0  0
  9 10  4  0  0  0
  9 11  1  0  0  0
 10 14  1  0  0  0
 11 12  1  0  0  0
 11 15  1  0  0  0
 12 13  1  0  0  0
 12 17  1  0  0  0
 12 18  1  0  0  0
 13 14  1  0  0  0
 15 16  1  0  0  0
 16 17  1  0  0  0
 17 20  2  0  0  0
  2 21  1  0  0  0
  5 22  1  0  0  0
  6 23  1  0  0  0
  7 24  1  0  0  0
  8 25  1  0  0  0
 11 26  1  0  0  0
 13 27  1  0  0  0
 13 28  1  0  0  0
 14 29  1  0  0  0
 14 30  1  0  0  0
 15 31  1  0  0  0
 15 32  1  0  0  0
 16 33  1  0  0  0
 16 34  1  0  0  0
 18 35  1  0  0  0
 18 36  1  0  0  0
 18 37  1  0  0  0
 19 38  1  0  0  0
M  END
$$$$
