5td7_ligand
  -I-interpret- 

 40 39  0  0  0  0  0  0  0  0999 V2000
   48.5030   -9.8370  116.5520 C   0  0  0  0  0
   47.3030   -8.8600  116.3130 C   0  0  0  0  0
   47.7120   -7.4100  115.8770 C   0  0  0  0  0
   46.8360   -5.1260  115.4060 C   0  0  0  0  0
   45.5440   -4.2630  115.1720 C   0  0  0  0  0
   45.7290   -2.7280  115.3670 C   0  0  0  0  0
   44.4350   -1.8770  115.1250 C   0  0  0  0  0
   44.5960   -0.3490  115.3810 C   0  0  0  0  0
   43.6220    0.5930  114.5520 C   0  0  0  0  0
   43.8480    2.1470  115.0210 C   0  0  0  0  0
   42.9240    2.9550  114.4130 F   0  0  0  0  0
   43.6500    2.2630  116.3480 F   0  0  0  0  0
   45.0760    2.6010  114.7140 F   0  0  0  0  0
   46.5200   -6.5860  115.4980 N   0  3  0  0  0
   48.0820  -11.1120  117.1750 N   0  3  0  0  0
   42.2610    0.3450  114.8710 O   0  0  0  0  0
   43.8810    0.4820  113.1540 O   0  0  0  0  0
   49.2045   -9.3483  117.2282 H   0  0  0  0  0
   48.9469  -10.0669  115.5834 H   0  0  0  0  0
   46.7759   -8.7680  117.2626 H   0  0  0  0  0
   46.7105   -9.2796  115.5000 H   0  0  0  0  0
   48.3666   -7.4852  115.0087 H   0  0  0  0  0
   48.2091   -6.9268  116.7181 H   0  0  0  0  0
   47.2908   -4.8140  116.3462 H   0  0  0  0  0
   47.5076   -4.9734  114.5612 H   0  0  0  0  0
   44.8122   -4.5871  115.9120 H   0  0  0  0  0
   45.2501   -4.4139  114.1333 H   0  0  0  0  0
   46.4658   -2.4012  114.6332 H   0  0  0  0  0
   46.0214   -2.5728  116.4055 H   0  0  0  0  0
   43.6848   -2.2371  115.8290 H   0  0  0  0  0
   44.1727   -1.9944  114.0736 H   0  0  0  0  0
   45.6101   -0.0896  115.0768 H   0  0  0  0  0
   44.3630   -0.1855  116.4332 H   0  0  0  0  0
   45.8107   -6.7089  116.2206 H   0  0  0  0  0
   46.2022   -6.8970  114.5800 H   0  0  0  0  0
   48.8978  -11.7095  117.3084 H   0  0  0  0  0
   47.6479  -10.9208  118.0780 H   0  0  0  0  0
   47.4112  -11.5812  116.5665 H   0  0  0  0  0
   42.1349    0.4307  115.8188 H   0  0  0  0  0
   44.8100    0.6573  112.9869 H   0  0  0  0  0
  2  1  1  0  0  0
  1 15  1  0  0  0
  3  2  1  0  0  0
 14  3  1  0  0  0
  4  5  1  0  0  0
  4 14  1  0  0  0
  5  6  1  0  0  0
  6  7  1  0  0  0
  7  8  1  0  0  0
  8  9  1  0  0  0
  9 10  1  0  0  0
  9 16  1  0  0  0
  9 17  1  0  0  0
 10 11  1  0  0  0
 10 12  1  0  0  0
 10 13  1  0  0  0
  1 18  1  0  0  0
  1 19  1  0  0  0
  2 20  1  0  0  0
  2 21  1  0  0  0
  3 22  1  0  0  0
  3 23  1  0  0  0
  4 24  1  0  0  0
  4 25  1  0  0  0
  5 26  1  0  0  0
  5 27  1  0  0  0
  6 28  1  0  0  0
  6 29  1  0  0  0
  7 30  1  0  0  0
  7 31  1  0  0  0
  8 32  1  0  0  0
  8 33  1  0  0  0
 14 34  1  0  0  0
 14 35  1  0  0  0
 15 36  1  0  0  0
 15 37  1  0  0  0
 15 38  1  0  0  0
 16 39  1  0  0  0
 17 40  1  0  0  0
M  END
$$$$
