3u4u_ligand
  -I-interpret- 

 54 58  0  0  0  0  0  0  0  0999 V2000
   24.4270   27.2100    8.7880 C   0  0  0  0  0
   24.2900   26.5880   10.1560 C   0  0  0  0  0
   24.1080   25.3830   10.2330 O   0  0  0  0  0
   24.4130   27.4150   11.2770 N   0  0  0  0  0
   24.3410   28.8320   11.3030 C   0  0  0  0  0
   25.1970   29.5240   12.1540 C   0  0  0  0  0
   25.1920   30.9010   12.2550 C   0  0  0  0  0
   24.2710   31.5230   11.4240 C   0  0  0  0  0
   23.4030   30.8720   10.5590 C   0  0  0  0  0
   23.4330   29.4900   10.4960 C   0  0  0  0  0
   22.6180   31.8540    9.8790 C   0  0  0  0  0
   23.0170   33.0900   10.3310 C   0  0  0  0  0
   24.0110   32.8590   11.2510 N   0  0  0  0  0
   24.6960   33.9120   11.9990 C   0  0  0  0  0
   24.1660   33.7880   13.4260 C   0  0  0  0  0
   25.0390   34.6680   14.3140 C   0  0  0  0  0
   26.2520   34.8770   14.0050 O   0  0  0  0  0
   24.4150   35.0480   15.3460 O   0  0  0  0  0
   21.5680   31.6050    8.8670 C   0  0  0  0  0
   20.7250   32.6890    8.2800 C   0  0  0  0  0
   19.7940   32.4470    7.3510 C   0  0  0  0  0
   19.6210   31.1540    6.9200 N   0  0  0  0  0
   20.3580   30.1280    7.4220 C   0  0  0  0  0
   21.3280   30.2550    8.3920 N   0  0  0  0  0
   19.9730   28.9640    6.7960 C   0  0  0  0  0
   18.9510   29.3530    5.9090 C   0  0  0  0  0
   18.7580   30.6820    5.9920 N   0  0  0  0  0
   20.5280   27.6680    7.0230 C   0  0  0  0  0
   21.0470   26.6420    7.1670 N   0  0  0  0  0
   18.9840   33.3990    6.7670 N   0  0  0  0  0
   19.1790   34.8150    7.1370 C   0  0  0  0  0
   18.6430   35.8920    6.2280 C   0  0  0  0  0
   20.1210   35.6780    6.3340 C   0  0  0  0  0
   25.2782   26.7659    8.2720 H   0  0  0  0  0
   23.5178   27.0282    8.2149 H   0  0  0  0  0
   24.5835   28.2836    8.8925 H   0  0  0  0  0
   24.5713   26.9502   12.1711 H   0  0  0  0  0
   25.8992   28.9568   12.7650 H   0  0  0  0  0
   25.8519   31.4499   12.9268 H   0  0  0  0  0
   22.7643   28.9403    9.8335 H   0  0  0  0  0
   22.6237   34.0583   10.0216 H   0  0  0  0  0
   24.5016   34.8989   11.5792 H   0  0  0  0  0
   25.7793   33.7986   11.9581 H   0  0  0  0  0
   24.2046   32.7509   13.7594 H   0  0  0  0  0
   23.1251   34.1075   13.4763 H   0  0  0  0  0
   26.4413   34.4642   13.1592 H   0  0  0  0  0
   20.8738   33.7136    8.6208 H   0  0  0  0  0
   18.3993   28.6790    5.2537 H   0  0  0  0  0
   18.2660   33.1304    6.0942 H   0  0  0  0  0
   19.0748   34.5657    8.1930 H   0  0  0  0  0
   17.9337   36.7184    6.2732 H   0  0  0  0  0
   17.8888   36.0000    5.4485 H   0  0  0  0  0
   20.9768   35.5530    5.6707 H   0  0  0  0  0
   21.0217   36.2706    6.4945 H   0  0  0  0  0
  1  2  1  0  0  0
  2  3  2  0  0  0
  2  4  1  0  0  0
  4  5  1  0  0  0
  5  6  4  0  0  0
  5 10  4  0  0  0
  6  7  4  0  0  0
  7  8  4  0  0  0
  8  9  4  0  0  0
  8 13  4  0  0  0
  9 10  4  0  0  0
  9 11  4  0  0  0
 11 12  4  0  0  0
 11 19  1  0  0  0
 12 13  4  0  0  0
 13 14  1  0  0  0
 14 15  1  0  0  0
 15 16  1  0  0  0
 16 17  1  0  0  0
 16 18  2  0  0  0
 19 20  4  0  0  0
 19 24  4  0  0  0
 20 21  4  0  0  0
 21 22  4  0  0  0
 21 30  1  0  0  0
 22 23  4  0  0  0
 22 27  4  0  0  0
 23 24  4  0  0  0
 23 25  4  0  0  0
 25 26  4  0  0  0
 25 28  1  0  0  0
 26 27  4  0  0  0
 28 29  3  0  0  0
 30 31  1  0  0  0
 31 32  1  0  0  0
 31 33  1  0  0  0
 32 33  1  0  0  0
  1 34  1  0  0  0
  1 35  1  0  0  0
  1 36  1  0  0  0
  4 37  1  0  0  0
  6 38  1  0  0  0
  7 39  1  0  0  0
 10 40  1  0  0  0
 12 41  1  0  0  0
 14 42  1  0  0  0
 14 43  1  0  0  0
 15 44  1  0  0  0
 15 45  1  0  0  0
 17 46  1  0  0  0
 20 47  1  0  0  0
 26 48  1  0  0  0
 30 49  1  0  0  0
 31 50  1  0  0  0
 32 51  1  0  0  0
 32 52  1  0  0  0
 33 53  1  0  0  0
 33 54  1  0  0  0
M  END
$$$$
