3nyx_ligand
  -I-interpret- 

 34 37  0  0  0  0  0  0  0  0999 V2000
    6.7130   15.5810   22.2950 C   0  0  0  0  0
    8.4000   14.1770   21.4400 N   0  0  0  0  0
    7.2520    4.8380   22.4700 O   0  0  0  0  0
    5.8220   10.5790   21.9590 S   0  0  0  0  0
    4.8480   17.3300   23.2130 Cl  0  0  0  0  0
    7.1620   14.3140   21.9550 C   0  0  0  0  0
    7.4660    7.8470   19.5990 N   0  0  0  0  0
    6.7320    7.6540   22.0800 S   0  0  0  0  0
    6.3300   13.2010   22.1230 C   0  0  0  0  0
    6.9340    9.1140   19.9450 N   0  0  0  0  0
    8.1610    2.1420   21.9830 S   0  0  0  0  0
    5.0410   13.3360   22.6410 C   0  0  0  0  0
    7.8840    5.7220   20.5000 N   0  0  0  0  0
    4.5820   14.6020   22.9850 C   0  0  0  0  0
    5.4230   15.7060   22.7930 C   0  0  0  0  0
    8.8840   12.9750   21.0920 C   0  0  0  0  0
    8.0970   11.8330   21.2380 C   0  0  0  0  0
    6.8070   11.9430   21.7620 C   0  0  0  0  0
    6.5210    9.1490   21.2410 C   0  0  0  0  0
    7.4070    6.9840   20.6430 C   0  0  0  0  0
    7.7950    4.7380   21.3870 C   0  0  0  0  0
    8.3910    3.4650   21.0150 C   0  0  0  0  0
    9.0990    3.2510   19.9720 C   0  0  0  0  0
    9.4230    2.0040   19.9040 C   0  0  0  0  0
    9.0810    1.2200   20.9480 C   0  0  0  0  0
    7.3545   16.4540   22.1748 H   0  0  0  0  0
    4.4038   12.4616   22.7738 H   0  0  0  0  0
    8.3587    5.5076   19.6230 H   0  0  0  0  0
    3.5821   14.7341   23.3982 H   0  0  0  0  0
    9.8953   12.8908   20.6940 H   0  0  0  0  0
    8.4871   10.8585   20.9444 H   0  0  0  0  0
    9.3869    4.0114   19.2460 H   0  0  0  0  0
    9.9507    1.6006   19.0398 H   0  0  0  0  0
    9.3569    0.1748   21.0874 H   0  0  0  0  0
  6  1  4  0  0  0
  1 15  4  0  0  0
  6  2  4  0  0  0
 16  2  4  0  0  0
 21  3  2  0  0  0
  4 18  1  0  0  0
 19  4  1  0  0  0
 15  5  1  0  0  0
  9  6  4  0  0  0
  7 10  4  0  0  0
 20  7  4  0  0  0
  8 19  4  0  0  0
 20  8  4  0  0  0
  9 12  4  0  0  0
 18  9  4  0  0  0
 19 10  4  0  0  0
 22 11  4  0  0  0
 11 25  4  0  0  0
 12 14  4  0  0  0
 13 20  1  0  0  0
 21 13  1  0  0  0
 14 15  4  0  0  0
 17 16  4  0  0  0
 18 17  4  0  0  0
 21 22  1  0  0  0
 22 23  4  0  0  0
 23 24  4  0  0  0
 24 25  4  0  0  0
  1 26  1  0  0  0
 12 27  1  0  0  0
 13 28  1  0  0  0
 14 29  1  0  0  0
 16 30  1  0  0  0
 17 31  1  0  0  0
 23 32  1  0  0  0
 24 33  1  0  0  0
 25 34  1  0  0  0
M  END
$$$$
