### 
### Created by X-TOOL on Mon Sep 10 21:12:50 2018
### 

@<TRIPOS>MOLECULE
1q6p_ligand
   72    77     1     0     0
SMALL
GAST_HUCK


@<TRIPOS>ATOM
      1 C1         37.4060   50.4060   55.8290 C.ar      1 213        -0.0340
      2 C2         38.7260   50.1500   55.4080 C.ar      1 213        -0.0323
      3 C3         39.0160   48.9640   54.6800 C.ar      1 213        -0.0362
      4 C4         37.9810   48.0280   54.3760 C.ar      1 213        -0.0099
      5 C5         36.6550   48.3200   54.8300 C.ar      1 213        -0.0362
      6 C6         36.3660   49.4930   55.5420 C.ar      1 213        -0.0323
      7 C10        36.8940   47.2430   50.2410 C.ar      1 213        -0.0289
      8 C11        37.6780   47.8780   51.1530 C.ar      1 213        -0.0160
      9 C12        37.4300   49.4520   51.3520 C.ar      1 213        -0.0289
     10 C13        36.4610   50.0490   50.5990 C.ar      1 213        -0.0385
     11 C14        35.6790   49.3390   49.6630 C.ar      1 213         0.0219
     12 C15        35.9030   47.9350   49.4930 C.ar      1 213        -0.0385
     13 C20        38.0700   43.5870   52.6790 C.ar      1 213        -0.0299
     14 C21        37.0200   44.4470   52.5880 C.ar      1 213        -0.0142
     15 C22        35.9070   44.1890   51.7500 C.ar      1 213        -0.0299
     16 C23        35.9220   42.9790   50.9950 C.ar      1 213        -0.0286
     17 C24        36.9920   42.0680   51.0670 C.ar      1 213         0.0192
     18 C25        38.0550   42.3920   51.9180 C.ar      1 213        -0.0286
     19 C30        38.3550   46.6760   53.5210 C.3       1 213         0.1165
     20 N31        39.5090   45.9670   54.1900 N.pl3     1 213        -0.1782
     21 C32        37.0120   45.8140   53.4150 C.3       1 213         0.0115
     22 C35        38.8370   47.1500   52.0620 C.3       1 213         0.0107
     23 C40        40.6250   44.6940   58.0490 C.ar      1 213        -0.0707
     24 C41        41.3860   44.5120   56.8590 C.ar      1 213        -0.0506
     25 C42        40.9040   44.9820   55.6630 C.ar      1 213         0.0753
     26 C43        39.6180   45.6530   55.5750 C.ar      1 213         0.1061
     27 C44        38.8710   45.8350   56.7580 C.ar      1 213        -0.0323
     28 C45        39.3660   45.3530   57.9980 C.ar      1 213        -0.0695
     29 N46        41.3480   44.9830   54.3780 N.2       1 213        -0.2001
     30 N47        40.5790   45.5490   53.4430 N.2       1 213        -0.0825
     31 C52        34.6600   49.9300   48.8660 C.3       1 213         0.2931
     32 F53        34.0550   50.9200   49.4420 F         1 213        -0.2419
     33 F54        33.6700   48.9710   48.6000 F         1 213        -0.2419
     34 P55        35.0940   50.4810   47.1570 P.3       1 213         0.0966
     35 O56        36.1070   51.5540   47.2720 O.co2     1 213        -0.5668
     36 O57        33.8580   51.0280   46.5320 O.co2     1 213        -0.5668
     37 O58        35.5520   49.1990   46.4150 O.co2     1 213        -0.5668
     38 C61        36.8620   40.7680   50.1810 C.ar      1 213         0.0223
     39 C62        37.1780   39.5420   50.8470 C.ar      1 213        -0.0117
     40 C63        37.0850   38.2910   50.1580 C.ar      1 213         0.0362
     41 C64        36.6770   38.2640   48.8110 C.ar      1 213        -0.0233
     42 C65        36.3630   39.4720   48.1480 C.ar      1 213        -0.0369
     43 C66        36.4590   40.6970   48.8330 C.ar      1 213        -0.0276
     44 P71        37.4680   36.6880   50.9560 P.3       1 213        -0.0293
     45 O72        38.4650   35.9520   50.0670 O.co2     1 213        -0.6809
     46 O73        36.2460   35.8890   51.0900 O.co2     1 213        -0.6809
     47 O74        38.1670   36.9430   52.2970 O.co2     1 213        -0.6809
     48 H1         37.1856   51.3136   56.3793 H         1 213         0.0856
     49 H2         39.5171   50.8545   55.6383 H         1 213         0.0698
     50 H3         40.0308   48.7685   54.3530 H         1 213         0.0851
     51 H4         35.8562   47.6184   54.6185 H         1 213         0.0851
     52 H5         35.3532   49.6978   55.8696 H         1 213         0.0698
     53 H6         37.0286   46.1795   50.0800 H         1 213         0.0652
     54 H7         38.0150   50.0235   52.0635 H         1 213         0.0652
     55 H8         36.2849   51.1112   50.7249 H         1 213         0.0835
     56 H9         35.3023   47.3865   48.7765 H         1 213         0.0835
     57 H10        38.9091   43.8135   53.3268 H         1 213         0.0675
     58 H11        35.0772   44.8835   51.6853 H         1 213         0.0675
     59 H12        35.0834   42.7543   50.3459 H         1 213         0.0750
     60 H13        38.8921   41.7079   51.9972 H         1 213         0.0750
     61 H14        36.7094   45.5648   54.4428 H         1 213         0.0457
     62 H15        36.2510   46.4619   52.9555 H         1 213         0.0457
     63 H16        39.6669   47.8605   52.1905 H         1 213         0.0439
     64 H17        39.1937   46.2644   51.5156 H         1 213         0.0439
     65 H18        41.0065   44.3293   58.9959 H         1 213         0.0540
     66 H19        42.3428   44.0039   56.8978 H         1 213         0.0596
     67 H20        37.9152   46.3450   56.7198 H         1 213         0.0566
     68 H21        38.7857   45.4870   58.9038 H         1 213         0.0580
     69 H22        37.4912   39.5607   51.8846 H         1 213         0.0790
     70 H23        36.6039   37.3196   48.2839 H         1 213         0.0827
     71 H24        36.0480   39.4546   47.1109 H         1 213         0.0689
     72 H25        36.2156   41.6136   48.3079 H         1 213         0.0769
@<TRIPOS>BOND
     1    2    1 ar 
     2    6    1 ar 
     3    3    2 ar 
     4    4    3 ar 
     5    4    5 ar 
     6   19    4 1  
     7    5    6 ar 
     8    8    7 ar 
     9    7   12 ar 
    10    8    9 ar 
    11   22    8 1  
    12    9   10 ar 
    13   10   11 ar 
    14   12   11 ar 
    15   11   31 1  
    16   14   13 ar 
    17   13   18 ar 
    18   14   15 ar 
    19   21   14 1  
    20   15   16 ar 
    21   16   17 ar 
    22   18   17 ar 
    23   17   38 1  
    24   20   19 1  
    25   19   21 1  
    26   19   22 1  
    27   26   20 1  
    28   20   30 1  
    29   24   23 ar 
    30   23   28 ar 
    31   25   24 ar 
    32   25   26 ar 
    33   25   29 1  
    34   26   27 ar 
    35   27   28 ar 
    36   29   30 2  
    37   31   32 1  
    38   31   33 1  
    39   31   34 1  
    40   34   35 ar 
    41   34   36 ar 
    42   34   37 ar 
    43   38   39 ar 
    44   38   43 ar 
    45   39   40 ar 
    46   40   41 ar 
    47   40   44 1  
    48   41   42 ar 
    49   42   43 ar 
    50   44   45 ar 
    51   44   46 ar 
    52   44   47 ar 
    53    1   48 1  
    54    2   49 1  
    55    3   50 1  
    56    5   51 1  
    57    6   52 1  
    58    7   53 1  
    59    9   54 1  
    60   10   55 1  
    61   12   56 1  
    62   13   57 1  
    63   15   58 1  
    64   16   59 1  
    65   18   60 1  
    66   21   61 1  
    67   21   62 1  
    68   22   63 1  
    69   22   64 1  
    70   23   65 1  
    71   24   66 1  
    72   27   67 1  
    73   28   68 1  
    74   39   69 1  
    75   41   70 1  
    76   42   71 1  
    77   43   72 1  
@<TRIPOS>SUBSTRUCTURE
     1 213         1

