3hqz_ligand
  -I-interpret- 

 46 50  0  0  0  0  0  0  0  0999 V2000
   12.4910   18.4590   43.1850 C   0  0  0  0  0
   14.1330   16.7540   47.1670 C   0  0  0  0  0
   11.1530   16.2240   42.1140 C   0  0  0  0  0
    9.6420   18.5580   38.2220 C   0  0  0  0  0
   11.7410   16.1760   43.3920 C   0  0  0  0  0
   11.2260   17.4100   41.3740 C   0  0  0  0  0
   10.7240   18.6460   39.2810 C   0  0  0  0  0
    7.5620   15.9460   36.7660 C   0  0  0  0  0
    6.0990   16.9220   35.1120 C   0  0  0  0  0
    6.5670   15.8080   35.8040 C   0  0  0  0  0
    8.1110   17.2100   37.0140 C   0  0  0  0  0
    9.0980   17.3460   37.9460 N   0  0  0  0  0
    6.6490   18.1860   35.3570 C   0  0  0  0  0
    7.6500   18.3350   36.3140 C   0  0  0  0  0
    8.2020   19.5970   36.5870 C   0  0  0  0  0
    9.2080   19.7040   37.5530 C   0  0  0  0  0
   10.6520   17.4780   40.1210 O   0  0  0  0  0
   11.8980   18.5180   41.9170 C   0  0  0  0  0
   12.4110   17.2880   43.9340 C   0  0  0  0  0
   13.0490   17.2210   45.2890 C   0  0  0  0  0
   13.8360   16.2590   45.9090 C   0  0  0  0  0
   13.5460   17.9760   47.2840 N   0  0  0  0  0
   12.8600   18.2710   46.0990 N   0  0  0  0  0
   14.2750   14.9530   45.3350 C   0  0  0  0  0
   14.5610   14.8480   43.9700 C   0  0  0  0  0
   14.9620   13.6200   43.4520 C   0  0  0  0  0
   15.0790   12.5580   44.2660 N   0  0  0  0  0
   14.8090   12.6220   45.5910 C   0  0  0  0  0
   14.3960   13.8330   46.1560 C   0  0  0  0  0
   13.0139   19.3280   43.5843 H   0  0  0  0  0
   14.7310   16.2537   47.9287 H   0  0  0  0  0
   10.6473   15.3489   41.7058 H   0  0  0  0  0
   11.6758   15.2570   43.9745 H   0  0  0  0  0
   10.5774   19.5424   39.8835 H   0  0  0  0  0
   11.7028   18.6966   38.8040 H   0  0  0  0  0
    7.9118   15.0766   37.3227 H   0  0  0  0  0
    5.3018   16.8096   34.3771 H   0  0  0  0  0
    6.1516   14.8231   35.5908 H   0  0  0  0  0
    6.2942   19.0527   34.7993 H   0  0  0  0  0
    7.8515   20.4807   36.0537 H   0  0  0  0  0
    9.6494   20.6741   37.7816 H   0  0  0  0  0
   11.9592   19.4412   41.3407 H   0  0  0  0  0
   14.4709   15.7179   43.3194 H   0  0  0  0  0
   15.1805   13.5204   42.3888 H   0  0  0  0  0
   14.9130   11.7340   46.2146 H   0  0  0  0  0
   14.1725   13.8998   47.2207 H   0  0  0  0  0
  1 18  4  0  0  0
 19  1  4  0  0  0
 21  2  4  0  0  0
  2 22  4  0  0  0
  5  3  4  0  0  0
  3  6  4  0  0  0
  7  4  1  0  0  0
  4 12  4  0  0  0
  4 16  4  0  0  0
 19  5  4  0  0  0
  6 17  1  0  0  0
 18  6  4  0  0  0
 17  7  1  0  0  0
  8 10  4  0  0  0
 11  8  4  0  0  0
 10  9  4  0  0  0
 13  9  4  0  0  0
 12 11  4  0  0  0
 11 14  4  0  0  0
 14 13  4  0  0  0
 15 14  4  0  0  0
 16 15  4  0  0  0
 20 19  1  0  0  0
 20 21  4  0  0  0
 20 23  4  0  0  0
 21 24  1  0  0  0
 22 23  4  0  0  0
 24 25  4  0  0  0
 24 29  4  0  0  0
 25 26  4  0  0  0
 26 27  4  0  0  0
 27 28  4  0  0  0
 28 29  4  0  0  0
  1 30  1  0  0  0
  2 31  1  0  0  0
  3 32  1  0  0  0
  5 33  1  0  0  0
  7 34  1  0  0  0
  7 35  1  0  0  0
  8 36  1  0  0  0
  9 37  1  0  0  0
 10 38  1  0  0  0
 13 39  1  0  0  0
 15 40  1  0  0  0
 16 41  1  0  0  0
 18 42  1  0  0  0
 25 43  1  0  0  0
 26 44  1  0  0  0
 28 45  1  0  0  0
 29 46  1  0  0  0
M  END
$$$$
