6f1w_ligand
  -I-interpret- 

 81 87  0  0  0  0  0  0  0  0999 V2000
  -14.2040  -34.0230  -16.8580 C   0  0  0  0  0
  -15.4440  -32.2560  -15.8130 C   0  0  0  0  0
  -16.4390  -31.2400  -16.2840 C   0  0  0  0  0
  -16.1810  -31.2600  -17.7620 C   0  0  0  0  0
  -15.8910  -32.7100  -18.1200 C   0  0  0  0  0
  -14.9250  -32.8140  -19.2720 C   0  0  0  0  0
  -13.8870  -34.5830  -18.1750 C   0  0  0  0  0
  -13.1330  -35.7670  -18.4500 C   0  0  0  0  0
  -13.0930  -35.8330  -19.8090 C   0  0  0  0  0
  -13.7640  -34.7470  -20.3180 C   0  0  0  0  0
  -13.9010  -34.4460  -21.7800 C   0  0  0  0  0
  -12.9260  -34.8430  -23.9250 C   0  0  0  0  0
  -11.7560  -35.2790  -25.7990 C   0  0  0  0  0
  -12.4600  -34.3540  -26.5300 C   0  0  0  0  0
  -13.4530  -33.6850  -25.9290 C   0  0  0  0  0
  -13.6830  -33.9390  -24.6010 C   0  0  0  0  0
  -14.2510  -32.6850  -26.6670 C   0  0  0  0  0
  -14.7830  -31.4490  -26.1280 C   0  0  0  0  0
  -14.6370  -32.6200  -27.9950 C   0  0  0  0  0
  -14.4830  -33.6200  -29.0630 C   0  0  0  0  0
  -14.0660  -33.2920  -30.3200 C   0  0  0  0  0
  -14.0100  -34.2320  -31.3000 C   0  0  0  0  0
  -14.3780  -35.5260  -31.0140 C   0  0  0  0  0
  -14.8160  -35.8700  -29.7630 C   0  0  0  0  0
  -14.8880  -34.9090  -28.8050 C   0  0  0  0  0
  -14.7370  -30.7810  -24.8160 C   0  0  0  0  0
  -14.6920  -29.2830  -24.9000 C   0  0  0  0  0
  -15.9410  -31.1500  -24.0140 C   0  0  0  0  0
  -12.6180  -36.7340  -17.4880 C   0  0  0  0  0
  -11.8720  -36.3720  -16.4120 C   0  0  0  0  0
  -11.4430  -37.3330  -15.5530 C   0  0  0  0  0
  -11.7710  -38.6390  -15.7630 C   0  0  0  0  0
  -12.0700  -40.7170  -14.7590 C   0  0  0  0  0
  -12.5570  -39.0280  -16.8040 C   0  0  0  0  0
  -12.9700  -38.0530  -17.6780 C   0  0  0  0  0
  -14.2840  -36.4110  -31.9440 F   0  0  0  0  0
  -15.3950  -33.2510  -16.8730 N   0  3  0  0  0
  -14.2100  -34.0370  -19.2950 N   0  0  0  0  0
  -13.0970  -35.1030  -22.6270 N   0  0  0  0  0
  -11.9780  -35.4570  -24.5570 N   0  0  0  0  0
  -15.3550  -31.5160  -28.2050 N   0  0  0  0  0
  -17.7380  -31.7120  -16.0440 O   0  0  0  0  0
  -17.2630  -30.7260  -18.4350 O   0  0  0  0  0
  -14.6720  -33.5950  -22.0520 O   0  0  0  0  0
  -15.3940  -30.8590  -27.1130 O   0  0  0  0  0
  -11.3520  -39.5320  -14.8860 O   0  0  0  0  0
  -13.3824  -33.3712  -16.5612 H   0  0  0  0  0
  -14.3468  -34.8513  -16.1640 H   0  0  0  0  0
  -15.7347  -32.6951  -14.8587 H   0  0  0  0  0
  -14.4661  -31.8105  -15.6304 H   0  0  0  0  0
  -16.3536  -30.2626  -15.8091 H   0  0  0  0  0
  -15.3303  -30.6444  -18.0542 H   0  0  0  0  0
  -16.7555  -33.2660  -18.4826 H   0  0  0  0  0
  -14.1977  -32.0091  -19.1658 H   0  0  0  0  0
  -15.5037  -32.7533  -20.1937 H   0  0  0  0  0
  -12.6102  -36.6152  -20.3947 H   0  0  0  0  0
  -10.9889  -35.8753  -26.2931 H   0  0  0  0  0
  -12.2163  -34.1682  -27.5760 H   0  0  0  0  0
  -14.4820  -33.4098  -24.0818 H   0  0  0  0  0
  -13.7747  -32.2651  -30.5406 H   0  0  0  0  0
  -13.6768  -33.9631  -32.3024 H   0  0  0  0  0
  -15.1022  -36.8977  -29.5394 H   0  0  0  0  0
  -15.2725  -35.1634  -27.8173 H   0  0  0  0  0
  -13.8133  -31.1210  -24.3477 H   0  0  0  0  0
  -13.8021  -28.9778  -25.4505 H   0  0  0  0  0
  -15.5817  -28.9224  -25.4163 H   0  0  0  0  0
  -14.6597  -28.8648  -23.8939 H   0  0  0  0  0
  -16.8398  -30.8373  -24.5455 H   0  0  0  0  0
  -15.9613  -32.2299  -23.8673 H   0  0  0  0  0
  -15.8979  -30.6512  -23.0458 H   0  0  0  0  0
  -11.6212  -35.3252  -16.2403 H   0  0  0  0  0
  -10.8337  -37.0583  -14.6919 H   0  0  0  0  0
  -13.0940  -40.4899  -14.4624 H   0  0  0  0  0
  -12.0750  -41.2415  -15.7145 H   0  0  0  0  0
  -11.6015  -41.3447  -14.0010 H   0  0  0  0  0
  -12.8465  -40.0702  -16.9382 H   0  0  0  0  0
  -13.5856  -38.3262  -18.5351 H   0  0  0  0  0
  -16.0669  -33.9975  -16.6950 H   0  0  0  0  0
  -12.5615  -35.8805  -22.2408 H   0  0  0  0  0
  -17.9114  -31.7025  -15.0998 H   0  0  0  0  0
  -17.3890  -29.8139  -18.1633 H   0  0  0  0  0
  7  1  1  0  0  0
  1 37  1  0  0  0
  2  3  1  0  0  0
 37  2  1  0  0  0
  4  3  1  0  0  0
  3 42  1  0  0  0
  5  4  1  0  0  0
  4 43  1  0  0  0
  6  5  1  0  0  0
  5 37  1  0  0  0
 38  6  1  0  0  0
  7  8  4  0  0  0
 38  7  4  0  0  0
  9  8  4  0  0  0
  8 29  1  0  0  0
 10  9  4  0  0  0
 11 10  1  0  0  0
 10 38  4  0  0  0
 39 11  1  0  0  0
 11 44  2  0  0  0
 12 16  4  0  0  0
 12 39  1  0  0  0
 40 12  4  0  0  0
 13 14  4  0  0  0
 13 40  4  0  0  0
 14 15  4  0  0  0
 15 16  4  0  0  0
 15 17  1  0  0  0
 17 18  4  0  0  0
 17 19  4  0  0  0
 18 26  1  0  0  0
 18 45  4  0  0  0
 19 20  1  0  0  0
 19 41  4  0  0  0
 20 21  4  0  0  0
 20 25  4  0  0  0
 21 22  4  0  0  0
 22 23  4  0  0  0
 23 24  4  0  0  0
 23 36  1  0  0  0
 24 25  4  0  0  0
 26 27  1  0  0  0
 26 28  1  0  0  0
 29 30  4  0  0  0
 29 35  4  0  0  0
 30 31  4  0  0  0
 31 32  4  0  0  0
 32 34  4  0  0  0
 32 46  1  0  0  0
 46 33  1  0  0  0
 34 35  4  0  0  0
 41 45  4  0  0  0
  1 47  1  0  0  0
  1 48  1  0  0  0
  2 49  1  0  0  0
  2 50  1  0  0  0
  3 51  1  0  0  0
  4 52  1  0  0  0
  5 53  1  0  0  0
  6 54  1  0  0  0
  6 55  1  0  0  0
  9 56  1  0  0  0
 13 57  1  0  0  0
 14 58  1  0  0  0
 16 59  1  0  0  0
 21 60  1  0  0  0
 22 61  1  0  0  0
 24 62  1  0  0  0
 25 63  1  0  0  0
 26 64  1  0  0  0
 27 65  1  0  0  0
 27 66  1  0  0  0
 27 67  1  0  0  0
 28 68  1  0  0  0
 28 69  1  0  0  0
 28 70  1  0  0  0
 30 71  1  0  0  0
 31 72  1  0  0  0
 33 73  1  0  0  0
 33 74  1  0  0  0
 33 75  1  0  0  0
 34 76  1  0  0  0
 35 77  1  0  0  0
 37 78  1  0  0  0
 39 79  1  0  0  0
 42 80  1  0  0  0
 43 81  1  0  0  0
M  END
$$$$
