2qdt_ligand
  -I-interpret- 

 22 21  0  0  0  0  0  0  0  0999 V2000
   12.9820   31.5080   31.6640 S   0  0  0  0  0
   13.5230   30.4940   30.4480 C   0  0  0  0  0
   12.5450   29.3450   30.2370 C   0  0  0  0  0
   12.4230   28.4640   31.4650 C   0  0  0  0  0
   12.9710   27.4010   31.4110 O   0  0  0  0  0
   11.7410   28.8910   32.5400 N   0  0  0  0  0
   11.4840   28.1320   33.7660 C   0  0  0  0  0
    9.9690   28.0440   33.9450 C   0  0  0  0  0
   12.1340   28.7300   35.0060 C   0  0  0  0  0
   12.5230   29.9380   34.9390 O   0  0  0  0  0
   12.2670   28.0220   36.0600 O   0  0  0  0  0
   13.8505   32.5016   31.8297 H   0  0  0  0  0
   14.4928   30.0859   30.7325 H   0  0  0  0  0
   13.6053   31.0636   29.5223 H   0  0  0  0  0
   12.9144   28.7318   29.4150 H   0  0  0  0  0
   11.5636   29.7695   30.0253 H   0  0  0  0  0
   11.3645   29.8381   32.4987 H   0  0  0  0  0
   11.9338   27.1452   33.6566 H   0  0  0  0  0
    9.7420   27.4124   34.8039 H   0  0  0  0  0
    9.5653   29.0429   34.1102 H   0  0  0  0  0
    9.5228   27.6141   33.0482 H   0  0  0  0  0
   11.9109   27.1446   35.9018 H   0  0  0  0  0
  1  2  1  0  0  0
  2  3  1  0  0  0
  3  4  1  0  0  0
  4  5  2  0  0  0
  4  6  1  0  0  0
  6  7  1  0  0  0
  7  8  1  0  0  0
  7  9  1  0  0  0
  9 10  2  0  0  0
  9 11  1  0  0  0
  1 12  1  0  0  0
  2 13  1  0  0  0
  2 14  1  0  0  0
  3 15  1  0  0  0
  3 16  1  0  0  0
  6 17  1  0  0  0
  7 18  1  0  0  0
  8 19  1  0  0  0
  8 20  1  0  0  0
  8 21  1  0  0  0
 11 22  1  0  0  0
M  END
$$$$
