5ujv_ligand
  -I-interpret- 

 41 41  0  0  0  0  0  0  0  0999 V2000
  -20.6910  148.4300    1.1210 C   0  0  0  0  0
  -21.6060  147.9640    2.2530 C   0  0  0  0  0
  -23.1180  148.0950    2.2620 C   0  0  0  0  0
  -23.8860  148.7220    1.1100 C   0  0  0  0  0
  -25.2870  148.8310    1.1500 C   0  0  0  0  0
  -23.8740  147.5820    3.4560 C   0  0  0  0  0
  -26.0670  149.4760   -0.0390 C   0  0  0  0  0
  -25.1450  149.8380   -1.0330 O   0  0  0  0  0
  -27.0150  148.4220   -0.6220 C   0  0  0  0  0
  -28.3780  148.3640   -0.2330 C   0  0  0  0  0
  -28.9030  149.3890    0.7760 C   0  0  0  0  0
  -30.0590  149.3620    1.1200 O   0  0  0  0  0
  -27.9740  150.4370    1.3510 C   0  0  0  0  0
  -19.4680  148.6300    1.3690 O   0  0  0  0  0
  -26.8080  150.7660    0.4330 C   0  0  0  0  0
  -21.1160  148.5980   -0.0500 O   0  0  0  0  0
  -26.4840  147.4200   -1.6140 C   0  0  0  0  0
  -25.8470  151.6460    1.2200 C   0  0  0  0  0
  -27.2410  151.5860   -0.7810 C   0  0  0  0  0
  -21.3117  148.6185    3.0734 H   0  0  0  0  0
  -21.4670  146.8831    2.2334 H   0  0  0  0  0
  -22.7562  148.5513    1.3406 H   0  0  0  0  0
  -23.3428  149.0924    0.2406 H   0  0  0  0  0
  -25.8333  148.4622    2.0182 H   0  0  0  0  0
  -24.4281  148.4017    3.9132 H   0  0  0  0  0
  -24.5689  146.8048    3.1380 H   0  0  0  0  0
  -23.1711  147.1688    4.1794 H   0  0  0  0  0
  -24.5426  150.4988   -0.6837 H   0  0  0  0  0
  -29.0402  147.6027   -0.6454 H   0  0  0  0  0
  -27.5635  150.0425    2.2805 H   0  0  0  0  0
  -28.5518  151.3502    1.4938 H   0  0  0  0  0
  -19.2995  148.4614    2.2989 H   0  0  0  0  0
  -26.6073  146.4138   -1.2135 H   0  0  0  0  0
  -27.0354  147.5100   -2.5499 H   0  0  0  0  0
  -25.4265  147.6139   -1.7937 H   0  0  0  0  0
  -25.4828  151.0976    2.0888 H   0  0  0  0  0
  -25.0058  151.9222    0.5843 H   0  0  0  0  0
  -26.3667  152.5461    1.5485 H   0  0  0  0  0
  -26.3617  151.8660   -1.3611 H   0  0  0  0  0
  -27.9116  150.9900   -1.4000 H   0  0  0  0  0
  -27.7576  152.4851   -0.4450 H   0  0  0  0  0
  1  2  1  0  0  0
  1 14  1  0  0  0
  1 16  2  0  0  0
  2  3  1  0  0  0
  3  4  1  0  0  0
  3  6  1  0  0  0
  4  5  2  0  0  0
  5  7  1  0  0  0
  7  8  1  0  0  0
  7  9  1  0  0  0
  7 15  1  0  0  0
  9 10  2  0  0  0
  9 17  1  0  0  0
 10 11  1  0  0  0
 11 12  2  0  0  0
 11 13  1  0  0  0
 13 15  1  0  0  0
 15 18  1  0  0  0
 15 19  1  0  0  0
  2 20  1  0  0  0
  2 21  1  0  0  0
  3 22  1  0  0  0
  4 23  1  0  0  0
  5 24  1  0  0  0
  6 25  1  0  0  0
  6 26  1  0  0  0
  6 27  1  0  0  0
  8 28  1  0  0  0
 10 29  1  0  0  0
 13 30  1  0  0  0
 13 31  1  0  0  0
 14 32  1  0  0  0
 17 33  1  0  0  0
 17 34  1  0  0  0
 17 35  1  0  0  0
 18 36  1  0  0  0
 18 37  1  0  0  0
 18 38  1  0  0  0
 19 39  1  0  0  0
 19 40  1  0  0  0
 19 41  1  0  0  0
M  END
$$$$
