5t8e_ligand
  -I-interpret- 

 32 33  0  0  0  0  0  0  0  0999 V2000
   28.8940   -0.3170    3.5550 C   0  0  0  0  0
   27.5090   -0.9340    3.2740 C   0  0  0  0  0
   26.6140    0.3120    3.2090 C   0  0  0  0  0
   26.6520    2.4860    4.2410 C   0  0  0  0  0
   25.7560    5.1260    4.1250 C   0  0  0  0  0
   29.1250    0.9990    5.7620 C   0  0  0  0  0
   28.6110    1.0100    4.3190 C   0  0  0  0  0
   29.6900   -1.2430    4.3010 O   0  0  0  0  0
   27.1220    1.1670    4.3170 N   0  0  0  0  0
   27.5530    3.5410    4.0310 C   0  0  0  0  0
   27.1220    4.8470    3.9700 C   0  0  0  0  0
   25.3030    6.4840    4.0520 C   0  0  0  0  0
   25.0360    7.5900    3.9820 N   0  0  0  0  0
   24.8390    4.0750    4.3340 C   0  0  0  0  0
   23.1400    4.3970    4.5220 Cl  0  0  0  0  0
   25.2820    2.7690    4.3960 C   0  0  0  0  0
   24.2580    1.6860    4.6370 C   0  0  0  0  0
   29.4646   -0.1045    2.6509 H   0  0  0  0  0
   27.1946   -1.6533    4.0302 H   0  0  0  0  0
   27.4798   -1.5353    2.3653 H   0  0  0  0  0
   25.5566    0.0716    3.3195 H   0  0  0  0  0
   26.6642    0.8109    2.2412 H   0  0  0  0  0
   28.8586    1.9374    6.2484 H   0  0  0  0  0
   28.6719    0.1672    6.3014 H   0  0  0  0  0
   30.2090    0.8846    5.7594 H   0  0  0  0  0
   29.1313    1.8326    3.8284 H   0  0  0  0  0
   29.8289   -2.0367    3.7792 H   0  0  0  0  0
   28.6144    3.3223    3.9139 H   0  0  0  0  0
   27.8341    5.6552    3.8031 H   0  0  0  0  0
   24.2672    0.9866    3.8011 H   0  0  0  0  0
   24.5011    1.1564    5.5582 H   0  0  0  0  0
   23.2691    2.1359    4.7251 H   0  0  0  0  0
  1  2  1  0  0  0
  7  1  1  0  0  0
  1  8  1  0  0  0
  3  2  1  0  0  0
  9  3  1  0  0  0
  4  9  1  0  0  0
 10  4  4  0  0  0
  4 16  4  0  0  0
 11  5  4  0  0  0
  5 12  1  0  0  0
  5 14  4  0  0  0
  7  6  1  0  0  0
  9  7  1  0  0  0
 10 11  4  0  0  0
 12 13  3  0  0  0
 14 15  1  0  0  0
 14 16  4  0  0  0
 16 17  1  0  0  0
  1 18  1  0  0  0
  2 19  1  0  0  0
  2 20  1  0  0  0
  3 21  1  0  0  0
  3 22  1  0  0  0
  6 23  1  0  0  0
  6 24  1  0  0  0
  6 25  1  0  0  0
  7 26  1  0  0  0
  8 27  1  0  0  0
 10 28  1  0  0  0
 11 29  1  0  0  0
 17 30  1  0  0  0
 17 31  1  0  0  0
 17 32  1  0  0  0
M  END
$$$$
