### 
### Created by X-TOOL on Mon Sep 10 21:12:44 2018
### 

@<TRIPOS>MOLECULE
6gpb_ligand
   30    30     1     0     0
SMALL
GAST_HUCK


@<TRIPOS>ATOM
      1 C1         33.4830   23.0080   27.8320 C.3       1 H2P         0.2244
      2 C2         33.6870   23.1710   26.3310 C.3       1 H2P         0.1410
      3 C3         32.4770   22.6150   25.5910 C.3       1 H2P         0.1147
      4 C4         32.3010   21.1400   25.9210 C.3       1 H2P         0.1119
      5 C5         32.1120   20.9690   27.4240 C.3       1 H2P         0.1135
      6 C6         32.0400   19.4930   27.7900 C.3       1 H2P         0.0730
      7 C7         34.7000   23.4750   28.6160 C.3       1 H2P        -0.0035
      8 O1         32.3220   23.8330   28.1980 O.3       1 H2P        -0.2396
      9 O2         33.8550   24.5900   26.0030 O.3       1 H2P        -0.3835
     10 O3         32.6690   22.7800   24.1440 O.3       1 H2P        -0.3864
     11 O4         31.1290   20.6140   25.2110 O.3       1 H2P        -0.3865
     12 O5         33.2430   21.5870   28.1340 O.3       1 H2P        -0.3349
     13 O6         33.2810   18.8050   27.4050 O.3       1 H2P        -0.3924
     14 P          31.5120   25.0300   27.5030 P.3       1 H2P         0.2050
     15 OP1        30.3860   24.4830   26.5240 O.co2     1 H2P        -0.5536
     16 OP2        30.8240   25.8660   28.6770 O.co2     1 H2P        -0.5536
     17 OP3        32.5150   25.9480   26.6810 O.co2     1 H2P        -0.5536
     18 H1         34.5873   22.6185   26.0243 H         1 H2P         0.0677
     19 H2         31.5770   23.1652   25.9029 H         1 H2P         0.0648
     20 H3         33.1970   20.5869   25.6027 H         1 H2P         0.0647
     21 H4         31.1769   21.4623   27.7275 H         1 H2P         0.0647
     22 H5         31.1918   19.0307   27.2638 H         1 H2P         0.0584
     23 H6         31.8946   19.3962   28.8760 H         1 H2P         0.0584
     24 H7         34.5158   23.3423   29.6923 H         1 H2P         0.0285
     25 H8         34.8867   24.5382   28.4043 H         1 H2P         0.0285
     26 H9         35.5775   22.8822   28.3184 H         1 H2P         0.0285
     27 H10        33.0771   25.0686   26.2645 H         1 H2P         0.2101
     28 H11        32.7783   23.7021   23.9433 H         1 H2P         0.2100
     29 H12        30.3536   21.0884   25.4871 H         1 H2P         0.2100
     30 H13        34.0153   19.2006   27.8599 H         1 H2P         0.2095
@<TRIPOS>BOND
     1    1    2 1  
     2    1    7 1  
     3    1    8 1  
     4    1   12 1  
     5    2    3 1  
     6    2    9 1  
     7    3    4 1  
     8    3   10 1  
     9    4    5 1  
    10    4   11 1  
    11    5    6 1  
    12    5   12 1  
    13    6   13 1  
    14    8   14 1  
    15   14   15 ar 
    16   14   16 ar 
    17   14   17 ar 
    18    2   18 1  
    19    3   19 1  
    20    4   20 1  
    21    5   21 1  
    22    6   22 1  
    23    6   23 1  
    24    7   24 1  
    25    7   25 1  
    26    7   26 1  
    27    9   27 1  
    28   10   28 1  
    29   11   29 1  
    30   13   30 1  
@<TRIPOS>SUBSTRUCTURE
     1 H2P         1

