6gpb_ligand
  -I-interpret- 

 32 32  0  0  0  0  0  0  0  0999 V2000
   33.4830   23.0080   27.8320 C   0  0  0  0  0
   33.6870   23.1710   26.3310 C   0  0  0  0  0
   32.4770   22.6150   25.5910 C   0  0  0  0  0
   32.3010   21.1400   25.9210 C   0  0  0  0  0
   32.1120   20.9690   27.4240 C   0  0  0  0  0
   32.0400   19.4930   27.7900 C   0  0  0  0  0
   34.7000   23.4750   28.6160 C   0  0  0  0  0
   32.3220   23.8330   28.1980 O   0  0  0  0  0
   33.8550   24.5900   26.0030 O   0  0  0  0  0
   32.6690   22.7800   24.1440 O   0  0  0  0  0
   31.1290   20.6140   25.2110 O   0  0  0  0  0
   33.2430   21.5870   28.1340 O   0  0  0  0  0
   33.2810   18.8050   27.4050 O   0  0  0  0  0
   31.5120   25.0300   27.5030 P   0  0  0  0  0
   30.3860   24.4830   26.5240 O   0  0  0  0  0
   30.8240   25.8660   28.6770 O   0  0  0  0  0
   32.5150   25.9480   26.6810 O   0  0  0  0  0
   34.5810   22.6260   26.0280 H   0  0  0  0  0
   31.5845   23.1576   25.9025 H   0  0  0  0  0
   33.1888   20.5911   25.6070 H   0  0  0  0  0
   31.1789   21.4518   27.7143 H   0  0  0  0  0
   31.2037   19.0374   27.2597 H   0  0  0  0  0
   31.9047   19.4019   28.8677 H   0  0  0  0  0
   34.5138   23.3491   29.6826 H   0  0  0  0  0
   35.5674   22.8826   28.3249 H   0  0  0  0  0
   34.8878   24.5268   28.4004 H   0  0  0  0  0
   34.6180   24.9372   26.4707 H   0  0  0  0  0
   32.7795   23.7118   23.9412 H   0  0  0  0  0
   31.2531   20.7241   24.2654 H   0  0  0  0  0
   33.2181   17.8770   27.6428 H   0  0  0  0  0
   29.7774   23.9276   27.0167 H   0  0  0  0  0
   30.2221   25.2975   29.1629 H   0  0  0  0  0
  1  2  1  0  0  0
  1  7  1  0  0  0
  1  8  1  0  0  0
  1 12  1  0  0  0
  2  3  1  0  0  0
  2  9  1  0  0  0
  3  4  1  0  0  0
  3 10  1  0  0  0
  4  5  1  0  0  0
  4 11  1  0  0  0
  5  6  1  0  0  0
  5 12  1  0  0  0
  6 13  1  0  0  0
  8 14  1  0  0  0
 14 15  1  0  0  0
 14 16  1  0  0  0
 14 17  2  0  0  0
  2 18  1  0  0  0
  3 19  1  0  0  0
  4 20  1  0  0  0
  5 21  1  0  0  0
  6 22  1  0  0  0
  6 23  1  0  0  0
  7 24  1  0  0  0
  7 25  1  0  0  0
  7 26  1  0  0  0
  9 27  1  0  0  0
 10 28  1  0  0  0
 11 29  1  0  0  0
 13 30  1  0  0  0
 15 31  1  0  0  0
 16 32  1  0  0  0
M  END
$$$$
