3iop_ligand
  -I-interpret- 

 64 68  0  0  0  0  0  0  0  0999 V2000
  -35.0160  -22.1170    5.7780 C   0  0  0  0  0
  -34.4090  -29.3920    3.3120 N   0  0  0  0  0
  -33.6730  -22.3330    6.2130 O   0  0  0  0  0
  -32.9850  -23.4560    5.8080 C   0  0  0  0  0
  -30.6070  -26.6870    4.6760 N   0  0  0  0  0
  -31.0530  -22.2430    6.4380 O   0  0  0  0  0
  -33.5820  -24.6210    5.3010 C   0  0  0  0  0
  -32.2640  -30.3040    3.0920 N   0  0  0  0  0
  -39.7200  -26.6700    3.0140 O   0  0  0  0  0
  -32.8260  -25.7580    4.8960 C   0  0  0  0  0
  -38.5830  -30.2100    3.2000 N   0  0  0  0  0
  -33.3890  -26.9770    4.3650 C   0  0  0  0  0
  -40.9920  -24.2770    2.4590 N   0  3  0  0  0
  -34.7770  -27.1910    4.1740 C   0  0  0  0  0
  -35.2590  -28.3940    3.6530 C   0  0  0  0  0
  -33.0720  -29.2330    3.4730 C   0  0  0  0  0
  -32.5240  -28.0380    4.0020 C   0  0  0  0  0
  -31.1540  -27.8160    4.1840 C   0  0  0  0  0
  -31.4190  -25.6820    5.0250 C   0  0  0  0  0
  -30.8300  -24.5260    5.5340 C   0  0  0  0  0
  -31.5820  -23.4090    5.9290 C   0  0  0  0  0
  -29.6560  -22.1470    6.7090 C   0  0  0  0  0
  -36.6980  -28.6630    3.4470 C   0  0  0  0  0
  -37.6170  -27.6060    3.3140 C   0  0  0  0  0
  -38.9860  -27.8220    3.1250 C   0  0  0  0  0
  -39.4160  -29.1430    3.0800 C   0  0  0  0  0
  -37.2570  -29.9470    3.3840 C   0  0  0  0  0
  -41.1080  -26.7130    2.6620 C   0  0  0  0  0
  -41.7770  -25.3900    3.0760 C   0  0  0  0  0
  -41.8840  -25.1040    4.5960 C   0  0  0  0  0
  -41.3940  -26.2090    5.5040 C   0  0  0  0  0
  -40.0870  -26.1720    6.0300 C   0  0  0  0  0
  -39.6290  -27.2030    6.8550 C   0  0  0  0  0
  -40.4690  -28.2740    7.1710 C   0  0  0  0  0
  -41.7680  -28.3220    6.6560 C   0  0  0  0  0
  -42.2340  -27.2940    5.8270 C   0  0  0  0  0
  -35.0394  -22.0603    4.6897 H   0  0  0  0  0
  -35.6426  -22.9433    6.1136 H   0  0  0  0  0
  -35.3874  -21.1831    6.1998 H   0  0  0  0  0
  -34.6679  -24.6568    5.2138 H   0  0  0  0  0
  -32.6861  -31.1522    2.7141 H   0  0  0  0  0
  -31.2509  -30.2391    3.1912 H   0  0  0  0  0
  -41.4118  -23.3835    2.7156 H   0  0  0  0  0
  -40.0306  -24.3121    2.7978 H   0  0  0  0  0
  -41.0001  -24.3788    1.4441 H   0  0  0  0  0
  -35.4813  -26.4023    4.4386 H   0  0  0  0  0
  -30.4747  -28.6215    3.9052 H   0  0  0  0  0
  -29.7448  -24.4881    5.6288 H   0  0  0  0  0
  -29.3766  -22.9035    7.4423 H   0  0  0  0  0
  -29.0965  -22.3082    5.7875 H   0  0  0  0  0
  -29.4310  -21.1561    7.1035 H   0  0  0  0  0
  -37.2486  -26.5812    3.3599 H   0  0  0  0  0
  -40.4801  -29.3336    2.9408 H   0  0  0  0  0
  -36.5832  -30.7972    3.4897 H   0  0  0  0  0
  -41.5903  -27.5435    3.1775 H   0  0  0  0  0
  -41.2080  -26.8521    1.5855 H   0  0  0  0  0
  -42.8076  -25.4702    2.7302 H   0  0  0  0  0
  -42.9441  -24.9724    4.8126 H   0  0  0  0  0
  -41.2524  -24.2379    4.7934 H   0  0  0  0  0
  -39.4302  -25.3353    5.7922 H   0  0  0  0  0
  -38.6146  -27.1716    7.2527 H   0  0  0  0  0
  -40.1110  -29.0732    7.8200 H   0  0  0  0  0
  -42.4193  -29.1612    6.9002 H   0  0  0  0  0
  -43.2486  -27.3329    5.4306 H   0  0  0  0  0
  3  1  1  0  0  0
 15  2  4  0  0  0
  2 16  4  0  0  0
  4  3  1  0  0  0
  7  4  4  0  0  0
  4 21  4  0  0  0
 18  5  4  0  0  0
 19  5  4  0  0  0
 21  6  1  0  0  0
  6 22  1  0  0  0
 10  7  4  0  0  0
 16  8  1  0  0  0
  9 25  1  0  0  0
 28  9  1  0  0  0
 12 10  4  0  0  0
 10 19  4  0  0  0
 26 11  4  0  0  0
 11 27  4  0  0  0
 14 12  4  0  0  0
 12 17  4  0  0  0
 29 13  1  0  0  0
 15 14  4  0  0  0
 23 15  1  0  0  0
 16 17  4  0  0  0
 17 18  4  0  0  0
 19 20  4  0  0  0
 20 21  4  0  0  0
 24 23  4  0  0  0
 23 27  4  0  0  0
 25 24  4  0  0  0
 25 26  4  0  0  0
 28 29  1  0  0  0
 29 30  1  0  0  0
 30 31  1  0  0  0
 31 32  4  0  0  0
 31 36  4  0  0  0
 32 33  4  0  0  0
 33 34  4  0  0  0
 34 35  4  0  0  0
 35 36  4  0  0  0
  1 37  1  0  0  0
  1 38  1  0  0  0
  1 39  1  0  0  0
  7 40  1  0  0  0
  8 41  1  0  0  0
  8 42  1  0  0  0
 13 43  1  0  0  0
 13 44  1  0  0  0
 13 45  1  0  0  0
 14 46  1  0  0  0
 18 47  1  0  0  0
 20 48  1  0  0  0
 22 49  1  0  0  0
 22 50  1  0  0  0
 22 51  1  0  0  0
 24 52  1  0  0  0
 26 53  1  0  0  0
 27 54  1  0  0  0
 28 55  1  0  0  0
 28 56  1  0  0  0
 29 57  1  0  0  0
 30 58  1  0  0  0
 30 59  1  0  0  0
 32 60  1  0  0  0
 33 61  1  0  0  0
 34 62  1  0  0  0
 35 63  1  0  0  0
 36 64  1  0  0  0
M  END
$$$$
