2xyt_ligand
  -I-interpret- 

 87 93  0  0  0  0  0  0  0  0999 V2000
   37.1400  117.7530   52.1260 N   0  3  0  0  0
   36.8440  118.3230   50.8540 C   0  0  0  0  0
   37.9710  118.1530   49.8780 C   0  0  0  0  0
   38.8200  116.9350   50.1080 C   0  0  0  0  0
   38.5420  116.0150   51.1590 C   0  0  0  0  0
   37.3610  116.2610   52.0100 C   0  0  0  0  0
   39.9180  116.6730   49.2490 C   0  0  0  0  0
   40.7210  115.5200   49.4640 C   0  0  0  0  0
   40.4180  114.6170   50.5280 C   0  0  0  0  0
   39.3190  114.8520   51.3870 C   0  0  0  0  0
   41.2160  113.4540   50.6380 O   0  0  0  0  0
   41.1230  112.7220   51.8480 C   0  0  0  0  0
   42.2150  112.8570   52.7160 C   0  0  0  0  0
   42.2790  112.1030   53.8660 C   0  0  0  0  0
   41.2460  111.1790   54.1500 C   0  0  0  0  0
   40.1700  111.0120   53.2770 C   0  0  0  0  0
   40.0990  111.7890   52.1170 C   0  0  0  0  0
   39.0430  110.0090   53.6880 C   0  0  0  0  0
   38.8970  108.6740   52.8710 C   0  0  0  0  0
   39.6970  107.5350   53.3030 N   0  3  0  0  0
   39.1200  106.4860   54.1120 C   0  0  0  0  0
   37.8260  106.7800   54.7930 C   0  0  0  0  0
   36.8790  107.4720   53.8900 C   0  0  0  0  0
   37.3660  108.3910   52.9160 C   0  0  0  0  0
   35.5020  107.2100   54.0320 C   0  0  0  0  0
   34.6140  107.8630   53.2070 C   0  0  0  0  0
   35.0870  108.7990   52.2200 C   0  0  0  0  0
   36.4760  109.0740   52.0890 C   0  0  0  0  0
   36.9550  109.9360   51.0690 O   0  0  0  0  0
   36.7370  111.3110   51.2260 C   0  0  0  0  0
   36.8750  112.1320   50.0800 C   0  0  0  0  0
   36.6670  113.5090   50.1600 C   0  0  0  0  0
   36.3320  114.0900   51.3630 C   0  0  0  0  0
   36.2000  113.2720   52.5300 C   0  0  0  0  0
   36.3970  111.8960   52.4590 C   0  0  0  0  0
   36.1050  115.5870   51.4220 C   0  0  0  0  0
   41.8020  115.2530   48.5980 O   0  0  0  0  0
   42.5670  116.3090   48.0430 C   0  0  0  0  0
   43.1970  113.7730   52.3910 O   0  0  0  0  0
   33.2670  107.6020   53.3540 O   0  0  0  0  0
   32.8740  106.3610   53.7670 C   0  0  0  0  0
   34.1830  109.4830   51.4410 O   0  0  0  0  0
   36.4320  118.5700   53.1010 C   0  0  0  0  0
   40.9110  108.0110   53.9990 C   0  0  0  0  0
   40.1210  106.8000   52.0970 C   0  0  0  0  0
   38.0342  117.7939   52.6149 H   0  0  0  0  0
   36.6749  119.3908   50.9929 H   0  0  0  0  0
   35.9680  117.8147   50.4511 H   0  0  0  0  0
   38.6220  119.0200   49.9899 H   0  0  0  0  0
   37.5227  118.0461   48.8902 H   0  0  0  0  0
   37.5408  115.8329   52.9961 H   0  0  0  0  0
   40.1449  117.3528   48.4277 H   0  0  0  0  0
   39.0782  114.1625   52.1962 H   0  0  0  0  0
   43.1184  112.2169   54.5519 H   0  0  0  0  0
   41.2912  110.5883   55.0649 H   0  0  0  0  0
   39.2620  111.6754   51.4280 H   0  0  0  0  0
   38.1087  110.5467   53.5267 H   0  0  0  0  0
   39.2929  109.6978   54.7023 H   0  0  0  0  0
   39.3019  108.8093   51.8681 H   0  0  0  0  0
   39.8382  106.3008   54.9108 H   0  0  0  0  0
   38.9122  105.6650   53.4258 H   0  0  0  0  0
   38.0255  107.4294   55.6454 H   0  0  0  0  0
   37.3782  105.8359   55.1032 H   0  0  0  0  0
   35.1461  106.5031   54.7815 H   0  0  0  0  0
   37.1468  111.6827   49.1248 H   0  0  0  0  0
   36.7699  114.1269   49.2680 H   0  0  0  0  0
   35.9425  113.7314   53.4843 H   0  0  0  0  0
   36.2888  111.2778   53.3502 H   0  0  0  0  0
   35.9168  115.9705   50.4192 H   0  0  0  0  0
   35.2420  115.8039   52.0516 H   0  0  0  0  0
   41.9179  116.9535   47.4502 H   0  0  0  0  0
   43.0208  116.8886   48.8469 H   0  0  0  0  0
   43.3486  115.8942   47.4065 H   0  0  0  0  0
   43.8794  113.7620   53.0661 H   0  0  0  0  0
   33.2213  105.6148   53.0524 H   0  0  0  0  0
   33.3019  106.1535   54.7478 H   0  0  0  0  0
   31.7863  106.3278   53.8293 H   0  0  0  0  0
   34.6553  110.0622   50.8385 H   0  0  0  0  0
   35.3825  118.2767   53.1253 H   0  0  0  0  0
   36.8746  118.4230   54.0862 H   0  0  0  0  0
   36.5107  119.6199   52.8189 H   0  0  0  0  0
   41.4990  108.6284   53.3200 H   0  0  0  0  0
   40.6219  108.6000   54.8694 H   0  0  0  0  0
   41.5042  107.1544   54.3191 H   0  0  0  0  0
   39.2404  106.4599   51.5520 H   0  0  0  0  0
   40.7118  107.4587   51.4606 H   0  0  0  0  0
   40.7230  105.9399   52.3901 H   0  0  0  0  0
  1  2  1  0  0  0
  1  6  1  0  0  0
  1 43  1  0  0  0
  2  3  1  0  0  0
  3  4  1  0  0  0
  4  5  4  0  0  0
  4  7  4  0  0  0
  5  6  1  0  0  0
  5 10  4  0  0  0
  6 36  1  0  0  0
  7  8  4  0  0  0
  8  9  4  0  0  0
  8 37  1  0  0  0
  9 10  4  0  0  0
  9 11  1  0  0  0
 11 12  1  0  0  0
 12 13  4  0  0  0
 12 17  4  0  0  0
 13 14  4  0  0  0
 13 39  1  0  0  0
 14 15  4  0  0  0
 15 16  4  0  0  0
 16 17  4  0  0  0
 16 18  1  0  0  0
 18 19  1  0  0  0
 19 20  1  0  0  0
 19 24  1  0  0  0
 20 21  1  0  0  0
 20 44  1  0  0  0
 20 45  1  0  0  0
 21 22  1  0  0  0
 22 23  1  0  0  0
 23 24  4  0  0  0
 23 25  4  0  0  0
 24 28  4  0  0  0
 25 26  4  0  0  0
 26 27  4  0  0  0
 26 40  1  0  0  0
 27 28  4  0  0  0
 27 42  1  0  0  0
 28 29  1  0  0  0
 29 30  1  0  0  0
 30 31  4  0  0  0
 30 35  4  0  0  0
 31 32  4  0  0  0
 32 33  4  0  0  0
 33 34  4  0  0  0
 33 36  1  0  0  0
 34 35  4  0  0  0
 37 38  1  0  0  0
 40 41  1  0  0  0
  1 46  1  0  0  0
  2 47  1  0  0  0
  2 48  1  0  0  0
  3 49  1  0  0  0
  3 50  1  0  0  0
  6 51  1  0  0  0
  7 52  1  0  0  0
 10 53  1  0  0  0
 14 54  1  0  0  0
 15 55  1  0  0  0
 17 56  1  0  0  0
 18 57  1  0  0  0
 18 58  1  0  0  0
 19 59  1  0  0  0
 21 60  1  0  0  0
 21 61  1  0  0  0
 22 62  1  0  0  0
 22 63  1  0  0  0
 25 64  1  0  0  0
 31 65  1  0  0  0
 32 66  1  0  0  0
 34 67  1  0  0  0
 35 68  1  0  0  0
 36 69  1  0  0  0
 36 70  1  0  0  0
 38 71  1  0  0  0
 38 72  1  0  0  0
 38 73  1  0  0  0
 39 74  1  0  0  0
 41 75  1  0  0  0
 41 76  1  0  0  0
 41 77  1  0  0  0
 42 78  1  0  0  0
 43 79  1  0  0  0
 43 80  1  0  0  0
 43 81  1  0  0  0
 44 82  1  0  0  0
 44 83  1  0  0  0
 44 84  1  0  0  0
 45 85  1  0  0  0
 45 86  1  0  0  0
 45 87  1  0  0  0
M  END
$$$$
