1qiw_ligand
  -I-interpret- 

 88 90  0  0  0  0  0  0  0  0999 V2000
   28.4700   49.6290   21.8850 C   0  0  0  0  0
   29.7730   50.0050   22.2710 C   0  0  0  0  0
   30.8810   49.1850   21.9870 C   0  0  0  0  0
   30.7000   47.9700   21.3090 C   0  0  0  0  0
   29.4100   47.5780   20.9170 C   0  0  0  0  0
   28.3090   48.3980   21.2020 C   0  0  0  0  0
   26.0680   50.1420   21.3390 C   0  0  0  0  0
   25.9300   50.6410   20.0270 C   0  0  0  0  0
   24.8300   50.2820   19.2300 C   0  0  0  0  0
   23.8480   49.4170   19.7340 C   0  0  0  0  0
   23.9680   48.9120   21.0330 C   0  0  0  0  0
   25.0680   49.2700   21.8300 C   0  0  0  0  0
   27.2670   50.5330   22.2010 C   0  0  0  0  0
   26.9490   50.5310   23.7170 C   0  0  0  0  0
   26.2800   51.8070   24.2810 C   0  0  0  0  0
   24.9720   51.6050   24.9530 N   0  3  0  0  0
   24.9910   50.9740   26.2950 C   0  0  0  0  0
   24.4820   51.8860   27.4250 C   0  0  0  0  0
   23.7430   51.1300   28.5460 C   0  0  0  0  0
   22.6000   50.3020   28.0870 N   0  3  0  0  0
   21.2900   50.9690   27.8800 C   0  0  0  0  0
   20.2070   50.4670   28.8550 C   0  0  0  0  0
   20.8550   50.8050   26.4370 C   0  0  0  0  0
   20.5270   49.5350   25.9180 C   0  0  0  0  0
   20.1240   49.3520   24.5840 C   0  0  0  0  0
   20.0370   50.4750   23.7030 C   0  0  0  0  0
   20.3690   51.7430   24.2360 C   0  0  0  0  0
   20.7690   51.9100   25.5690 C   0  0  0  0  0
   19.8400   48.0490   24.2390 O   0  0  0  0  0
   18.7220   47.3640   24.8030 C   0  0  0  0  0
   17.9400   46.6030   23.7270 C   0  0  0  0  0
   18.4550   45.1770   23.4720 C   0  0  0  0  0
   17.3620   44.1950   23.0300 C   0  0  0  0  0
   19.6490   50.3670   22.3860 O   0  0  0  0  0
   20.4510   49.6780   21.4310 C   0  0  0  0  0
   19.9620   49.9580   20.0030 C   0  0  0  0  0
   19.9200   48.7170   19.0950 C   0  0  0  0  0
   19.0260   48.8890   17.8600 C   0  0  0  0  0
   29.9247   50.9468   22.7983 H   0  0  0  0  0
   31.8802   49.4939   22.2939 H   0  0  0  0  0
   31.5567   47.3335   21.0877 H   0  0  0  0  0
   29.2643   46.6349   20.3904 H   0  0  0  0  0
   27.3123   48.0832   20.8929 H   0  0  0  0  0
   26.6873   51.3145   19.6258 H   0  0  0  0  0
   24.7397   50.6766   18.2180 H   0  0  0  0  0
   22.9943   49.1392   19.1158 H   0  0  0  0  0
   23.2064   48.2394   21.4276 H   0  0  0  0  0
   25.1522   48.8704   22.8406 H   0  0  0  0  0
   27.5201   51.5622   21.9466 H   0  0  0  0  0
   27.9079   50.4410   24.2274 H   0  0  0  0  0
   26.2376   49.7206   23.8761 H   0  0  0  0  0
   26.0913   52.4592   23.4282 H   0  0  0  0  0
   26.9579   52.2021   25.0376 H   0  0  0  0  0
   24.4481   50.9670   24.3540 H   0  0  0  0  0
   24.5840   52.5382   25.0908 H   0  0  0  0  0
   26.0286   50.7284   26.5213 H   0  0  0  0  0
   24.3280   50.1098   26.2545 H   0  0  0  0  0
   23.7742   52.5876   26.9836 H   0  0  0  0  0
   25.3520   52.3652   27.8739 H   0  0  0  0  0
   23.3380   51.8826   29.2225 H   0  0  0  0  0
   24.4647   50.4507   28.9996 H   0  0  0  0  0
   22.4421   49.6240   28.8325 H   0  0  0  0  0
   22.8724   49.9526   27.1682 H   0  0  0  0  0
   21.4187   52.0296   28.0959 H   0  0  0  0  0
   20.0629   49.3956   28.7156 H   0  0  0  0  0
   20.5237   50.6620   29.8796 H   0  0  0  0  0
   19.2712   50.9896   28.6569 H   0  0  0  0  0
   20.5881   48.6663   26.5736 H   0  0  0  0  0
   20.3118   52.6183   23.5890 H   0  0  0  0  0
   21.0160   52.9057   25.9373 H   0  0  0  0  0
   18.0593   48.0975   25.2622 H   0  0  0  0  0
   19.0872   46.6486   25.5399 H   0  0  0  0  0
   18.0483   47.1577   22.7950 H   0  0  0  0  0
   16.9104   46.5180   24.0745 H   0  0  0  0  0
   18.8652   44.8062   24.4114 H   0  0  0  0  0
   19.1864   45.2344   22.6658 H   0  0  0  0  0
   16.5982   44.1306   23.8049 H   0  0  0  0  0
   16.9115   44.5482   22.1024 H   0  0  0  0  0
   17.8026   43.2110   22.8697 H   0  0  0  0  0
   20.3819   48.6071   21.6220 H   0  0  0  0  0
   21.4808   50.0230   21.5233 H   0  0  0  0  0
   20.6648   50.6603   19.5547 H   0  0  0  0  0
   18.9418   50.3338   20.0807 H   0  0  0  0  0
   19.5103   47.8957   19.6830 H   0  0  0  0  0
   20.9350   48.5367   18.7410 H   0  0  0  0  0
   18.0041   49.0945   18.1786 H   0  0  0  0  0
   19.3947   49.7203   17.2591 H   0  0  0  0  0
   19.0463   47.9740   17.2681 H   0  0  0  0  0
 13  1  1  0  0  0
  1  6  4  0  0  0
  1  2  4  0  0  0
  2  3  4  0  0  0
  3  4  4  0  0  0
  5  4  4  0  0  0
  6  5  4  0  0  0
 14 13  1  0  0  0
 13  7  1  0  0  0
  7 12  4  0  0  0
  7  8  4  0  0  0
  8  9  4  0  0  0
  9 10  4  0  0  0
 11 10  4  0  0  0
 12 11  4  0  0  0
 15 14  1  0  0  0
 16 15  1  0  0  0
 17 16  1  0  0  0
 18 17  1  0  0  0
 19 18  1  0  0  0
 20 19  1  0  0  0
 21 20  1  0  0  0
 23 21  1  0  0  0
 21 22  1  0  0  0
 23 28  4  0  0  0
 24 23  4  0  0  0
 25 24  4  0  0  0
 29 25  1  0  0  0
 25 26  4  0  0  0
 26 34  1  0  0  0
 26 27  4  0  0  0
 27 28  4  0  0  0
 34 35  1  0  0  0
 35 36  1  0  0  0
 36 37  1  0  0  0
 37 38  1  0  0  0
 30 29  1  0  0  0
 31 30  1  0  0  0
 32 31  1  0  0  0
 32 33  1  0  0  0
  2 39  1  0  0  0
  3 40  1  0  0  0
  4 41  1  0  0  0
  5 42  1  0  0  0
  6 43  1  0  0  0
  8 44  1  0  0  0
  9 45  1  0  0  0
 10 46  1  0  0  0
 11 47  1  0  0  0
 12 48  1  0  0  0
 13 49  1  0  0  0
 14 50  1  0  0  0
 14 51  1  0  0  0
 15 52  1  0  0  0
 15 53  1  0  0  0
 16 54  1  0  0  0
 16 55  1  0  0  0
 17 56  1  0  0  0
 17 57  1  0  0  0
 18 58  1  0  0  0
 18 59  1  0  0  0
 19 60  1  0  0  0
 19 61  1  0  0  0
 20 62  1  0  0  0
 20 63  1  0  0  0
 21 64  1  0  0  0
 22 65  1  0  0  0
 22 66  1  0  0  0
 22 67  1  0  0  0
 24 68  1  0  0  0
 27 69  1  0  0  0
 28 70  1  0  0  0
 30 71  1  0  0  0
 30 72  1  0  0  0
 31 73  1  0  0  0
 31 74  1  0  0  0
 32 75  1  0  0  0
 32 76  1  0  0  0
 33 77  1  0  0  0
 33 78  1  0  0  0
 33 79  1  0  0  0
 35 80  1  0  0  0
 35 81  1  0  0  0
 36 82  1  0  0  0
 36 83  1  0  0  0
 37 84  1  0  0  0
 37 85  1  0  0  0
 38 86  1  0  0  0
 38 87  1  0  0  0
 38 88  1  0  0  0
M  END
$$$$
