1utc_ligand
  -I-interpret- 

129133  0  0  0  0  0  0  0  0999 V2000
   29.2280   60.2100   31.8600 N   0  3  0  0  0
   29.7790   60.0600   30.4770 C   0  0  0  0  0
   29.4610   58.7060   29.8490 C   0  0  0  0  0
   28.7380   58.6630   28.8400 O   0  0  0  0  0
   31.2730   60.2560   30.5030 C   0  0  0  0  0
   31.5930   61.2320   31.5080 O   0  0  0  0  0
   31.7710   60.8310   29.1410 C   0  0  0  0  0
   29.9930   57.6120   30.4190 N   0  0  0  0  0
   29.5490   56.2770   29.9880 C   0  0  0  0  0
   28.1200   56.0190   30.5020 C   0  0  0  0  0
   27.8950   55.9960   31.6920 O   0  0  0  0  0
   30.4910   55.1670   30.4590 C   0  0  0  0  0
   30.1950   53.8310   29.7710 C   0  0  0  0  0
   30.5100   53.9210   28.3070 C   0  0  0  0  0
   30.9690   52.6700   30.3960 C   0  0  0  0  0
   27.1400   55.8420   29.6300 N   0  0  0  0  0
   25.7960   55.5170   30.1320 C   0  0  0  0  0
   25.7050   54.1180   30.7740 C   0  0  0  0  0
   26.3610   53.1650   30.3130 O   0  0  0  0  0
   24.8960   55.6360   28.8990 C   0  0  0  0  0
   25.8050   55.5810   27.7220 C   0  0  0  0  0
   27.1950   55.9320   28.1600 C   0  0  0  0  0
   24.8510   54.0180   31.7960 N   0  0  0  0  0
   24.8330   52.8720   32.7060 C   0  0  0  0  0
   24.5630   51.5480   32.0170 C   0  0  0  0  0
   25.0730   50.5000   32.4560 O   0  0  0  0  0
   23.8220   53.0790   33.8430 C   0  0  0  0  0
   22.3600   52.8710   33.3940 C   0  0  0  0  0
   21.5240   53.8220   32.9570 C   0  0  0  0  0
   21.6300   51.6310   33.3130 C   0  0  0  0  0
   20.3100   53.2750   32.6310 N   0  0  0  0  0
   20.3490   51.9320   32.8370 C   0  0  0  0  0
   21.9330   50.3030   33.6030 C   0  0  0  0  0
   19.3610   50.9690   32.6410 C   0  0  0  0  0
   20.9370   49.3270   33.4110 C   0  0  0  0  0
   19.6710   49.6720   32.9340 C   0  0  0  0  0
   23.7760   51.5690   30.9400 N   0  0  0  0  0
   23.5030   50.3150   30.2480 C   0  0  0  0  0
   24.7760   49.6840   29.6600 C   0  0  0  0  0
   24.7810   48.4790   29.3810 O   0  0  0  0  0
   22.3720   50.3800   29.2110 C   0  0  0  0  0
   22.5590   51.4590   28.1400 C   0  0  0  0  0
   23.1720   52.5270   28.3650 O   0  0  0  0  0
   22.0510   51.3370   27.0180 O   0  0  0  0  0
   25.8310   50.4820   29.4750 N   0  0  0  0  0
   27.1100   49.9670   28.9650 C   0  0  0  0  0
   28.1220   49.5590   30.0830 C   0  0  0  0  0
   29.1600   49.0110   29.7820 O   0  0  0  0  0
   27.7570   51.0000   28.0030 C   0  0  0  0  0
   27.0020   51.3240   26.7140 C   0  0  0  0  0
   27.7380   52.3350   25.8960 C   0  0  0  0  0
   26.8020   50.0640   25.9000 C   0  0  0  0  0
   27.8170   49.7960   31.3500 N   0  0  0  0  0
   28.7860   49.5060   32.4480 C   0  0  0  0  0
   29.2840   48.0870   32.4910 C   0  0  0  0  0
   28.4896   47.1688   32.1542 O   0  0  0  0  0
   28.1860   49.8740   33.7960 C   0  0  0  0  0
   28.0530   51.3660   33.9540 C   0  0  0  0  0
   28.4850   52.3070   33.0910 C   0  0  0  0  0
   27.4720   52.0680   35.0550 C   0  0  0  0  0
   28.2030   53.5600   33.5730 N   0  0  0  0  0
   27.5710   53.4340   34.7780 C   0  0  0  0  0
   26.8140   51.6730   36.2170 C   0  0  0  0  0
   27.0900   54.4070   35.6350 C   0  0  0  0  0
   26.3410   52.6420   37.0730 C   0  0  0  0  0
   26.4730   53.9840   36.7830 C   0  0  0  0  0
   30.4618   47.8244   32.8535 O   0  0  0  0  0
   28.2170   60.0767   31.8382 H   0  0  0  0  0
   29.6512   59.5114   32.4709 H   0  0  0  0  0
   29.4415   61.1438   32.2103 H   0  0  0  0  0
   29.2983   60.8214   29.8627 H   0  0  0  0  0
   31.7443   59.2937   30.7032 H   0  0  0  0  0
   31.3011   60.9142   32.3656 H   0  0  0  0  0
   31.2644   61.7749   28.9396 H   0  0  0  0  0
   32.8470   60.9979   29.1902 H   0  0  0  0  0
   31.5483   60.1205   28.3449 H   0  0  0  0  0
   30.7012   57.7063   31.1470 H   0  0  0  0  0
   29.5610   56.2603   28.8982 H   0  0  0  0  0
   30.3521   55.0353   31.5321 H   0  0  0  0  0
   31.5116   55.4587   30.2111 H   0  0  0  0  0
   29.1328   53.6290   29.9087 H   0  0  0  0  0
   29.8984   54.7003   27.8523 H   0  0  0  0  0
   31.5648   54.1635   28.1779 H   0  0  0  0  0
   30.2948   52.9644   27.8309 H   0  0  0  0  0
   32.0388   52.8621   30.3138 H   0  0  0  0  0
   30.6951   52.5763   31.4469 H   0  0  0  0  0
   30.7230   51.7468   29.8714 H   0  0  0  0  0
   25.5014   56.1889   30.9381 H   0  0  0  0  0
   24.3253   56.5646   28.9145 H   0  0  0  0  0
   24.1602   54.8324   28.8679 H   0  0  0  0  0
   25.4687   56.2897   26.9652 H   0  0  0  0  0
   25.7963   54.5768   27.2982 H   0  0  0  0  0
   27.9433   55.2642   27.7332 H   0  0  0  0  0
   27.4981   56.9216   27.8180 H   0  0  0  0  0
   24.1824   54.7730   31.9489 H   0  0  0  0  0
   25.8412   52.8170   33.1165 H   0  0  0  0  0
   23.9196   54.1072   34.1915 H   0  0  0  0  0
   24.0392   52.3447   34.6187 H   0  0  0  0  0
   21.7734   54.8797   32.8727 H   0  0  0  0  0
   22.9207   50.0252   33.9709 H   0  0  0  0  0
   18.3744   51.2419   32.2666 H   0  0  0  0  0
   21.1579   48.2842   33.6386 H   0  0  0  0  0
   18.9196   48.8950   32.7935 H   0  0  0  0  0
   23.3732   52.4450   30.6072 H   0  0  0  0  0
   23.1290   49.6547   31.0304 H   0  0  0  0  0
   21.4558   50.6196   29.7507 H   0  0  0  0  0
   22.3525   49.4187   28.6975 H   0  0  0  0  0
   23.5217   52.5117   29.2589 H   0  0  0  0  0
   25.7470   51.4748   29.6933 H   0  0  0  0  0
   26.8735   49.0495   28.4262 H   0  0  0  0  0
   28.7030   50.5591   27.6886 H   0  0  0  0  0
   27.8036   51.9350   28.5613 H   0  0  0  0  0
   26.0332   51.7413   26.9885 H   0  0  0  0  0
   27.8528   53.2529   26.4725 H   0  0  0  0  0
   28.7210   51.9431   25.6347 H   0  0  0  0  0
   27.1751   52.5438   24.9862 H   0  0  0  0  0
   27.7730   49.6368   25.6496 H   0  0  0  0  0
   26.2262   49.3445   26.4821 H   0  0  0  0  0
   26.2632   50.3064   24.9840 H   0  0  0  0  0
   26.9022   50.1842   31.5799 H   0  0  0  0  0
   29.6560   50.1249   32.2288 H   0  0  0  0  0
   27.6440   47.5523   31.9104 H   0  0  0  0  0
   28.8455   49.5018   34.5800 H   0  0  0  0  0
   27.1927   49.4303   33.8639 H   0  0  0  0  0
   28.9867   52.1017   32.1453 H   0  0  0  0  0
   26.6760   50.6160   36.4446 H   0  0  0  0  0
   27.1974   55.4674   35.4065 H   0  0  0  0  0
   25.8517   52.3422   37.9997 H   0  0  0  0  0
   26.0787   54.7227   37.4809 H   0  0  0  0  0
  1  2  1  0  0  0
  2  3  1  0  0  0
  2  5  1  0  0  0
  3  4  2  0  0  0
  3  8  1  0  0  0
  5  6  1  0  0  0
  5  7  1  0  0  0
  8  9  1  0  0  0
  9 10  1  0  0  0
  9 12  1  0  0  0
 10 11  2  0  0  0
 10 16  1  0  0  0
 12 13  1  0  0  0
 13 14  1  0  0  0
 13 15  1  0  0  0
 16 17  1  0  0  0
 16 22  1  0  0  0
 17 18  1  0  0  0
 17 20  1  0  0  0
 18 19  2  0  0  0
 18 23  1  0  0  0
 20 21  1  0  0  0
 21 22  1  0  0  0
 23 24  1  0  0  0
 24 25  1  0  0  0
 24 27  1  0  0  0
 25 26  2  0  0  0
 25 37  1  0  0  0
 27 28  1  0  0  0
 28 29  4  0  0  0
 28 30  4  0  0  0
 29 31  4  0  0  0
 30 32  4  0  0  0
 30 33  4  0  0  0
 31 32  4  0  0  0
 32 34  4  0  0  0
 33 35  4  0  0  0
 34 36  4  0  0  0
 35 36  4  0  0  0
 37 38  1  0  0  0
 38 39  1  0  0  0
 38 41  1  0  0  0
 39 40  2  0  0  0
 39 45  1  0  0  0
 41 42  1  0  0  0
 42 43  1  0  0  0
 42 44  2  0  0  0
 45 46  1  0  0  0
 46 47  1  0  0  0
 46 49  1  0  0  0
 47 48  2  0  0  0
 47 53  1  0  0  0
 49 50  1  0  0  0
 50 51  1  0  0  0
 50 52  1  0  0  0
 53 54  1  0  0  0
 54 55  1  0  0  0
 54 57  1  0  0  0
 55 56  1  0  0  0
 57 58  1  0  0  0
 58 59  4  0  0  0
 58 60  4  0  0  0
 59 61  4  0  0  0
 60 62  4  0  0  0
 60 63  4  0  0  0
 61 62  4  0  0  0
 62 64  4  0  0  0
 63 65  4  0  0  0
 64 66  4  0  0  0
 65 66  4  0  0  0
 55 67  2  0  0  0
  1 68  1  0  0  0
  1 69  1  0  0  0
  1 70  1  0  0  0
  2 71  1  0  0  0
  5 72  1  0  0  0
  6 73  1  0  0  0
  7 74  1  0  0  0
  7 75  1  0  0  0
  7 76  1  0  0  0
  8 77  1  0  0  0
  9 78  1  0  0  0
 12 79  1  0  0  0
 12 80  1  0  0  0
 13 81  1  0  0  0
 14 82  1  0  0  0
 14 83  1  0  0  0
 14 84  1  0  0  0
 15 85  1  0  0  0
 15 86  1  0  0  0
 15 87  1  0  0  0
 17 88  1  0  0  0
 20 89  1  0  0  0
 20 90  1  0  0  0
 21 91  1  0  0  0
 21 92  1  0  0  0
 22 93  1  0  0  0
 22 94  1  0  0  0
 23 95  1  0  0  0
 24 96  1  0  0  0
 27 97  1  0  0  0
 27 98  1  0  0  0
 29 99  1  0  0  0
 33100  1  0  0  0
 34101  1  0  0  0
 35102  1  0  0  0
 36103  1  0  0  0
 37104  1  0  0  0
 38105  1  0  0  0
 41106  1  0  0  0
 41107  1  0  0  0
 43108  1  0  0  0
 45109  1  0  0  0
 46110  1  0  0  0
 49111  1  0  0  0
 49112  1  0  0  0
 50113  1  0  0  0
 51114  1  0  0  0
 51115  1  0  0  0
 51116  1  0  0  0
 52117  1  0  0  0
 52118  1  0  0  0
 52119  1  0  0  0
 53120  1  0  0  0
 54121  1  0  0  0
 56122  1  0  0  0
 57123  1  0  0  0
 57124  1  0  0  0
 59125  1  0  0  0
 63126  1  0  0  0
 64127  1  0  0  0
 65128  1  0  0  0
 66129  1  0  0  0
M  END
$$$$
