### 
### Created by X-TOOL on Mon Sep 10 21:12:51 2018
### 

@<TRIPOS>MOLECULE
1utc_ligand
  129   133     1     0     0
SMALL
GAST_HUCK


@<TRIPOS>ATOM
      1 N          29.2280   60.2100   31.8600 N.4       1 THR         0.2398
      2 CA         29.7790   60.0600   30.4770 C.3       1 THR         0.0910
      3 C          29.4610   58.7060   29.8490 C.2       1 THR         0.2293
      4 O          28.7380   58.6630   28.8400 O.2       1 THR        -0.3906
      5 CB         31.2730   60.2560   30.5030 C.3       1 THR         0.1120
      6 OG1        31.5930   61.2320   31.5080 O.3       1 THR        -0.3840
      7 CG2        31.7710   60.8310   29.1410 C.3       1 THR        -0.0314
      8 N          29.9930   57.6120   30.4190 N.am      1 LEU        -0.2609
      9 CA         29.5490   56.2770   29.9880 C.3       1 LEU         0.1315
     10 C          28.1200   56.0190   30.5020 C.2       1 LEU         0.2064
     11 O          27.8950   55.9960   31.6920 O.2       1 LEU        -0.3942
     12 CB         30.4910   55.1670   30.4590 C.3       1 LEU        -0.0101
     13 CG         30.1950   53.8310   29.7710 C.3       1 LEU        -0.0425
     14 CD1        30.5100   53.9210   28.3070 C.3       1 LEU        -0.0625
     15 CD2        30.9690   52.6700   30.3960 C.3       1 LEU        -0.0625
     16 N          27.1400   55.8420   29.6300 N.am      1 PRO        -0.2498
     17 CA         25.7960   55.5170   30.1320 C.3       1 PRO         0.1338
     18 C          25.7050   54.1180   30.7740 C.2       1 PRO         0.2042
     19 O          26.3610   53.1650   30.3130 O.2       1 PRO        -0.3944
     20 CB         24.8960   55.6360   28.8990 C.3       1 PRO        -0.0104
     21 CG         25.8050   55.5810   27.7220 C.3       1 PRO        -0.0281
     22 CD         27.1950   55.9320   28.1600 C.3       1 PRO         0.0369
     23 N          24.8510   54.0180   31.7960 N.am      1 TRP        -0.2627
     24 CA         24.8330   52.8720   32.7060 C.3       1 TRP         0.1352
     25 C          24.5630   51.5480   32.0170 C.2       1 TRP         0.2052
     26 O          25.0730   50.5000   32.4560 O.2       1 TRP        -0.3942
     27 CB         23.8220   53.0790   33.8430 C.3       1 TRP         0.0042
     28 CG         22.3600   52.8710   33.3940 C.2       1 TRP        -0.0418
     29 CD1        21.5240   53.8220   32.9570 C.2       1 TRP         0.0167
     30 CD2        21.6300   51.6310   33.3130 C.ar      1 TRP        -0.0214
     31 NE1        20.3100   53.2750   32.6310 N.pl3     1 TRP        -0.2890
     32 CE2        20.3490   51.9320   32.8370 C.ar      1 TRP         0.0603
     33 CE3        21.9330   50.3030   33.6030 C.ar      1 TRP        -0.0747
     34 CZ2        19.3610   50.9690   32.6410 C.ar      1 TRP        -0.0443
     35 CZ3        20.9370   49.3270   33.4110 C.ar      1 TRP        -0.0792
     36 CH2        19.6710   49.6720   32.9340 C.ar      1 TRP        -0.0768
     37 N          23.7760   51.5690   30.9400 N.am      1 ASP        -0.2621
     38 CA         23.5030   50.3150   30.2480 C.3       1 ASP         0.1423
     39 C          24.7760   49.6840   29.6600 C.2       1 ASP         0.2056
     40 O          24.7810   48.4790   29.3810 O.2       1 ASP        -0.3943
     41 CB         22.3720   50.3800   29.2110 C.3       1 ASP         0.0406
     42 CG         22.5590   51.4590   28.1400 C.2       1 ASP         0.0393
     43 OD1        23.1720   52.5270   28.3650 O.co2     1 ASP        -0.5688
     44 OD2        22.0510   51.3370   27.0180 O.co2     1 ASP        -0.5688
     45 N          25.8310   50.4820   29.4750 N.am      1 LEU        -0.2636
     46 CA         27.1100   49.9670   28.9650 C.3       1 LEU         0.1312
     47 C          28.1220   49.5590   30.0830 C.2       1 LEU         0.2034
     48 O          29.1600   49.0110   29.7820 O.2       1 LEU        -0.3944
     49 CB         27.7570   51.0000   28.0030 C.3       1 LEU        -0.0101
     50 CG         27.0020   51.3240   26.7140 C.3       1 LEU        -0.0425
     51 CD1        27.7380   52.3350   25.8960 C.3       1 LEU        -0.0625
     52 CD2        26.8020   50.0640   25.9000 C.3       1 LEU        -0.0625
     53 N          27.8170   49.7960   31.3500 N.am      1 TRP        -0.2684
     54 CA         28.7860   49.5060   32.4480 C.3       1 TRP         0.0986
     55 C          29.2840   48.0870   32.4910 C.2       1 TRP         0.0613
     56 O          28.4896   47.1688   32.1542 O.co2     1 TRP        -0.5665
     57 CB         28.1860   49.8740   33.7960 C.3       1 TRP        -0.0013
     58 CG         28.0530   51.3660   33.9540 C.2       1 TRP        -0.0424
     59 CD1        28.4850   52.3070   33.0910 C.2       1 TRP         0.0166
     60 CD2        27.4720   52.0680   35.0550 C.ar      1 TRP        -0.0214
     61 NE1        28.2030   53.5600   33.5730 N.pl3     1 TRP        -0.2891
     62 CE2        27.5710   53.4340   34.7780 C.ar      1 TRP         0.0603
     63 CE3        26.8140   51.6730   36.2170 C.ar      1 TRP        -0.0747
     64 CZ2        27.0900   54.4070   35.6350 C.ar      1 TRP        -0.0443
     65 CZ3        26.3410   52.6420   37.0730 C.ar      1 TRP        -0.0792
     66 CH2        26.4730   53.9840   36.7830 C.ar      1 TRP        -0.0768
     67 O55        30.4618   47.8244   32.8535 O.co2     1 TRP        -0.5665
     68 H1         28.2288   60.0784   31.8397 H         1 THR         0.2016
     69 H2         29.4384   61.1326   32.2073 H         1 THR         0.2016
     70 H3         29.6455   59.5200   32.4647 H         1 THR         0.2016
     71 H4         29.3308   60.8420   29.8464 H         1 THR         0.1125
     72 H5         31.7723   59.2998   30.7185 H         1 THR         0.0674
     73 H6         32.5336   61.3630   31.5325 H         1 THR         0.2102
     74 H7         32.8619   60.9676   29.1776 H         1 THR         0.0258
     75 H8         31.2863   61.8004   28.9530 H         1 THR         0.0258
     76 H9         31.5161   60.1305   28.3321 H         1 THR         0.0258
     77 H10        30.6873   57.7045   31.1327 H         1 LEU         0.1885
     78 H11        29.5321   56.2620   28.8882 H         1 LEU         0.0800
     79 H12        30.3747   55.0401   31.5454 H         1 LEU         0.0315
     80 H13        31.5267   55.4607   30.2329 H         1 LEU         0.0315
     81 H14        29.1207   53.6231   29.8836 H         1 LEU         0.0298
     82 H15        30.2932   52.9561   27.8253 H         1 LEU         0.0232
     83 H16        31.5743   54.1656   28.1753 H         1 LEU         0.0232
     84 H17        29.8934   54.7072   27.8469 H         1 LEU         0.0232
     85 H18        30.7345   52.6085   31.4690 H         1 LEU         0.0232
     86 H19        32.0485   52.8365   30.2656 H         1 LEU         0.0232
     87 H20        30.6808   51.7297   29.9033 H         1 LEU         0.0232
     88 H21        25.4959   56.2588   30.8868 H         1 PRO         0.0802
     89 H22        24.3491   56.5903   28.9154 H         1 PRO         0.0313
     90 H23        24.1786   54.8027   28.8673 H         1 PRO         0.0313
     91 H24        25.4662   56.2991   26.9608 H         1 PRO         0.0287
     92 H25        25.7976   54.5661   27.2978 H         1 PRO         0.0287
     93 H26        27.9254   55.2180   27.7517 H         1 PRO         0.0524
     94 H27        27.4599   56.9507   27.8404 H         1 PRO         0.0524
     95 H28        24.1955   54.7582   31.9459 H         1 TRP         0.1884
     96 H29        25.8342   52.8060   33.1567 H         1 TRP         0.0815
     97 H30        23.9289   54.1050   34.2250 H         1 TRP         0.0397
     98 H31        24.0471   52.3630   34.6472 H         1 TRP         0.0397
     99 H32        21.7731   54.8788   32.8727 H         1 TRP         0.0795
    100 H33        19.4948   53.8002   32.2838 H         1 TRP         0.2216
    101 H34        22.9153   50.0267   33.9689 H         1 TRP         0.0540
    102 H35        18.3798   51.2404   32.2686 H         1 TRP         0.0541
    103 H36        21.1567   48.2899   33.6373 H         1 TRP         0.0510
    104 H37        18.9237   48.8993   32.7943 H         1 TRP         0.0530
    105 H38        23.3811   52.4278   30.6137 H         1 ASP         0.1884
    106 H39        23.1505   49.6219   31.0260 H         1 ASP         0.0819
    107 H40        21.4296   50.5811   29.7414 H         1 ASP         0.0478
    108 H41        22.3089   49.4035   28.7086 H         1 ASP         0.0478
    109 H42        25.7487   51.4554   29.6890 H         1 LEU         0.1883
    110 H43        26.8859   49.0598   28.3848 H         1 LEU         0.0800
    111 H44        28.7463   50.6124   27.7183 H         1 LEU         0.0315
    112 H45        27.8782   51.9405   28.5605 H         1 LEU         0.0315
    113 H46        26.0173   51.7361   26.9796 H         1 LEU         0.0298
    114 H47        27.1709   52.5466   24.9775 H         1 LEU         0.0232
    115 H48        28.7303   51.9407   25.6316 H         1 LEU         0.0232
    116 H49        27.8545   53.2620   26.4766 H         1 LEU         0.0232
    117 H50        26.2602   49.3203   26.5027 H         1 LEU         0.0232
    118 H51        27.7812   49.6565   25.6084 H         1 LEU         0.0232
    119 H52        26.2191   50.2993   24.9973 H         1 LEU         0.0232
    120 H53        26.9202   50.1766   31.5754 H         1 TRP         0.1876
    121 H54        29.6615   50.1503   32.2798 H         1 TRP         0.0741
    122 H55        28.8365   49.4870   34.5941 H         1 TRP         0.0390
    123 H56        27.1896   49.4157   33.8805 H         1 TRP         0.0390
    124 H57        28.9862   52.1019   32.1462 H         1 TRP         0.0795
    125 H58        28.4300   54.4486   33.1043 H         1 TRP         0.2216
    126 H59        26.6767   50.6218   36.4434 H         1 TRP         0.0540
    127 H60        27.1968   55.4615   35.4078 H         1 TRP         0.0541
    128 H61        25.8544   52.3439   37.9946 H         1 TRP         0.0510
    129 H62        26.0809   54.7186   37.4770 H         1 TRP         0.0530
@<TRIPOS>BOND
     1    1    2 1  
     2    2    3 1  
     3    2    5 1  
     4    3    4 2  
     5    3    8 am 
     6    5    6 1  
     7    5    7 1  
     8    8    9 1  
     9    9   10 1  
    10    9   12 1  
    11   10   11 2  
    12   10   16 am 
    13   12   13 1  
    14   13   14 1  
    15   13   15 1  
    16   16   17 1  
    17   16   22 1  
    18   17   18 1  
    19   17   20 1  
    20   18   19 2  
    21   18   23 am 
    22   20   21 1  
    23   21   22 1  
    24   23   24 1  
    25   24   25 1  
    26   24   27 1  
    27   25   26 2  
    28   25   37 am 
    29   27   28 1  
    30   28   29 2  
    31   28   30 1  
    32   29   31 1  
    33   30   32 ar 
    34   30   33 ar 
    35   31   32 1  
    36   32   34 ar 
    37   33   35 ar 
    38   34   36 ar 
    39   35   36 ar 
    40   37   38 1  
    41   38   39 1  
    42   38   41 1  
    43   39   40 2  
    44   39   45 am 
    45   41   42 1  
    46   42   43 ar 
    47   42   44 ar 
    48   45   46 1  
    49   46   47 1  
    50   46   49 1  
    51   47   48 2  
    52   47   53 am 
    53   49   50 1  
    54   50   51 1  
    55   50   52 1  
    56   53   54 1  
    57   54   55 1  
    58   54   57 1  
    59   55   56 ar 
    60   57   58 1  
    61   58   59 2  
    62   58   60 1  
    63   59   61 1  
    64   60   62 ar 
    65   60   63 ar 
    66   61   62 1  
    67   62   64 ar 
    68   63   65 ar 
    69   64   66 ar 
    70   65   66 ar 
    71   55   67 ar 
    72    1   68 1  
    73    1   69 1  
    74    1   70 1  
    75    2   71 1  
    76    5   72 1  
    77    6   73 1  
    78    7   74 1  
    79    7   75 1  
    80    7   76 1  
    81    8   77 1  
    82    9   78 1  
    83   12   79 1  
    84   12   80 1  
    85   13   81 1  
    86   14   82 1  
    87   14   83 1  
    88   14   84 1  
    89   15   85 1  
    90   15   86 1  
    91   15   87 1  
    92   17   88 1  
    93   20   89 1  
    94   20   90 1  
    95   21   91 1  
    96   21   92 1  
    97   22   93 1  
    98   22   94 1  
    99   23   95 1  
   100   24   96 1  
   101   27   97 1  
   102   27   98 1  
   103   29   99 1  
   104   31  100 1  
   105   33  101 1  
   106   34  102 1  
   107   35  103 1  
   108   36  104 1  
   109   37  105 1  
   110   38  106 1  
   111   41  107 1  
   112   41  108 1  
   113   45  109 1  
   114   46  110 1  
   115   49  111 1  
   116   49  112 1  
   117   50  113 1  
   118   51  114 1  
   119   51  115 1  
   120   51  116 1  
   121   52  117 1  
   122   52  118 1  
   123   52  119 1  
   124   53  120 1  
   125   54  121 1  
   126   57  122 1  
   127   57  123 1  
   128   59  124 1  
   129   61  125 1  
   130   63  126 1  
   131   64  127 1  
   132   65  128 1  
   133   66  129 1  
@<TRIPOS>SUBSTRUCTURE
     1 THR         1

