5v6u_ligand
  -I-interpret- 

 31 32  0  0  0  0  0  0  0  0999 V2000
  -40.0230    9.7570   11.0590 C   0  0  0  0  0
  -38.9360   10.3710   10.4640 C   0  0  0  0  0
  -40.3760   11.9740    9.3780 C   0  0  0  0  0
  -41.2930   10.2350   10.8020 C   0  0  0  0  0
  -41.3340   13.0120    7.2060 C   0  0  0  0  0
  -39.7680   14.1110    8.6370 O   0  0  0  0  0
  -40.4870   13.1300    8.4590 C   0  0  0  0  0
  -42.5620   15.0610   12.1310 C   0  0  0  0  0
  -43.3510   14.7860   13.2340 C   0  0  0  0  0
  -44.1010   13.6240   13.2770 C   0  0  0  0  0
  -44.0580   12.7170   12.2320 C   0  0  0  0  0
  -44.9360   11.5130   12.3340 C   0  0  0  0  0
  -39.1030   11.4640    9.6310 C   0  0  0  0  0
  -41.4890   11.3120    9.9410 C   0  0  0  0  0
  -43.2970   13.0170   11.0840 C   0  0  0  0  0
  -42.5210   14.1700   11.0660 C   0  0  0  0  0
  -44.5440   10.5120   12.9890 O   0  0  0  0  0
  -46.0740   11.5800   11.8030 O   0  0  0  0  0
  -43.1540   11.9120    9.6990 S   0  0  0  0  0
  -39.8790    8.9051   11.7235 H   0  0  0  0  0
  -37.9330    9.9887   10.6537 H   0  0  0  0  0
  -42.1524    9.7636   11.2788 H   0  0  0  0  0
  -42.0262   13.8525    7.1564 H   0  0  0  0  0
  -40.6865   13.0207    6.3292 H   0  0  0  0  0
  -41.8957   12.0783    7.2353 H   0  0  0  0  0
  -41.9724   15.9772   12.0978 H   0  0  0  0  0
  -43.3817   15.4853   14.0696 H   0  0  0  0  0
  -44.7319   13.4207   14.1423 H   0  0  0  0  0
  -38.2324   11.9297    9.1691 H   0  0  0  0  0
  -41.8766   14.3762   10.2114 H   0  0  0  0  0
  -43.6510   10.6676   13.3052 H   0  0  0  0  0
  1  2  4  0  0  0
  4  1  4  0  0  0
 13  2  4  0  0  0
  3  7  1  0  0  0
  3 13  4  0  0  0
 14  3  4  0  0  0
 14  4  4  0  0  0
  7  5  1  0  0  0
  7  6  2  0  0  0
  8  9  4  0  0  0
 16  8  4  0  0  0
 10  9  4  0  0  0
 11 10  4  0  0  0
 11 12  1  0  0  0
 15 11  4  0  0  0
 12 17  1  0  0  0
 12 18  2  0  0  0
 19 14  1  0  0  0
 15 16  4  0  0  0
 15 19  1  0  0  0
  1 20  1  0  0  0
  2 21  1  0  0  0
  4 22  1  0  0  0
  5 23  1  0  0  0
  5 24  1  0  0  0
  5 25  1  0  0  0
  8 26  1  0  0  0
  9 27  1  0  0  0
 10 28  1  0  0  0
 13 29  1  0  0  0
 16 30  1  0  0  0
 17 31  1  0  0  0
M  END
$$$$
