1n1m_ligand
  -I-interpret- 

 31 31  0  0  0  0  0  0  0  0999 V2000
   84.1890   77.2130   97.3480 C   0  0  0  0  0
   82.8540   76.3810   97.0320 C   0  0  0  0  0
   82.6620   75.5160   98.2090 N   0  0  0  0  0
   84.0340   75.2340   98.6920 C   0  0  0  0  0
   84.6320   76.6600   98.7760 C   0  0  0  0  0
   81.8000   74.3630   97.9530 C   0  0  0  0  0
   80.4200   74.3850   97.4480 C   0  0  0  0  0
   79.2960   74.2300   98.4320 C   0  0  0  0  0
   79.2210   75.2820   99.4580 C   0  0  0  0  0
   82.3220   73.1150   98.2010 O   0  0  0  0  0
   80.2150   73.3530   96.3790 N   0  3  0  0  0
   77.8050   74.2860   97.6340 C   0  0  0  0  0
   84.0237   78.2904   97.3467 H   0  0  0  0  0
   84.9584   77.0790   96.5876 H   0  0  0  0  0
   82.9449   75.8016   96.1132 H   0  0  0  0  0
   81.9982   77.0351   96.8653 H   0  0  0  0  0
   84.5958   74.5632   98.0420 H   0  0  0  0  0
   84.0606   74.6936   99.6382 H   0  0  0  0  0
   84.2829   77.2516   99.6223 H   0  0  0  0  0
   85.7049   76.6940   98.9652 H   0  0  0  0  0
   80.3514   75.4102   97.0842 H   0  0  0  0  0
   79.5023   73.2744   98.9141 H   0  0  0  0  0
   80.1451   75.2905  100.0360 H   0  0  0  0  0
   79.0840   76.2496   98.9751 H   0  0  0  0  0
   78.3785   75.0825  100.1202 H   0  0  0  0  0
   80.9623   73.4271   95.6888 H   0  0  0  0  0
   80.2289   72.4233   96.7984 H   0  0  0  0  0
   79.3149   73.5092   95.9254 H   0  0  0  0  0
   77.7029   75.2440   97.1243 H   0  0  0  0  0
   77.7542   73.4776   96.9046 H   0  0  0  0  0
   77.0008   74.1723   98.3609 H   0  0  0  0  0
  1  2  1  0  0  0
  1  5  1  0  0  0
  2  3  1  0  0  0
  3  4  1  0  0  0
  3  6  1  0  0  0
  4  5  1  0  0  0
  6  7  1  0  0  0
  6 10  2  0  0  0
  7  8  1  0  0  0
  7 11  1  0  0  0
  8  9  1  0  0  0
  8 12  1  0  0  0
  1 13  1  0  0  0
  1 14  1  0  0  0
  2 15  1  0  0  0
  2 16  1  0  0  0
  4 17  1  0  0  0
  4 18  1  0  0  0
  5 19  1  0  0  0
  5 20  1  0  0  0
  7 21  1  0  0  0
  8 22  1  0  0  0
  9 23  1  0  0  0
  9 24  1  0  0  0
  9 25  1  0  0  0
 11 26  1  0  0  0
 11 27  1  0  0  0
 11 28  1  0  0  0
 12 29  1  0  0  0
 12 30  1  0  0  0
 12 31  1  0  0  0
M  END
$$$$
