### 
### Created by X-TOOL on Mon Sep 10 21:13:08 2018
### 

@<TRIPOS>MOLECULE
3skf_ligand
  100   103     1     0     0
SMALL
GAST_HUCK


@<TRIPOS>ATOM
      1 C1         87.3800   59.8290   81.9580 C.ar      1 PB7        -0.0687
      2 C2         78.9510   66.5100   82.4900 C.ar      1 PB7        -0.0687
      3 C3         86.4010   58.8870   82.6460 C.ar      1 PB7        -0.0686
      4 C4         86.8570   60.8660   80.9700 C.ar      1 PB7        -0.0686
      5 C5         79.4550   65.8650   83.7800 C.ar      1 PB7        -0.0686
      6 C6         77.7220   65.9360   81.7800 C.ar      1 PB7        -0.0686
      7 C7         80.2990   59.5200   90.4450 C.ar      1 PB7        -0.0770
      8 C8         84.9100   58.9900   82.3430 C.ar      1 PB7        -0.0603
      9 C9         85.3670   60.9740   80.6650 C.ar      1 PB7        -0.0603
     10 C10        78.7240   64.6460   84.3550 C.ar      1 PB7        -0.0603
     11 C11        77.0020   64.7190   82.3560 C.ar      1 PB7        -0.0603
     12 C12        80.0870   58.7180   89.1580 C.ar      1 PB7        -0.0664
     13 C13        79.1070   60.0930   91.2210 C.ar      1 PB7        -0.0401
     14 C14        77.4740   59.0630   89.4300 C.ar      1 PB7        -0.0272
     15 C15        84.3940   60.0340   81.3610 C.ar      1 PB7        -0.0429
     16 C16        77.4940   64.0750   83.6460 C.ar      1 PB7        -0.0408
     17 C17        78.6640   58.4910   88.6540 C.ar      1 PB7        -0.0075
     18 C18        77.6830   59.8660   90.7090 C.ar      1 PB7         0.0842
     19 C19        80.0770   61.7620   79.7970 C.3       1 PB7         0.0324
     20 C20        81.9500   62.4300   77.4850 C.2       1 PB7         0.1734
     21 C21        80.0280   61.1450   83.5080 C.2       1 PB7         0.1593
     22 C22        80.9250   63.9960   80.1050 C.3       1 PB7        -0.0446
     23 C23        80.8980   63.3490   81.4970 C.3       1 PB7        -0.1025
     24 C24        80.0500   63.1430   79.1660 C.3       1 PB7         0.0608
     25 C25        82.3170   62.3960   76.0000 C.3       1 PB7         0.0257
     26 C26        76.1640   62.8910   78.9960 C.3       1 PB7        -0.0650
     27 C27        78.4100   64.7780   78.1390 C.3       1 PB7        -0.0601
     28 C28        76.2890   61.7870   91.3720 C.3       1 PB7         0.0592
     29 C29        82.9100   60.1200   81.0680 C.3       1 PB7        -0.0187
     30 C30        76.7680   62.8540   84.2090 C.3       1 PB7         0.0066
     31 C31        78.4210   57.6980   87.3690 C.3       1 PB7        -0.0023
     32 C32        77.6060   62.5190   78.6730 C.3       1 PB7        -0.0510
     33 C33        82.1670   60.3680   82.3690 C.3       1 PB7        -0.0420
     34 C34        78.0640   59.7070   86.0340 C.3       1 PB7        -0.0033
     35 C35        80.7170   60.8040   82.1810 C.3       1 PB7         0.0001
     36 C36        78.5890   63.6030   79.0980 C.3       1 PB7        -0.0179
     37 C37        77.7190   61.7150   84.5880 C.3       1 PB7         0.0822
     38 C38        77.0530   60.4790   85.1990 C.3       1 PB7         0.1193
     39 N39        80.5660   61.9250   81.1950 N.4       1 PB7         0.4367
     40 N40        80.6190   63.0070   77.7910 N.am      1 PB7        -0.2805
     41 N41        78.5620   61.3640   83.3990 N.am      1 PB7        -0.2807
     42 N42        77.4800   58.4090   86.4520 N.4       1 PB7         0.2408
     43 O43        79.6530   60.5770   79.1310 O.3       1 PB7        -0.4110
     44 O44        82.8600   61.9260   78.4540 O.2       1 PB7        -0.3974
     45 O45        80.7250   61.2310   84.7440 O.2       1 PB7        -0.3990
     46 O46        75.9530   60.8460   86.0320 O.3       1 PB7        -0.3841
     47 O47        76.5420   60.3790   91.4100 O.3       1 PB7        -0.3230
     48 H          88.4470   59.7624   82.1703 H         1 PB7         0.0559
     49 H          79.4654   67.3772   82.0759 H         1 PB7         0.0559
     50 H          86.7649   58.1414   83.3529 H         1 PB7         0.0599
     51 H          87.5575   61.5389   80.4753 H         1 PB7         0.0599
     52 H          80.3299   66.2694   84.2891 H         1 PB7         0.0599
     53 H          77.3601   66.3973   80.8611 H         1 PB7         0.0599
     54 H          81.3109   59.6859   90.8146 H         1 PB7         0.0572
     55 H          84.2096   58.3128   82.8318 H         1 PB7         0.0557
     56 H          85.0026   61.7170   79.9556 H         1 PB7         0.0557
     57 H          79.0827   64.1833   85.2744 H         1 PB7         0.0557
     58 H          76.1324   64.3093   81.8421 H         1 PB7         0.0557
     59 H          80.9390   58.3154   88.6101 H         1 PB7         0.0466
     60 H          79.2738   60.6612   92.1361 H         1 PB7         0.0486
     61 H          76.4620   58.8934   89.0622 H         1 PB7         0.0480
     62 H          80.0063   60.7187   79.4894 H         1 PB7         0.0371
     63 H          81.9475   64.0400   79.7301 H         1 PB7         0.0271
     64 H          80.5405   65.0147   80.1558 H         1 PB7         0.0271
     65 H          80.1792   63.8185   82.1686 H         1 PB7         0.0022
     66 H          81.8400   63.4598   82.0341 H         1 PB7         0.0022
     67 H          83.2244   62.9778   75.8379 H         1 PB7         0.0467
     68 H          82.4857   61.3640   75.6923 H         1 PB7         0.0467
     69 H          81.5015   62.8221   75.4157 H         1 PB7         0.0467
     70 H          76.0606   63.0402   80.0708 H         1 PB7         0.0230
     71 H          75.9016   63.8108   78.4733 H         1 PB7         0.0230
     72 H          75.5019   62.0871   78.6742 H         1 PB7         0.0230
     73 H          79.0188   65.6168   78.4765 H         1 PB7         0.0233
     74 H          78.7230   64.4796   77.1384 H         1 PB7         0.0233
     75 H          77.3609   65.0732   78.1200 H         1 PB7         0.0233
     76 H          77.1391   62.3193   91.7987 H         1 PB7         0.0577
     77 H          76.1438   62.1010   90.3384 H         1 PB7         0.0577
     78 H          75.3921   62.0094   91.9501 H         1 PB7         0.0577
     79 H          82.5677   59.1874   80.6195 H         1 PB7         0.0427
     80 H          82.7180   60.9365   80.3719 H         1 PB7         0.0427
     81 H          76.0953   62.4819   83.4362 H         1 PB7         0.0449
     82 H          76.2459   63.1658   85.1136 H         1 PB7         0.0449
     83 H          77.9809   56.7372   87.6359 H         1 PB7         0.0978
     84 H          79.3745   57.5749   86.8554 H         1 PB7         0.0978
     85 H          77.6894   62.3897   77.5939 H         1 PB7         0.0266
     86 H          77.8510   61.6068   79.2170 H         1 PB7         0.0266
     87 H          82.6833   61.1758   82.8877 H         1 PB7         0.0294
     88 H          82.1533   59.4267   82.9184 H         1 PB7         0.0294
     89 H          78.3215   60.2891   86.9189 H         1 PB7         0.0840
     90 H          78.9598   59.5257   85.4401 H         1 PB7         0.0840
     91 H          80.2088   59.9363   81.7604 H         1 PB7         0.0296
     92 H          78.3622   63.8910   80.1245 H         1 PB7         0.0323
     93 H          78.3429   62.0911   85.3988 H         1 PB7         0.0606
     94 H          76.6863   59.8581   84.3816 H         1 PB7         0.0672
     95 H          80.0523   63.3339   77.0085 H         1 PB7         0.1857
     96 H          78.1154   61.2726   82.4865 H         1 PB7         0.1856
     97 H          76.5998   58.5780   86.9390 H         1 PB7         0.2029
     98 H          77.3161   57.8330   85.6263 H         1 PB7         0.2029
     99 H          79.3937   60.7919   78.2320 H         1 PB7         0.2070
    100 H          75.3016   61.3196   85.5097 H         1 PB7         0.2101
@<TRIPOS>BOND
     1    3    1 ar 
     2    4    1 ar 
     3    5    2 ar 
     4    6    2 ar 
     5    8    3 ar 
     6    9    4 ar 
     7   10    5 ar 
     8   11    6 ar 
     9   12    7 ar 
    10    7   13 ar 
    11   15    8 ar 
    12   15    9 ar 
    13   16   10 ar 
    14   16   11 ar 
    15   17   12 ar 
    16   18   13 ar 
    17   17   14 ar 
    18   14   18 ar 
    19   29   15 1  
    20   30   16 1  
    21   31   17 1  
    22   18   47 1  
    23   19   24 1  
    24   39   19 1  
    25   19   43 1  
    26   20   25 1  
    27   40   20 am 
    28   20   44 2  
    29   21   35 1  
    30   41   21 am 
    31   21   45 2  
    32   23   22 1  
    33   22   24 1  
    34   39   23 1  
    35   24   36 1  
    36   24   40 1  
    37   32   26 1  
    38   36   27 1  
    39   47   28 1  
    40   33   29 1  
    41   37   30 1  
    42   42   31 1  
    43   36   32 1  
    44   35   33 1  
    45   38   34 1  
    46   34   42 1  
    47   35   39 1  
    48   37   38 1  
    49   37   41 1  
    50   38   46 1  
    51    1   48 1  
    52    2   49 1  
    53    3   50 1  
    54    4   51 1  
    55    5   52 1  
    56    6   53 1  
    57    7   54 1  
    58    8   55 1  
    59    9   56 1  
    60   10   57 1  
    61   11   58 1  
    62   12   59 1  
    63   13   60 1  
    64   14   61 1  
    65   19   62 1  
    66   22   63 1  
    67   22   64 1  
    68   23   65 1  
    69   23   66 1  
    70   25   67 1  
    71   25   68 1  
    72   25   69 1  
    73   26   70 1  
    74   26   71 1  
    75   26   72 1  
    76   27   73 1  
    77   27   74 1  
    78   27   75 1  
    79   28   76 1  
    80   28   77 1  
    81   28   78 1  
    82   29   79 1  
    83   29   80 1  
    84   30   81 1  
    85   30   82 1  
    86   31   83 1  
    87   31   84 1  
    88   32   85 1  
    89   32   86 1  
    90   33   87 1  
    91   33   88 1  
    92   34   89 1  
    93   34   90 1  
    94   35   91 1  
    95   36   92 1  
    96   37   93 1  
    97   38   94 1  
    98   40   95 1  
    99   41   96 1  
   100   42   97 1  
   101   42   98 1  
   102   43   99 1  
   103   46  100 1  
@<TRIPOS>SUBSTRUCTURE
     1 PB7         1

