3skf_ligand
  -I-interpret- 

101104  0  0  0  0  0  0  0  0999 V2000
   87.3800   59.8290   81.9580 C   0  0  0  0  0
   78.9510   66.5100   82.4900 C   0  0  0  0  0
   86.4010   58.8870   82.6460 C   0  0  0  0  0
   86.8570   60.8660   80.9700 C   0  0  0  0  0
   79.4550   65.8650   83.7800 C   0  0  0  0  0
   77.7220   65.9360   81.7800 C   0  0  0  0  0
   80.2990   59.5200   90.4450 C   0  0  0  0  0
   84.9100   58.9900   82.3430 C   0  0  0  0  0
   85.3670   60.9740   80.6650 C   0  0  0  0  0
   78.7240   64.6460   84.3550 C   0  0  0  0  0
   77.0020   64.7190   82.3560 C   0  0  0  0  0
   80.0870   58.7180   89.1580 C   0  0  0  0  0
   79.1070   60.0930   91.2210 C   0  0  0  0  0
   77.4740   59.0630   89.4300 C   0  0  0  0  0
   84.3940   60.0340   81.3610 C   0  0  0  0  0
   77.4940   64.0750   83.6460 C   0  0  0  0  0
   78.6640   58.4910   88.6540 C   0  0  0  0  0
   77.6830   59.8660   90.7090 C   0  0  0  0  0
   80.0770   61.7620   79.7970 C   0  0  0  0  0
   81.9500   62.4300   77.4850 C   0  0  0  0  0
   80.0280   61.1450   83.5080 C   0  0  0  0  0
   80.9250   63.9960   80.1050 C   0  0  0  0  0
   80.8980   63.3490   81.4970 C   0  0  0  0  0
   80.0500   63.1430   79.1660 C   0  0  0  0  0
   82.3170   62.3960   76.0000 C   0  0  0  0  0
   76.1640   62.8910   78.9960 C   0  0  0  0  0
   78.4100   64.7780   78.1390 C   0  0  0  0  0
   76.2890   61.7870   91.3720 C   0  0  0  0  0
   82.9100   60.1200   81.0680 C   0  0  0  0  0
   76.7680   62.8540   84.2090 C   0  0  0  0  0
   78.4210   57.6980   87.3690 C   0  0  0  0  0
   77.6060   62.5190   78.6730 C   0  0  0  0  0
   82.1670   60.3680   82.3690 C   0  0  0  0  0
   78.0640   59.7070   86.0340 C   0  0  0  0  0
   80.7170   60.8040   82.1810 C   0  0  0  0  0
   78.5890   63.6030   79.0980 C   0  0  0  0  0
   77.7190   61.7150   84.5880 C   0  0  0  0  0
   77.0530   60.4790   85.1990 C   0  0  0  0  0
   80.5660   61.9250   81.1950 N   0  3  0  0  0
   80.6190   63.0070   77.7910 N   0  0  0  0  0
   78.5620   61.3640   83.3990 N   0  0  0  0  0
   77.4800   58.4090   86.4520 N   0  3  0  0  0
   79.6530   60.5770   79.1310 O   0  0  0  0  0
   82.8600   61.9260   78.4540 O   0  0  0  0  0
   80.7250   61.2310   84.7440 O   0  0  0  0  0
   75.9530   60.8460   86.0320 O   0  0  0  0  0
   76.5420   60.3790   91.4100 O   0  0  0  0  0
   88.4470   59.7624   82.1703 H   0  0  0  0  0
   79.4654   67.3772   82.0759 H   0  0  0  0  0
   86.7649   58.1414   83.3529 H   0  0  0  0  0
   87.5575   61.5389   80.4753 H   0  0  0  0  0
   80.3299   66.2694   84.2891 H   0  0  0  0  0
   77.3601   66.3973   80.8611 H   0  0  0  0  0
   81.3109   59.6859   90.8146 H   0  0  0  0  0
   84.2096   58.3128   82.8318 H   0  0  0  0  0
   85.0026   61.7170   79.9556 H   0  0  0  0  0
   79.0827   64.1833   85.2744 H   0  0  0  0  0
   76.1324   64.3093   81.8421 H   0  0  0  0  0
   80.9390   58.3154   88.6101 H   0  0  0  0  0
   79.2738   60.6612   92.1361 H   0  0  0  0  0
   76.4620   58.8934   89.0622 H   0  0  0  0  0
   80.0063   60.7187   79.4894 H   0  0  0  0  0
   81.9475   64.0400   79.7301 H   0  0  0  0  0
   80.5405   65.0147   80.1558 H   0  0  0  0  0
   80.1792   63.8185   82.1686 H   0  0  0  0  0
   81.8400   63.4598   82.0341 H   0  0  0  0  0
   83.2244   62.9778   75.8379 H   0  0  0  0  0
   82.4857   61.3640   75.6923 H   0  0  0  0  0
   81.5015   62.8221   75.4157 H   0  0  0  0  0
   76.0606   63.0402   80.0708 H   0  0  0  0  0
   75.9016   63.8108   78.4733 H   0  0  0  0  0
   75.5019   62.0871   78.6742 H   0  0  0  0  0
   79.0188   65.6168   78.4765 H   0  0  0  0  0
   78.7230   64.4796   77.1384 H   0  0  0  0  0
   77.3609   65.0732   78.1200 H   0  0  0  0  0
   77.1391   62.3193   91.7987 H   0  0  0  0  0
   76.1438   62.1010   90.3384 H   0  0  0  0  0
   75.3921   62.0094   91.9501 H   0  0  0  0  0
   82.5677   59.1874   80.6195 H   0  0  0  0  0
   82.7180   60.9365   80.3719 H   0  0  0  0  0
   76.0953   62.4819   83.4362 H   0  0  0  0  0
   76.2459   63.1658   85.1136 H   0  0  0  0  0
   77.9809   56.7372   87.6359 H   0  0  0  0  0
   79.3745   57.5749   86.8554 H   0  0  0  0  0
   77.6894   62.3897   77.5939 H   0  0  0  0  0
   77.8510   61.6068   79.2170 H   0  0  0  0  0
   82.6833   61.1758   82.8877 H   0  0  0  0  0
   82.1533   59.4267   82.9184 H   0  0  0  0  0
   78.3215   60.2891   86.9189 H   0  0  0  0  0
   78.9598   59.5257   85.4401 H   0  0  0  0  0
   80.2088   59.9363   81.7604 H   0  0  0  0  0
   78.3622   63.8910   80.1245 H   0  0  0  0  0
   78.3429   62.0911   85.3988 H   0  0  0  0  0
   76.6863   59.8581   84.3816 H   0  0  0  0  0
   80.6083   61.1334   81.8369 H   0  0  0  0  0
   80.0523   63.3339   77.0085 H   0  0  0  0  0
   78.1154   61.2726   82.4865 H   0  0  0  0  0
   76.5998   58.5780   86.9390 H   0  0  0  0  0
   77.3161   57.8330   85.6263 H   0  0  0  0  0
   79.7584   59.8256   79.7191 H   0  0  0  0  0
   75.3092   61.3340   85.5134 H   0  0  0  0  0
  3  1  4  0  0  0
  4  1  4  0  0  0
  5  2  4  0  0  0
  6  2  4  0  0  0
  8  3  4  0  0  0
  9  4  4  0  0  0
 10  5  4  0  0  0
 11  6  4  0  0  0
 12  7  4  0  0  0
  7 13  4  0  0  0
 15  8  4  0  0  0
 15  9  4  0  0  0
 16 10  4  0  0  0
 16 11  4  0  0  0
 17 12  4  0  0  0
 18 13  4  0  0  0
 17 14  4  0  0  0
 14 18  4  0  0  0
 29 15  1  0  0  0
 30 16  1  0  0  0
 31 17  1  0  0  0
 18 47  1  0  0  0
 19 24  1  0  0  0
 39 19  1  0  0  0
 19 43  1  0  0  0
 20 25  1  0  0  0
 40 20  1  0  0  0
 20 44  2  0  0  0
 21 35  1  0  0  0
 41 21  1  0  0  0
 21 45  2  0  0  0
 23 22  1  0  0  0
 22 24  1  0  0  0
 39 23  1  0  0  0
 24 36  1  0  0  0
 24 40  1  0  0  0
 32 26  1  0  0  0
 36 27  1  0  0  0
 47 28  1  0  0  0
 33 29  1  0  0  0
 37 30  1  0  0  0
 42 31  1  0  0  0
 36 32  1  0  0  0
 35 33  1  0  0  0
 38 34  1  0  0  0
 34 42  1  0  0  0
 35 39  1  0  0  0
 37 38  1  0  0  0
 37 41  1  0  0  0
 38 46  1  0  0  0
  1 48  1  0  0  0
  2 49  1  0  0  0
  3 50  1  0  0  0
  4 51  1  0  0  0
  5 52  1  0  0  0
  6 53  1  0  0  0
  7 54  1  0  0  0
  8 55  1  0  0  0
  9 56  1  0  0  0
 10 57  1  0  0  0
 11 58  1  0  0  0
 12 59  1  0  0  0
 13 60  1  0  0  0
 14 61  1  0  0  0
 19 62  1  0  0  0
 22 63  1  0  0  0
 22 64  1  0  0  0
 23 65  1  0  0  0
 23 66  1  0  0  0
 25 67  1  0  0  0
 25 68  1  0  0  0
 25 69  1  0  0  0
 26 70  1  0  0  0
 26 71  1  0  0  0
 26 72  1  0  0  0
 27 73  1  0  0  0
 27 74  1  0  0  0
 27 75  1  0  0  0
 28 76  1  0  0  0
 28 77  1  0  0  0
 28 78  1  0  0  0
 29 79  1  0  0  0
 29 80  1  0  0  0
 30 81  1  0  0  0
 30 82  1  0  0  0
 31 83  1  0  0  0
 31 84  1  0  0  0
 32 85  1  0  0  0
 32 86  1  0  0  0
 33 87  1  0  0  0
 33 88  1  0  0  0
 34 89  1  0  0  0
 34 90  1  0  0  0
 35 91  1  0  0  0
 36 92  1  0  0  0
 37 93  1  0  0  0
 38 94  1  0  0  0
 39 95  1  0  0  0
 40 96  1  0  0  0
 41 97  1  0  0  0
 42 98  1  0  0  0
 42 99  1  0  0  0
 43100  1  0  0  0
 46101  1  0  0  0
M  END
$$$$
