4fhh_ligand
  -I-interpret- 

 72 73  0  0  0  0  0  0  0  0999 V2000
    2.4420   37.4690   37.5710 C   0  0  0  0  0
    1.5220   38.5270   37.8510 C   0  0  0  0  0
    0.1520   38.2090   38.4600 C   0  0  0  0  0
   -0.1620   36.8480   38.7340 C   0  0  0  0  0
    0.7720   35.7310   38.4550 C   0  0  0  0  0
    2.0770   36.1060   37.8660 C   0  0  0  0  0
    0.3310   34.2240   38.8030 C   0  0  0  0  0
    0.8590   32.9690   37.9550 C   0  0  0  0  0
   -1.2950   34.0020   38.7560 C   0  0  0  0  0
    0.7250   34.0950   40.3900 C   0  0  0  0  0
    2.2050   34.2430   40.9270 C   0  0  0  0  0
   -2.1550   34.0500   37.4330 C   0  0  0  0  0
    1.1940   31.6450   38.6000 C   0  0  0  0  0
    1.6460   30.5300   37.8420 C   0  0  0  0  0
    1.7740   30.7340   36.3080 C   0  0  0  0  0
    1.9770   29.2150   38.5190 C   0  0  0  0  0
    1.4410   32.0410   35.7270 C   0  0  0  0  0
    1.0130   33.0830   36.5090 C   0  0  0  0  0
    1.8540   39.7890   37.5830 O   0  0  0  0  0
    4.9900   42.0940   36.6310 O   0  0  0  0  0
    2.4610   40.4630   38.7050 C   0  0  0  0  0
    3.5280   41.4430   38.2240 C   0  0  0  0  0
    4.0330   41.2050   37.0390 N   0  0  0  0  0
    3.8990   42.3960   38.9000 O   0  0  0  0  0
    4.6560   29.5660   32.5910 C   0  0  0  0  0
    4.7700   28.1320   32.0150 C   0  0  0  0  0
    3.6030   30.2140   31.6080 C   0  0  0  0  0
    5.9990   30.1910   32.4830 C   0  0  0  0  0
    3.1260   30.1730   34.4570 C   0  0  0  0  0
    2.2490   29.5330   35.4950 O   0  0  0  0  0
    4.4440   29.5550   34.1310 C   0  0  0  0  0
    4.4090   28.2680   34.7550 O   0  0  0  0  0
   -0.9240   39.2520   38.8070 C   0  0  0  0  0
    3.4161   37.6923   37.1359 H   0  0  0  0  0
   -1.1342   36.6163   39.1691 H   0  0  0  0  0
    2.7946   35.3158   37.6453 H   0  0  0  0  0
   -1.6705   34.8574   39.3176 H   0  0  0  0  0
   -1.4053   32.9661   39.0766 H   0  0  0  0  0
    0.4800   33.0586   40.6223 H   0  0  0  0  0
    0.2117   34.9436   40.8421 H   0  0  0  0  0
    2.8346   33.4808   40.4679 H   0  0  0  0  0
    2.5854   35.2322   40.6722 H   0  0  0  0  0
    2.2115   34.1177   42.0098 H   0  0  0  0  0
   -2.0497   35.0302   36.9681 H   0  0  0  0  0
   -1.8043   33.2806   36.7451 H   0  0  0  0  0
   -3.2027   33.8722   37.6756 H   0  0  0  0  0
    1.0860   31.5410   39.6796 H   0  0  0  0  0
    2.7750   29.3722   39.2447 H   0  0  0  0  0
    1.0905   28.8366   39.0280 H   0  0  0  0  0
    2.3027   28.4938   37.7694 H   0  0  0  0  0
    1.5361   32.1860   34.6509 H   0  0  0  0  0
    0.7786   34.0342   36.0311 H   0  0  0  0  0
    5.3038   41.8465   35.7581 H   0  0  0  0  0
    2.9268   39.7219   39.3545 H   0  0  0  0  0
    1.6919   41.0136   39.2466 H   0  0  0  0  0
    3.7355   40.4168   36.4640 H   0  0  0  0  0
    3.7931   27.6496   32.0485 H   0  0  0  0  0
    5.1163   28.1829   30.9827 H   0  0  0  0  0
    5.4805   27.5583   32.6100 H   0  0  0  0  0
    3.9928   30.1864   30.5905 H   0  0  0  0  0
    2.6697   29.6531   31.6563 H   0  0  0  0  0
    3.4225   31.2481   31.9013 H   0  0  0  0  0
    6.7185   29.6040   33.0539 H   0  0  0  0  0
    6.3014   30.2207   31.4362 H   0  0  0  0  0
    5.9592   31.2054   32.8799 H   0  0  0  0  0
    3.3723   31.1524   34.8671 H   0  0  0  0  0
    2.5531   30.1096   33.5319 H   0  0  0  0  0
    5.3129   30.0935   34.5093 H   0  0  0  0  0
    4.2745   28.3751   35.6995 H   0  0  0  0  0
   -0.5243   39.9553   39.5376 H   0  0  0  0  0
   -1.2122   39.7893   37.9035 H   0  0  0  0  0
   -1.7954   38.7479   39.2250 H   0  0  0  0  0
  1  2  4  0  0  0
  6  1  4  0  0  0
  3  2  4  0  0  0
  2 19  1  0  0  0
  4  3  4  0  0  0
  3 33  1  0  0  0
  5  4  4  0  0  0
  5  6  4  0  0  0
  7  5  1  0  0  0
  8  7  1  0  0  0
  7  9  1  0  0  0
  7 10  1  0  0  0
 13  8  4  0  0  0
 18  8  4  0  0  0
  9 12  1  0  0  0
 10 11  1  0  0  0
 14 13  4  0  0  0
 15 14  4  0  0  0
 14 16  1  0  0  0
 15 17  4  0  0  0
 30 15  1  0  0  0
 17 18  4  0  0  0
 19 21  1  0  0  0
 23 20  1  0  0  0
 21 22  1  0  0  0
 22 23  1  0  0  0
 22 24  2  0  0  0
 25 26  1  0  0  0
 25 27  1  0  0  0
 25 28  1  0  0  0
 31 25  1  0  0  0
 29 30  1  0  0  0
 29 31  1  0  0  0
 31 32  1  0  0  0
  1 34  1  0  0  0
  4 35  1  0  0  0
  6 36  1  0  0  0
  9 37  1  0  0  0
  9 38  1  0  0  0
 10 39  1  0  0  0
 10 40  1  0  0  0
 11 41  1  0  0  0
 11 42  1  0  0  0
 11 43  1  0  0  0
 12 44  1  0  0  0
 12 45  1  0  0  0
 12 46  1  0  0  0
 13 47  1  0  0  0
 16 48  1  0  0  0
 16 49  1  0  0  0
 16 50  1  0  0  0
 17 51  1  0  0  0
 18 52  1  0  0  0
 20 53  1  0  0  0
 21 54  1  0  0  0
 21 55  1  0  0  0
 23 56  1  0  0  0
 26 57  1  0  0  0
 26 58  1  0  0  0
 26 59  1  0  0  0
 27 60  1  0  0  0
 27 61  1  0  0  0
 27 62  1  0  0  0
 28 63  1  0  0  0
 28 64  1  0  0  0
 28 65  1  0  0  0
 29 66  1  0  0  0
 29 67  1  0  0  0
 31 68  1  0  0  0
 32 69  1  0  0  0
 33 70  1  0  0  0
 33 71  1  0  0  0
 33 72  1  0  0  0
M  END
$$$$
