6n3v_ligand
  -I-interpret- 

 42 44  0  0  0  0  0  0  0  0999 V2000
  -27.3950    4.7310  -33.9960 N   0  0  0  0  0
  -26.6720    5.0130  -32.8960 C   0  0  0  0  0
  -32.1900    3.4140  -24.2030 O   0  0  0  0  0
  -27.2320    5.2220  -31.6750 N   0  0  0  0  0
  -28.5740    5.1190  -31.5330 C   0  0  0  0  0
  -31.9240    5.3780  -23.0930 N   0  0  0  0  0
  -29.4170    4.8020  -32.6900 C   0  0  0  0  0
  -28.7300    4.6060  -33.9770 C   0  0  0  0  0
  -29.0150    5.5920  -29.1610 C   0  0  0  0  0
  -29.7980    6.7830  -28.6230 C   0  0  0  0  0
  -29.2730    8.0200  -29.0670 O   0  0  0  0  0
  -29.7580    6.5470  -27.1020 C   0  0  0  0  0
  -28.7410    7.3370  -26.4770 O   0  0  0  0  0
  -29.4230    5.0550  -26.9730 C   0  0  0  0  0
  -29.3510    4.5360  -28.3140 O   0  0  0  0  0
  -30.4210    4.2670  -26.1860 C   0  0  0  0  0
  -29.3880    4.3460  -35.0150 O   0  0  0  0  0
  -25.3310    5.1130  -33.0200 N   0  0  0  0  0
  -30.6930    4.7660  -32.2600 N   0  0  0  0  0
  -30.6770    5.0400  -30.9330 C   0  0  0  0  0
  -29.4130    5.2410  -30.5140 N   0  0  0  0  0
  -30.5680    4.8710  -24.9120 O   0  0  0  0  0
  -31.6360    4.4870  -24.0310 C   0  0  0  0  0
  -31.3570    6.7200  -23.1840 C   0  0  0  0  0
  -32.2790    7.6880  -23.8970 C   0  0  0  0  0
  -26.6460    5.4544  -30.8731 H   0  0  0  0  0
  -32.5355    5.1285  -22.3156 H   0  0  0  0  0
  -27.9489    5.8167  -29.1915 H   0  0  0  0  0
  -30.8240    6.8517  -28.9845 H   0  0  0  0  0
  -29.7970    8.7376  -28.7037 H   0  0  0  0  0
  -30.6943    6.8240  -26.6175 H   0  0  0  0  0
  -28.7415    7.1679  -25.5320 H   0  0  0  0  0
  -28.4859    4.9599  -26.4244 H   0  0  0  0  0
  -30.0771    3.2389  -26.0727 H   0  0  0  0  0
  -31.3793    4.2563  -26.7053 H   0  0  0  0  0
  -24.8913    4.9758  -33.9301 H   0  0  0  0  0
  -31.5602    5.0905  -30.2962 H   0  0  0  0  0
  -30.4290    6.6567  -23.7523 H   0  0  0  0  0
  -31.1983    7.0890  -22.1707 H   0  0  0  0  0
  -32.4657    7.3309  -24.9098 H   0  0  0  0  0
  -33.2221    7.7559  -23.3547 H   0  0  0  0  0
  -31.8102    8.6712  -23.9377 H   0  0  0  0  0
  2  1  4  0  0  0
  8  1  1  0  0  0
  4  2  1  0  0  0
  2 18  2  0  0  0
 23  3  2  0  0  0
  5  4  1  0  0  0
  5  7  4  0  0  0
 21  5  4  0  0  0
 23  6  1  0  0  0
  6 24  1  0  0  0
  7  8  1  0  0  0
 19  7  4  0  0  0
  8 17  2  0  0  0
  9 10  1  0  0  0
 15  9  1  0  0  0
  9 21  1  0  0  0
 10 11  1  0  0  0
 12 10  1  0  0  0
 12 13  1  0  0  0
 14 12  1  0  0  0
 14 15  1  0  0  0
 16 14  1  0  0  0
 22 16  1  0  0  0
 20 19  4  0  0  0
 21 20  4  0  0  0
 22 23  1  0  0  0
 24 25  1  0  0  0
  4 26  1  0  0  0
  6 27  1  0  0  0
  9 28  1  0  0  0
 10 29  1  0  0  0
 11 30  1  0  0  0
 12 31  1  0  0  0
 13 32  1  0  0  0
 14 33  1  0  0  0
 16 34  1  0  0  0
 16 35  1  0  0  0
 18 36  1  0  0  0
 20 37  1  0  0  0
 24 38  1  0  0  0
 24 39  1  0  0  0
 25 40  1  0  0  0
 25 41  1  0  0  0
 25 42  1  0  0  0
M  END
$$$$
