2xwy_ligand
  -I-interpret- 

 74 78  0  0  0  0  0  0  0  0999 V2000
   24.6520   11.7910    4.9500 C   0  0  0  0  0
   26.5410    9.3280    2.7130 C   0  0  0  0  0
   25.3650    9.9750    3.3750 N   0  3  0  0  0
   24.3790    8.9850    3.8790 C   0  0  0  0  0
   28.0670    7.2680    0.9840 C   0  0  0  0  0
   27.2640    8.4020    0.4740 N   0  3  0  0  0
   26.7190    7.9990   -0.8460 C   0  0  0  0  0
   26.6190   10.3770    5.6100 C   0  0  0  0  0
   27.7700   11.2370    6.0080 N   0  0  0  0  0
   29.0320   11.1310    5.5800 C   0  0  0  0  0
   29.5840   10.2500    4.6710 C   0  0  0  0  0
   30.9370   10.3350    4.3650 C   0  0  0  0  0
   31.4890    9.3250    3.3770 C   0  0  0  0  0
   30.6700    8.8780    2.5180 O   0  0  0  0  0
   32.6890    8.9600    3.5520 O   0  0  0  0  0
   31.7660   11.2870    4.9650 C   0  0  0  0  0
   31.2070   12.1890    5.8740 C   0  0  0  0  0
   29.8410   12.1040    6.1730 C   0  0  0  0  0
   28.9950   12.8170    7.0050 C   0  0  0  0  0
   29.4100   14.0030    7.9220 C   0  0  0  0  0
   30.6340   13.5840    8.7730 C   0  0  0  0  0
   31.2030   14.7380    9.6350 C   0  0  0  0  0
   31.6230   15.8920    8.7230 C   0  0  0  0  0
   30.3790   16.3970    7.9670 C   0  0  0  0  0
   25.8250   10.9570    4.4170 C   0  0  0  0  0
   29.7350   15.2860    7.1160 C   0  0  0  0  0
   27.7110   12.2740    6.8930 C   0  0  0  0  0
   26.5510   12.6660    7.5480 C   0  0  0  0  0
   26.5690   12.7330    8.9360 C   0  0  0  0  0
   25.4380   13.1380    9.6380 C   0  0  0  0  0
   24.2760   13.4820    8.9530 C   0  0  0  0  0
   24.2490   13.4310    7.5590 C   0  0  0  0  0
   25.3940   13.0290    6.8590 C   0  0  0  0  0
   25.3490   12.9870    5.4880 O   0  0  0  0  0
   26.1190    8.7440    1.3550 C   0  0  0  0  0
   24.0513   11.2681    5.6942 H   0  0  0  0  0
   23.9081   12.0284    4.1895 H   0  0  0  0  0
   26.9161    8.5261    3.3489 H   0  0  0  0  0
   27.3216   10.0727    2.5578 H   0  0  0  0  0
   24.8541   10.5073    2.6707 H   0  0  0  0  0
   24.8250    8.4111    4.6913 H   0  0  0  0  0
   23.4953    9.5080    4.2445 H   0  0  0  0  0
   24.0957    8.3120    3.0698 H   0  0  0  0  0
   27.4297    6.3895    1.0848 H   0  0  0  0  0
   28.8755    7.0536    0.2851 H   0  0  0  0  0
   28.4850    7.5287    1.9563 H   0  0  0  0  0
   27.8691    9.2217    0.4249 H   0  0  0  0  0
   26.0675    7.1342   -0.7200 H   0  0  0  0  0
   26.1494    8.8258   -1.2703 H   0  0  0  0  0
   27.5411    7.7419   -1.5139 H   0  0  0  0  0
   25.9418   10.3093    6.4614 H   0  0  0  0  0
   27.0145    9.4070    5.3087 H   0  0  0  0  0
   28.9616    9.4917    4.1959 H   0  0  0  0  0
   29.8307    9.3348    2.6097 H   0  0  0  0  0
   32.8293   11.3251    4.7281 H   0  0  0  0  0
   31.8274   12.9510    6.3457 H   0  0  0  0  0
   28.5644   14.2395    8.5678 H   0  0  0  0  0
   31.4194   13.2662    8.0872 H   0  0  0  0  0
   30.3097   12.7946    9.4511 H   0  0  0  0  0
   32.0680   14.3825   10.1949 H   0  0  0  0  0
   30.4392   15.0834   10.3317 H   0  0  0  0  0
   32.3758   15.5495    8.0130 H   0  0  0  0  0
   32.0496   16.6996    9.3180 H   0  0  0  0  0
   30.6871   17.2030    7.3010 H   0  0  0  0  0
   29.6465   16.7343    8.7003 H   0  0  0  0  0
   26.5368   11.5770    3.8720 H   0  0  0  0  0
   28.7949   15.6751    6.7249 H   0  0  0  0  0
   30.4480   15.0133    6.3380 H   0  0  0  0  0
   27.4759   12.4663    9.4787 H   0  0  0  0  0
   25.4619   13.1860   10.7267 H   0  0  0  0  0
   23.3883   13.7908    9.5050 H   0  0  0  0  0
   23.3425   13.7023    7.0179 H   0  0  0  0  0
   25.5272    9.5025    0.8425 H   0  0  0  0  0
   25.5709    7.8225    1.5514 H   0  0  0  0  0
 25  1  1  0  0  0
  1 34  1  0  0  0
  3  2  1  0  0  0
  2 35  1  0  0  0
  3  4  1  0  0  0
 25  3  1  0  0  0
  6  5  1  0  0  0
  6  7  1  0  0  0
 35  6  1  0  0  0
  8  9  1  0  0  0
  8 25  1  0  0  0
  9 10  4  0  0  0
  9 27  4  0  0  0
 10 11  4  0  0  0
 10 18  4  0  0  0
 11 12  4  0  0  0
 12 13  1  0  0  0
 12 16  4  0  0  0
 13 14  1  0  0  0
 13 15  2  0  0  0
 16 17  4  0  0  0
 17 18  4  0  0  0
 18 19  4  0  0  0
 19 20  1  0  0  0
 19 27  4  0  0  0
 20 21  1  0  0  0
 20 26  1  0  0  0
 21 22  1  0  0  0
 22 23  1  0  0  0
 23 24  1  0  0  0
 24 26  1  0  0  0
 27 28  1  0  0  0
 28 29  4  0  0  0
 28 33  4  0  0  0
 29 30  4  0  0  0
 30 31  4  0  0  0
 31 32  4  0  0  0
 32 33  4  0  0  0
 33 34  1  0  0  0
  1 36  1  0  0  0
  1 37  1  0  0  0
  2 38  1  0  0  0
  2 39  1  0  0  0
  3 40  1  0  0  0
  4 41  1  0  0  0
  4 42  1  0  0  0
  4 43  1  0  0  0
  5 44  1  0  0  0
  5 45  1  0  0  0
  5 46  1  0  0  0
  6 47  1  0  0  0
  7 48  1  0  0  0
  7 49  1  0  0  0
  7 50  1  0  0  0
  8 51  1  0  0  0
  8 52  1  0  0  0
 11 53  1  0  0  0
 14 54  1  0  0  0
 16 55  1  0  0  0
 17 56  1  0  0  0
 20 57  1  0  0  0
 21 58  1  0  0  0
 21 59  1  0  0  0
 22 60  1  0  0  0
 22 61  1  0  0  0
 23 62  1  0  0  0
 23 63  1  0  0  0
 24 64  1  0  0  0
 24 65  1  0  0  0
 25 66  1  0  0  0
 26 67  1  0  0  0
 26 68  1  0  0  0
 29 69  1  0  0  0
 30 70  1  0  0  0
 31 71  1  0  0  0
 32 72  1  0  0  0
 35 73  1  0  0  0
 35 74  1  0  0  0
M  END
$$$$
