### 
### Created by X-TOOL on Mon Sep 10 21:13:04 2018
### 

@<TRIPOS>MOLECULE
2xwy_ligand
   71    75     1     0     0
SMALL
GAST_HUCK


@<TRIPOS>ATOM
      1 C28        24.6520   11.7910    4.9500 C.3       1 IB8         0.0577
      2 C30        26.5410    9.3280    2.7130 C.3       1 IB8        -0.1319
      3 N3         25.3650    9.9750    3.3750 N.4       1 IB8         0.4051
      4 C31        24.3790    8.9850    3.8790 C.3       1 IB8        -0.1251
      5 C25        28.0670    7.2680    0.9840 C.3       1 IB8        -0.1261
      6 N2         27.2640    8.4020    0.4740 N.4       1 IB8         0.3973
      7 C24        26.7190    7.9990   -0.8460 C.3       1 IB8        -0.1261
      8 C22        26.6190   10.3770    5.6100 C.3       1 IB8         0.0344
      9 N1         27.7700   11.2370    6.0080 N.pl3     1 IB8        -0.2692
     10 C1         29.0320   11.1310    5.5800 C.ar      1 IB8         0.0663
     11 C6         29.5840   10.2500    4.6710 C.ar      1 IB8        -0.0298
     12 C5         30.9370   10.3350    4.3650 C.ar      1 IB8        -0.0053
     13 C8         31.4890    9.3250    3.3770 C.2       1 IB8         0.0556
     14 O2         30.6700    8.8780    2.5180 O.co2     1 IB8        -0.5629
     15 O1         32.6890    8.9600    3.5520 O.co2     1 IB8        -0.5629
     16 C4         31.7660   11.2870    4.9650 C.ar      1 IB8        -0.0658
     17 C3         31.2070   12.1890    5.8740 C.ar      1 IB8        -0.0713
     18 C2         29.8410   12.1040    6.1730 C.ar      1 IB8        -0.0157
     19 C7         28.9950   12.8170    7.0050 C.2       1 IB8        -0.0306
     20 C16        29.4100   14.0030    7.9220 C.3       1 IB8        -0.0213
     21 C17        30.6340   13.5840    8.7730 C.3       1 IB8        -0.0450
     22 C20        31.2030   14.7380    9.6350 C.3       1 IB8        -0.0516
     23 C21        31.6230   15.8920    8.7230 C.3       1 IB8        -0.0528
     24 C19        30.3790   16.3970    7.9670 C.3       1 IB8        -0.0516
     25 C23        25.8250   10.9570    4.4170 C.3       1 IB8        -0.0461
     26 C18        29.7350   15.2860    7.1160 C.3       1 IB8        -0.0450
     27 C9         27.7110   12.2740    6.8930 C.2       1 IB8         0.0634
     28 C10        26.5510   12.6660    7.5480 C.ar      1 IB8         0.0287
     29 C11        26.5690   12.7330    8.9360 C.ar      1 IB8        -0.0635
     30 C12        25.4380   13.1380    9.6380 C.ar      1 IB8        -0.0750
     31 C13        24.2760   13.4820    8.9530 C.ar      1 IB8        -0.0730
     32 C14        24.2490   13.4310    7.5590 C.ar      1 IB8        -0.0341
     33 C15        25.3940   13.0290    6.8590 C.ar      1 IB8         0.1005
     34 O3         25.3490   12.9870    5.4880 O.3       1 IB8        -0.3181
     35 C26        26.1190    8.7440    1.3550 C.3       1 IB8        -0.1329
     36 H          24.0513   11.2681    5.6942 H         1 IB8         0.0598
     37 H          23.9081   12.0284    4.1895 H         1 IB8         0.0598
     38 H          26.9161    8.5261    3.3489 H         1 IB8        -0.0003
     39 H          27.3216   10.0727    2.5578 H         1 IB8        -0.0003
     40 H          24.8250    8.4111    4.6913 H         1 IB8        -0.0019
     41 H          23.4953    9.5080    4.2445 H         1 IB8        -0.0019
     42 H          24.0957    8.3120    3.0698 H         1 IB8        -0.0019
     43 H          27.4297    6.3895    1.0848 H         1 IB8        -0.0019
     44 H          28.8755    7.0536    0.2851 H         1 IB8        -0.0019
     45 H          28.4850    7.5287    1.9563 H         1 IB8        -0.0019
     46 H          26.0675    7.1342   -0.7200 H         1 IB8        -0.0019
     47 H          26.1494    8.8258   -1.2703 H         1 IB8        -0.0019
     48 H          27.5411    7.7419   -1.5139 H         1 IB8        -0.0019
     49 H          25.9418   10.3093    6.4614 H         1 IB8         0.0571
     50 H          27.0145    9.4070    5.3087 H         1 IB8         0.0571
     51 H          28.9616    9.4917    4.1959 H         1 IB8         0.0575
     52 H          32.8293   11.3251    4.7281 H         1 IB8         0.0537
     53 H          31.8274   12.9510    6.3457 H         1 IB8         0.0544
     54 H          28.5644   14.2395    8.5678 H         1 IB8         0.0399
     55 H          31.4194   13.2662    8.0872 H         1 IB8         0.0284
     56 H          30.3097   12.7946    9.4511 H         1 IB8         0.0284
     57 H          32.0680   14.3825   10.1949 H         1 IB8         0.0267
     58 H          30.4392   15.0834   10.3317 H         1 IB8         0.0267
     59 H          32.3758   15.5495    8.0130 H         1 IB8         0.0265
     60 H          32.0496   16.6996    9.3180 H         1 IB8         0.0265
     61 H          30.6871   17.2030    7.3010 H         1 IB8         0.0267
     62 H          29.6465   16.7343    8.7003 H         1 IB8         0.0267
     63 H          26.5368   11.5770    3.8720 H         1 IB8         0.0104
     64 H          28.7949   15.6751    6.7249 H         1 IB8         0.0284
     65 H          30.4480   15.0133    6.3380 H         1 IB8         0.0284
     66 H          27.4759   12.4663    9.4787 H         1 IB8         0.0566
     67 H          25.4619   13.1860   10.7267 H         1 IB8         0.0520
     68 H          23.3883   13.7908    9.5050 H         1 IB8         0.0568
     69 H          23.3425   13.7023    7.0179 H         1 IB8         0.0532
     70 H          25.5272    9.5025    0.8425 H         1 IB8        -0.0003
     71 H          25.5709    7.8225    1.5514 H         1 IB8        -0.0003
@<TRIPOS>BOND
     1   25    1 1  
     2    1   34 1  
     3    3    2 1  
     4    2   35 1  
     5    3    4 1  
     6   25    3 1  
     7    6    5 1  
     8    6    7 1  
     9   35    6 1  
    10    8    9 1  
    11    8   25 1  
    12    9   10 1  
    13    9   27 1  
    14   10   11 ar 
    15   10   18 ar 
    16   11   12 ar 
    17   12   13 1  
    18   12   16 ar 
    19   13   14 ar 
    20   13   15 ar 
    21   16   17 ar 
    22   17   18 ar 
    23   18   19 1  
    24   19   20 1  
    25   19   27 2  
    26   20   21 1  
    27   20   26 1  
    28   21   22 1  
    29   22   23 1  
    30   23   24 1  
    31   24   26 1  
    32   27   28 1  
    33   28   29 ar 
    34   28   33 ar 
    35   29   30 ar 
    36   30   31 ar 
    37   31   32 ar 
    38   32   33 ar 
    39   33   34 1  
    40    1   36 1  
    41    1   37 1  
    42    2   38 1  
    43    2   39 1  
    44    4   40 1  
    45    4   41 1  
    46    4   42 1  
    47    5   43 1  
    48    5   44 1  
    49    5   45 1  
    50    7   46 1  
    51    7   47 1  
    52    7   48 1  
    53    8   49 1  
    54    8   50 1  
    55   11   51 1  
    56   16   52 1  
    57   17   53 1  
    58   20   54 1  
    59   21   55 1  
    60   21   56 1  
    61   22   57 1  
    62   22   58 1  
    63   23   59 1  
    64   23   60 1  
    65   24   61 1  
    66   24   62 1  
    67   25   63 1  
    68   26   64 1  
    69   26   65 1  
    70   29   66 1  
    71   30   67 1  
    72   31   68 1  
    73   32   69 1  
    74   35   70 1  
    75   35   71 1  
@<TRIPOS>SUBSTRUCTURE
     1 IB8         1

