3g0i_ligand
  -I-interpret- 

 27 26  0  0  0  0  0  0  0  0999 V2000
   26.5640   37.9770   58.6540 C   0  0  0  0  0
   26.1170   37.6150   60.0440 C   0  0  0  0  0
   24.5980   37.6380   60.0160 C   0  0  0  0  0
   23.9640   36.6500   60.9940 C   0  0  0  0  0
   22.4400   36.7340   60.9810 C   0  0  0  0  0
   21.9430   38.1590   61.2060 C   0  0  0  0  0
   20.9180   38.4800   60.1480 C   0  0  0  0  0
   24.4050   35.2400   60.7170 C   0  0  0  0  0
   24.1070   34.6720   59.6360 N   0  0  0  0  0
   25.1160   34.6170   61.6350 O   0  0  0  0  0
   26.1719   37.2469   57.9459 H   0  0  0  0  0
   26.1896   38.9687   58.4000 H   0  0  0  0  0
   27.6532   37.9768   58.6124 H   0  0  0  0  0
   26.5086   38.3175   60.7797 H   0  0  0  0  0
   26.4912   36.6337   60.3356 H   0  0  0  0  0
   24.2815   37.3579   59.0113 H   0  0  0  0  0
   24.2771   38.6394   60.3030 H   0  0  0  0  0
   24.3103   36.9322   61.9882 H   0  0  0  0  0
   22.0577   36.1087   61.7878 H   0  0  0  0  0
   22.0890   36.4013   60.0042 H   0  0  0  0  0
   22.7764   38.8586   61.1414 H   0  0  0  0  0
   21.4956   38.2453   62.1962 H   0  0  0  0  0
   21.3763   38.3962   59.1626 H   0  0  0  0  0
   20.0870   37.7788   60.2244 H   0  0  0  0  0
   20.5523   39.4963   60.2947 H   0  0  0  0  0
   24.4162   33.7161   59.4600 H   0  0  0  0  0
   23.5560   35.1670   58.9348 H   0  0  0  0  0
  1  2  1  0  0  0
  2  3  1  0  0  0
  3  4  1  0  0  0
  4  5  1  0  0  0
  4  8  1  0  0  0
  5  6  1  0  0  0
  6  7  1  0  0  0
  8  9  1  0  0  0
  8 10  2  0  0  0
  1 11  1  0  0  0
  1 12  1  0  0  0
  1 13  1  0  0  0
  2 14  1  0  0  0
  2 15  1  0  0  0
  3 16  1  0  0  0
  3 17  1  0  0  0
  4 18  1  0  0  0
  5 19  1  0  0  0
  5 20  1  0  0  0
  6 21  1  0  0  0
  6 22  1  0  0  0
  7 23  1  0  0  0
  7 24  1  0  0  0
  7 25  1  0  0  0
  9 26  1  0  0  0
  9 27  1  0  0  0
M  END
$$$$
