4avg_ligand
  -I-interpret- 

 60 62  0  0  0  0  0  0  0  0999 V2000
   12.5420  -22.1150  -18.1640 Cl  0  0  0  0  0
   13.3810  -22.6860  -16.6730 C   0  0  0  0  0
   13.8600  -24.0020  -16.5790 C   0  0  0  0  0
   14.4910  -24.4170  -15.4160 C   0  0  0  0  0
   13.5330  -21.7910  -15.6160 C   0  0  0  0  0
   14.1580  -22.2180  -14.4560 C   0  0  0  0  0
   14.6570  -23.5050  -14.3790 C   0  0  0  0  0
   15.2680  -23.9530  -13.1060 C   0  0  0  0  0
   16.6960  -23.5760  -12.7520 C   0  0  0  0  0
   17.6920  -24.3610  -13.6410 C   0  0  0  0  0
   18.8400  -24.9990  -12.8520 C   0  0  0  0  0
   16.9050  -22.0720  -12.8110 C   0  0  0  0  0
   16.6440  -21.4250  -11.8100 O   0  0  0  0  0
   17.4760  -21.5140  -14.0700 C   0  0  0  0  0
   17.8470  -20.2530  -14.3690 C   0  0  0  0  0
   17.6910  -19.2850  -13.5020 O   0  0  0  0  0
   18.4300  -19.9560  -15.7190 C   0  0  0  0  0
   18.7500  -18.7820  -16.0150 O   0  0  0  0  0
   18.5680  -20.9010  -16.5630 O   0  0  0  0  0
   16.8050  -24.0950  -11.3030 C   0  0  0  0  0
   18.1860  -23.9930  -10.6980 C   0  0  0  0  0
   19.2830  -24.2610  -11.6430 N   0  3  0  0  0
   20.3140  -24.9830  -10.8380 C   0  0  0  0  0
   21.5850  -25.3220  -11.6180 C   0  0  0  0  0
   22.8180  -24.9030  -10.8030 C   0  0  0  0  0
   24.1150  -25.4830  -11.3980 C   0  0  0  0  0
   24.0560  -26.9870  -11.5970 C   0  0  0  0  0
   22.9030  -27.3450  -12.5350 C   0  0  0  0  0
   21.5790  -26.8360  -11.9570 C   0  0  0  0  0
   13.7370  -24.6923  -17.4135 H   0  0  0  0  0
   14.8510  -25.4410  -15.3161 H   0  0  0  0  0
   13.1650  -20.7685  -15.7008 H   0  0  0  0  0
   14.2561  -21.5417  -13.6068 H   0  0  0  0  0
   15.2938  -25.0393  -13.1918 H   0  0  0  0  0
   14.6669  -23.4669  -12.3376 H   0  0  0  0  0
   18.1306  -23.6545  -14.3457 H   0  0  0  0  0
   17.1377  -25.1661  -14.1233 H   0  0  0  0  0
   19.6967  -25.0282  -13.5253 H   0  0  0  0  0
   18.4747  -25.9657  -12.5053 H   0  0  0  0  0
   16.6230  -21.6296  -14.7386 H   0  0  0  0  0
   18.4465  -22.0100  -14.0801 H   0  0  0  0  0
   18.2751  -21.7259  -16.1688 H   0  0  0  0  0
   16.5455  -25.1534  -11.3247 H   0  0  0  0  0
   16.1454  -23.4768  -10.6941 H   0  0  0  0  0
   18.2483  -24.7460   -9.9124 H   0  0  0  0  0
   18.3077  -22.9680  -10.3477 H   0  0  0  0  0
   19.6638  -23.4008  -12.0372 H   0  0  0  0  0
   19.8713  -25.9252  -10.5150 H   0  0  0  0  0
   20.6030  -24.3259  -10.0178 H   0  0  0  0  0
   21.6220  -24.7715  -12.5580 H   0  0  0  0  0
   22.7050  -25.2829   -9.7876 H   0  0  0  0  0
   22.8881  -23.8154  -10.8191 H   0  0  0  0  0
   24.9242  -25.2722  -10.6989 H   0  0  0  0  0
   24.2659  -25.0245  -12.3753 H   0  0  0  0  0
   23.8977  -27.4705  -10.6330 H   0  0  0  0  0
   24.9940  -27.3280  -12.0351 H   0  0  0  0  0
   22.8533  -28.4284  -12.6444 H   0  0  0  0  0
   23.0729  -26.8791  -13.5057 H   0  0  0  0  0
   20.8108  -26.9968  -12.7134 H   0  0  0  0  0
   21.4008  -27.3766  -11.0275 H   0  0  0  0  0
  1  2  1  0  0  0
  2  3  4  0  0  0
  2  5  4  0  0  0
  3  4  4  0  0  0
  4  7  4  0  0  0
  5  6  4  0  0  0
  6  7  4  0  0  0
  7  8  1  0  0  0
  8  9  1  0  0  0
  9 10  1  0  0  0
  9 12  1  0  0  0
  9 20  1  0  0  0
 10 11  1  0  0  0
 11 22  1  0  0  0
 12 13  2  0  0  0
 12 14  1  0  0  0
 14 15  1  0  0  0
 15 16  2  0  0  0
 15 17  1  0  0  0
 17 18  2  0  0  0
 17 19  1  0  0  0
 20 21  1  0  0  0
 21 22  1  0  0  0
 22 23  1  0  0  0
 23 24  1  0  0  0
 24 25  1  0  0  0
 24 29  1  0  0  0
 25 26  1  0  0  0
 26 27  1  0  0  0
 27 28  1  0  0  0
 28 29  1  0  0  0
  3 30  1  0  0  0
  4 31  1  0  0  0
  5 32  1  0  0  0
  6 33  1  0  0  0
  8 34  1  0  0  0
  8 35  1  0  0  0
 10 36  1  0  0  0
 10 37  1  0  0  0
 11 38  1  0  0  0
 11 39  1  0  0  0
 14 40  1  0  0  0
 14 41  1  0  0  0
 19 42  1  0  0  0
 20 43  1  0  0  0
 20 44  1  0  0  0
 21 45  1  0  0  0
 21 46  1  0  0  0
 22 47  1  0  0  0
 23 48  1  0  0  0
 23 49  1  0  0  0
 24 50  1  0  0  0
 25 51  1  0  0  0
 25 52  1  0  0  0
 26 53  1  0  0  0
 26 54  1  0  0  0
 27 55  1  0  0  0
 27 56  1  0  0  0
 28 57  1  0  0  0
 28 58  1  0  0  0
 29 59  1  0  0  0
 29 60  1  0  0  0
M  END
$$$$
