3l79_ligand
  -I-interpret- 

 32 33  0  0  0  0  0  0  0  0999 V2000
   33.3790   22.8650   27.7770 C   0  0  0  0  0
   34.2690   23.5770   28.7220 N   0  0  0  0  0
   33.7620   23.0570   26.2970 C   0  0  0  0  0
   34.4670   24.8990   30.7290 N   0  0  0  0  0
   33.8460   24.4570   25.9890 O   0  0  0  0  0
   32.7410   22.3520   25.3860 C   0  0  0  0  0
   33.2030   22.3390   24.0830 F   0  0  0  0  0
   32.4510   20.9180   25.8740 C   0  0  0  0  0
   31.2630   20.4540   25.2380 O   0  0  0  0  0
   32.2910   20.8210   27.4180 C   0  0  0  0  0
   33.3950   21.4610   28.0930 O   0  0  0  0  0
   32.2670   19.3730   27.9320 C   0  0  0  0  0
   33.3510   18.6570   27.3190 O   0  0  0  0  0
   35.6730   23.6180   28.5520 C   0  0  0  0  0
   36.4730   24.2970   29.4740 C   0  0  0  0  0
   35.8580   24.9460   30.5550 C   0  0  0  0  0
   36.5290   25.5650   31.3790 O   0  0  0  0  0
   33.6660   24.2100   29.8140 C   0  0  0  0  0
   32.4430   24.1690   29.9560 O   0  0  0  0  0
   32.3836   23.2929   27.8958 H   0  0  0  0  0
   34.7393   22.6077   26.1204 H   0  0  0  0  0
   34.0384   25.3694   31.5262 H   0  0  0  0  0
   34.4877   24.8732   26.5692 H   0  0  0  0  0
   31.8047   22.9086   25.4256 H   0  0  0  0  0
   33.3077   20.2977   25.6106 H   0  0  0  0  0
   31.3663   20.5157   24.2856 H   0  0  0  0  0
   31.3396   21.3085   27.6309 H   0  0  0  0  0
   31.3174   18.9022   27.6774 H   0  0  0  0  0
   32.3770   19.3600   29.0164 H   0  0  0  0  0
   33.3498   17.7489   27.6304 H   0  0  0  0  0
   36.1318   23.1182   27.6989 H   0  0  0  0  0
   37.5563   24.3221   29.3556 H   0  0  0  0  0
  2  1  1  0  0  0
  1  3  1  0  0  0
  1 11  1  0  0  0
  2 14  1  0  0  0
 18  2  1  0  0  0
  3  5  1  0  0  0
  3  6  1  0  0  0
  4 16  1  0  0  0
  4 18  1  0  0  0
  6  7  1  0  0  0
  6  8  1  0  0  0
  8  9  1  0  0  0
  8 10  1  0  0  0
 10 11  1  0  0  0
 10 12  1  0  0  0
 12 13  1  0  0  0
 14 15  2  0  0  0
 15 16  1  0  0  0
 16 17  2  0  0  0
 18 19  2  0  0  0
  1 20  1  0  0  0
  3 21  1  0  0  0
  4 22  1  0  0  0
  5 23  1  0  0  0
  6 24  1  0  0  0
  8 25  1  0  0  0
  9 26  1  0  0  0
 10 27  1  0  0  0
 12 28  1  0  0  0
 12 29  1  0  0  0
 13 30  1  0  0  0
 14 31  1  0  0  0
 15 32  1  0  0  0
M  END
$$$$
