4p4f_ligand
  -I-interpret- 

 47 48  0  0  0  0  0  0  0  0999 V2000
   16.5020   44.9430   43.1610 N   0  0  0  0  0
   16.0520   44.4720   41.8050 C   0  0  0  0  0
   17.0530   44.6210   40.6550 C   0  0  0  0  0
   17.9520   45.5330   40.7190 O   0  0  0  0  0
   14.6820   45.2270   41.3800 C   0  0  0  0  0
   14.9610   46.7720   41.3240 C   0  0  0  0  0
   16.8570   43.8300   39.6610 O   0  0  0  0  0
   26.4820   46.4240   44.1340 C   0  0  0  0  0
   27.8240   46.2190   44.5090 C   0  0  0  0  0
   28.2190   45.0390   45.1490 C   0  0  0  0  0
   27.2320   44.0770   45.3870 C   0  0  0  0  0
   25.8860   44.3210   45.0310 C   0  0  0  0  0
   25.4810   45.4780   44.3700 C   0  0  0  0  0
   24.1110   45.6590   44.0370 C   0  0  0  0  0
   23.2160   44.6990   44.5290 C   0  0  0  0  0
   21.8280   44.7670   44.3360 C   0  0  0  0  0
   23.5430   46.7340   43.3150 C   0  0  0  0  0
   22.1270   46.7810   43.0910 C   0  0  0  0  0
   21.2420   45.7860   43.5870 C   0  0  0  0  0
   19.6240   45.7870   43.4560 C   0  0  0  0  0
   18.7470   44.9040   44.5030 O   0  0  0  0  0
   17.6420   43.9540   43.9340 P   0  0  0  0  0
   16.8420   43.0790   44.9220 O   0  0  0  0  0
   18.2600   43.0790   42.8520 O   0  0  0  0  0
   13.8720   47.6020   40.5590 C   0  0  0  0  0
   13.0960   46.9700   39.8050 O   0  0  0  0  0
   13.8720   48.8550   40.7270 O   0  0  0  0  0
   16.1457   45.7989   43.5864 H   0  0  0  0  0
   15.9204   43.3986   41.9416 H   0  0  0  0  0
   13.8995   45.0164   42.1091 H   0  0  0  0  0
   14.3496   44.8733   40.4040 H   0  0  0  0  0
   15.9004   46.9074   40.7879 H   0  0  0  0  0
   14.9720   47.1318   42.3529 H   0  0  0  0  0
   16.1259   43.2410   39.8615 H   0  0  0  0  0
   26.2135   47.3578   43.6400 H   0  0  0  0  0
   28.5650   46.9900   44.2978 H   0  0  0  0  0
   29.2539   44.8761   45.4499 H   0  0  0  0  0
   27.5036   43.1292   45.8519 H   0  0  0  0  0
   25.1345   43.5732   45.2841 H   0  0  0  0  0
   23.6191   43.8562   45.0905 H   0  0  0  0  0
   21.1916   44.0034   44.7832 H   0  0  0  0  0
   24.1820   47.5279   42.9282 H   0  0  0  0  0
   21.7141   47.6116   42.5185 H   0  0  0  0  0
   19.4213   45.3472   42.4795 H   0  0  0  0  0
   19.3280   46.8193   43.6428 H   0  0  0  0  0
   16.4554   43.6367   45.6010 H   0  0  0  0  0
   14.5603   49.0929   41.3525 H   0  0  0  0  0
  1  2  1  0  0  0
 22  1  1  0  0  0
  2  3  1  0  0  0
  2  5  1  0  0  0
  3  4  2  0  0  0
  3  7  1  0  0  0
  5  6  1  0  0  0
  6 25  1  0  0  0
  8  9  4  0  0  0
 13  8  4  0  0  0
  9 10  4  0  0  0
 11 10  4  0  0  0
 12 11  4  0  0  0
 13 12  4  0  0  0
 14 13  1  0  0  0
 15 14  4  0  0  0
 17 14  4  0  0  0
 16 15  4  0  0  0
 19 16  4  0  0  0
 18 17  4  0  0  0
 19 18  4  0  0  0
 20 19  1  0  0  0
 21 20  1  0  0  0
 21 22  1  0  0  0
 22 23  1  0  0  0
 22 24  2  0  0  0
 25 26  2  0  0  0
 25 27  1  0  0  0
  1 28  1  0  0  0
  2 29  1  0  0  0
  5 30  1  0  0  0
  5 31  1  0  0  0
  6 32  1  0  0  0
  6 33  1  0  0  0
  7 34  1  0  0  0
  8 35  1  0  0  0
  9 36  1  0  0  0
 10 37  1  0  0  0
 11 38  1  0  0  0
 12 39  1  0  0  0
 15 40  1  0  0  0
 16 41  1  0  0  0
 17 42  1  0  0  0
 18 43  1  0  0  0
 20 44  1  0  0  0
 20 45  1  0  0  0
 23 46  1  0  0  0
 27 47  1  0  0  0
M  END
$$$$
