### 
### Created by X-TOOL on Mon Sep 10 21:13:20 2018
### 

@<TRIPOS>MOLECULE
4p4f_ligand
   44    45     1     0     0
SMALL
GAST_HUCK


@<TRIPOS>ATOM
      1 N          16.5020   44.9430   43.1610 N.am      1 2GB        -0.2603
      2 CA         16.0520   44.4720   41.8050 C.3       1 2GB         0.0893
      3 C          17.0530   44.6210   40.6550 C.2       1 2GB         0.0564
      4 O          17.9520   45.5330   40.7190 O.co2     1 2GB        -0.5670
      5 CB         14.6820   45.2270   41.3800 C.3       1 2GB        -0.0099
      6 CG         14.9610   46.7720   41.3240 C.3       1 2GB         0.0034
      7 OXT        16.8570   43.8300   39.6610 O.co2     1 2GB        -0.5670
      8 CAP        26.4820   46.4240   44.1340 C.ar      1 2GB        -0.0557
      9 CAS        27.8240   46.2190   44.5090 C.ar      1 2GB        -0.0622
     10 CAO        28.2190   45.0390   45.1490 C.ar      1 2GB        -0.0627
     11 CAR        27.2320   44.0770   45.3870 C.ar      1 2GB        -0.0622
     12 CAQ        25.8860   44.3210   45.0310 C.ar      1 2GB        -0.0557
     13 CAN        25.4810   45.4780   44.3700 C.ar      1 2GB        -0.0221
     14 CAI        24.1110   45.6590   44.0370 C.ar      1 2GB        -0.0242
     15 CAM        23.2160   44.6990   44.5290 C.ar      1 2GB        -0.0600
     16 CAJ        21.8280   44.7670   44.3360 C.ar      1 2GB        -0.0563
     17 CAL        23.5430   46.7340   43.3150 C.ar      1 2GB        -0.0600
     18 CAK        22.1270   46.7810   43.0910 C.ar      1 2GB        -0.0563
     19 CAH        21.2420   45.7860   43.5870 C.ar      1 2GB        -0.0109
     20 CAB        19.6240   45.7870   43.4560 C.3       1 2GB         0.1184
     21 OAT        18.7470   44.9040   44.5030 O.3       1 2GB        -0.2487
     22 PBA        17.6420   43.9540   43.9340 P.3       1 2GB         0.2062
     23 OAV        16.8420   43.0790   44.9220 O.co2     1 2GB        -0.6074
     24 OAU        18.2600   43.0790   42.8520 O.co2     1 2GB        -0.6074
     25 CD         13.8720   47.6020   40.5590 C.2       1 2GB         0.0350
     26 OE2        13.0960   46.9700   39.8050 O.co2     1 2GB        -0.5690
     27 OE1        13.8720   48.8550   40.7270 O.co2     1 2GB        -0.5690
     28 H1         16.1527   45.7821   43.5780 H         1 2GB         0.1677
     29 H2         15.8364   43.3978   41.9033 H         1 2GB         0.0681
     30 H3         13.8976   45.0183   42.1224 H         1 2GB         0.0319
     31 H4         14.3546   44.8731   40.3913 H         1 2GB         0.0319
     32 H5         15.9275   46.9287   40.8226 H         1 2GB         0.0432
     33 H6         15.0179   47.1486   42.3560 H         1 2GB         0.0432
     34 H7         26.2150   47.3527   43.6427 H         1 2GB         0.0615
     35 H8         28.5609   46.9858   44.2990 H         1 2GB         0.0615
     36 H9         29.2482   44.8770   45.4482 H         1 2GB         0.0610
     37 H10        27.5021   43.1345   45.8493 H         1 2GB         0.0615
     38 H11        25.1386   43.5773   45.2827 H         1 2GB         0.0615
     39 H12        23.6169   43.8608   45.0874 H         1 2GB         0.0609
     40 H13        21.1951   44.0076   44.7808 H         1 2GB         0.0561
     41 H14        24.1784   47.5235   42.9303 H         1 2GB         0.0609
     42 H15        21.7164   47.6070   42.5217 H         1 2GB         0.0561
     43 H16        19.3822   45.4234   42.4464 H         1 2GB         0.0792
     44 H17        19.2930   46.8310   43.5588 H         1 2GB         0.0792
@<TRIPOS>BOND
     1    1    2 1  
     2   22    1 am 
     3    2    3 1  
     4    2    5 1  
     5    3    4 ar 
     6    3    7 ar 
     7    5    6 1  
     8    6   25 1  
     9    8    9 ar 
    10   13    8 ar 
    11    9   10 ar 
    12   11   10 ar 
    13   12   11 ar 
    14   13   12 ar 
    15   14   13 1  
    16   15   14 ar 
    17   17   14 ar 
    18   16   15 ar 
    19   19   16 ar 
    20   18   17 ar 
    21   19   18 ar 
    22   20   19 1  
    23   21   20 1  
    24   21   22 1  
    25   22   23 ar 
    26   22   24 ar 
    27   25   26 ar 
    28   25   27 ar 
    29    1   28 1  
    30    2   29 1  
    31    5   30 1  
    32    5   31 1  
    33    6   32 1  
    34    6   33 1  
    35    8   34 1  
    36    9   35 1  
    37   10   36 1  
    38   11   37 1  
    39   12   38 1  
    40   15   39 1  
    41   16   40 1  
    42   17   41 1  
    43   18   42 1  
    44   20   43 1  
    45   20   44 1  
@<TRIPOS>SUBSTRUCTURE
     1 2GB         1

