5lg3_ligand
  -I-interpret- 

 41 43  0  0  0  0  0  0  0  0999 V2000
 -120.7980  -57.4430  -44.6010 C   0  0  0  0  0
 -120.1860  -58.8460  -44.9940 N   0  0  0  0  0
 -123.0690  -58.4600  -45.2690 S   0  0  0  0  0
 -122.1600  -57.2380  -44.7260 C   0  0  0  0  0
 -120.7690  -63.0640  -42.2420 N   0  3  0  0  0
 -122.3210  -59.5440  -46.2080 C   0  0  0  0  0
 -120.9540  -59.7230  -46.0720 C   0  0  0  0  0
 -120.4950  -55.1530  -43.8050 C   0  0  0  0  0
 -121.8930  -54.9530  -43.9250 C   0  0  0  0  0
 -122.7250  -55.9890  -44.3890 C   0  0  0  0  0
 -123.0560  -60.2990  -47.1640 C   0  0  0  0  0
 -122.3830  -61.1990  -47.9430 C   0  0  0  0  0
 -120.9950  -61.3950  -47.8160 C   0  0  0  0  0
 -120.2750  -60.6510  -46.8790 C   0  0  0  0  0
 -119.7220  -59.6630  -43.8920 C   0  0  0  0  0
 -120.6480  -60.8040  -43.4250 C   0  0  0  0  0
 -119.9910  -62.1390  -43.0410 C   0  0  0  0  0
 -120.4540  -62.8300  -40.8600 C   0  0  0  0  0
 -122.1820  -62.8150  -42.4460 C   0  0  0  0  0
 -120.1790  -62.5680  -48.8430 Cl  0  0  0  0  0
 -119.9530  -56.3860  -44.1250 C   0  0  0  0  0
 -120.5530  -64.0246  -42.5083 H   0  0  0  0  0
 -119.8516  -54.3422  -43.4634 H   0  0  0  0  0
 -122.3269  -53.9899  -43.6560 H   0  0  0  0  0
 -123.7985  -55.8280  -44.4875 H   0  0  0  0  0
 -124.1320  -60.1630  -47.2731 H   0  0  0  0  0
 -122.9358  -61.7797  -48.6815 H   0  0  0  0  0
 -119.1987  -60.7887  -46.7750 H   0  0  0  0  0
 -119.6298  -58.9884  -43.0408 H   0  0  0  0  0
 -118.8104  -60.1459  -44.2439 H   0  0  0  0  0
 -121.2905  -61.0275  -44.2767 H   0  0  0  0  0
 -121.1262  -60.4401  -42.5156 H   0  0  0  0  0
 -119.8014  -62.6536  -43.9830 H   0  0  0  0  0
 -119.1293  -61.8755  -42.4277 H   0  0  0  0  0
 -119.3888  -62.9955  -40.6984 H   0  0  0  0  0
 -120.7068  -61.8021  -40.6001 H   0  0  0  0  0
 -121.0282  -63.5155  -40.2367 H   0  0  0  0  0
 -122.4162  -61.7930  -42.1481 H   0  0  0  0  0
 -122.4255  -62.9526  -43.4995 H   0  0  0  0  0
 -122.7633  -63.5128  -41.8433 H   0  0  0  0  0
 -118.8817  -56.5541  -44.0150 H   0  0  0  0  0
  2  1  1  0  0  0
  1  4  4  0  0  0
  1 21  4  0  0  0
  2  7  1  0  0  0
 15  2  1  0  0  0
  4  3  1  0  0  0
  6  3  1  0  0  0
  4 10  4  0  0  0
 17  5  1  0  0  0
  5 18  1  0  0  0
  5 19  1  0  0  0
  7  6  4  0  0  0
  6 11  4  0  0  0
  7 14  4  0  0  0
  8  9  4  0  0  0
 21  8  4  0  0  0
 10  9  4  0  0  0
 11 12  4  0  0  0
 13 12  4  0  0  0
 14 13  4  0  0  0
 13 20  1  0  0  0
 16 15  1  0  0  0
 16 17  1  0  0  0
  5 22  1  0  0  0
  8 23  1  0  0  0
  9 24  1  0  0  0
 10 25  1  0  0  0
 11 26  1  0  0  0
 12 27  1  0  0  0
 14 28  1  0  0  0
 15 29  1  0  0  0
 15 30  1  0  0  0
 16 31  1  0  0  0
 16 32  1  0  0  0
 17 33  1  0  0  0
 17 34  1  0  0  0
 18 35  1  0  0  0
 18 36  1  0  0  0
 18 37  1  0  0  0
 19 38  1  0  0  0
 19 39  1  0  0  0
 19 40  1  0  0  0
 21 41  1  0  0  0
M  END
$$$$
