6er3_ligand
  -I-interpret- 

 61 62  0  0  0  0  0  0  0  0999 V2000
   57.1720    7.8280   28.6940 C   0  0  0  0  0
   56.7870    8.2690   30.0890 C   0  0  0  0  0
   56.5860    9.7870   30.1400 C   0  0  0  0  0
   55.2970   10.2420   29.4380 C   0  0  0  0  0
   54.0840    9.4400   29.8960 C   0  0  0  0  0
   54.4140    7.9510   29.7830 C   0  0  0  0  0
   53.2710    7.0420   30.2350 C   0  0  0  0  0
   53.6480    5.5710   30.0770 C   0  0  0  0  0
   52.4040    4.7150   30.0250 C   0  0  0  0  0
   51.7710   10.2070   29.6260 C   0  0  0  0  0
   50.7540   10.7300   28.6540 C   0  0  0  0  0
   52.9200    9.8010   29.0930 N   0  0  0  0  0
   58.0020    8.5320   28.0690 O   0  0  0  0  0
   56.6950    6.7480   28.2260 O   0  0  0  0  0
   57.8540    7.9290   30.9990 O   0  0  0  0  0
   55.0470   11.6200   29.7340 O   0  0  0  0  0
   55.5950    7.6370   30.5530 O   0  0  0  0  0
   52.9800    7.2790   31.6090 O   0  0  0  0  0
   54.3990    5.3210   28.8870 O   0  0  0  0  0
   52.7620    3.4860   30.6460 O   0  0  0  0  0
   51.5140   10.2010   30.8210 O   0  0  0  0  0
   59.7520    5.4070   32.8810 C   0  0  0  0  0
   59.0460    6.7290   32.5530 C   0  0  0  0  0
   58.3840    6.6990   31.1670 C   0  0  0  0  0
   59.3050    6.0720   30.1280 C   0  0  0  0  0
   59.9440    4.7770   30.6000 C   0  0  0  0  0
   60.9450    4.3190   29.5450 C   0  0  0  0  0
   60.5320    5.5610   34.0530 O   0  0  0  0  0
   58.0240    6.9500   33.5070 O   0  0  0  0  0
   60.3040    7.0130   29.8240 O   0  0  0  0  0
   60.6090    5.0270   31.8190 O   0  0  0  0  0
   61.2710    2.9660   29.7330 O   0  0  0  0  0
   57.4274   10.2522   29.6264 H   0  0  0  0  0
   56.5159   10.0790   31.1878 H   0  0  0  0  0
   55.4428   10.0862   28.3691 H   0  0  0  0  0
   53.8436    9.6651   30.9351 H   0  0  0  0  0
   54.5852    7.7613   28.7234 H   0  0  0  0  0
   52.4032    7.2643   29.6140 H   0  0  0  0  0
   54.2640    5.3199   30.9404 H   0  0  0  0  0
   52.0676    4.5613   28.9997 H   0  0  0  0  0
   51.5688    5.1928   30.5370 H   0  0  0  0  0
   49.8422   10.1376   28.7302 H   0  0  0  0  0
   50.5327   11.7716   28.8869 H   0  0  0  0  0
   51.1511   10.6593   27.6414 H   0  0  0  0  0
   52.9908    9.7392   28.0773 H   0  0  0  0  0
   56.0820    6.3690   28.8602 H   0  0  0  0  0
   55.7986   12.1477   29.4542 H   0  0  0  0  0
   52.7401    8.2007   31.7298 H   0  0  0  0  0
   54.6106    4.3861   28.8340 H   0  0  0  0  0
   52.0054    2.8951   30.6433 H   0  0  0  0  0
   58.9921    4.6398   33.0295 H   0  0  0  0  0
   59.7989    7.5170   32.5686 H   0  0  0  0  0
   57.5417    6.0187   31.0416 H   0  0  0  0  0
   58.7104    5.8140   29.2516 H   0  0  0  0  0
   59.1921    4.0017   30.7474 H   0  0  0  0  0
   61.8516    4.9178   29.6326 H   0  0  0  0  0
   60.5010    4.4429   28.5573 H   0  0  0  0  0
   60.9718    4.7318   34.2546 H   0  0  0  0  0
   57.5764    7.7760   33.3093 H   0  0  0  0  0
   60.9012    6.6438   29.1693 H   0  0  0  0  0
   61.9011    2.6936   29.0619 H   0  0  0  0  0
  2  1  1  0  0  0
  1 13  2  0  0  0
  1 14  1  0  0  0
  2  3  1  0  0  0
 15  2  1  0  0  0
  2 17  1  0  0  0
  3  4  1  0  0  0
  4  5  1  0  0  0
  4 16  1  0  0  0
  6  5  1  0  0  0
  5 12  1  0  0  0
  6  7  1  0  0  0
 17  6  1  0  0  0
  7  8  1  0  0  0
  7 18  1  0  0  0
  8  9  1  0  0  0
  8 19  1  0  0  0
  9 20  1  0  0  0
 10 11  1  0  0  0
 12 10  1  0  0  0
 10 21  2  0  0  0
 24 15  1  0  0  0
 23 22  1  0  0  0
 22 28  1  0  0  0
 22 31  1  0  0  0
 23 24  1  0  0  0
 23 29  1  0  0  0
 24 25  1  0  0  0
 25 26  1  0  0  0
 25 30  1  0  0  0
 26 27  1  0  0  0
 26 31  1  0  0  0
 27 32  1  0  0  0
  3 33  1  0  0  0
  3 34  1  0  0  0
  4 35  1  0  0  0
  5 36  1  0  0  0
  6 37  1  0  0  0
  7 38  1  0  0  0
  8 39  1  0  0  0
  9 40  1  0  0  0
  9 41  1  0  0  0
 11 42  1  0  0  0
 11 43  1  0  0  0
 11 44  1  0  0  0
 12 45  1  0  0  0
 14 46  1  0  0  0
 16 47  1  0  0  0
 18 48  1  0  0  0
 19 49  1  0  0  0
 20 50  1  0  0  0
 22 51  1  0  0  0
 23 52  1  0  0  0
 24 53  1  0  0  0
 25 54  1  0  0  0
 26 55  1  0  0  0
 27 56  1  0  0  0
 27 57  1  0  0  0
 28 58  1  0  0  0
 29 59  1  0  0  0
 30 60  1  0  0  0
 32 61  1  0  0  0
M  END
$$$$
