5h0e_ligand
  -I-interpret- 

 75 79  0  0  0  0  0  0  0  0999 V2000
    5.2590   -3.0250   -0.9570 C   0  0  0  0  0
    4.1700   -3.5730   -1.7450 C   0  0  0  0  0
    4.4290   -4.7110   -2.4720 C   0  0  0  0  0
    5.6470   -5.2690   -2.4210 N   0  0  0  0  0
    6.6020   -4.6640   -1.6330 C   0  0  0  0  0
    6.4940   -3.5460   -0.8740 N   0  0  0  0  0
    4.7690   -1.9990   -0.3840 N   0  0  0  0  0
    3.5900   -1.6400   -0.5770 C   0  0  0  0  0
    3.0620   -2.5820   -1.4620 C   0  0  0  0  0
    3.4550   -5.2860   -3.2710 N   0  0  0  0  0
    1.5940   -2.5890   -1.9770 C   0  0  0  0  0
    5.6150   -1.1770    0.4820 C   0  0  0  0  0
    5.3660    0.2710    0.1590 C   0  0  0  0  0
    6.3670    1.1680    0.9160 C   0  0  0  0  0
    6.3440    0.9620    2.4340 C   0  0  0  0  0
    6.4400   -0.5000    2.7300 C   0  0  0  0  0
    5.3840   -1.3390    1.9600 C   0  0  0  0  0
    1.0090   -1.4390   -2.5080 C   0  0  0  0  0
   -0.3230   -1.4700   -2.9430 C   0  0  0  0  0
   -1.0600   -2.6420   -2.8470 C   0  0  0  0  0
   -0.4790   -3.7940   -2.2870 C   0  0  0  0  0
    0.8480   -3.7660   -1.8570 C   0  0  0  0  0
   -2.4340   -2.7440   -3.2180 O   0  0  0  0  0
    7.4720    1.7010    2.9920 N   0  3  0  0  0
    6.6290    2.9320    4.8950 C   0  0  0  0  0
    7.4590    1.7950    4.4420 C   0  0  0  0  0
    8.8780    2.0520    4.9940 C   0  0  0  0  0
    9.9340    1.1560    4.3060 C   0  0  0  0  0
   11.2790    1.8740    4.2960 C   0  0  0  0  0
   10.0640   -0.1370    5.0690 C   0  0  0  0  0
   -2.9360   -2.2420   -4.4570 C   0  0  0  0  0
   -2.2030   -2.3490   -5.6470 C   0  0  0  0  0
   -2.7400   -1.8810   -6.8270 C   0  0  0  0  0
   -3.9860   -1.3130   -6.8470 C   0  0  0  0  0
   -4.7350   -1.2170   -5.6630 C   0  0  0  0  0
   -4.1940   -1.6900   -4.4650 C   0  0  0  0  0
    6.1540    3.7210    4.0800 O   0  0  0  0  0
    6.3890    3.1090    6.3340 N   0  0  0  0  0
    7.5772   -5.1508   -1.6179 H   0  0  0  0  0
    3.0816   -0.7769   -0.1473 H   0  0  0  0  0
    2.5275   -4.8652   -3.3271 H   0  0  0  0  0
    3.6651   -6.1303   -3.8034 H   0  0  0  0  0
    6.6336   -1.5098    0.2825 H   0  0  0  0  0
    4.3526    0.5341    0.4620 H   0  0  0  0  0
    5.4917    0.4233   -0.9130 H   0  0  0  0  0
    6.0908    2.2043    0.7215 H   0  0  0  0  0
    7.3668    0.9120    0.5654 H   0  0  0  0  0
    5.4190    1.3281    2.8795 H   0  0  0  0  0
    6.2631   -0.6375    3.7967 H   0  0  0  0  0
    7.4281   -0.8398    2.4195 H   0  0  0  0  0
    5.4774   -2.3898    2.2342 H   0  0  0  0  0
    4.3821   -0.9944    2.2160 H   0  0  0  0  0
    1.5869   -0.5180   -2.5844 H   0  0  0  0  0
   -0.7809   -0.5719   -3.3575 H   0  0  0  0  0
   -1.0650   -4.7079   -2.1890 H   0  0  0  0  0
    1.3023   -4.6594   -1.4285 H   0  0  0  0  0
    7.4205    2.6521    2.6270 H   0  0  0  0  0
    8.3210    1.2005    2.7292 H   0  0  0  0  0
    7.0601    0.8479    4.8054 H   0  0  0  0  0
    8.8772    1.8234    6.0598 H   0  0  0  0  0
    9.1361    3.0936    4.8029 H   0  0  0  0  0
    9.6245    0.9475    3.2819 H   0  0  0  0  0
   11.1846    2.8120    3.7488 H   0  0  0  0  0
   11.5874    2.0794    5.3211 H   0  0  0  0  0
   12.0231    1.2422    3.8110 H   0  0  0  0  0
   10.3758    0.0758    6.0916 H   0  0  0  0  0
    9.1018   -0.6491    5.0802 H   0  0  0  0  0
   10.8081   -0.7697    4.5851 H   0  0  0  0  0
   -1.2112   -2.8010   -5.6392 H   0  0  0  0  0
   -2.1685   -1.9636   -7.7515 H   0  0  0  0  0
   -4.3969   -0.9349   -7.7831 H   0  0  0  0  0
   -5.7318   -0.7764   -5.6786 H   0  0  0  0  0
   -4.7675   -1.6214   -3.5406 H   0  0  0  0  0
    5.8242    3.8915    6.6644 H   0  0  0  0  0
    6.7872    2.4494    7.0024 H   0  0  0  0  0
  1  2  4  0  0  0
  1  6  4  0  0  0
  1  7  4  0  0  0
  2  3  4  0  0  0
  2  9  4  0  0  0
  3  4  4  0  0  0
  3 10  1  0  0  0
  4  5  4  0  0  0
  5  6  4  0  0  0
  7  8  4  0  0  0
  7 12  1  0  0  0
  8  9  4  0  0  0
  9 11  1  0  0  0
 11 18  4  0  0  0
 11 22  4  0  0  0
 12 13  1  0  0  0
 12 17  1  0  0  0
 13 14  1  0  0  0
 14 15  1  0  0  0
 15 16  1  0  0  0
 15 24  1  0  0  0
 16 17  1  0  0  0
 18 19  4  0  0  0
 19 20  4  0  0  0
 20 21  4  0  0  0
 20 23  1  0  0  0
 21 22  4  0  0  0
 23 31  1  0  0  0
 24 26  1  0  0  0
 26 25  1  0  0  0
 25 37  2  0  0  0
 25 38  1  0  0  0
 26 27  1  0  0  0
 27 28  1  0  0  0
 28 29  1  0  0  0
 28 30  1  0  0  0
 31 32  4  0  0  0
 31 36  4  0  0  0
 32 33  4  0  0  0
 33 34  4  0  0  0
 34 35  4  0  0  0
 35 36  4  0  0  0
  5 39  1  0  0  0
  8 40  1  0  0  0
 10 41  1  0  0  0
 10 42  1  0  0  0
 12 43  1  0  0  0
 13 44  1  0  0  0
 13 45  1  0  0  0
 14 46  1  0  0  0
 14 47  1  0  0  0
 15 48  1  0  0  0
 16 49  1  0  0  0
 16 50  1  0  0  0
 17 51  1  0  0  0
 17 52  1  0  0  0
 18 53  1  0  0  0
 19 54  1  0  0  0
 21 55  1  0  0  0
 22 56  1  0  0  0
 24 57  1  0  0  0
 24 58  1  0  0  0
 26 59  1  0  0  0
 27 60  1  0  0  0
 27 61  1  0  0  0
 28 62  1  0  0  0
 29 63  1  0  0  0
 29 64  1  0  0  0
 29 65  1  0  0  0
 30 66  1  0  0  0
 30 67  1  0  0  0
 30 68  1  0  0  0
 32 69  1  0  0  0
 33 70  1  0  0  0
 34 71  1  0  0  0
 35 72  1  0  0  0
 36 73  1  0  0  0
 38 74  1  0  0  0
 38 75  1  0  0  0
M  END
$$$$
