### 
### Created by X-TOOL on Fri Nov  2 10:20:25 2018
### 

@<TRIPOS>MOLECULE
5u06_ligand
  145   148     1     0     0
SMALL
GAST_HUCK


@<TRIPOS>ATOM
      1 N          -1.3360   -7.0520  -17.5900 N.am      1 LYS        -0.2649
      2 CA         -2.7010   -6.9950  -18.1040 C.3       1 LYS         0.1309
      3 C          -2.9870   -8.0570  -19.1590 C.2       1 LYS         0.2040
      4 O          -2.1010   -8.4700  -19.9070 O.2       1 LYS        -0.3944
      5 CB         -3.0090   -5.6070  -18.6630 C.3       1 LYS        -0.0123
      6 CG         -3.2560   -4.5620  -17.5910 C.3       1 LYS        -0.0470
      7 CD         -2.7050   -3.2040  -17.9820 C.3       1 LYS        -0.0325
      8 CE         -3.3230   -2.1000  -17.1370 C.3       1 LYS         0.0309
      9 NZ         -3.2930   -2.3970  -15.6780 N.am      1 LYS        -0.2870
     10 N          -4.2460   -8.4930  -19.2010 N.am      1 LYS        -0.2619
     11 CA         -4.7030   -9.5400  -20.1040 C.3       1 LYS         0.1404
     12 C          -6.0390   -9.1120  -20.6910 C.2       1 LYS         0.2060
     13 O          -6.9570   -8.7580  -19.9450 O.2       1 LYS        -0.3942
     14 CB         -4.8590  -10.8760  -19.3670 C.3       1 LYS         0.0214
     15 CG         -3.6870  -11.2320  -18.4960 C.ar      1 LYS        -0.0386
     16 CD1        -3.6900  -10.9020  -17.1490 C.ar      1 LYS        -0.0601
     17 CD2        -2.5830  -11.8840  -19.0170 C.ar      1 LYS        -0.0601
     18 CE1        -2.6190  -11.2200  -16.3370 C.ar      1 LYS        -0.0686
     19 CE2        -1.5040  -12.2030  -18.2080 C.ar      1 LYS        -0.0686
     20 CZ         -1.5230  -11.8710  -16.8660 C.ar      1 LYS        -0.0687
     21 N          -6.1400   -9.1310  -22.0190 N.am      1 LYS        -0.2635
     22 CA         -7.3530   -8.6760  -22.6890 C.3       1 LYS         0.1325
     23 C          -8.5560   -9.5160  -22.2730 C.2       1 LYS         0.2038
     24 O          -8.5270  -10.7490  -22.3460 O.2       1 LYS        -0.3944
     25 CB         -7.1680   -8.7180  -24.2060 C.3       1 LYS        -0.0008
     26 CG         -8.1840   -7.8890  -24.9810 C.3       1 LYS         0.0044
     27 CD         -9.4960   -8.6160  -25.1760 C.2       1 LYS         0.0350
     28 OE1       -10.5570   -8.0280  -24.8790 O.co2     1 LYS        -0.5690
     29 OE2        -9.4630   -9.7820  -25.6220 O.co2     1 LYS        -0.5690
     30 N          -9.6090   -8.8400  -21.8210 N.am      1 LYS        -0.2664
     31 CA        -10.8370   -9.5060  -21.4260 C.3       1 LYS         0.1201
     32 C         -10.9900   -9.6590  -19.9270 C.2       1 LYS         0.2009
     33 O         -12.0410  -10.0850  -19.4490 O.2       1 LYS        -0.3947
     34 N          -9.9520   -9.3120  -19.1860 N.am      1 LYS        -0.2623
     35 CA         -9.8030   -9.6210  -17.8060 C.3       1 LYS         0.1396
     36 CB         -8.7770  -10.7200  -17.6460 C.3       1 LYS         0.0184
     37 CG         -9.2910  -12.0440  -18.1600 C.ar      1 LYS        -0.0451
     38 CD1        -8.9450  -12.4710  -19.4320 C.ar      1 LYS        -0.0663
     39 CE1        -9.4180  -13.6850  -19.9050 C.ar      1 LYS        -0.0651
     40 CD2       -10.1090  -12.8260  -17.3610 C.ar      1 LYS        -0.0663
     41 CE2       -10.5810  -14.0410  -17.8340 C.ar      1 LYS        -0.0651
     42 CZ        -10.2380  -14.4680  -19.1080 C.ar      1 LYS        -0.0368
     43 CH        -10.7440  -15.7920  -19.6360 C.3       1 LYS         0.0304
     44 CO        -12.1620  -16.1100  -19.2130 C.2       1 LYS         0.0453
     45 O1        -12.9870  -15.1820  -19.0000 O.co2     1 LYS        -0.5666
     46 O2        -12.5170  -17.3100  -19.0760 O.co2     1 LYS        -0.5666
     47 C          -9.4090   -8.3700  -17.0540 C.2       1 LYS         0.2059
     48 O          -9.0130   -7.3780  -17.6360 O.2       1 LYS        -0.3942
     49 N          -9.7220   -8.3100  -15.7760 N.am      1 LYS        -0.2620
     50 CA         -9.6330   -7.1210  -14.9380 C.3       1 LYS         0.1423
     51 C          -8.3050   -7.0740  -14.1890 C.2       1 LYS         0.2057
     52 O          -8.1170   -6.2440  -13.2990 O.2       1 LYS        -0.3943
     53 CB        -10.8040   -7.0620  -13.9550 C.3       1 LYS         0.0406
     54 CG        -12.1290   -6.7950  -14.6450 C.2       1 LYS         0.0393
     55 OD1       -12.3410   -5.6550  -15.1120 O.co2     1 LYS        -0.5688
     56 OD2       -12.9580   -7.7260  -14.7230 O.co2     1 LYS        -0.5688
     57 N          -7.3990   -7.9850  -14.5420 N.am      1 LYS        -0.2615
     58 CA         -6.0900   -8.0200  -13.9030 C.3       1 LYS         0.1476
     59 C          -5.3460   -6.7160  -14.1580 C.2       1 LYS         0.2063
     60 O          -5.3760   -6.1710  -15.2640 O.2       1 LYS        -0.3942
     61 CB         -5.2680   -9.1970  -14.4320 C.3       1 LYS         0.0773
     62 CG         -5.9840  -10.5230  -14.2890 C.2       1 LYS         0.1780
     63 OD1        -7.0570  -10.7270  -14.8570 O.2       1 LYS        -0.3970
     64 ND2        -5.3880  -11.4390  -13.5360 N.am      1 LYS        -0.3007
     65 N          -4.6780   -6.2150  -13.1250 N.am      1 LYS        -0.2634
     66 CA         -3.8270   -5.0400  -13.2700 C.3       1 LYS         0.1330
     67 C          -2.6490   -5.0950  -12.3060 C.2       1 LYS         0.2041
     68 O          -2.8250   -5.0350  -11.0900 O.2       1 LYS        -0.3944
     69 CB         -4.6320   -3.7580  -13.0480 C.3       1 LYS         0.0045
     70 CG         -3.8280   -2.4830  -13.2540 C.3       1 LYS         0.0414
     71 CD         -2.8820   -2.5760  -14.4370 C.2       1 LYS         0.1762
     72 OE2        -1.7420   -3.0430  -14.2380 O.2       1 LYS        -0.3971
     73 O10        -1.9190   -7.5790  -15.5900 O.2       1 LYS        -0.3960
     74 N01        -1.6700   -5.9780  -12.3500 N.am      1 LYS        -0.2629
     75 C02        -0.3010   -6.4830  -12.0530 C.3       1 LYS         0.1397
     76 C03         0.6770   -5.2470  -12.0110 C.2       1 LYS         0.2000
     77 O04         0.4540   -4.2620  -12.7020 O.2       1 LYS        -0.3947
     78 N05         1.7200   -5.3360  -11.2060 N.am      1 LYS        -0.2989
     79 C06         0.0880   -7.5080  -13.1590 C.3       1 LYS         0.0363
     80 S07         0.9510   -6.7710  -14.5640 S.3       1 LYS        -0.1344
     81 C08         0.4710   -7.6780  -16.0520 C.3       1 LYS         0.0836
     82 C09        -1.0160   -7.3470  -16.3460 C.2       1 LYS         0.1882
     83 H1         -0.5910   -6.8532  -18.2268 H         1 LYS         0.1883
     84 H2         -3.3789   -7.1784  -17.2574 H         1 LYS         0.0800
     85 H3         -3.9075   -5.6775  -19.2936 H         1 LYS         0.0312
     86 H4         -2.1555   -5.2815  -19.2759 H         1 LYS         0.0312
     87 H5         -2.7699   -4.8874  -16.6594 H         1 LYS         0.0268
     88 H6         -4.3399   -4.4713  -17.4268 H         1 LYS         0.0268
     89 H7         -2.9319   -3.0154  -19.0417 H         1 LYS         0.0285
     90 H8         -1.6150   -3.2022  -17.8345 H         1 LYS         0.0285
     91 H9         -4.3703   -1.9669  -17.4460 H         1 LYS         0.0520
     92 H10        -2.7665   -1.1683  -17.3164 H         1 LYS         0.0520
     93 H11        -4.2615   -2.6090  -15.5477 H         1 LYS         0.1850
     94 H12        -4.9116   -8.0794  -18.5798 H         1 LYS         0.1885
     95 H13        -3.9699   -9.6644  -20.9146 H         1 LYS         0.0823
     96 H14        -4.9882  -11.6715  -20.1157 H         1 LYS         0.0474
     97 H15        -5.7565  -10.8193  -18.7336 H         1 LYS         0.0474
     98 H16        -4.5455  -10.3869  -16.7273 H         1 LYS         0.0557
     99 H17        -2.5621  -12.1478  -20.0682 H         1 LYS         0.0557
    100 H18        -2.6392  -10.9585  -15.2852 H         1 LYS         0.0599
    101 H19        -0.6445  -12.7132  -18.6276 H         1 LYS         0.0599
    102 H20        -0.6803  -12.1211  -16.2317 H         1 LYS         0.0559
    103 H21        -5.3713   -9.4628  -22.5658 H         1 LYS         0.1883
    104 H22        -7.5415   -7.6339  -22.3914 H         1 LYS         0.0801
    105 H23        -7.2530   -9.7641  -24.5353 H         1 LYS         0.0330
    106 H24        -6.1623   -8.3399  -24.4417 H         1 LYS         0.0330
    107 H25        -7.7636   -7.6487  -25.9687 H         1 LYS         0.0433
    108 H26        -8.3755   -6.9579  -24.4276 H         1 LYS         0.0433
    109 H27        -9.5529   -7.8440  -21.7513 H         1 LYS         0.1881
    110 H28       -10.8510  -10.5075  -21.8807 H         1 LYS         0.0763
    111 H29       -11.6875   -8.9197  -21.8040 H         1 LYS         0.0763
    112 H30        -9.2187   -8.7950  -19.6276 H         1 LYS         0.1885
    113 H31       -10.7652   -9.9793  -17.4114 H         1 LYS         0.0822
    114 H32        -8.5293  -10.8238  -16.5793 H         1 LYS         0.0461
    115 H33        -7.8716  -10.4469  -18.2078 H         1 LYS         0.0461
    116 H34        -8.3057  -11.8569  -20.0559 H         1 LYS         0.0540
    117 H35        -9.1464  -14.0221  -20.8988 H         1 LYS         0.0542
    118 H36       -10.3798  -12.4885  -16.3671 H         1 LYS         0.0540
    119 H37       -11.2175  -14.6564  -17.2085 H         1 LYS         0.0542
    120 H38       -10.0833  -16.5897  -19.2656 H         1 LYS         0.0575
    121 H39       -10.7065  -15.7655  -20.7350 H         1 LYS         0.0575
    122 H40       -10.0481   -9.1511  -15.3444 H         1 LYS         0.1884
    123 H41        -9.6885   -6.2381  -15.5917 H         1 LYS         0.0819
    124 H42       -10.6155   -6.2568  -13.2296 H         1 LYS         0.0478
    125 H43       -10.8694   -8.0242  -13.4260 H         1 LYS         0.0478
    126 H44        -7.6199   -8.6521  -15.2534 H         1 LYS         0.1885
    127 H45        -6.2294   -8.1438  -12.8189 H         1 LYS         0.0826
    128 H46        -4.3227   -9.2457  -13.8716 H         1 LYS         0.0551
    129 H47        -5.0543   -9.0260  -15.4974 H         1 LYS         0.0551
    130 H48        -5.8148  -12.3339  -13.4056 H         1 LYS         0.1814
    131 H49        -4.5121  -11.2343  -13.0990 H         1 LYS         0.1814
    132 H50        -4.7604   -6.6526  -12.2296 H         1 LYS         0.1883
    133 H51        -3.4321   -5.0271  -14.2966 H         1 LYS         0.0801
    134 H52        -5.0149   -3.7634  -12.0168 H         1 LYS         0.0337
    135 H53        -5.4766   -3.7527  -13.7527 H         1 LYS         0.0337
    136 H54        -3.2388   -2.2871  -12.3460 H         1 LYS         0.0505
    137 H55        -4.5257   -1.6500  -13.4252 H         1 LYS         0.0505
    138 H56        -2.0716   -6.7265  -12.8777 H         1 LYS         0.1884
    139 H57        -0.2893   -6.9861  -11.0748 H         1 LYS         0.0808
    140 H58         2.3697   -4.5784  -11.1438 H         1 LYS         0.1815
    141 H59         1.8601   -6.1610  -10.6586 H         1 LYS         0.1815
    142 H60        -0.8315   -7.9855  -13.5284 H         1 LYS         0.0426
    143 H61         0.7425   -8.2702  -12.7109 H         1 LYS         0.0426
    144 H62         0.5886   -8.7591  -15.8863 H         1 LYS         0.0616
    145 H63         1.0989   -7.3665  -16.8997 H         1 LYS         0.0616
@<TRIPOS>BOND
     1    1    2 1  
     2    1   82 am 
     3    2    3 1  
     4    2    5 1  
     5    3    4 2  
     6    3   10 am 
     7    5    6 1  
     8    6    7 1  
     9    7    8 1  
    10    8    9 1  
    11    9   71 am 
    12   10   11 1  
    13   11   12 1  
    14   11   14 1  
    15   12   13 2  
    16   12   21 am 
    17   14   15 1  
    18   15   16 ar 
    19   15   17 ar 
    20   16   18 ar 
    21   17   19 ar 
    22   18   20 ar 
    23   19   20 ar 
    24   21   22 1  
    25   22   23 1  
    26   22   25 1  
    27   23   24 2  
    28   23   30 am 
    29   25   26 1  
    30   26   27 1  
    31   27   28 ar 
    32   27   29 ar 
    33   30   31 1  
    34   31   32 1  
    35   32   33 2  
    36   32   34 am 
    37   34   35 1  
    38   35   36 1  
    39   35   47 1  
    40   36   37 1  
    41   37   38 ar 
    42   37   40 ar 
    43   38   39 ar 
    44   39   42 ar 
    45   40   41 ar 
    46   41   42 ar 
    47   42   43 1  
    48   43   44 1  
    49   44   45 ar 
    50   44   46 ar 
    51   47   48 2  
    52   47   49 am 
    53   49   50 1  
    54   50   51 1  
    55   50   53 1  
    56   51   52 2  
    57   51   57 am 
    58   53   54 1  
    59   54   55 ar 
    60   54   56 ar 
    61   57   58 1  
    62   58   59 1  
    63   58   61 1  
    64   59   60 2  
    65   59   65 am 
    66   61   62 1  
    67   62   63 2  
    68   62   64 am 
    69   65   66 1  
    70   66   67 1  
    71   66   69 1  
    72   67   68 2  
    73   67   74 am 
    74   69   70 1  
    75   70   71 1  
    76   71   72 2  
    77   82   73 2  
    78   74   75 1  
    79   75   76 1  
    80   75   79 1  
    81   76   77 2  
    82   76   78 am 
    83   79   80 1  
    84   80   81 1  
    85   81   82 1  
    86    1   83 1  
    87    2   84 1  
    88    5   85 1  
    89    5   86 1  
    90    6   87 1  
    91    6   88 1  
    92    7   89 1  
    93    7   90 1  
    94    8   91 1  
    95    8   92 1  
    96    9   93 1  
    97   10   94 1  
    98   11   95 1  
    99   14   96 1  
   100   14   97 1  
   101   16   98 1  
   102   17   99 1  
   103   18  100 1  
   104   19  101 1  
   105   20  102 1  
   106   21  103 1  
   107   22  104 1  
   108   25  105 1  
   109   25  106 1  
   110   26  107 1  
   111   26  108 1  
   112   30  109 1  
   113   31  110 1  
   114   31  111 1  
   115   34  112 1  
   116   35  113 1  
   117   36  114 1  
   118   36  115 1  
   119   38  116 1  
   120   39  117 1  
   121   40  118 1  
   122   41  119 1  
   123   43  120 1  
   124   43  121 1  
   125   49  122 1  
   126   50  123 1  
   127   53  124 1  
   128   53  125 1  
   129   57  126 1  
   130   58  127 1  
   131   61  128 1  
   132   61  129 1  
   133   64  130 1  
   134   64  131 1  
   135   65  132 1  
   136   66  133 1  
   137   69  134 1  
   138   69  135 1  
   139   70  136 1  
   140   70  137 1  
   141   74  138 1  
   142   75  139 1  
   143   78  140 1  
   144   78  141 1  
   145   79  142 1  
   146   79  143 1  
   147   81  144 1  
   148   81  145 1  
@<TRIPOS>SUBSTRUCTURE
     1 LYS         1

