5u06_ligand
  -I-interpret- 

148151  0  0  0  0  0  0  0  0999 V2000
   -1.3360   -7.0520  -17.5900 N   0  0  0  0  0
   -2.7010   -6.9950  -18.1040 C   0  0  0  0  0
   -2.9870   -8.0570  -19.1590 C   0  0  0  0  0
   -2.1010   -8.4700  -19.9070 O   0  0  0  0  0
   -3.0090   -5.6070  -18.6630 C   0  0  0  0  0
   -3.2560   -4.5620  -17.5910 C   0  0  0  0  0
   -2.7050   -3.2040  -17.9820 C   0  0  0  0  0
   -3.3230   -2.1000  -17.1370 C   0  0  0  0  0
   -3.2930   -2.3970  -15.6780 N   0  0  0  0  0
   -4.2460   -8.4930  -19.2010 N   0  0  0  0  0
   -4.7030   -9.5400  -20.1040 C   0  0  0  0  0
   -6.0390   -9.1120  -20.6910 C   0  0  0  0  0
   -6.9570   -8.7580  -19.9450 O   0  0  0  0  0
   -4.8590  -10.8760  -19.3670 C   0  0  0  0  0
   -3.6870  -11.2320  -18.4960 C   0  0  0  0  0
   -3.6900  -10.9020  -17.1490 C   0  0  0  0  0
   -2.5830  -11.8840  -19.0170 C   0  0  0  0  0
   -2.6190  -11.2200  -16.3370 C   0  0  0  0  0
   -1.5040  -12.2030  -18.2080 C   0  0  0  0  0
   -1.5230  -11.8710  -16.8660 C   0  0  0  0  0
   -6.1400   -9.1310  -22.0190 N   0  0  0  0  0
   -7.3530   -8.6760  -22.6890 C   0  0  0  0  0
   -8.5560   -9.5160  -22.2730 C   0  0  0  0  0
   -8.5270  -10.7490  -22.3460 O   0  0  0  0  0
   -7.1680   -8.7180  -24.2060 C   0  0  0  0  0
   -8.1840   -7.8890  -24.9810 C   0  0  0  0  0
   -9.4960   -8.6160  -25.1760 C   0  0  0  0  0
  -10.5570   -8.0280  -24.8790 O   0  0  0  0  0
   -9.4630   -9.7820  -25.6220 O   0  0  0  0  0
   -9.6090   -8.8400  -21.8210 N   0  0  0  0  0
  -10.8370   -9.5060  -21.4260 C   0  0  0  0  0
  -10.9900   -9.6590  -19.9270 C   0  0  0  0  0
  -12.0410  -10.0850  -19.4490 O   0  0  0  0  0
   -9.9520   -9.3120  -19.1860 N   0  0  0  0  0
   -9.8030   -9.6210  -17.8060 C   0  0  0  0  0
   -8.7770  -10.7200  -17.6460 C   0  0  0  0  0
   -9.2910  -12.0440  -18.1600 C   0  0  0  0  0
   -8.9450  -12.4710  -19.4320 C   0  0  0  0  0
   -9.4180  -13.6850  -19.9050 C   0  0  0  0  0
  -10.1090  -12.8260  -17.3610 C   0  0  0  0  0
  -10.5810  -14.0410  -17.8340 C   0  0  0  0  0
  -10.2380  -14.4680  -19.1080 C   0  0  0  0  0
  -10.7440  -15.7920  -19.6360 C   0  0  0  0  0
  -12.1620  -16.1100  -19.2130 C   0  0  0  0  0
  -12.9870  -15.1820  -19.0000 O   0  0  0  0  0
  -12.5170  -17.3100  -19.0760 O   0  0  0  0  0
   -9.4090   -8.3700  -17.0540 C   0  0  0  0  0
   -9.0130   -7.3780  -17.6360 O   0  0  0  0  0
   -9.7220   -8.3100  -15.7760 N   0  0  0  0  0
   -9.6330   -7.1210  -14.9380 C   0  0  0  0  0
   -8.3050   -7.0740  -14.1890 C   0  0  0  0  0
   -8.1170   -6.2440  -13.2990 O   0  0  0  0  0
  -10.8040   -7.0620  -13.9550 C   0  0  0  0  0
  -12.1290   -6.7950  -14.6450 C   0  0  0  0  0
  -12.3410   -5.6550  -15.1120 O   0  0  0  0  0
  -12.9580   -7.7260  -14.7230 O   0  0  0  0  0
   -7.3990   -7.9850  -14.5420 N   0  0  0  0  0
   -6.0900   -8.0200  -13.9030 C   0  0  0  0  0
   -5.3460   -6.7160  -14.1580 C   0  0  0  0  0
   -5.3760   -6.1710  -15.2640 O   0  0  0  0  0
   -5.2680   -9.1970  -14.4320 C   0  0  0  0  0
   -5.9840  -10.5230  -14.2890 C   0  0  0  0  0
   -7.0570  -10.7270  -14.8570 O   0  0  0  0  0
   -5.3880  -11.4390  -13.5360 N   0  0  0  0  0
   -4.6780   -6.2150  -13.1250 N   0  0  0  0  0
   -3.8270   -5.0400  -13.2700 C   0  0  0  0  0
   -2.6490   -5.0950  -12.3060 C   0  0  0  0  0
   -2.8250   -5.0350  -11.0900 O   0  0  0  0  0
   -4.6320   -3.7580  -13.0480 C   0  0  0  0  0
   -3.8280   -2.4830  -13.2540 C   0  0  0  0  0
   -2.8820   -2.5760  -14.4370 C   0  0  0  0  0
   -1.7420   -3.0430  -14.2380 O   0  0  0  0  0
   -1.9190   -7.5790  -15.5900 O   0  0  0  0  0
   -1.6700   -5.9780  -12.3500 N   0  0  0  0  0
   -0.3010   -6.4830  -12.0530 C   0  0  0  0  0
    0.6770   -5.2470  -12.0110 C   0  0  0  0  0
    0.4540   -4.2620  -12.7020 O   0  0  0  0  0
    1.7200   -5.3360  -11.2060 N   0  0  0  0  0
    0.0880   -7.5080  -13.1590 C   0  0  0  0  0
    0.9510   -6.7710  -14.5640 S   0  0  0  0  0
    0.4710   -7.6780  -16.0520 C   0  0  0  0  0
   -1.0160   -7.3470  -16.3460 C   0  0  0  0  0
   -0.5761   -6.8492  -18.2395 H   0  0  0  0  0
   -3.3556   -7.2020  -17.2574 H   0  0  0  0  0
   -3.9197   -5.6882  -19.2565 H   0  0  0  0  0
   -2.1407   -5.2862  -19.2385 H   0  0  0  0  0
   -2.7527   -4.8840  -16.6793 H   0  0  0  0  0
   -4.3327   -4.4652  -17.4516 H   0  0  0  0  0
   -2.9444   -3.0181  -19.0290 H   0  0  0  0  0
   -1.6269   -3.2049  -17.8214 H   0  0  0  0  0
   -4.3670   -2.0000  -17.4338 H   0  0  0  0  0
   -2.7437   -1.1917  -17.3027 H   0  0  0  0  0
   -4.2809   -2.6133  -15.5451 H   0  0  0  0  0
   -4.9249   -8.0711  -18.5674 H   0  0  0  0  0
   -3.9661   -9.6831  -20.8943 H   0  0  0  0  0
   -4.9486  -11.6551  -20.1240 H   0  0  0  0  0
   -5.7302  -10.7882  -18.7179 H   0  0  0  0  0
   -4.5502  -10.3841  -16.7249 H   0  0  0  0  0
   -2.5620  -12.1492  -20.0740 H   0  0  0  0  0
   -2.6393  -10.9571  -15.2794 H   0  0  0  0  0
   -0.6398  -12.7160  -18.6300 H   0  0  0  0  0
   -0.6756  -12.1224  -16.2282 H   0  0  0  0  0
   -5.3559   -9.4694  -22.5767 H   0  0  0  0  0
   -7.5426   -7.6457  -22.3879 H   0  0  0  0  0
   -7.2941   -9.7550  -24.5172 H   0  0  0  0  0
   -6.1830   -8.3042  -24.4218 H   0  0  0  0  0
   -7.7661   -7.6790  -25.9656 H   0  0  0  0  0
   -8.3835   -6.9819  -24.4105 H   0  0  0  0  0
  -10.3538   -7.1465  -24.5576 H   0  0  0  0  0
   -9.5518   -7.8241  -21.7499 H   0  0  0  0  0
  -10.8181  -10.5074  -21.8561 H   0  0  0  0  0
  -11.6678   -8.8945  -21.7782 H   0  0  0  0  0
   -9.2040   -8.7846  -19.6364 H   0  0  0  0  0
  -10.7450   -9.9799  -17.3914 H   0  0  0  0  0
   -8.5520  -10.8277  -16.5849 H   0  0  0  0  0
   -7.8914  -10.4491  -18.2208 H   0  0  0  0  0
   -8.3022  -11.8535  -20.0594 H   0  0  0  0  0
   -9.1449  -14.0240  -20.9043 H   0  0  0  0  0
  -10.3813  -12.4866  -16.3616 H   0  0  0  0  0
  -11.2210  -14.6598  -17.2051 H   0  0  0  0  0
  -10.0994  -16.5729  -19.2326 H   0  0  0  0  0
  -10.7321  -15.7362  -20.7245 H   0  0  0  0  0
  -12.5596  -14.3352  -19.1480 H   0  0  0  0  0
  -10.0547   -9.1679  -15.3358 H   0  0  0  0  0
   -9.6846   -6.2492  -15.5902 H   0  0  0  0  0
  -10.6172   -6.2451  -13.2580 H   0  0  0  0  0
  -10.8734   -8.0287  -13.4561 H   0  0  0  0  0
  -11.5794   -5.0951  -14.9445 H   0  0  0  0  0
   -7.6243   -8.6655  -15.2677 H   0  0  0  0  0
   -6.2337   -8.1452  -12.8298 H   0  0  0  0  0
   -4.3477   -9.2499  -13.8504 H   0  0  0  0  0
   -5.0871   -9.0278  -15.4935 H   0  0  0  0  0
   -5.8192  -12.3547  -13.4099 H   0  0  0  0  0
   -4.4988  -11.2273  -13.0834 H   0  0  0  0  0
   -4.7621   -6.6614  -12.2117 H   0  0  0  0  0
   -3.4368   -5.0353  -14.2877 H   0  0  0  0  0
   -4.9720   -3.7635  -12.0124 H   0  0  0  0  0
   -5.4416   -3.7527  -13.7779 H   0  0  0  0  0
   -3.2302   -2.3144  -12.3583 H   0  0  0  0  0
   -4.5292   -1.6713  -13.4476 H   0  0  0  0  0
   -2.0796   -6.7415  -12.8882 H   0  0  0  0  0
   -0.2472   -6.9901  -11.0897 H   0  0  0  0  0
    2.3817   -4.5624  -11.1412 H   0  0  0  0  0
    1.8640   -6.1783  -10.6490 H   0  0  0  0  0
   -0.8363   -7.9444  -13.5376 H   0  0  0  0  0
    0.7637   -8.2338  -12.7066 H   0  0  0  0  0
    0.5986   -8.7499  -15.9009 H   0  0  0  0  0
    1.0986   -7.3856  -16.8938 H   0  0  0  0  0
  1  2  1  0  0  0
  1 82  1  0  0  0
  2  3  1  0  0  0
  2  5  1  0  0  0
  3  4  2  0  0  0
  3 10  1  0  0  0
  5  6  1  0  0  0
  6  7  1  0  0  0
  7  8  1  0  0  0
  8  9  1  0  0  0
  9 71  1  0  0  0
 10 11  1  0  0  0
 11 12  1  0  0  0
 11 14  1  0  0  0
 12 13  2  0  0  0
 12 21  1  0  0  0
 14 15  1  0  0  0
 15 16  4  0  0  0
 15 17  4  0  0  0
 16 18  4  0  0  0
 17 19  4  0  0  0
 18 20  4  0  0  0
 19 20  4  0  0  0
 21 22  1  0  0  0
 22 23  1  0  0  0
 22 25  1  0  0  0
 23 24  2  0  0  0
 23 30  1  0  0  0
 25 26  1  0  0  0
 26 27  1  0  0  0
 27 28  1  0  0  0
 27 29  2  0  0  0
 30 31  1  0  0  0
 31 32  1  0  0  0
 32 33  2  0  0  0
 32 34  1  0  0  0
 34 35  1  0  0  0
 35 36  1  0  0  0
 35 47  1  0  0  0
 36 37  1  0  0  0
 37 38  4  0  0  0
 37 40  4  0  0  0
 38 39  4  0  0  0
 39 42  4  0  0  0
 40 41  4  0  0  0
 41 42  4  0  0  0
 42 43  1  0  0  0
 43 44  1  0  0  0
 44 45  1  0  0  0
 44 46  2  0  0  0
 47 48  2  0  0  0
 47 49  1  0  0  0
 49 50  1  0  0  0
 50 51  1  0  0  0
 50 53  1  0  0  0
 51 52  2  0  0  0
 51 57  1  0  0  0
 53 54  1  0  0  0
 54 55  1  0  0  0
 54 56  2  0  0  0
 57 58  1  0  0  0
 58 59  1  0  0  0
 58 61  1  0  0  0
 59 60  2  0  0  0
 59 65  1  0  0  0
 61 62  1  0  0  0
 62 63  2  0  0  0
 62 64  1  0  0  0
 65 66  1  0  0  0
 66 67  1  0  0  0
 66 69  1  0  0  0
 67 68  2  0  0  0
 67 74  1  0  0  0
 69 70  1  0  0  0
 70 71  1  0  0  0
 71 72  2  0  0  0
 82 73  2  0  0  0
 74 75  1  0  0  0
 75 76  1  0  0  0
 75 79  1  0  0  0
 76 77  2  0  0  0
 76 78  1  0  0  0
 79 80  1  0  0  0
 80 81  1  0  0  0
 81 82  1  0  0  0
  1 83  1  0  0  0
  2 84  1  0  0  0
  5 85  1  0  0  0
  5 86  1  0  0  0
  6 87  1  0  0  0
  6 88  1  0  0  0
  7 89  1  0  0  0
  7 90  1  0  0  0
  8 91  1  0  0  0
  8 92  1  0  0  0
  9 93  1  0  0  0
 10 94  1  0  0  0
 11 95  1  0  0  0
 14 96  1  0  0  0
 14 97  1  0  0  0
 16 98  1  0  0  0
 17 99  1  0  0  0
 18100  1  0  0  0
 19101  1  0  0  0
 20102  1  0  0  0
 21103  1  0  0  0
 22104  1  0  0  0
 25105  1  0  0  0
 25106  1  0  0  0
 26107  1  0  0  0
 26108  1  0  0  0
 28109  1  0  0  0
 30110  1  0  0  0
 31111  1  0  0  0
 31112  1  0  0  0
 34113  1  0  0  0
 35114  1  0  0  0
 36115  1  0  0  0
 36116  1  0  0  0
 38117  1  0  0  0
 39118  1  0  0  0
 40119  1  0  0  0
 41120  1  0  0  0
 43121  1  0  0  0
 43122  1  0  0  0
 45123  1  0  0  0
 49124  1  0  0  0
 50125  1  0  0  0
 53126  1  0  0  0
 53127  1  0  0  0
 55128  1  0  0  0
 57129  1  0  0  0
 58130  1  0  0  0
 61131  1  0  0  0
 61132  1  0  0  0
 64133  1  0  0  0
 64134  1  0  0  0
 65135  1  0  0  0
 66136  1  0  0  0
 69137  1  0  0  0
 69138  1  0  0  0
 70139  1  0  0  0
 70140  1  0  0  0
 74141  1  0  0  0
 75142  1  0  0  0
 78143  1  0  0  0
 78144  1  0  0  0
 79145  1  0  0  0
 79146  1  0  0  0
 81147  1  0  0  0
 81148  1  0  0  0
M  END
$$$$
