6mhb_ligand
  -I-interpret- 

 28 29  0  0  0  0  0  0  0  0999 V2000
   -5.8750    6.4560   -2.9920 C   0  0  0  0  0
   -2.5980    8.1510   -2.0790 C   0  0  0  0  0
   -0.4390    8.7540   -1.7780 C   0  0  0  0  0
   -0.8600    8.8640   -0.4900 C   0  0  0  0  0
   -5.0860    7.1100   -0.8590 O   0  0  0  0  0
   -4.8900    7.0770   -2.0520 C   0  0  0  0  0
   -6.1860    5.0050   -2.5620 C   0  0  0  0  0
   -3.7170    7.5700   -2.6870 N   0  0  0  0  0
   -2.5230    8.4510   -0.3260 S   0  0  0  0  0
   -1.4510    8.3600   -2.7030 N   0  0  0  0  0
    0.8910    9.0650   -2.3300 C   0  0  0  0  0
    1.8600    9.7590   -1.5850 C   0  0  0  0  0
    3.1300    9.9730   -2.1240 C   0  0  0  0  0
    3.4240    9.4840   -3.4140 C   0  0  0  0  0
    4.9760    9.7500   -4.0990 Cl  0  0  0  0  0
    2.5030    8.7990   -4.1690 C   0  0  0  0  0
    1.2380    8.5770   -3.6300 C   0  0  0  0  0
   -5.4510    6.4463   -3.9961 H   0  0  0  0  0
   -6.7970    7.0371   -2.9759 H   0  0  0  0  0
   -0.2226    9.1756    0.3375 H   0  0  0  0  0
   -5.2666    4.4196   -2.5715 H   0  0  0  0  0
   -6.6062    5.0076   -1.5562 H   0  0  0  0  0
   -6.9039    4.5677   -3.2559 H   0  0  0  0  0
   -3.6876    7.4911   -3.7035 H   0  0  0  0  0
    1.6204   10.1294   -0.5883 H   0  0  0  0  0
    3.8864   10.5123   -1.5539 H   0  0  0  0  0
    2.7561    8.4379   -5.1658 H   0  0  0  0  0
    0.4994    8.0219   -4.2083 H   0  0  0  0  0
  6  1  1  0  0  0
  1  7  1  0  0  0
  8  2  1  0  0  0
  2  9  4  0  0  0
  2 10  4  0  0  0
  3  4  4  0  0  0
 10  3  4  0  0  0
  3 11  1  0  0  0
  9  4  4  0  0  0
  6  5  2  0  0  0
  6  8  1  0  0  0
 11 12  4  0  0  0
 11 17  4  0  0  0
 12 13  4  0  0  0
 13 14  4  0  0  0
 14 15  1  0  0  0
 14 16  4  0  0  0
 16 17  4  0  0  0
  1 18  1  0  0  0
  1 19  1  0  0  0
  4 20  1  0  0  0
  7 21  1  0  0  0
  7 22  1  0  0  0
  7 23  1  0  0  0
  8 24  1  0  0  0
 12 25  1  0  0  0
 13 26  1  0  0  0
 16 27  1  0  0  0
 17 28  1  0  0  0
M  END
$$$$
