3bxs_ligand
  -I-interpret- 

 52 53  0  0  0  0  0  0  0  0999 V2000
    0.6290    2.1110   11.2580 C   0  0  0  0  0
    1.6930    1.1060   11.7040 C   0  0  0  0  0
    1.2360    0.3760   12.9690 C   0  0  0  0  0
    3.0390    1.8050   11.9230 C   0  0  0  0  0
    4.0770    0.7950   12.4180 C   0  0  0  0  0
    4.1770   -0.3150   11.8980 O   0  0  0  0  0
    4.8290    1.2110   13.4340 N   0  0  0  0  0
    5.8410    0.3490   14.0630 C   0  0  0  0  0
    5.3400    0.0150   15.4710 C   0  0  0  0  0
    4.1500    0.1630   15.7470 O   0  0  0  0  0
    6.1020   -0.4260   16.3300 O   0  0  0  0  0
    7.1910    1.0650   14.1520 C   0  0  0  0  0
    7.5810    1.6630   12.7980 C   0  0  0  0  0
    7.5240    3.0430   12.6370 C   0  0  0  0  0
    7.7210    3.6070   11.3800 C   0  0  0  0  0
    7.8600    0.8410   11.7100 C   0  0  0  0  0
    8.0570    1.4060   10.4520 C   0  0  0  0  0
    7.9770    2.7860   10.2860 C   0  0  0  0  0
    8.0800    3.3590    9.0550 O   0  0  0  0  0
    7.1850    2.7860    8.0850 C   0  0  0  0  0
    5.7150    2.8350    8.5100 C   0  0  0  0  0
    5.2100    4.2670    8.7060 C   0  0  0  0  0
    3.7400    4.2910    9.1340 C   0  0  0  0  0
    3.5430    3.7630   10.5580 C   0  0  0  0  0
    3.4460    4.5350   11.5110 O   0  0  0  0  0
    3.4900    2.4390   10.6760 N   0  0  0  0  0
    0.5091    2.8758   12.0253 H   0  0  0  0  0
    0.9408    2.5777   10.3236 H   0  0  0  0  0
   -0.3183    1.5929   11.1084 H   0  0  0  0  0
    1.8276    0.3660   10.9151 H   0  0  0  0  0
    1.9779   -0.3745   13.2419 H   0  0  0  0  0
    1.1274    1.0938   13.7820 H   0  0  0  0  0
    0.2784   -0.1094   12.7809 H   0  0  0  0  0
    2.9182    2.5804   12.6794 H   0  0  0  0  0
    4.6993    2.1587   13.7881 H   0  0  0  0  0
    5.9850   -0.5536   13.4691 H   0  0  0  0  0
    3.6864    0.5122   14.9824 H   0  0  0  0  0
    7.9520    0.3435   14.4493 H   0  0  0  0  0
    7.1136    1.8705   14.8822 H   0  0  0  0  0
    7.3248    3.6836   13.4961 H   0  0  0  0  0
    7.6749    4.6886   11.2528 H   0  0  0  0  0
    7.9240   -0.2391   11.8416 H   0  0  0  0  0
    8.2741    0.7667    9.5963 H   0  0  0  0  0
    7.4576    1.7374    7.9657 H   0  0  0  0  0
    7.2809    3.3656    7.1669 H   0  0  0  0  0
    5.6221    2.3120    9.4618 H   0  0  0  0  0
    5.1209    2.3734    7.7213 H   0  0  0  0  0
    5.3021    4.7980    7.7585 H   0  0  0  0  0
    5.8048    4.7385    9.4883 H   0  0  0  0  0
    3.1785    3.6502    8.4541 H   0  0  0  0  0
    3.3953    5.3247    9.1050 H   0  0  0  0  0
    3.7670    1.8539    9.8878 H   0  0  0  0  0
  1  2  1  0  0  0
  2  3  1  0  0  0
  2  4  1  0  0  0
  4  5  1  0  0  0
  4 26  1  0  0  0
  5  6  2  0  0  0
  5  7  1  0  0  0
  7  8  1  0  0  0
  8  9  1  0  0  0
  8 12  1  0  0  0
  9 10  1  0  0  0
  9 11  2  0  0  0
 12 13  1  0  0  0
 13 14  4  0  0  0
 13 16  4  0  0  0
 14 15  4  0  0  0
 15 18  4  0  0  0
 16 17  4  0  0  0
 17 18  4  0  0  0
 18 19  1  0  0  0
 19 20  1  0  0  0
 20 21  1  0  0  0
 21 22  1  0  0  0
 22 23  1  0  0  0
 23 24  1  0  0  0
 24 25  2  0  0  0
 24 26  1  0  0  0
  1 27  1  0  0  0
  1 28  1  0  0  0
  1 29  1  0  0  0
  2 30  1  0  0  0
  3 31  1  0  0  0
  3 32  1  0  0  0
  3 33  1  0  0  0
  4 34  1  0  0  0
  7 35  1  0  0  0
  8 36  1  0  0  0
 10 37  1  0  0  0
 12 38  1  0  0  0
 12 39  1  0  0  0
 14 40  1  0  0  0
 15 41  1  0  0  0
 16 42  1  0  0  0
 17 43  1  0  0  0
 20 44  1  0  0  0
 20 45  1  0  0  0
 21 46  1  0  0  0
 21 47  1  0  0  0
 22 48  1  0  0  0
 22 49  1  0  0  0
 23 50  1  0  0  0
 23 51  1  0  0  0
 26 52  1  0  0  0
M  END
$$$$
