1zd2_ligand
  -I-interpret- 

 30 30  0  0  0  0  0  0  0  0999 V2000
  -18.0030   -9.6450   67.3740 C   0  0  0  0  0
  -18.1280   -9.0860   65.9770 N   0  0  0  0  0
  -17.3100   -8.1030   65.3770 C   0  0  0  0  0
  -17.6550   -7.7520   64.0600 N   0  0  0  0  0
  -16.9280   -6.7180   63.2580 C   0  0  0  0  0
  -17.5550   -6.6490   61.8440 C   0  0  0  0  0
  -17.1850   -5.5580   61.1550 O   0  0  0  0  0
  -16.3860   -7.5550   65.9610 O   0  0  0  0  0
  -18.2950   -7.4810   61.3710 O   0  0  0  0  0
  -18.5360  -11.1100   67.4220 C   0  0  0  0  0
  -18.4280  -11.7340   68.8430 C   0  0  0  0  0
  -16.9710  -11.6530   69.3890 C   0  0  0  0  0
  -16.4270  -10.1930   69.3300 C   0  0  0  0  0
  -16.5360   -9.6100   67.8950 C   0  0  0  0  0
  -18.6044   -9.0099   68.0245 H   0  0  0  0  0
  -18.8853   -9.4586   65.4043 H   0  0  0  0  0
  -18.4455   -8.2290   63.6264 H   0  0  0  0  0
  -15.8739   -6.9847   63.1814 H   0  0  0  0  0
  -17.0113   -5.7470   63.7461 H   0  0  0  0  0
  -16.6002   -5.0224   61.6960 H   0  0  0  0  0
  -17.9316  -11.7112   66.7428 H   0  0  0  0  0
  -19.5886  -11.0954   67.1391 H   0  0  0  0  0
  -18.7181  -12.7830   68.7838 H   0  0  0  0  0
  -19.0816  -11.1788   69.5159 H   0  0  0  0  0
  -16.3330  -12.2871   68.7733 H   0  0  0  0  0
  -16.9700  -11.9829   70.4279 H   0  0  0  0  0
  -15.3772  -10.2010   69.6232 H   0  0  0  0  0
  -17.0200   -9.5736   70.0029 H   0  0  0  0  0
  -16.2026   -8.5725   67.9178 H   0  0  0  0  0
  -15.9190  -10.2138   67.2295 H   0  0  0  0  0
  1  2  1  0  0  0
  1 10  1  0  0  0
  1 14  1  0  0  0
  2  3  1  0  0  0
  3  4  1  0  0  0
  3  8  2  0  0  0
  4  5  1  0  0  0
  5  6  1  0  0  0
  6  7  1  0  0  0
  6  9  2  0  0  0
 10 11  1  0  0  0
 11 12  1  0  0  0
 12 13  1  0  0  0
 13 14  1  0  0  0
  1 15  1  0  0  0
  2 16  1  0  0  0
  4 17  1  0  0  0
  5 18  1  0  0  0
  5 19  1  0  0  0
  7 20  1  0  0  0
 10 21  1  0  0  0
 10 22  1  0  0  0
 11 23  1  0  0  0
 11 24  1  0  0  0
 12 25  1  0  0  0
 12 26  1  0  0  0
 13 27  1  0  0  0
 13 28  1  0  0  0
 14 29  1  0  0  0
 14 30  1  0  0  0
M  END
$$$$
