2ohk_ligand
  -I-interpret- 

 19 20  0  0  0  0  0  0  0  0999 V2000
   66.6510   49.0460    6.1240 N   0  0  0  0  0
   67.4210   49.0870    7.2440 C   0  0  0  0  0
   67.8830   50.2920    7.6400 N   0  0  0  0  0
   68.6510   50.3330    8.7350 C   0  0  0  0  0
   68.9550   49.2220    9.4970 C   0  0  0  0  0
   68.4550   47.9810    9.1330 C   0  0  0  0  0
   68.7150   46.8260    9.8620 C   0  0  0  0  0
   68.1960   45.6130    9.4540 C   0  0  0  0  0
   67.4250   45.5400    8.3140 C   0  0  0  0  0
   67.1560   46.6740    7.5840 C   0  0  0  0  0
   67.6570   47.9060    7.9780 C   0  0  0  0  0
   66.4423   49.9060    5.6168 H   0  0  0  0  0
   66.2821   48.1552    5.7911 H   0  0  0  0  0
   69.0590   51.2959    9.0424 H   0  0  0  0  0
   69.5853   49.3203   10.3808 H   0  0  0  0  0
   69.3312   46.8781   10.7596 H   0  0  0  0  0
   68.3964   44.7123   10.0343 H   0  0  0  0  0
   67.0265   44.5788    7.9894 H   0  0  0  0  0
   66.5423   46.6039    6.6859 H   0  0  0  0  0
  1  2  1  0  0  0
  2  3  4  0  0  0
  2 11  4  0  0  0
  3  4  4  0  0  0
  4  5  4  0  0  0
  5  6  4  0  0  0
  6  7  4  0  0  0
  6 11  4  0  0  0
  7  8  4  0  0  0
  8  9  4  0  0  0
  9 10  4  0  0  0
 10 11  4  0  0  0
  1 12  1  0  0  0
  1 13  1  0  0  0
  4 14  1  0  0  0
  5 15  1  0  0  0
  7 16  1  0  0  0
  8 17  1  0  0  0
  9 18  1  0  0  0
 10 19  1  0  0  0
M  END
$$$$
