6bkh_ligand
  -I-interpret- 

 64 69  0  0  0  0  0  0  0  0999 V2000
   95.1200  113.7950  -17.8640 C   0  0  0  0  0
   94.5310  111.3890  -18.1070 C   0  0  0  0  0
   95.8120  110.1930  -13.8270 C   0  0  0  0  0
   94.5120  110.3070  -17.3350 C   0  0  0  0  0
   94.9600  110.7180  -16.0650 C   0  0  0  0  0
   96.2910  111.4470  -13.4840 C   0  0  0  0  0
   97.0360  111.5310  -12.2750 C   0  0  0  0  0
   94.1840  112.9220  -19.9980 N   0  3  0  0  0
   95.2800  113.6960  -19.3970 C   0  0  0  0  0
   94.2180  112.9980  -21.4720 C   0  0  0  0  0
   96.0650  109.0760  -13.0110 C   0  0  0  0  0
   97.6250  112.7910  -11.7830 C   0  0  0  0  0
   98.3770  113.5640  -12.6640 C   0  0  0  0  0
   98.9390  114.7480  -12.2410 C   0  0  0  0  0
   98.7610  115.1360  -10.9280 C   0  0  0  0  0
   98.0290  114.3780  -10.0240 C   0  0  0  0  0
   97.4480  113.1780  -10.4380 C   0  0  0  0  0
   96.5910  112.3720   -9.4880 C   0  0  0  0  0
   98.8160  114.7700   -7.7570 C   0  0  0  0  0
   98.5850  115.1810   -6.3640 C   0  0  0  0  0
   97.4160  115.4860   -5.7350 C   0  0  0  0  0
   97.5690  115.8070   -4.3630 C   0  0  0  0  0
   96.6020  116.1870   -3.4120 C   0  0  0  0  0
   96.9550  116.4600   -2.1260 C   0  0  0  0  0
   98.2720  116.3710   -1.7050 C   0  0  0  0  0
   99.2520  115.9990   -2.5940 C   0  0  0  0  0
   98.9040  115.7180   -3.9090 C   0  0  0  0  0
   94.1710  111.4970  -19.5760 C   0  0  0  0  0
   95.0820  109.9090  -14.9690 N   0  0  0  0  0
   97.2580  110.4660  -11.5300 N   0  0  0  0  0
   96.7690  109.2260  -11.8880 N   0  0  0  0  0
   97.8360  114.7950   -8.6920 N   0  0  0  0  0
   94.9690  112.4210  -17.3750 N   0  0  0  0  0
   95.2330  111.9930  -16.0900 N   0  0  0  0  0
   95.6390  107.9480  -13.3240 O   0  0  0  0  0
   97.2760  111.7210   -8.4150 O   0  0  0  0  0
   99.9410  114.3630   -8.0450 O   0  0  0  0  0
   99.9360  115.2320   -5.2360 S   0  0  0  0  0
   94.2544  114.4022  -17.5991 H   0  0  0  0  0
   95.9849  114.2791  -17.4105 H   0  0  0  0  0
   94.2097  109.3013  -17.6271 H   0  0  0  0  0
   96.1069  112.3222  -14.1071 H   0  0  0  0  0
   93.3260  113.3521  -19.6528 H   0  0  0  0  0
   96.2218  113.1930  -19.6164 H   0  0  0  0  0
   95.2637  114.7030  -19.8139 H   0  0  0  0  0
   94.1198  114.0380  -21.7833 H   0  0  0  0  0
   95.1649  112.5971  -21.8335 H   0  0  0  0  0
   93.3943  112.4149  -21.8837 H   0  0  0  0  0
   98.5213  113.2309  -13.6918 H   0  0  0  0  0
   99.5136  115.3672  -12.9299 H   0  0  0  0  0
   99.2106  116.0695  -10.5895 H   0  0  0  0  0
   96.1387  111.5798  -10.0846 H   0  0  0  0  0
   95.9034  113.0795   -9.0246 H   0  0  0  0  0
   96.4505  115.4834   -6.2409 H   0  0  0  0  0
   95.5563  116.2635   -3.7100 H   0  0  0  0  0
   96.1855  116.7548   -1.4125 H   0  0  0  0  0
   98.5306  116.5957   -0.6702 H   0  0  0  0  0
  100.2904  115.9253   -2.2708 H   0  0  0  0  0
   93.1739  111.0853  -19.7325 H   0  0  0  0  0
   94.8998  110.9412  -20.1660 H   0  0  0  0  0
   94.5908  109.0155  -14.9951 H   0  0  0  0  0
   96.9471  108.4191  -11.2900 H   0  0  0  0  0
   96.9131  115.1323   -8.4183 H   0  0  0  0  0
   96.6423  111.2411   -7.8767 H   0  0  0  0  0
  1  9  1  0  0  0
 33  1  1  0  0  0
  4  2  4  0  0  0
  2 28  1  0  0  0
  2 33  4  0  0  0
  6  3  2  0  0  0
  3 11  1  0  0  0
  3 29  1  0  0  0
  5  4  4  0  0  0
 29  5  1  0  0  0
  5 34  4  0  0  0
  7  6  1  0  0  0
 12  7  1  0  0  0
  7 30  2  0  0  0
  8  9  1  0  0  0
  8 10  1  0  0  0
 28  8  1  0  0  0
 11 31  1  0  0  0
 11 35  2  0  0  0
 12 13  4  0  0  0
 17 12  4  0  0  0
 14 13  4  0  0  0
 15 14  4  0  0  0
 16 15  4  0  0  0
 16 17  4  0  0  0
 32 16  1  0  0  0
 17 18  1  0  0  0
 18 36  1  0  0  0
 19 20  1  0  0  0
 19 32  1  0  0  0
 19 37  2  0  0  0
 20 21  4  0  0  0
 20 38  4  0  0  0
 21 22  4  0  0  0
 22 23  4  0  0  0
 22 27  4  0  0  0
 23 24  4  0  0  0
 24 25  4  0  0  0
 25 26  4  0  0  0
 26 27  4  0  0  0
 27 38  4  0  0  0
 30 31  1  0  0  0
 33 34  4  0  0  0
  1 39  1  0  0  0
  1 40  1  0  0  0
  4 41  1  0  0  0
  6 42  1  0  0  0
  8 43  1  0  0  0
  9 44  1  0  0  0
  9 45  1  0  0  0
 10 46  1  0  0  0
 10 47  1  0  0  0
 10 48  1  0  0  0
 13 49  1  0  0  0
 14 50  1  0  0  0
 15 51  1  0  0  0
 18 52  1  0  0  0
 18 53  1  0  0  0
 21 54  1  0  0  0
 23 55  1  0  0  0
 24 56  1  0  0  0
 25 57  1  0  0  0
 26 58  1  0  0  0
 28 59  1  0  0  0
 28 60  1  0  0  0
 29 61  1  0  0  0
 31 62  1  0  0  0
 32 63  1  0  0  0
 36 64  1  0  0  0
M  END
$$$$
