6phr_ligand
  -I-interpret- 

 33 32  0  0  0  0  0  0  0  0999 V2000
   28.0970   -1.4590   56.8550 C   0  0  0  0  0
   27.8350   -0.9950   58.2960 C   0  0  0  0  0
   29.0500   -1.3920   59.1280 C   0  0  0  0  0
   31.3680   -1.0450   59.5300 C   0  0  0  0  0
   31.4550   -0.6110   60.9840 C   0  0  0  0  0
   32.1430    0.7410   61.0330 C   0  0  0  0  0
   32.4850    1.1080   62.4830 C   0  0  0  0  0
   33.2490    2.4150   62.3930 C   0  0  0  0  0
   27.1830   -0.7990   55.9370 N   0  3  0  0  0
   30.1800   -0.5100   58.8680 N   0  3  0  0  0
   33.7270    3.0920   64.0070 S   0  0  0  0  0
   27.9442   -2.5366   56.7953 H   0  0  0  0  0
   29.1210   -1.2054   56.5806 H   0  0  0  0  0
   26.9320   -1.4610   58.6902 H   0  0  0  0  0
   27.6838    0.0839   58.3295 H   0  0  0  0  0
   29.3355   -2.4097   58.8619 H   0  0  0  0  0
   28.7874   -1.3179   60.1833 H   0  0  0  0  0
   31.3122   -2.1332   59.5023 H   0  0  0  0  0
   32.2475   -0.6671   59.0087 H   0  0  0  0  0
   32.0220   -1.3418   61.5606 H   0  0  0  0  0
   30.4563   -0.5399   61.4149 H   0  0  0  0  0
   31.4745    1.4971   60.6214 H   0  0  0  0  0
   33.0627    0.6951   60.4497 H   0  0  0  0  0
   33.0755    0.3296   62.9661 H   0  0  0  0  0
   31.5883    1.2078   63.0946 H   0  0  0  0  0
   32.5941    3.1434   61.9148 H   0  0  0  0  0
   34.1658    2.2193   61.8369 H   0  0  0  0  0
   27.3695   -1.1172   54.9860 H   0  0  0  0  0
   26.2224   -1.0289   56.1915 H   0  0  0  0  0
   27.3182    0.2105   55.9917 H   0  0  0  0  0
   29.9772    0.4222   59.2288 H   0  0  0  0  0
   30.3448   -0.4513   57.8631 H   0  0  0  0  0
   34.3885    4.2321   63.8295 H   0  0  0  0  0
  2  1  1  0  0  0
  1  9  1  0  0  0
  3  2  1  0  0  0
 10  3  1  0  0  0
  4  5  1  0  0  0
  4 10  1  0  0  0
  5  6  1  0  0  0
  6  7  1  0  0  0
  7  8  1  0  0  0
  8 11  1  0  0  0
  1 12  1  0  0  0
  1 13  1  0  0  0
  2 14  1  0  0  0
  2 15  1  0  0  0
  3 16  1  0  0  0
  3 17  1  0  0  0
  4 18  1  0  0  0
  4 19  1  0  0  0
  5 20  1  0  0  0
  5 21  1  0  0  0
  6 22  1  0  0  0
  6 23  1  0  0  0
  7 24  1  0  0  0
  7 25  1  0  0  0
  8 26  1  0  0  0
  8 27  1  0  0  0
  9 28  1  0  0  0
  9 29  1  0  0  0
  9 30  1  0  0  0
 10 31  1  0  0  0
 10 32  1  0  0  0
 11 33  1  0  0  0
M  END
$$$$
