1k22_ligand
  -I-interpret- 

 63 65  0  0  0  0  0  0  0  0999 V2000
   18.7400  -14.4090   24.4190 C   0  0  0  0  0
   18.9060  -15.7460   25.2000 C   0  0  0  0  0
   19.4890  -15.5290   26.6320 C   0  0  0  0  0
   20.8110  -14.7180   26.5380 C   0  0  0  0  0
   20.5890  -13.3450   25.8180 C   0  0  0  0  0
   20.0880  -13.6120   24.3660 C   0  0  0  0  0
   17.0410  -15.5660   22.9810 N   0  3  0  0  0
   18.2480  -14.6920   22.9380 C   0  0  0  0  0
   17.8690  -13.4020   22.2810 C   0  0  0  0  0
   16.8270  -12.7900   22.6660 O   0  0  0  0  0
   18.6150  -12.9120   21.2930 N   0  0  0  0  0
   18.4550  -11.6940   20.4810 C   0  0  0  0  0
   17.0860  -11.8150   19.8150 C   0  0  0  0  0
   16.8180  -12.8260   19.1830 O   0  0  0  0  0
   16.1420  -10.7990   19.9520 N   0  0  0  0  0
   14.7890  -11.0010   19.4880 C   0  0  0  0  0
   13.8470  -10.9690   20.6190 C   0  0  0  0  0
   13.2900   -9.7430   21.0060 C   0  0  0  0  0
   12.3680   -9.6780   22.1010 C   0  0  0  0  0
   12.0130  -10.8460   22.8000 C   0  0  0  0  0
   12.5810  -12.1100   22.4090 C   0  0  0  0  0
   13.5050  -12.1640   21.3070 C   0  0  0  0  0
   11.1080  -10.7790   23.8690 C   0  0  0  0  0
   10.9490   -9.6150   24.5710 N   0  0  0  0  0
   10.3630  -11.8800   24.2150 N   0  0  0  0  0
   19.7830  -11.9190   19.8420 C   0  0  0  0  0
   19.8320  -13.2830   20.5760 C   0  0  0  0  0
   16.4900  -16.1470   21.7190 C   0  0  0  0  0
   14.9780  -16.4710   21.8140 C   0  0  0  0  0
   14.3890  -16.5990   23.0010 O   0  0  0  0  0
   14.2770  -16.6270   20.7220 O   0  0  0  0  0
   17.9968  -13.8111   24.9465 H   0  0  0  0  0
   19.5999  -16.3773   24.6450 H   0  0  0  0  0
   17.9212  -16.2020   25.3019 H   0  0  0  0  0
   19.6891  -16.4965   27.0924 H   0  0  0  0  0
   18.7685  -14.9789   27.2373 H   0  0  0  0  0
   21.5327  -15.2979   25.9627 H   0  0  0  0  0
   21.1712  -14.5248   27.5485 H   0  0  0  0  0
   21.5258  -12.7886   25.7883 H   0  0  0  0  0
   19.8479  -12.7591   26.3618 H   0  0  0  0  0
   19.9295  -12.6622   23.8552 H   0  0  0  0  0
   20.8340  -14.1940   23.8248 H   0  0  0  0  0
   16.2987  -14.9572   23.3256 H   0  0  0  0  0
   17.3335  -16.3763   23.5271 H   0  0  0  0  0
   19.0498  -15.1759   22.3802 H   0  0  0  0  0
   18.3536  -10.6535   20.7893 H   0  0  0  0  0
   16.4067   -9.9119   20.3803 H   0  0  0  0  0
   14.7232  -11.9730   18.9992 H   0  0  0  0  0
   14.5313  -10.2051   18.7893 H   0  0  0  0  0
   13.5598   -8.8327   20.4706 H   0  0  0  0  0
   11.9398   -8.7193   22.3936 H   0  0  0  0  0
   12.3127  -13.0207   22.9445 H   0  0  0  0  0
   13.9398  -13.1159   21.0021 H   0  0  0  0  0
   11.4907   -8.7887   24.3178 H   0  0  0  0  0
    9.6998  -11.8246   24.9880 H   0  0  0  0  0
   10.4730  -12.7529   23.6989 H   0  0  0  0  0
   20.5901  -11.1928   19.9387 H   0  0  0  0  0
   19.9124  -11.8504   18.7619 H   0  0  0  0  0
   19.8813  -14.2146   20.0122 H   0  0  0  0  0
   20.7255  -13.5877   21.1209 H   0  0  0  0  0
   17.0187  -17.0800   21.5235 H   0  0  0  0  0
   16.6233  -15.4098   20.9272 H   0  0  0  0  0
   15.0363  -16.4554   23.6953 H   0  0  0  0  0
  8  1  1  0  0  0
  1  6  1  0  0  0
  1  2  1  0  0  0
  2  3  1  0  0  0
  3  4  1  0  0  0
  4  5  1  0  0  0
  6  5  1  0  0  0
  8  7  1  0  0  0
  8  9  1  0  0  0
  9 11  1  0  0  0
  9 10  2  0  0  0
 11 27  1  0  0  0
 11 12  1  0  0  0
 12 26  1  0  0  0
 12 13  1  0  0  0
 13 15  1  0  0  0
 13 14  2  0  0  0
 15 16  1  0  0  0
 16 17  1  0  0  0
 17 22  4  0  0  0
 17 18  4  0  0  0
 18 19  4  0  0  0
 19 20  4  0  0  0
 20 23  1  0  0  0
 20 21  4  0  0  0
 22 21  4  0  0  0
 23 25  1  0  0  0
 23 24  2  0  0  0
 27 26  1  0  0  0
  7 28  1  0  0  0
 28 29  1  0  0  0
 29 31  2  0  0  0
 29 30  1  0  0  0
  1 32  1  0  0  0
  2 33  1  0  0  0
  2 34  1  0  0  0
  3 35  1  0  0  0
  3 36  1  0  0  0
  4 37  1  0  0  0
  4 38  1  0  0  0
  5 39  1  0  0  0
  5 40  1  0  0  0
  6 41  1  0  0  0
  6 42  1  0  0  0
  7 43  1  0  0  0
  7 44  1  0  0  0
  8 45  1  0  0  0
 12 46  1  0  0  0
 15 47  1  0  0  0
 16 48  1  0  0  0
 16 49  1  0  0  0
 18 50  1  0  0  0
 19 51  1  0  0  0
 21 52  1  0  0  0
 22 53  1  0  0  0
 24 54  1  0  0  0
 25 55  1  0  0  0
 25 56  1  0  0  0
 26 57  1  0  0  0
 26 58  1  0  0  0
 27 59  1  0  0  0
 27 60  1  0  0  0
 28 61  1  0  0  0
 28 62  1  0  0  0
 30 63  1  0  0  0
M  END
$$$$
