### 
### Created by X-TOOL on Sun Sep  9 21:51:28 2018
### 

@<TRIPOS>MOLECULE
3oli_ligand
  150   156     1     0     0
SMALL
GAST_HUCK


@<TRIPOS>ATOM
      1 N1         -3.3140    0.3750   24.0700 N.4       1 NON         0.2433
      2 C1         -3.1200    1.7530   24.5280 C.3       1 NON         0.0141
      3 C2         -1.7510    2.3360   24.8970 C.2       1 NON        -0.0543
      4 C3         -1.7030    3.7180   24.8920 C.2       1 NON        -0.0200
      5 C4         -0.3810    4.4250   25.2190 C.3       1 NON         0.0719
      6 O1          0.7310    3.5460   25.0240 O.3       1 NON        -0.3839
      7 C5         -2.9430    4.5890   24.6130 C.3       1 NON         0.1112
      8 O2         -2.7340    5.4130   23.4650 O.3       1 NON        -0.3780
      9 C6         -4.2720    3.8470   24.4410 C.3       1 NON         0.1215
     10 O3         -5.3910    4.6510   24.8230 O.3       1 NON        -0.3843
     11 C7         -4.2610    2.5170   25.1870 C.3       1 NON         0.1303
     12 O4         -5.4570    1.7300   25.1590 O.3       1 NON        -0.3821
     13 C1         -1.8460   -3.4120   23.9630 C.3       1 NON         0.1886
     14 O2         -2.9050   -3.8560   26.1320 O.3       1 NON        -0.3840
     15 C2         -2.1590   -2.8930   25.3670 C.3       1 NON         0.1370
     16 C3A        -2.9450   -1.5900   25.2490 C.3       1 NON         0.1304
     17 O3A        -3.1230   -1.0190   26.5470 O.3       1 NON        -0.3834
     18 C4A        -2.2560   -0.5790   24.3290 C.3       1 NON         0.0341
     19 C5A        -1.9520   -1.2770   23.0040 C.3       1 NON         0.1038
     20 O5         -1.1330   -2.4450   23.1700 O.3       1 NON        -0.3401
     21 C6A        -1.2800   -0.3080   22.0290 C.3       1 NON        -0.0332
     22 C1         -4.0570   -7.6550   22.0060 C.3       1 NON         0.1904
     23 C2         -4.5070   -7.2530   23.4290 C.3       1 NON         0.1343
     24 C3         -4.5350   -5.7350   23.5710 C.3       1 NON         0.1144
     25 C4         -3.1820   -5.1720   23.1350 C.3       1 NON         0.1184
     26 C5         -3.0050   -5.5540   21.6760 C.3       1 NON         0.1134
     27 C6         -1.7760   -4.9290   21.0570 C.3       1 NON         0.0730
     28 O2         -5.8090   -7.7610   23.6780 O.3       1 NON        -0.3841
     29 O3         -4.8060   -5.3620   24.9100 O.3       1 NON        -0.3864
     30 O4         -3.0700   -3.7580   23.3090 O.3       1 NON        -0.3401
     31 O5         -2.8880   -6.9720   21.5420 O.3       1 NON        -0.3404
     32 O6         -0.5730   -5.3910   21.6620 O.3       1 NON        -0.3924
     33 N1         -9.2250   -9.2580   19.3940 N.4       1 NON         0.2433
     34 C1         -7.7750   -9.1700   19.1870 C.3       1 NON         0.0141
     35 C2         -7.1520   -8.0270   18.3850 C.2       1 NON        -0.0543
     36 C3         -5.8530   -7.7680   18.7960 C.2       1 NON        -0.0196
     37 C4         -5.0830   -6.6550   18.0750 C.3       1 NON         0.0719
     38 O1         -4.1960   -7.1420   17.0600 O.3       1 NON        -0.3839
     39 C5         -5.1910   -8.4650   20.0030 C.3       1 NON         0.1178
     40 O2         -5.1400   -7.5360   21.0810 O.3       1 NON        -0.3313
     41 C6         -5.9120   -9.7270   20.4940 C.3       1 NON         0.1219
     42 O3         -5.0070  -10.6860   21.0530 O.3       1 NON        -0.3843
     43 C7         -6.7590  -10.2980   19.3650 C.3       1 NON         0.1303
     44 O4         -7.3950  -11.5750   19.4960 O.3       1 NON        -0.3821
     45 C1        -11.6900   -6.0280   20.4760 C.3       1 NON         0.1886
     46 O2        -12.7500   -6.2810   18.3110 O.3       1 NON        -0.3840
     47 C2        -11.4840   -6.2950   18.9800 C.3       1 NON         0.1370
     48 C3A       -10.8750   -7.6810   18.7600 C.3       1 NON         0.1304
     49 O3A       -10.4740   -7.8720   17.3990 O.3       1 NON        -0.3834
     50 C4A        -9.6810   -7.9120   19.6860 C.3       1 NON         0.0341
     51 C5A       -10.0770   -7.6530   21.1480 C.3       1 NON         0.1038
     52 O5        -10.5150   -6.2870   21.2690 O.3       1 NON        -0.3401
     53 C6A        -8.9070   -7.8460   22.1170 C.3       1 NON        -0.0332
     54 C1        -16.3070   -5.1790   22.7270 C.3       1 NON         0.1885
     55 C2        -16.2710   -5.2750   21.1690 C.3       1 NON         0.1341
     56 C3        -15.1430   -6.2210   20.7090 C.3       1 NON         0.1144
     57 C4        -13.8290   -5.8340   21.3680 C.3       1 NON         0.1184
     58 C5        -13.9890   -5.7500   22.8990 C.3       1 NON         0.1134
     59 C6        -12.7100   -5.3180   23.5590 C.3       1 NON         0.0730
     60 O2        -17.5100   -5.8070   20.7140 O.3       1 NON        -0.3841
     61 O3        -15.0100   -6.1080   19.3050 O.3       1 NON        -0.3864
     62 O4        -12.8080   -6.7500   21.0070 O.3       1 NON        -0.3401
     63 O5        -14.9860   -4.7590   23.2170 O.3       1 NON        -0.3405
     64 O6        -12.4890   -3.9260   23.3540 O.3       1 NON        -0.3924
     65 C1        -19.7580   -7.4100   25.8880 C.2       1 NON         0.2660
     66 C2        -20.1360   -7.1200   24.4290 C.3       1 NON         0.1832
     67 C3        -18.8740   -7.3060   23.6070 C.3       1 NON         0.1284
     68 C4        -17.9240   -6.2100   24.1150 C.3       1 NON         0.1249
     69 C5        -17.5350   -6.4920   25.5140 C.3       1 NON         0.1393
     70 C6        -16.5280   -5.5450   26.2310 C.3       1 NON         0.0774
     71 O1        -20.0030   -8.6820   26.4060 O.2       1 NON        -0.3674
     72 O2        -21.2280   -7.9430   24.0910 O.3       1 NON        -0.3674
     73 O3        -19.1730   -7.0530   22.2560 O.3       1 NON        -0.3840
     74 O4        -16.7540   -6.3270   23.2990 O.3       1 NON        -0.3396
     75 O5        -18.6430   -6.6620   26.4370 O.3       1 NON        -0.2665
     76 O6        -15.1800   -5.8190   25.8810 O.3       1 NON        -0.3920
     77 H          -3.3845    0.4336   23.0541 H         1 NON         0.2029
     78 H          -4.1239    0.0290   24.5845 H         1 NON         0.2029
     79 H          -3.1541    1.9280   23.4527 H         1 NON         0.0950
     80 H          -0.8896    1.7147   25.1422 H         1 NON         0.0299
     81 H          -0.4005    4.7388   26.2627 H         1 NON         0.0706
     82 H          -0.2695    5.2831   24.5562 H         1 NON         0.0706
     83 H           0.7530    3.2579   24.1085 H         1 NON         0.2125
     84 H          -3.0466    5.1761   25.5255 H         1 NON         0.0769
     85 H          -2.5660    4.8576   22.7002 H         1 NON         0.2130
     86 H          -4.3849    3.6334   23.3781 H         1 NON         0.0671
     87 H          -6.2005    4.1498   24.7001 H         1 NON         0.2102
     88 H          -4.1554    2.7197   26.2528 H         1 NON         0.0694
     89 H          -5.3201    0.9239   25.6620 H         1 NON         0.2103
     90 H          -1.2035   -4.2865   24.0653 H         1 NON         0.0938
     91 H          -3.7338   -4.0447   25.6858 H         1 NON         0.2101
     92 H          -1.2201   -2.7173   25.8921 H         1 NON         0.0672
     93 H          -3.9124   -1.8274   24.8064 H         1 NON         0.0679
     94 H          -3.6063   -1.6348   27.1027 H         1 NON         0.2102
     95 H          -1.3423   -0.1525   24.7430 H         1 NON         0.0903
     96 H          -2.9086   -1.6037   22.5963 H         1 NON         0.0652
     97 H          -1.9444    0.5354   21.8411 H         1 NON         0.0257
     98 H          -0.3469    0.0524   22.4621 H         1 NON         0.0257
     99 H          -1.0716   -0.8239   21.0917 H         1 NON         0.0257
    100 H          -3.7609   -8.7020   22.0708 H         1 NON         0.0939
    101 H          -3.7986   -7.6681   24.1459 H         1 NON         0.0671
    102 H          -5.3266   -5.3304   22.9403 H         1 NON         0.0648
    103 H          -2.3977   -5.5922   23.7646 H         1 NON         0.0651
    104 H          -3.8886   -5.1827   21.1568 H         1 NON         0.0647
    105 H          -1.8352   -3.8503   21.2020 H         1 NON         0.0584
    106 H          -1.7515   -5.2032   20.0023 H         1 NON         0.0584
    107 H          -6.0797   -7.5223   24.5676 H         1 NON         0.2101
    108 H          -5.6567   -5.7196   25.1747 H         1 NON         0.2100
    109 H          -0.5084   -6.3431   21.5569 H         1 NON         0.2095
    110 H          -9.4469   -9.8934   20.1604 H         1 NON         0.2029
    111 H          -9.6905   -9.6301   18.5662 H         1 NON         0.2029
    112 H          -8.0969   -8.9769   20.2103 H         1 NON         0.0950
    113 H          -7.6642   -7.4842   17.5905 H         1 NON         0.0299
    114 H          -4.4778   -6.1384   18.8200 H         1 NON         0.0706
    115 H          -5.8154   -6.0101   17.5895 H         1 NON         0.0706
    116 H          -3.7457   -6.4011   16.6478 H         1 NON         0.2125
    117 H          -4.2054   -8.7864   19.6663 H         1 NON         0.0773
    118 H          -6.5779   -9.4560   21.3133 H         1 NON         0.0671
    119 H          -5.4995  -11.4562   21.3460 H         1 NON         0.2102
    120 H          -6.1126  -10.5574   18.5265 H         1 NON         0.0694
    121 H          -7.9986  -11.5555   20.2421 H         1 NON         0.2103
    122 H         -11.9009   -4.9608   20.5440 H         1 NON         0.0938
    123 H         -13.3146   -6.9627   18.6826 H         1 NON         0.2101
    124 H         -10.8207   -5.5229   18.5902 H         1 NON         0.0672
    125 H         -11.6516   -8.4088   18.9954 H         1 NON         0.0679
    126 H         -10.0976   -8.7493   17.2976 H         1 NON         0.2102
    127 H          -8.8556   -7.2193   19.5216 H         1 NON         0.0903
    128 H         -10.8599   -8.3669   21.4040 H         1 NON         0.0652
    129 H          -8.5421   -8.8705   22.0445 H         1 NON         0.0257
    130 H          -8.1052   -7.1542   21.8588 H         1 NON         0.0257
    131 H          -9.2439   -7.6501   23.1350 H         1 NON         0.0257
    132 H         -17.0309   -4.4203   23.0244 H         1 NON         0.0938
    133 H         -16.0964   -4.2796   20.7605 H         1 NON         0.0671
    134 H         -15.3884   -7.2450   20.9905 H         1 NON         0.0648
    135 H         -13.5388   -4.8456   21.0116 H         1 NON         0.0651
    136 H         -14.2719   -6.7398   23.2573 H         1 NON         0.0647
    137 H         -11.8808   -5.8762   23.1243 H         1 NON         0.0584
    138 H         -12.7806   -5.5117   24.6293 H         1 NON         0.0584
    139 H         -18.2257   -5.2304   20.9914 H         1 NON         0.2101
    140 H         -14.3123   -6.6940   19.0026 H         1 NON         0.2100
    141 H         -11.6693   -3.6669   23.7813 H         1 NON         0.2095
    142 H         -20.4794   -6.1034   24.2372 H         1 NON         0.0881
    143 H         -18.4537   -8.3079   23.6940 H         1 NON         0.0673
    144 H         -18.3865   -5.2240   24.0699 H         1 NON         0.0656
    145 H         -17.0145   -7.4273   25.3078 H         1 NON         0.0700
    146 H         -16.6332   -5.6940   27.3056 H         1 NON         0.0587
    147 H         -16.7531   -4.5227   25.9270 H         1 NON         0.0587
    148 H         -20.9776   -8.8639   24.1954 H         1 NON         0.2136
    149 H         -18.3616   -7.0606   21.7430 H         1 NON         0.2102
    150 H         -15.0676   -5.7083   24.9341 H         1 NON         0.2095
@<TRIPOS>BOND
     1    1    2 1  
     2   18    1 1  
     3    2    3 1  
     4    2   11 1  
     5    3    4 2  
     6    4    5 1  
     7    4    7 1  
     8    5    6 1  
     9    7    8 1  
    10    9    7 1  
    11    9   10 1  
    12   11    9 1  
    13   11   12 1  
    14   13   15 1  
    15   13   20 1  
    16   30   13 1  
    17   15   14 1  
    18   15   16 1  
    19   16   17 1  
    20   16   18 1  
    21   19   18 1  
    22   20   19 1  
    23   19   21 1  
    24   22   23 1  
    25   22   31 1  
    26   40   22 1  
    27   23   24 1  
    28   23   28 1  
    29   24   25 1  
    30   24   29 1  
    31   26   25 1  
    32   25   30 1  
    33   26   27 1  
    34   31   26 1  
    35   27   32 1  
    36   33   34 1  
    37   50   33 1  
    38   34   35 1  
    39   34   43 1  
    40   35   36 2  
    41   36   37 1  
    42   36   39 1  
    43   37   38 1  
    44   39   40 1  
    45   41   39 1  
    46   41   42 1  
    47   43   41 1  
    48   43   44 1  
    49   45   47 1  
    50   45   52 1  
    51   62   45 1  
    52   47   46 1  
    53   47   48 1  
    54   48   49 1  
    55   48   50 1  
    56   51   50 1  
    57   52   51 1  
    58   51   53 1  
    59   54   55 1  
    60   54   63 1  
    61   74   54 1  
    62   55   56 1  
    63   55   60 1  
    64   56   57 1  
    65   56   61 1  
    66   58   57 1  
    67   57   62 1  
    68   58   59 1  
    69   63   58 1  
    70   59   64 1  
    71   66   65 1  
    72   65   71 2  
    73   65   75 1  
    74   67   66 1  
    75   66   72 1  
    76   68   67 1  
    77   67   73 1  
    78   68   69 1  
    79   68   74 1  
    80   69   70 1  
    81   69   75 1  
    82   70   76 1  
    83    1   77 1  
    84    1   78 1  
    85    2   79 1  
    86    3   80 1  
    87    5   81 1  
    88    5   82 1  
    89    6   83 1  
    90    7   84 1  
    91    8   85 1  
    92    9   86 1  
    93   10   87 1  
    94   11   88 1  
    95   12   89 1  
    96   13   90 1  
    97   14   91 1  
    98   15   92 1  
    99   16   93 1  
   100   17   94 1  
   101   18   95 1  
   102   19   96 1  
   103   21   97 1  
   104   21   98 1  
   105   21   99 1  
   106   22  100 1  
   107   23  101 1  
   108   24  102 1  
   109   25  103 1  
   110   26  104 1  
   111   27  105 1  
   112   27  106 1  
   113   28  107 1  
   114   29  108 1  
   115   32  109 1  
   116   33  110 1  
   117   33  111 1  
   118   34  112 1  
   119   35  113 1  
   120   37  114 1  
   121   37  115 1  
   122   38  116 1  
   123   39  117 1  
   124   41  118 1  
   125   42  119 1  
   126   43  120 1  
   127   44  121 1  
   128   45  122 1  
   129   46  123 1  
   130   47  124 1  
   131   48  125 1  
   132   49  126 1  
   133   50  127 1  
   134   51  128 1  
   135   53  129 1  
   136   53  130 1  
   137   53  131 1  
   138   54  132 1  
   139   55  133 1  
   140   56  134 1  
   141   57  135 1  
   142   58  136 1  
   143   59  137 1  
   144   59  138 1  
   145   60  139 1  
   146   61  140 1  
   147   64  141 1  
   148   66  142 1  
   149   67  143 1  
   150   68  144 1  
   151   69  145 1  
   152   70  146 1  
   153   70  147 1  
   154   72  148 1  
   155   73  149 1  
   156   76  150 1  
@<TRIPOS>SUBSTRUCTURE
     1 NON         1

