3oli_ligand
  -I-interpret- 

150156  0  0  0  0  0  0  0  0999 V2000
   -3.3140    0.3750   24.0700 N   0  3  0  0  0
   -3.1200    1.7530   24.5280 C   0  0  0  0  0
   -1.7510    2.3360   24.8970 C   0  0  0  0  0
   -1.7030    3.7180   24.8920 C   0  0  0  0  0
   -0.3810    4.4250   25.2190 C   0  0  0  0  0
    0.7310    3.5460   25.0240 O   0  0  0  0  0
   -2.9430    4.5890   24.6130 C   0  0  0  0  0
   -2.7340    5.4130   23.4650 O   0  0  0  0  0
   -4.2720    3.8470   24.4410 C   0  0  0  0  0
   -5.3910    4.6510   24.8230 O   0  0  0  0  0
   -4.2610    2.5170   25.1870 C   0  0  0  0  0
   -5.4570    1.7300   25.1590 O   0  0  0  0  0
   -1.8460   -3.4120   23.9630 C   0  0  0  0  0
   -2.9050   -3.8560   26.1320 O   0  0  0  0  0
   -2.1590   -2.8930   25.3670 C   0  0  0  0  0
   -2.9450   -1.5900   25.2490 C   0  0  0  0  0
   -3.1230   -1.0190   26.5470 O   0  0  0  0  0
   -2.2560   -0.5790   24.3290 C   0  0  0  0  0
   -1.9520   -1.2770   23.0040 C   0  0  0  0  0
   -1.1330   -2.4450   23.1700 O   0  0  0  0  0
   -1.2800   -0.3080   22.0290 C   0  0  0  0  0
   -4.0570   -7.6550   22.0060 C   0  0  0  0  0
   -4.5070   -7.2530   23.4290 C   0  0  0  0  0
   -4.5350   -5.7350   23.5710 C   0  0  0  0  0
   -3.1820   -5.1720   23.1350 C   0  0  0  0  0
   -3.0050   -5.5540   21.6760 C   0  0  0  0  0
   -1.7760   -4.9290   21.0570 C   0  0  0  0  0
   -5.8090   -7.7610   23.6780 O   0  0  0  0  0
   -4.8060   -5.3620   24.9100 O   0  0  0  0  0
   -3.0700   -3.7580   23.3090 O   0  0  0  0  0
   -2.8880   -6.9720   21.5420 O   0  0  0  0  0
   -0.5730   -5.3910   21.6620 O   0  0  0  0  0
   -9.2250   -9.2580   19.3940 N   0  3  0  0  0
   -7.7750   -9.1700   19.1870 C   0  0  0  0  0
   -7.1520   -8.0270   18.3850 C   0  0  0  0  0
   -5.8530   -7.7680   18.7960 C   0  0  0  0  0
   -5.0830   -6.6550   18.0750 C   0  0  0  0  0
   -4.1960   -7.1420   17.0600 O   0  0  0  0  0
   -5.1910   -8.4650   20.0030 C   0  0  0  0  0
   -5.1400   -7.5360   21.0810 O   0  0  0  0  0
   -5.9120   -9.7270   20.4940 C   0  0  0  0  0
   -5.0070  -10.6860   21.0530 O   0  0  0  0  0
   -6.7590  -10.2980   19.3650 C   0  0  0  0  0
   -7.3950  -11.5750   19.4960 O   0  0  0  0  0
  -11.6900   -6.0280   20.4760 C   0  0  0  0  0
  -12.7500   -6.2810   18.3110 O   0  0  0  0  0
  -11.4840   -6.2950   18.9800 C   0  0  0  0  0
  -10.8750   -7.6810   18.7600 C   0  0  0  0  0
  -10.4740   -7.8720   17.3990 O   0  0  0  0  0
   -9.6810   -7.9120   19.6860 C   0  0  0  0  0
  -10.0770   -7.6530   21.1480 C   0  0  0  0  0
  -10.5150   -6.2870   21.2690 O   0  0  0  0  0
   -8.9070   -7.8460   22.1170 C   0  0  0  0  0
  -16.3070   -5.1790   22.7270 C   0  0  0  0  0
  -16.2710   -5.2750   21.1690 C   0  0  0  0  0
  -15.1430   -6.2210   20.7090 C   0  0  0  0  0
  -13.8290   -5.8340   21.3680 C   0  0  0  0  0
  -13.9890   -5.7500   22.8990 C   0  0  0  0  0
  -12.7100   -5.3180   23.5590 C   0  0  0  0  0
  -17.5100   -5.8070   20.7140 O   0  0  0  0  0
  -15.0100   -6.1080   19.3050 O   0  0  0  0  0
  -12.8080   -6.7500   21.0070 O   0  0  0  0  0
  -14.9860   -4.7590   23.2170 O   0  0  0  0  0
  -12.4890   -3.9260   23.3540 O   0  0  0  0  0
  -19.7580   -7.4100   25.8880 C   0  0  0  0  0
  -20.1360   -7.1200   24.4290 C   0  0  0  0  0
  -18.8740   -7.3060   23.6070 C   0  0  0  0  0
  -17.9240   -6.2100   24.1150 C   0  0  0  0  0
  -17.5350   -6.4920   25.5140 C   0  0  0  0  0
  -16.5280   -5.5450   26.2310 C   0  0  0  0  0
  -20.0030   -8.6820   26.4060 O   0  0  0  0  0
  -21.2280   -7.9430   24.0910 O   0  0  0  0  0
  -19.1730   -7.0530   22.2560 O   0  0  0  0  0
  -16.7540   -6.3270   23.2990 O   0  0  0  0  0
  -18.6430   -6.6620   26.4370 O   0  0  0  0  0
  -15.1800   -5.8190   25.8810 O   0  0  0  0  0
   -3.3845    0.4336   23.0541 H   0  0  0  0  0
   -4.1239    0.0290   24.5845 H   0  0  0  0  0
   -3.1541    1.9280   23.4527 H   0  0  0  0  0
   -0.8896    1.7147   25.1422 H   0  0  0  0  0
   -0.4005    4.7388   26.2627 H   0  0  0  0  0
   -0.2695    5.2831   24.5562 H   0  0  0  0  0
    1.5448    4.0098   25.2344 H   0  0  0  0  0
   -3.0466    5.1761   25.5255 H   0  0  0  0  0
   -1.9034    5.8852   23.5584 H   0  0  0  0  0
   -4.3849    3.6334   23.3781 H   0  0  0  0  0
   -6.2005    4.1498   24.7001 H   0  0  0  0  0
   -4.1554    2.7197   26.2528 H   0  0  0  0  0
   -5.3201    0.9239   25.6620 H   0  0  0  0  0
   -1.2035   -4.2865   24.0653 H   0  0  0  0  0
   -3.0842   -3.4998   27.0053 H   0  0  0  0  0
   -1.2201   -2.7173   25.8921 H   0  0  0  0  0
   -3.9124   -1.8274   24.8064 H   0  0  0  0  0
   -3.6175   -0.1998   26.4699 H   0  0  0  0  0
   -1.3423   -0.1525   24.7430 H   0  0  0  0  0
   -2.9086   -1.6037   22.5963 H   0  0  0  0  0
   -1.9444    0.5354   21.8411 H   0  0  0  0  0
   -0.3469    0.0524   22.4621 H   0  0  0  0  0
   -1.0716   -0.8239   21.0917 H   0  0  0  0  0
   -3.7609   -8.7020   22.0708 H   0  0  0  0  0
   -3.7986   -7.6681   24.1459 H   0  0  0  0  0
   -5.3266   -5.3304   22.9403 H   0  0  0  0  0
   -2.3977   -5.5922   23.7646 H   0  0  0  0  0
   -3.8886   -5.1827   21.1568 H   0  0  0  0  0
   -1.8352   -3.8503   21.2020 H   0  0  0  0  0
   -1.7515   -5.2032   20.0023 H   0  0  0  0  0
   -6.0856   -7.5097   24.5623 H   0  0  0  0  0
   -4.8193   -4.4045   24.9778 H   0  0  0  0  0
    0.1788   -4.9695   21.2392 H   0  0  0  0  0
   -9.4469   -9.8934   20.1604 H   0  0  0  0  0
   -9.6905   -9.6301   18.5662 H   0  0  0  0  0
   -8.0969   -8.9769   20.2103 H   0  0  0  0  0
   -7.6642   -7.4842   17.5905 H   0  0  0  0  0
   -4.4778   -6.1384   18.8200 H   0  0  0  0  0
   -5.8154   -6.0101   17.5895 H   0  0  0  0  0
   -3.7457   -6.4011   16.6478 H   0  0  0  0  0
   -4.2054   -8.7864   19.6663 H   0  0  0  0  0
   -6.5779   -9.4560   21.3133 H   0  0  0  0  0
   -5.4995  -11.4562   21.3460 H   0  0  0  0  0
   -6.1126  -10.5574   18.5265 H   0  0  0  0  0
   -6.7260  -12.2547   19.6055 H   0  0  0  0  0
  -11.9009   -4.9608   20.5440 H   0  0  0  0  0
  -12.6179   -6.4484   17.3750 H   0  0  0  0  0
  -10.8207   -5.5229   18.5902 H   0  0  0  0  0
  -11.6516   -8.4088   18.9954 H   0  0  0  0  0
  -10.0976   -8.7493   17.2976 H   0  0  0  0  0
   -8.8556   -7.2193   19.5216 H   0  0  0  0  0
  -10.8599   -8.3669   21.4040 H   0  0  0  0  0
   -8.5421   -8.8705   22.0445 H   0  0  0  0  0
   -8.1052   -7.1542   21.8588 H   0  0  0  0  0
   -9.2439   -7.6501   23.1350 H   0  0  0  0  0
  -17.0309   -4.4203   23.0244 H   0  0  0  0  0
  -16.0964   -4.2796   20.7605 H   0  0  0  0  0
  -15.3884   -7.2450   20.9905 H   0  0  0  0  0
  -13.5388   -4.8456   21.0116 H   0  0  0  0  0
  -14.2719   -6.7398   23.2573 H   0  0  0  0  0
  -11.8808   -5.8762   23.1243 H   0  0  0  0  0
  -12.7806   -5.5117   24.6293 H   0  0  0  0  0
  -17.4975   -5.8699   19.7561 H   0  0  0  0  0
  -14.3104   -6.6919   19.0029 H   0  0  0  0  0
  -11.6693   -3.6669   23.7813 H   0  0  0  0  0
  -20.4794   -6.1034   24.2372 H   0  0  0  0  0
  -18.4537   -8.3079   23.6940 H   0  0  0  0  0
  -18.3865   -5.2240   24.0699 H   0  0  0  0  0
  -17.0145   -7.4273   25.3078 H   0  0  0  0  0
  -16.6332   -5.6940   27.3056 H   0  0  0  0  0
  -16.7531   -4.5227   25.9270 H   0  0  0  0  0
  -21.4819   -7.7778   23.1800 H   0  0  0  0  0
  -18.3802   -7.1681   21.7270 H   0  0  0  0  0
  -14.6000   -5.2119   26.3464 H   0  0  0  0  0
  1  2  1  0  0  0
 18  1  1  0  0  0
  2  3  1  0  0  0
  2 11  1  0  0  0
  3  4  2  0  0  0
  4  5  1  0  0  0
  4  7  1  0  0  0
  5  6  1  0  0  0
  7  8  1  0  0  0
  9  7  1  0  0  0
  9 10  1  0  0  0
 11  9  1  0  0  0
 11 12  1  0  0  0
 13 15  1  0  0  0
 13 20  1  0  0  0
 30 13  1  0  0  0
 15 14  1  0  0  0
 15 16  1  0  0  0
 16 17  1  0  0  0
 16 18  1  0  0  0
 19 18  1  0  0  0
 20 19  1  0  0  0
 19 21  1  0  0  0
 22 23  1  0  0  0
 22 31  1  0  0  0
 40 22  1  0  0  0
 23 24  1  0  0  0
 23 28  1  0  0  0
 24 25  1  0  0  0
 24 29  1  0  0  0
 26 25  1  0  0  0
 25 30  1  0  0  0
 26 27  1  0  0  0
 31 26  1  0  0  0
 27 32  1  0  0  0
 33 34  1  0  0  0
 50 33  1  0  0  0
 34 35  1  0  0  0
 34 43  1  0  0  0
 35 36  2  0  0  0
 36 37  1  0  0  0
 36 39  1  0  0  0
 37 38  1  0  0  0
 39 40  1  0  0  0
 41 39  1  0  0  0
 41 42  1  0  0  0
 43 41  1  0  0  0
 43 44  1  0  0  0
 45 47  1  0  0  0
 45 52  1  0  0  0
 62 45  1  0  0  0
 47 46  1  0  0  0
 47 48  1  0  0  0
 48 49  1  0  0  0
 48 50  1  0  0  0
 51 50  1  0  0  0
 52 51  1  0  0  0
 51 53  1  0  0  0
 54 55  1  0  0  0
 54 63  1  0  0  0
 74 54  1  0  0  0
 55 56  1  0  0  0
 55 60  1  0  0  0
 56 57  1  0  0  0
 56 61  1  0  0  0
 58 57  1  0  0  0
 57 62  1  0  0  0
 58 59  1  0  0  0
 63 58  1  0  0  0
 59 64  1  0  0  0
 66 65  1  0  0  0
 65 71  2  0  0  0
 65 75  1  0  0  0
 67 66  1  0  0  0
 66 72  1  0  0  0
 68 67  1  0  0  0
 67 73  1  0  0  0
 68 69  1  0  0  0
 68 74  1  0  0  0
 69 70  1  0  0  0
 69 75  1  0  0  0
 70 76  1  0  0  0
  1 77  1  0  0  0
  1 78  1  0  0  0
  2 79  1  0  0  0
  3 80  1  0  0  0
  5 81  1  0  0  0
  5 82  1  0  0  0
  6 83  1  0  0  0
  7 84  1  0  0  0
  8 85  1  0  0  0
  9 86  1  0  0  0
 10 87  1  0  0  0
 11 88  1  0  0  0
 12 89  1  0  0  0
 13 90  1  0  0  0
 14 91  1  0  0  0
 15 92  1  0  0  0
 16 93  1  0  0  0
 17 94  1  0  0  0
 18 95  1  0  0  0
 19 96  1  0  0  0
 21 97  1  0  0  0
 21 98  1  0  0  0
 21 99  1  0  0  0
 22100  1  0  0  0
 23101  1  0  0  0
 24102  1  0  0  0
 25103  1  0  0  0
 26104  1  0  0  0
 27105  1  0  0  0
 27106  1  0  0  0
 28107  1  0  0  0
 29108  1  0  0  0
 32109  1  0  0  0
 33110  1  0  0  0
 33111  1  0  0  0
 34112  1  0  0  0
 35113  1  0  0  0
 37114  1  0  0  0
 37115  1  0  0  0
 38116  1  0  0  0
 39117  1  0  0  0
 41118  1  0  0  0
 42119  1  0  0  0
 43120  1  0  0  0
 44121  1  0  0  0
 45122  1  0  0  0
 46123  1  0  0  0
 47124  1  0  0  0
 48125  1  0  0  0
 49126  1  0  0  0
 50127  1  0  0  0
 51128  1  0  0  0
 53129  1  0  0  0
 53130  1  0  0  0
 53131  1  0  0  0
 54132  1  0  0  0
 55133  1  0  0  0
 56134  1  0  0  0
 57135  1  0  0  0
 58136  1  0  0  0
 59137  1  0  0  0
 59138  1  0  0  0
 60139  1  0  0  0
 61140  1  0  0  0
 64141  1  0  0  0
 66142  1  0  0  0
 67143  1  0  0  0
 68144  1  0  0  0
 69145  1  0  0  0
 70146  1  0  0  0
 70147  1  0  0  0
 72148  1  0  0  0
 73149  1  0  0  0
 76150  1  0  0  0
M  END
$$$$
