4frs_ligand
  -I-interpret- 

 42 44  0  0  0  0  0  0  0  0999 V2000
   22.6250   10.7430   20.6570 C   0  0  0  0  0
   24.1510   10.0510   21.1130 S   0  0  0  0  0
   22.8140   11.6220   19.6230 C   0  0  0  0  0
   24.1820   11.7190   19.2040 C   0  0  0  0  0
   25.0480   10.8810   19.9410 C   0  0  0  0  0
   20.6680   11.6080   22.0400 C   0  0  0  0  0
   21.5760   12.2070   23.1310 C   0  0  0  0  0
   22.3880   11.3330   23.9230 N   0  0  0  0  0
   22.3190    9.9390   23.7580 C   0  0  0  0  0
   21.6940    9.4690   22.6090 N   0  0  0  0  0
   21.3640   10.3540   21.4330 C   0  0  0  0  0
   20.3400    9.5600   20.5880 C   0  0  0  0  0
   21.5080   12.5060   18.8790 Cl  0  0  0  0  0
   26.5040   10.7850   19.8620 C   0  0  0  0  0
   27.2590   10.1480   20.8930 C   0  0  0  0  0
   28.6250   10.1440   20.9200 C   0  0  0  0  0
   29.2940   10.7700   19.8600 C   0  0  0  0  0
   28.6230   11.4080   18.8090 N   0  0  0  0  0
   27.2450   11.4220   18.8380 C   0  0  0  0  0
   22.7530    9.0980   24.6450 N   0  0  0  0  0
   21.5850   13.4080   23.2880 O   0  0  0  0  0
   23.2920   11.9610   24.9540 C   0  0  0  0  0
   29.3260    9.4740   21.9780 C   0  0  0  0  0
   29.9150    8.9130   22.8650 C   0  0  0  0  0
   30.6550    8.2640   23.9250 C   0  0  0  0  0
   24.5190   12.3724   18.3993 H   0  0  0  0  0
   20.4962   12.3476   21.2580 H   0  0  0  0  0
   19.7103   11.3223   22.4750 H   0  0  0  0  0
   21.4472    8.4806   22.5587 H   0  0  0  0  0
   20.7882    8.6204   20.2649 H   0  0  0  0  0
   19.4555    9.3538   21.1908 H   0  0  0  0  0
   20.0573   10.1483   19.7150 H   0  0  0  0  0
   26.7212    9.6420   21.6948 H   0  0  0  0  0
   30.3839   10.7601   19.8529 H   0  0  0  0  0
   26.7073   11.9416   18.0449 H   0  0  0  0  0
   23.1683    9.4398   25.5117 H   0  0  0  0  0
   23.0112   11.6065   25.9458 H   0  0  0  0  0
   24.3254   11.6834   24.7466 H   0  0  0  0  0
   23.1904   13.0454   24.9122 H   0  0  0  0  0
   31.5762    7.8454   23.5197 H   0  0  0  0  0
   30.8953    8.9938   24.6981 H   0  0  0  0  0
   30.0491    7.4654   24.3531 H   0  0  0  0  0
  1  2  4  0  0  0
  1  3  4  0  0  0
 11  1  1  0  0  0
  2  5  4  0  0  0
  3  4  4  0  0  0
  3 13  1  0  0  0
  4  5  4  0  0  0
  5 14  1  0  0  0
  6  7  1  0  0  0
  6 11  1  0  0  0
  7  8  1  0  0  0
  7 21  2  0  0  0
  8  9  4  0  0  0
  8 22  1  0  0  0
  9 10  1  0  0  0
  9 20  2  0  0  0
 10 11  1  0  0  0
 11 12  1  0  0  0
 14 15  4  0  0  0
 14 19  4  0  0  0
 15 16  4  0  0  0
 16 17  4  0  0  0
 16 23  1  0  0  0
 17 18  4  0  0  0
 18 19  4  0  0  0
 23 24  3  0  0  0
 24 25  1  0  0  0
  4 26  1  0  0  0
  6 27  1  0  0  0
  6 28  1  0  0  0
 10 29  1  0  0  0
 12 30  1  0  0  0
 12 31  1  0  0  0
 12 32  1  0  0  0
 15 33  1  0  0  0
 17 34  1  0  0  0
 19 35  1  0  0  0
 20 36  1  0  0  0
 22 37  1  0  0  0
 22 38  1  0  0  0
 22 39  1  0  0  0
 25 40  1  0  0  0
 25 41  1  0  0  0
 25 42  1  0  0  0
M  END
$$$$
