4kz4_ligand
  -I-interpret- 

 29 29  0  0  0  0  0  0  0  0999 V2000
   80.4970    4.4730   33.4750 C   0  0  0  0  0
   81.2300    5.2860   34.5540 C   0  0  0  0  0
   78.9760    5.8330   28.0070 C   0  0  0  0  0
   79.0730    4.8180   30.1470 N   0  0  0  0  0
   78.5440    3.4980   28.0710 O   0  0  0  0  0
   78.5060    4.5280   31.6450 S   0  0  0  0  0
   79.0270    5.9940   29.3890 C   0  0  0  0  0
   79.3260    4.4240   26.1910 O   0  0  0  0  0
   79.0540    7.2690   29.9110 C   0  0  0  0  0
   77.2160    5.0940   31.6190 O   0  0  0  0  0
   79.0270    8.3560   29.0890 C   0  0  0  0  0
   78.7190    3.1470   31.8620 O   0  0  0  0  0
   78.9680    8.2090   27.7200 C   0  0  0  0  0
   78.9460    6.9560   27.1970 C   0  0  0  0  0
   78.9340    4.4740   27.4370 C   0  0  0  0  0
   79.5670    5.4240   32.6980 C   0  0  0  0  0
   79.9139    3.6776   33.9390 H   0  0  0  0  0
   81.2184    4.0190   32.7956 H   0  0  0  0  0
   81.8141    6.0743   34.0790 H   0  0  0  0  0
   80.5002    5.7304   35.2307 H   0  0  0  0  0
   81.8938    4.6279   35.1147 H   0  0  0  0  0
   79.5290    4.0261   29.6938 H   0  0  0  0  0
   79.5859    5.3021   25.9030 H   0  0  0  0  0
   79.0973    7.4096   30.9910 H   0  0  0  0  0
   79.0525    9.3565   29.5209 H   0  0  0  0  0
   78.9395    9.0827   27.0688 H   0  0  0  0  0
   78.9038    6.8312   26.1150 H   0  0  0  0  0
   80.1766    6.0960   32.0939 H   0  0  0  0  0
   78.9630    5.9853   33.4109 H   0  0  0  0  0
  1  2  1  0  0  0
 16  1  1  0  0  0
  7  3  4  0  0  0
  3 14  4  0  0  0
  3 15  1  0  0  0
  6  4  1  0  0  0
  4  7  1  0  0  0
 15  5  2  0  0  0
  6 10  2  0  0  0
  6 12  2  0  0  0
  6 16  1  0  0  0
  7  9  4  0  0  0
 15  8  1  0  0  0
  9 11  4  0  0  0
 11 13  4  0  0  0
 13 14  4  0  0  0
  1 17  1  0  0  0
  1 18  1  0  0  0
  2 19  1  0  0  0
  2 20  1  0  0  0
  2 21  1  0  0  0
  4 22  1  0  0  0
  8 23  1  0  0  0
  9 24  1  0  0  0
 11 25  1  0  0  0
 13 26  1  0  0  0
 14 27  1  0  0  0
 16 28  1  0  0  0
 16 29  1  0  0  0
M  END
$$$$
