5wal_ligand
  -I-interpret- 

 34 37  0  0  0  0  0  0  0  0999 V2000
   -6.6080    6.5280   16.1070 C   0  0  0  0  0
   -7.1990    5.2540   16.1770 C   0  0  0  0  0
   -6.4140    4.1000   16.2610 C   0  0  0  0  0
   -8.8570    9.1980   15.0710 C   0  0  0  0  0
   -7.4670    7.7320   15.9710 C   0  0  0  0  0
   -9.7340    9.9790   14.3160 C   0  0  0  0  0
  -10.3550   11.0600   14.9080 C   0  0  0  0  0
   -5.2060    6.6120   16.0960 C   0  0  0  0  0
   -5.0260    4.2020   16.2490 C   0  0  0  0  0
   -4.4270    5.4620   16.1810 C   0  0  0  0  0
   -8.9190    5.1180   16.1710 Cl  0  0  0  0  0
   -8.1330    8.0580   14.8180 N   0  0  0  0  0
  -10.0870   11.4040   16.1650 N   0  0  0  0  0
   -9.2240   10.7310   16.9260 C   0  0  0  0  0
   -8.5900    9.5650   16.4160 C   0  0  0  0  0
   -7.7240    8.6370   16.8950 N   0  0  0  0  0
   -9.0550   11.2400   18.2140 N   0  0  0  0  0
   -7.9130   11.3950   18.9270 C   0  0  0  0  0
   -6.8250   10.9910   18.5430 O   0  0  0  0  0
   -8.0790   12.0680   20.2710 C   0  0  0  0  0
   -7.0570   11.8370   21.3870 C   0  0  0  0  0
   -7.1110   13.1800   20.6580 C   0  0  0  0  0
   -4.4570    8.1590   15.9880 Cl  0  0  0  0  0
   -6.8885    3.1216   16.3358 H   0  0  0  0  0
   -9.9261    9.7377   13.2706 H   0  0  0  0  0
  -11.0775   11.6420   14.3359 H   0  0  0  0  0
   -4.4100    3.3038   16.2924 H   0  0  0  0  0
   -3.3403    5.5452   16.1946 H   0  0  0  0  0
   -9.9100   11.5368   18.6845 H   0  0  0  0  0
   -9.1618   11.9656   20.1988 H   0  0  0  0  0
   -6.3166   11.0922   21.6789 H   0  0  0  0  0
   -7.0311   11.4600   22.4094 H   0  0  0  0  0
   -7.1437   14.2413   20.9041 H   0  0  0  0  0
   -6.4246   13.8712   20.1690 H   0  0  0  0  0
  1  2  4  0  0  0
  5  1  1  0  0  0
  1  8  4  0  0  0
  2  3  4  0  0  0
  2 11  1  0  0  0
  3  9  4  0  0  0
  4  6  4  0  0  0
 12  4  4  0  0  0
  4 15  4  0  0  0
  5 12  4  0  0  0
  5 16  4  0  0  0
  6  7  4  0  0  0
  7 13  4  0  0  0
  8 10  4  0  0  0
  8 23  1  0  0  0
  9 10  4  0  0  0
 13 14  4  0  0  0
 14 15  4  0  0  0
 14 17  1  0  0  0
 15 16  4  0  0  0
 17 18  1  0  0  0
 18 19  2  0  0  0
 18 20  1  0  0  0
 20 21  1  0  0  0
 20 22  1  0  0  0
 21 22  1  0  0  0
  3 24  1  0  0  0
  6 25  1  0  0  0
  7 26  1  0  0  0
  9 27  1  0  0  0
 10 28  1  0  0  0
 17 29  1  0  0  0
 20 30  1  0  0  0
 21 31  1  0  0  0
 21 32  1  0  0  0
 22 33  1  0  0  0
 22 34  1  0  0  0
M  END
$$$$
