5k0h_ligand
  -I-interpret- 

 69 71  0  0  0  0  0  0  0  0999 V2000
    2.7430    9.8280   25.0830 C   0  0  0  0  0
    3.5580    8.8150   25.7210 C   0  0  0  0  0
    4.3010    7.8760   24.9100 C   0  0  0  0  0
    5.0220    6.9430   22.6010 C   0  0  0  0  0
    5.5710    4.8380   19.9740 C   0  0  0  0  0
    6.8560    5.6130   20.0040 C   0  0  0  0  0
    8.3730    7.3850   19.2340 C   0  0  0  0  0
    9.0580    9.9770   22.0160 C   0  0  0  0  0
    9.3710    9.1680   23.3130 C   0  0  0  0  0
   10.6330    9.3640   23.9740 C   0  0  0  0  0
   10.0080    7.6780   25.7380 C   0  0  0  0  0
   10.3690    6.9260   26.9950 C   0  0  0  0  0
    9.4380    6.2640   27.6830 N   0  0  0  0  0
    5.6410    3.4840   19.2300 C   0  0  0  0  0
    6.6340    1.2710   19.3890 C   0  0  0  0  0
    7.6640    1.0800   18.2660 C   0  0  0  0  0
    7.1710    0.9180   16.9070 C   0  0  0  0  0
    8.0860    0.7230   15.8140 C   0  0  0  0  0
    4.2350    7.9430   23.4660 C   0  0  0  0  0
    4.1790    5.3570   22.3330 S   0  0  0  0  0
    5.2240    4.5050   21.3800 N   0  0  0  0  0
    6.5260    2.5940   19.9610 O   0  0  0  0  0
    9.0850    1.0430   18.5210 C   0  0  0  0  0
   10.0030    0.8480   17.4280 C   0  0  0  0  0
    9.4990    0.6870   16.0730 C   0  0  0  0  0
    7.0870    6.6630   19.0920 N   0  0  0  0  0
    8.2340    8.3360   20.4200 C   0  0  0  0  0
    9.2630    9.1050   20.8310 N   0  0  0  0  0
    8.4200    8.2100   23.8820 C   0  0  0  0  0
    8.7380    7.4770   25.0790 C   0  0  0  0  0
   11.5900    6.9330   27.4100 N   0  0  0  0  0
   10.9490    8.6290   25.1710 C   0  0  0  0  0
    7.1500    8.3600   20.9990 O   0  0  0  0  0
    7.6560    5.2980   20.8770 O   0  0  0  0  0
    2.9790    5.5900   21.5530 O   0  0  0  0  0
    4.0950    4.7030   23.6290 O   0  0  0  0  0
    3.4220    8.9580   22.8390 C   0  0  0  0  0
    2.6770    9.8980   23.6370 C   0  0  0  0  0
    2.1798   10.5370   25.6898 H   0  0  0  0  0
    3.6112    8.7605   26.8083 H   0  0  0  0  0
    4.9145    7.1131   25.3894 H   0  0  0  0  0
    5.9512    6.7263   23.1280 H   0  0  0  0  0
    5.1563    7.4033   21.6221 H   0  0  0  0  0
    4.8507    5.4670   19.4509 H   0  0  0  0  0
    8.6021    7.9399   18.3242 H   0  0  0  0  0
    9.1892    6.6823   19.4014 H   0  0  0  0  0
    9.7230   10.8384   21.9542 H   0  0  0  0  0
    8.0239   10.3206   22.0413 H   0  0  0  0  0
   11.3541   10.0727   23.5667 H   0  0  0  0  0
    9.6923    5.7648   28.5353 H   0  0  0  0  0
    8.4716    6.2569   27.3569 H   0  0  0  0  0
    6.0219    3.6365   18.2202 H   0  0  0  0  0
    4.6453    3.0451   19.1669 H   0  0  0  0  0
    6.9556    0.6202   20.2021 H   0  0  0  0  0
    5.6628    1.0597   18.9416 H   0  0  0  0  0
    6.0984    0.9446   16.7150 H   0  0  0  0  0
    7.7105    0.6035   14.7977 H   0  0  0  0  0
    5.6676    3.6830   21.7898 H   0  0  0  0  0
    9.4616    1.1622   19.5369 H   0  0  0  0  0
   11.0762    0.8211   17.6165 H   0  0  0  0  0
   10.1972    0.5382   15.2493 H   0  0  0  0  0
    6.4065    6.9119   18.3741 H   0  0  0  0  0
   10.1577    9.0883   20.3414 H   0  0  0  0  0
    7.4593    8.0503   23.3925 H   0  0  0  0  0
    8.0188    6.7683   25.4895 H   0  0  0  0  0
   12.3027    7.4443   26.8893 H   0  0  0  0  0
   11.9100    8.7886   25.6600 H   0  0  0  0  0
    3.3714    9.0136   21.7516 H   0  0  0  0  0
    2.0651   10.6601   23.1543 H   0  0  0  0  0
  2  1  4  0  0  0
  1 38  4  0  0  0
  3  2  4  0  0  0
 19  3  4  0  0  0
  4 19  1  0  0  0
 20  4  1  0  0  0
  6  5  1  0  0  0
  5 14  1  0  0  0
  5 21  1  0  0  0
 26  6  1  0  0  0
  6 34  2  0  0  0
  7 26  1  0  0  0
 27  7  1  0  0  0
  8  9  1  0  0  0
 28  8  1  0  0  0
  9 10  4  0  0  0
  9 29  4  0  0  0
 10 32  4  0  0  0
 11 12  1  0  0  0
 11 30  4  0  0  0
 32 11  4  0  0  0
 12 13  1  0  0  0
 12 31  2  0  0  0
 14 22  1  0  0  0
 15 16  1  0  0  0
 22 15  1  0  0  0
 16 17  4  0  0  0
 16 23  4  0  0  0
 17 18  4  0  0  0
 18 25  4  0  0  0
 19 37  4  0  0  0
 21 20  1  0  0  0
 20 35  2  0  0  0
 20 36  2  0  0  0
 23 24  4  0  0  0
 24 25  4  0  0  0
 27 28  1  0  0  0
 27 33  2  0  0  0
 29 30  4  0  0  0
 37 38  4  0  0  0
  1 39  1  0  0  0
  2 40  1  0  0  0
  3 41  1  0  0  0
  4 42  1  0  0  0
  4 43  1  0  0  0
  5 44  1  0  0  0
  7 45  1  0  0  0
  7 46  1  0  0  0
  8 47  1  0  0  0
  8 48  1  0  0  0
 10 49  1  0  0  0
 13 50  1  0  0  0
 13 51  1  0  0  0
 14 52  1  0  0  0
 14 53  1  0  0  0
 15 54  1  0  0  0
 15 55  1  0  0  0
 17 56  1  0  0  0
 18 57  1  0  0  0
 21 58  1  0  0  0
 23 59  1  0  0  0
 24 60  1  0  0  0
 25 61  1  0  0  0
 26 62  1  0  0  0
 28 63  1  0  0  0
 29 64  1  0  0  0
 30 65  1  0  0  0
 31 66  1  0  0  0
 32 67  1  0  0  0
 37 68  1  0  0  0
 38 69  1  0  0  0
M  END
$$$$
