3g2h_ligand
  -I-interpret- 

 39 41  0  0  0  0  0  0  0  0999 V2000
   37.3570   23.5390   30.4350 C   0  0  0  0  0
   38.5770   23.8620   31.0310 C   0  0  0  0  0
   38.6730   24.9760   31.8620 C   0  0  0  0  0
   37.5590   25.7710   32.1040 C   0  0  0  0  0
   36.3390   25.4520   31.5030 C   0  0  0  0  0
   36.2390   24.3330   30.6690 C   0  0  0  0  0
   35.0210   24.0160   30.0760 C   0  0  0  0  0
   34.8170   23.3270   28.9590 C   0  0  0  0  0
   33.8170   24.3370   30.5330 N   0  0  0  0  0
   32.9580   23.8970   29.7570 N   0  0  0  0  0
   33.4960   23.3110   28.8150 N   0  0  0  0  0
   32.6900   22.6760   27.7700 C   0  0  0  0  0
   32.7500   21.2560   27.9940 O   0  0  0  0  0
   31.7020   20.6010   27.2510 C   0  0  0  0  0
   31.6660   19.1380   27.6850 C   0  0  0  0  0
   32.7720   18.4660   27.0880 O   0  0  0  0  0
   31.9110   20.7800   25.7330 C   0  0  0  0  0
   30.7450   20.3190   25.0550 O   0  0  0  0  0
   32.1080   22.2630   25.3770 C   0  0  0  0  0
   32.5420   22.3870   24.0260 O   0  0  0  0  0
   33.1230   22.9260   26.3190 C   0  0  0  0  0
   33.1770   24.3240   26.0630 O   0  0  0  0  0
   37.2803   22.6658   29.7871 H   0  0  0  0  0
   39.4547   23.2426   30.8463 H   0  0  0  0  0
   39.6276   25.2256   32.3252 H   0  0  0  0  0
   37.6368   26.6386   32.7592 H   0  0  0  0  0
   35.4636   26.0758   31.6840 H   0  0  0  0  0
   35.5650   22.8760   28.3069 H   0  0  0  0  0
   31.6979   23.1191   27.8565 H   0  0  0  0  0
   30.7319   21.0500   27.4643 H   0  0  0  0  0
   30.7317   18.6764   27.3655 H   0  0  0  0  0
   31.7288   19.0688   28.7710 H   0  0  0  0  0
   32.7641   17.5429   27.3513 H   0  0  0  0  0
   32.7960   20.2172   25.4362 H   0  0  0  0  0
   30.8635   20.4256   24.1083 H   0  0  0  0  0
   31.1513   22.7718   25.4951 H   0  0  0  0  0
   32.6620   23.3155   23.8136 H   0  0  0  0  0
   34.1131   22.5014   26.1529 H   0  0  0  0  0
   33.4484   24.4715   25.1540 H   0  0  0  0  0
  1  2  4  0  0  0
  1  6  4  0  0  0
  2  3  4  0  0  0
  3  4  4  0  0  0
  4  5  4  0  0  0
  5  6  4  0  0  0
  6  7  1  0  0  0
  7  8  4  0  0  0
  7  9  4  0  0  0
  8 11  4  0  0  0
  9 10  4  0  0  0
 10 11  4  0  0  0
 11 12  1  0  0  0
 12 13  1  0  0  0
 12 21  1  0  0  0
 13 14  1  0  0  0
 14 15  1  0  0  0
 14 17  1  0  0  0
 15 16  1  0  0  0
 17 18  1  0  0  0
 17 19  1  0  0  0
 19 20  1  0  0  0
 19 21  1  0  0  0
 21 22  1  0  0  0
  1 23  1  0  0  0
  2 24  1  0  0  0
  3 25  1  0  0  0
  4 26  1  0  0  0
  5 27  1  0  0  0
  8 28  1  0  0  0
 12 29  1  0  0  0
 14 30  1  0  0  0
 15 31  1  0  0  0
 15 32  1  0  0  0
 16 33  1  0  0  0
 17 34  1  0  0  0
 18 35  1  0  0  0
 19 36  1  0  0  0
 20 37  1  0  0  0
 21 38  1  0  0  0
 22 39  1  0  0  0
M  END
$$$$
