1t4e_ligand
  -I-interpret- 

 47 50  0  0  0  0  0  0  0  0999 V2000
   46.9900   12.5070   23.9630 Cl  0  0  0  0  0
   46.4590   13.0780   25.4790 C   0  0  0  0  0
   45.4730   14.0890   25.5250 C   0  0  0  0  0
   44.9950   14.5530   26.7710 C   0  0  0  0  0
   45.5070   14.0040   28.0100 C   0  0  0  0  0
   46.5220   12.9920   27.9340 C   0  0  0  0  0
   46.9930   12.5320   26.6690 C   0  0  0  0  0
   44.9600   14.4310   29.3870 C   0  0  0  0  0
   44.4820   15.9000   29.4790 C   0  0  0  0  0
   45.1280   16.8830   29.1700 O   0  0  0  0  0
   43.2240   16.0420   29.9500 O   0  0  0  0  0
   43.8710   13.3990   29.7940 N   0  0  0  0  0
   44.0370   12.7710   31.0370 C   0  0  0  0  0
   44.9980   13.0330   31.7820 O   0  0  0  0  0
   43.0860   11.7530   31.5240 C   0  0  0  0  0
   43.6710   10.6720   32.2090 C   0  0  0  0  0
   42.8840    9.6360   32.7030 C   0  0  0  0  0
   43.8310    8.1200   33.6790 I   0  0  0  0  0
   41.4860    9.6330   32.5270 C   0  0  0  0  0
   40.8780   10.7200   31.8340 C   0  0  0  0  0
   41.6750   11.7920   31.3250 C   0  0  0  0  0
   40.9860   12.8020   30.6500 N   0  0  0  0  0
   41.3750   13.4730   29.5120 C   0  0  0  0  0
   40.6240   14.3350   29.0510 O   0  0  0  0  0
   42.7390   13.1510   28.8060 C   0  0  0  0  0
   42.7140   11.7920   28.0130 C   0  0  0  0  0
   43.9110   11.0910   27.7240 C   0  0  0  0  0
   43.9440    9.9000   26.9940 C   0  0  0  0  0
   42.7660    9.3640   26.5180 C   0  0  0  0  0
   42.8510    7.9550   25.6170 Cl  0  0  0  0  0
   41.5290    9.9890   26.7720 C   0  0  0  0  0
   41.5020   11.2040   27.5210 C   0  0  0  0  0
   45.0812   14.5109   24.5995 H   0  0  0  0  0
   44.2332   15.3320   26.8003 H   0  0  0  0  0
   46.9361   12.5717   28.8505 H   0  0  0  0  0
   47.7625   11.7616   26.6196 H   0  0  0  0  0
   45.7809   14.4204   30.1040 H   0  0  0  0  0
   42.8570   15.1766   30.1451 H   0  0  0  0  0
   44.7510   10.6458   32.3541 H   0  0  0  0  0
   40.8801    8.8137   32.9140 H   0  0  0  0  0
   39.7975   10.7340   31.6911 H   0  0  0  0  0
   40.0872   13.0754   31.0474 H   0  0  0  0  0
   42.9353   13.8373   27.9823 H   0  0  0  0  0
   44.8526   11.5011   28.0892 H   0  0  0  0  0
   44.8928    9.3989   26.8024 H   0  0  0  0  0
   40.6031    9.5497   26.4008 H   0  0  0  0  0
   40.5478   11.6911   27.7216 H   0  0  0  0  0
  1  2  1  0  0  0
  2  3  4  0  0  0
  2  7  4  0  0  0
  3  4  4  0  0  0
  4  5  4  0  0  0
  5  6  4  0  0  0
  5  8  1  0  0  0
  6  7  4  0  0  0
  8  9  1  0  0  0
  8 12  1  0  0  0
  9 10  2  0  0  0
  9 11  1  0  0  0
 12 13  1  0  0  0
 12 25  1  0  0  0
 13 14  2  0  0  0
 13 15  1  0  0  0
 15 16  4  0  0  0
 15 21  4  0  0  0
 16 17  4  0  0  0
 17 18  1  0  0  0
 17 19  4  0  0  0
 19 20  4  0  0  0
 20 21  4  0  0  0
 21 22  1  0  0  0
 22 23  1  0  0  0
 23 24  2  0  0  0
 23 25  1  0  0  0
 25 26  1  0  0  0
 26 27  4  0  0  0
 26 32  4  0  0  0
 27 28  4  0  0  0
 28 29  4  0  0  0
 29 30  1  0  0  0
 29 31  4  0  0  0
 31 32  4  0  0  0
  3 33  1  0  0  0
  4 34  1  0  0  0
  6 35  1  0  0  0
  7 36  1  0  0  0
  8 37  1  0  0  0
 11 38  1  0  0  0
 16 39  1  0  0  0
 19 40  1  0  0  0
 20 41  1  0  0  0
 22 42  1  0  0  0
 25 43  1  0  0  0
 27 44  1  0  0  0
 28 45  1  0  0  0
 31 46  1  0  0  0
 32 47  1  0  0  0
M  END
$$$$
