3n23_ligand
  -I-interpret- 

 85 90  0  0  0  0  0  0  0  0999 V2000
  -26.3960  -19.0990   74.6690 C   0  0  0  0  0
  -27.9050  -19.3420   74.7150 C   0  0  0  0  0
  -28.2100  -20.3120   75.8420 C   0  0  0  0  0
  -27.4620  -21.6100   75.5740 C   0  0  0  0  0
  -25.9510  -21.4110   75.4250 C   0  0  0  0  0
  -25.2690  -22.7470   75.1730 C   0  0  0  0  0
  -25.6680  -23.2930   73.8150 C   0  0  0  0  0
  -25.3310  -22.2780   72.7220 C   0  0  0  0  0
  -25.9980  -20.9160   72.9380 C   0  0  0  0  0
  -25.6290  -20.3770   74.3270 C   0  0  0  0  0
  -25.5570  -20.0460   71.7540 C   0  0  0  0  0
  -26.2620  -20.5630   70.5080 C   0  0  0  0  0
  -25.8260  -21.9770   70.1400 C   0  0  0  0  0
  -25.5500  -22.9070   71.3430 C   0  0  0  0  0
  -26.6650  -23.9430   71.4350 C   0  0  0  0  0
  -27.4940  -23.8500   70.1760 C   0  0  0  0  0
  -27.0150  -22.6260   69.4230 C   0  0  0  0  0
  -24.5910  -21.8050   69.2530 C   0  0  0  0  0
  -24.1160  -20.1600   74.2110 C   0  0  0  0  0
  -26.7240  -23.1300   68.0570 C   0  0  0  0  0
  -25.7380  -24.2390   67.7120 C   0  0  0  0  0
  -27.4020  -22.6550   67.0260 C   0  0  0  0  0
  -26.9570  -23.4640   65.9010 C   0  0  0  0  0
  -28.2980  -20.0190   78.2670 C   0  0  0  0  0
  -27.5660  -19.1450   79.2690 C   0  0  0  0  0
  -27.7650  -17.6720   78.9010 C   0  0  0  0  0
  -29.2460  -17.3190   78.7390 C   0  0  0  0  0
  -29.9450  -18.3320   77.8330 C   0  0  0  0  0
  -31.4490  -18.1250   77.8010 C   0  0  0  0  0
  -25.9480  -18.6020   75.9400 O   0  0  0  0  0
  -27.6830  -19.7160   77.0210 O   0  0  0  0  0
  -25.4270  -20.9290   76.6630 O   0  0  0  0  0
  -25.8020  -18.6360   71.8960 O   0  0  0  0  0
  -24.3510  -23.6210   71.0630 O   0  0  0  0  0
  -23.7360  -18.8000   73.9650 O   0  0  0  0  0
  -26.0670  -24.5070   66.3520 O   0  0  0  0  0
  -27.2790  -23.3000   64.7480 O   0  0  0  0  0
  -28.0640  -19.4390   80.5760 O   0  0  0  0  0
  -27.1660  -16.8330   79.8910 O   0  0  0  0  0
  -29.3650  -16.0060   78.1770 O   0  0  0  0  0
  -29.6880  -19.6740   78.2670 O   0  0  0  0  0
  -26.1999  -18.3654   73.8871 H   0  0  0  0  0
  -28.2409  -19.7606   73.7663 H   0  0  0  0  0
  -28.4258  -18.4001   74.8872 H   0  0  0  0  0
  -29.2766  -20.5179   75.9319 H   0  0  0  0  0
  -27.8365  -22.0212   74.6366 H   0  0  0  0  0
  -27.6273  -22.2701   76.4255 H   0  0  0  0  0
  -25.5741  -23.4538   75.9447 H   0  0  0  0  0
  -24.1885  -22.6053   75.1964 H   0  0  0  0  0
  -26.7410  -23.4846   73.8073 H   0  0  0  0  0
  -25.1219  -24.2172   73.6261 H   0  0  0  0  0
  -24.2708  -22.0320   72.7813 H   0  0  0  0  0
  -27.0875  -20.9490   72.9469 H   0  0  0  0  0
  -24.4722  -20.1327   71.6928 H   0  0  0  0  0
  -26.0074  -19.9041   69.6778 H   0  0  0  0  0
  -27.3332  -20.5813   70.7090 H   0  0  0  0  0
  -27.2862  -23.7508   72.3098 H   0  0  0  0  0
  -26.2426  -24.9429   71.5346 H   0  0  0  0  0
  -28.5539  -23.7659   70.4163 H   0  0  0  0  0
  -27.3771  -24.7477   69.5689 H   0  0  0  0  0
  -27.7458  -21.8189   69.3729 H   0  0  0  0  0
  -24.8582  -21.2269   68.3684 H   0  0  0  0  0
  -23.8150  -21.2806   69.8106 H   0  0  0  0  0
  -24.2232  -22.7854   68.9504 H   0  0  0  0  0
  -23.7702  -20.7497   73.3620 H   0  0  0  0  0
  -23.6749  -20.4502   75.1646 H   0  0  0  0  0
  -25.8228  -25.1120   68.3592 H   0  0  0  0  0
  -24.6961  -23.9544   67.8585 H   0  0  0  0  0
  -28.1287  -21.8426   67.0200 H   0  0  0  0  0
  -28.2402  -21.0843   78.4904 H   0  0  0  0  0
  -26.4948  -19.3462   79.2534 H   0  0  0  0  0
  -27.2790  -17.5042   77.9399 H   0  0  0  0  0
  -29.7220  -17.3444   79.7193 H   0  0  0  0  0
  -29.5404  -18.1754   76.8330 H   0  0  0  0  0
  -31.8510  -18.2344   78.8082 H   0  0  0  0  0
  -31.6690  -17.1250   77.4273 H   0  0  0  0  0
  -31.9028  -18.8675   77.1446 H   0  0  0  0  0
  -26.4287  -17.7996   76.1560 H   0  0  0  0  0
  -25.6191  -21.5621   77.3586 H   0  0  0  0  0
  -25.4942  -18.1782   71.1103 H   0  0  0  0  0
  -24.4243  -24.0427   70.2037 H   0  0  0  0  0
  -22.7796  -18.7420   73.9048 H   0  0  0  0  0
  -27.6091  -18.8925   81.2210 H   0  0  0  0  0
  -27.2966  -15.9128   79.6505 H   0  0  0  0  0
  -30.2938  -15.7855   78.0758 H   0  0  0  0  0
  2  1  1  0  0  0
  1 10  1  0  0  0
  1 30  1  0  0  0
  3  2  1  0  0  0
  3  4  1  0  0  0
 31  3  1  0  0  0
  4  5  1  0  0  0
  5  6  1  0  0  0
  5 10  1  0  0  0
  5 32  1  0  0  0
  6  7  1  0  0  0
  7  8  1  0  0  0
  9  8  1  0  0  0
  8 14  1  0  0  0
 10  9  1  0  0  0
  9 11  1  0  0  0
 10 19  1  0  0  0
 11 12  1  0  0  0
 11 33  1  0  0  0
 12 13  1  0  0  0
 14 13  1  0  0  0
 13 17  1  0  0  0
 13 18  1  0  0  0
 14 15  1  0  0  0
 14 34  1  0  0  0
 15 16  1  0  0  0
 17 16  1  0  0  0
 17 20  1  0  0  0
 19 35  1  0  0  0
 20 21  1  0  0  0
 20 22  2  0  0  0
 21 36  1  0  0  0
 22 23  1  0  0  0
 23 36  1  0  0  0
 23 37  2  0  0  0
 24 25  1  0  0  0
 24 31  1  0  0  0
 24 41  1  0  0  0
 25 26  1  0  0  0
 25 38  1  0  0  0
 26 27  1  0  0  0
 26 39  1  0  0  0
 27 28  1  0  0  0
 27 40  1  0  0  0
 28 29  1  0  0  0
 28 41  1  0  0  0
  1 42  1  0  0  0
  2 43  1  0  0  0
  2 44  1  0  0  0
  3 45  1  0  0  0
  4 46  1  0  0  0
  4 47  1  0  0  0
  6 48  1  0  0  0
  6 49  1  0  0  0
  7 50  1  0  0  0
  7 51  1  0  0  0
  8 52  1  0  0  0
  9 53  1  0  0  0
 11 54  1  0  0  0
 12 55  1  0  0  0
 12 56  1  0  0  0
 15 57  1  0  0  0
 15 58  1  0  0  0
 16 59  1  0  0  0
 16 60  1  0  0  0
 17 61  1  0  0  0
 18 62  1  0  0  0
 18 63  1  0  0  0
 18 64  1  0  0  0
 19 65  1  0  0  0
 19 66  1  0  0  0
 21 67  1  0  0  0
 21 68  1  0  0  0
 22 69  1  0  0  0
 24 70  1  0  0  0
 25 71  1  0  0  0
 26 72  1  0  0  0
 27 73  1  0  0  0
 28 74  1  0  0  0
 29 75  1  0  0  0
 29 76  1  0  0  0
 29 77  1  0  0  0
 30 78  1  0  0  0
 32 79  1  0  0  0
 33 80  1  0  0  0
 34 81  1  0  0  0
 35 82  1  0  0  0
 38 83  1  0  0  0
 39 84  1  0  0  0
 40 85  1  0  0  0
M  END
$$$$
