2lp8_ligand
  -I-interpret- 

271274  0  0  0  0  0  0  0  0999 V2000
  -19.3230  -15.3190   -1.1520 C   0  0  0  0  0
  -19.5220  -16.1640   -2.0290 O   0  0  0  0  0
  -20.3840  -14.2720   -0.8720 C   0  0  0  0  0
  -18.2020  -15.2940   -0.4460 N   0  0  0  0  0
  -17.1640  -16.2780   -0.6610 C   0  0  0  0  0
  -15.8810  -15.6490   -1.1620 C   0  0  0  0  0
  -15.8900  -14.5040   -1.6160 O   0  0  0  0  0
  -14.7810  -16.3950   -1.0700 N   0  0  0  0  0
  -13.4770  -15.9300   -1.5440 C   0  0  0  0  0
  -13.0000  -14.7430   -0.7320 C   0  0  0  0  0
  -13.1650  -14.7250    0.4840 O   0  0  0  0  0
  -13.5460  -15.5300   -3.0110 C   0  0  0  0  0
  -14.3890  -16.7340   -4.0760 S   0  0  0  0  0
  -12.3920  -13.7750   -1.4400 N   0  0  0  0  0
  -11.9350  -12.4930   -0.9040 C   0  0  0  0  0
  -11.2810  -12.5810    0.4660 C   0  0  0  0  0
  -10.0600  -12.5270    0.5290 O   0  0  0  0  0
  -13.0130  -11.4160   -0.9730 C   0  0  0  0  0
  -13.0950  -10.8770   -2.3830 C   0  0  0  0  0
  -14.3290  -11.9820   -0.5870 C   0  0  0  0  0
  -12.0450  -12.6770    1.5540 N   0  0  0  0  0
  -11.4340  -13.0020    2.8110 C   0  0  0  0  0
  -10.4210  -14.1230    2.6310 C   0  0  0  0  0
   -9.2260  -13.9110    2.7950 O   0  0  0  0  0
  -10.8970  -15.2870    2.2010 N   0  0  0  0  0
  -10.0300  -16.4370    1.9360 C   0  0  0  0  0
   -9.0050  -16.1390    0.8430 C   0  0  0  0  0
   -7.8380  -16.5040    0.9600 O   0  0  0  0  0
  -10.8690  -17.6410    1.5060 C   0  0  0  0  0
  -11.0030  -18.7180    2.5650 C   0  0  0  0  0
  -11.5260  -18.1590    3.8730 C   0  0  0  0  0
  -11.9690  -19.2200    4.7770 N   0  0  0  0  0
  -12.0720  -19.0990    6.1030 C   0  0  0  0  0
  -11.6650  -17.9990    6.7230 N   0  0  0  0  0
  -12.5580  -20.1040    6.8180 N   0  0  0  0  0
   -9.4470  -15.4690   -0.2130 N   0  0  0  0  0
   -8.6190  -15.2800   -1.3980 C   0  0  0  0  0
   -7.4670  -14.3100   -1.1520 C   0  0  0  0  0
   -6.3240  -14.6210   -1.4670 O   0  0  0  0  0
   -9.4670  -14.8180   -2.5690 C   0  0  0  0  0
   -7.7600  -13.1480   -0.5860 N   0  0  0  0  0
   -6.7270  -12.1460   -0.3460 C   0  0  0  0  0
   -5.8390  -12.5660    0.8200 C   0  0  0  0  0
   -4.6420  -12.2880    0.8250 O   0  0  0  0  0
   -7.3310  -10.7590   -0.0870 C   0  0  0  0  0
   -7.9750  -10.0640   -1.3000 C   0  0  0  0  0
   -7.1510  -10.3130   -2.5430 C   0  0  0  0  0
   -9.4120  -10.5160   -1.5210 C   0  0  0  0  0
   -6.4410  -13.2210    1.8110 N   0  0  0  0  0
   -5.6890  -13.8930    2.8680 C   0  0  0  0  0
   -4.5650  -14.7350    2.2680 C   0  0  0  0  0
   -3.4150  -14.7020    2.7130 O   0  0  0  0  0
   -6.5870  -14.8240    3.6450 C   0  0  0  0  0
   -4.9470  -15.5020    1.2490 N   0  0  0  0  0
   -4.0750  -16.4710    0.6040 C   0  0  0  0  0
   -3.1250  -15.8090   -0.3870 C   0  0  0  0  0
   -1.9050  -15.9190   -0.2600 O   0  0  0  0  0
   -4.9280  -17.5030   -0.1100 C   0  0  0  0  0
   -3.6930  -15.1210   -1.3730 N   0  0  0  0  0
   -2.9070  -14.4600   -2.4120 C   0  0  0  0  0
   -1.9950  -13.3940   -1.8170 C   0  0  0  0  0
   -1.0140  -12.9810   -2.4390 O   0  0  0  0  0
   -3.8250  -13.8240   -3.4620 C   0  0  0  0  0
   -4.3530  -14.7860   -4.4910 C   0  0  0  0  0
   -3.5590  -15.1650   -5.5600 C   0  0  0  0  0
   -5.6420  -15.2960   -4.4090 C   0  0  0  0  0
   -4.0340  -16.0350   -6.5200 C   0  0  0  0  0
   -6.1220  -16.1600   -5.3660 C   0  0  0  0  0
   -5.3180  -16.5330   -6.4240 C   0  0  0  0  0
   -2.3200  -12.9630   -0.6080 N   0  0  0  0  0
   -1.5490  -11.9370    0.0470 C   0  0  0  0  0
   -0.2160  -12.4310    0.5550 C   0  0  0  0  0
    0.7280  -11.6530    0.6870 O   0  0  0  0  0
   -0.1210  -13.7250    0.8180 N   0  0  0  0  0
    1.1260  -14.3080    1.2990 C   0  0  0  0  0
    2.1220  -14.4720    0.1460 C   0  0  0  0  0
    3.2120  -15.0240    0.3120 O   0  0  0  0  0
    0.8580  -15.6560    1.9800 C   0  0  0  0  0
    2.0560  -16.1610    2.7620 C   0  0  0  0  0
    2.4950  -15.4690    3.7060 O   0  0  0  0  0
    2.5630  -17.2590    2.4420 O   0  0  0  0  0
    1.7490  -13.9640   -1.0230 N   0  0  0  0  0
    2.5880  -14.0750   -2.2080 C   0  0  0  0  0
    3.3310  -12.7680   -2.4800 C   0  0  0  0  0
    4.0270  -12.6430   -3.4880 O   0  0  0  0  0
    1.7420  -14.4480   -3.4230 C   0  0  0  0  0
    0.6710  -15.8990   -3.1680 S   0  0  0  0  0
    3.1880  -11.7950   -1.5820 N   0  0  0  0  0
    3.8750  -10.5170   -1.7350 C   0  0  0  0  0
    5.3270  -10.6460   -1.2820 C   0  0  0  0  0
    5.7400  -10.1030   -0.2540 O   0  0  0  0  0
    3.1670   -9.3850   -0.9590 C   0  0  0  0  0
    1.6910   -9.3360   -1.3640 C   0  0  0  0  0
    3.8390   -8.0400   -1.2380 C   0  0  0  0  0
    0.8760   -8.3280   -0.5890 C   0  0  0  0  0
    6.0740  -11.4220   -2.0520 N   0  0  0  0  0
    7.4870  -11.6690   -1.8110 C   0  0  0  0  0
    7.9950  -12.5670   -2.9270 C   0  0  0  0  0
    8.9800  -12.2590   -3.6010 O   0  0  0  0  0
    7.7060  -12.3450   -0.4480 C   0  0  0  0  0
    9.1440  -12.2490    0.0370 C   0  0  0  0  0
   10.0810  -12.1460   -0.7550 O   0  0  0  0  0
    9.3250  -12.2930    1.3480 N   0  0  0  0  0
    7.2800  -13.6660   -3.1310 N   0  0  0  0  0
    7.5610  -14.5880   -4.2170 C   0  0  0  0  0
    6.2640  -14.9830   -4.9170 C   0  0  0  0  0
    5.5210  -15.8390   -4.4370 O   0  0  0  0  0
    8.2710  -15.8340   -3.6920 C   0  0  0  0  0
    8.6740  -16.8100   -4.7850 C   0  0  0  0  0
    9.4080  -18.0100   -4.2170 C   0  0  0  0  0
   10.6110  -17.6190   -3.4860 N   0  0  0  0  0
   11.6290  -18.4370   -3.2360 C   0  0  0  0  0
   11.6040  -19.6920   -3.6710 N   0  0  0  0  0
   12.6750  -17.9950   -2.5530 N   0  0  0  0  0
    5.9780  -14.3370   -6.0330 N   0  0  0  0  0
  -13.3700  -18.1920   -3.7540 C   0  0  0  0  0
  -11.8840  -17.8300   -3.6370 C   0  0  0  0  0
  -11.4330  -16.8040   -4.1440 O   0  0  0  0  0
  -11.1550  -18.6890   -2.9390 N   0  0  0  0  0
   -9.8230  -18.6550   -3.0300 C   0  0  0  0  0
   -9.0590  -18.8590   -1.8740 C   0  0  0  0  0
   -9.1740  -18.4320   -4.2600 C   0  0  0  0  0
  -10.0470  -18.2400   -5.7770 S   0  0  0  0  0
   -7.6650  -18.8590   -1.9480 C   0  0  0  0  0
   -7.7910  -18.4230   -4.3080 C   0  0  0  0  0
   -7.0390  -18.6460   -3.1710 C   0  0  0  0  0
   -5.7150  -18.6920   -3.2930 N   0  0  0  0  0
   -4.9630  -18.9110   -2.3480 N   0  0  0  0  0
   -3.6580  -18.9190   -2.5960 C   0  0  0  0  0
   -2.7240  -19.1620   -1.5910 C   0  0  0  0  0
   -3.2380  -18.6750   -3.8830 C   0  0  0  0  0
   -1.3640  -19.1500   -1.8950 C   0  0  0  0  0
   -1.8900  -18.6650   -4.1940 C   0  0  0  0  0
   -0.9500  -18.8990   -3.2040 C   0  0  0  0  0
   -1.3700  -18.3460   -5.8310 S   0  0  0  0  0
    0.3410  -18.8340   -3.5100 N   0  0  0  0  0
    1.2000  -18.5160   -2.5480 C   0  0  0  0  0
    1.4450  -19.2280   -1.5750 O   0  0  0  0  0
    1.8870  -17.1650   -2.7350 C   0  0  0  0  0
   -9.3150  -18.9860   -6.8600 O   0  0  0  0  0
  -11.4340  -18.8060   -5.6860 O   0  0  0  0  0
  -10.1200  -16.7880   -6.1460 O   0  0  0  0  0
   -0.3650  -19.3780   -6.2560 O   0  0  0  0  0
   -0.7530  -16.9770   -5.9090 O   0  0  0  0  0
   -2.5480  -18.4100   -6.7550 O   0  0  0  0  0
  -20.5629  -13.6875   -1.7745 H   0  0  0  0  0
  -21.3074  -14.7647   -0.5676 H   0  0  0  0  0
  -20.0415  -13.6140   -0.0734 H   0  0  0  0  0
  -18.0691  -14.5698    0.2599 H   0  0  0  0  0
  -17.5142  -16.9839   -1.4141 H   0  0  0  0  0
  -16.9551  -16.7665    0.2907 H   0  0  0  0  0
  -14.8503  -17.3238   -0.6542 H   0  0  0  0  0
  -12.7736  -16.7543   -1.4264 H   0  0  0  0  0
  -12.5198  -15.4485   -3.3694 H   0  0  0  0  0
  -14.1153  -14.6020   -3.0635 H   0  0  0  0  0
  -12.2366  -13.9490   -2.4330 H   0  0  0  0  0
  -11.1314  -12.1816   -1.5714 H   0  0  0  0  0
  -12.7551  -10.6123   -0.2833 H   0  0  0  0  0
  -12.1329  -10.4482   -2.6632 H   0  0  0  0  0
  -13.3457  -11.6881   -3.0667 H   0  0  0  0  0
  -13.8653  -10.1074   -2.4322 H   0  0  0  0  0
  -14.5889  -12.7917   -1.2688 H   0  0  0  0  0
  -14.2731  -12.3666    0.4313 H   0  0  0  0  0
  -15.0885  -11.2020   -0.6409 H   0  0  0  0  0
  -13.0513  -12.5214    1.4938 H   0  0  0  0  0
  -12.2058  -13.3281    3.5083 H   0  0  0  0  0
  -10.9238  -12.1197    3.1975 H   0  0  0  0  0
  -11.9013  -15.3826    2.0503 H   0  0  0  0  0
   -9.4971  -16.6560    2.8613 H   0  0  0  0  0
  -10.3669  -18.0929    0.6506 H   0  0  0  0  0
  -11.8728  -17.2731    1.2937 H   0  0  0  0  0
  -10.0169  -19.1460    2.7452 H   0  0  0  0  0
  -11.7093  -19.4662    2.2053 H   0  0  0  0  0
  -12.3786  -17.5159    3.6548 H   0  0  0  0  0
  -10.7194  -17.6094    4.3582 H   0  0  0  0  0
  -12.2177  -20.1189    4.3641 H   0  0  0  0  0
  -11.7279  -17.9333    7.7389 H   0  0  0  0  0
  -11.2892  -17.2190    6.1837 H   0  0  0  0  0
  -12.8511  -20.9643    6.3551 H   0  0  0  0  0
  -10.3884  -15.0768   -0.1956 H   0  0  0  0  0
   -8.1759  -16.2462   -1.6394 H   0  0  0  0  0
  -10.2279  -15.5684   -2.7833 H   0  0  0  0  0
   -9.9478  -13.8728   -2.3172 H   0  0  0  0  0
   -8.8321  -14.6822   -3.4445 H   0  0  0  0  0
   -8.7231  -12.9510   -0.3138 H   0  0  0  0  0
   -6.1184  -12.0773   -1.2476 H   0  0  0  0  0
   -6.5057  -10.1205    0.2281 H   0  0  0  0  0
   -8.1292  -10.9046    0.6408 H   0  0  0  0  0
   -7.9979   -8.9946   -1.0901 H   0  0  0  0  0
   -6.1460   -9.9173   -2.3964 H   0  0  0  0  0
   -7.0967  -11.3850   -2.7326 H   0  0  0  0  0
   -7.6184   -9.8156   -3.3929 H   0  0  0  0  0
   -9.4304  -11.5918   -1.6954 H   0  0  0  0  0
  -10.0058  -10.2795   -0.6380 H   0  0  0  0  0
   -9.8250   -9.9991   -2.3872 H   0  0  0  0  0
   -7.4602  -13.2546    1.8328 H   0  0  0  0  0
   -5.2821  -13.1222    3.5225 H   0  0  0  0  0
   -7.3984  -14.2523    4.0954 H   0  0  0  0  0
   -7.0001  -15.5747    2.9712 H   0  0  0  0  0
   -6.0089  -15.3152    4.4277 H   0  0  0  0  0
   -5.9014  -15.4049    0.9024 H   0  0  0  0  0
   -3.4650  -16.9474    1.3714 H   0  0  0  0  0
   -5.5678  -18.0075    0.6141 H   0  0  0  0  0
   -5.5454  -17.0069   -0.8588 H   0  0  0  0  0
   -4.2813  -18.2334   -0.5963 H   0  0  0  0  0
   -4.7102  -15.0526   -1.4049 H   0  0  0  0  0
   -2.2890  -15.2199   -2.8903 H   0  0  0  0  0
   -3.2337  -13.0791   -3.9945 H   0  0  0  0  0
   -4.6865  -13.4197   -2.9306 H   0  0  0  0  0
   -2.5461  -14.7713   -5.6443 H   0  0  0  0  0
   -6.2821  -15.0079   -3.5751 H   0  0  0  0  0
   -3.3959  -16.3288   -7.3535 H   0  0  0  0  0
   -7.1370  -16.5498   -5.2887 H   0  0  0  0  0
   -5.6959  -17.2191   -7.1820 H   0  0  0  0  0
   -3.1288  -13.3635   -0.1329 H   0  0  0  0  0
   -2.1226  -11.5894    0.9062 H   0  0  0  0  0
   -1.3546  -11.1517   -0.6835 H   0  0  0  0  0
   -0.9346  -14.3249    0.6817 H   0  0  0  0  0
    1.5637  -13.6329    2.0343 H   0  0  0  0  0
    0.6320  -16.3861    1.2028 H   0  0  0  0  0
    0.0329  -15.5210    2.6793 H   0  0  0  0  0
    2.0820  -17.6274    1.6974 H   0  0  0  0  0
    0.8518  -13.4838   -1.0926 H   0  0  0  0  0
    3.3227  -14.8592   -2.0254 H   0  0  0  0  0
    2.4304  -14.6939   -4.2316 H   0  0  0  0  0
    1.0906  -13.6000   -3.6345 H   0  0  0  0  0
    2.5868  -11.9461   -0.7720 H   0  0  0  0  0
    3.8494  -10.2512   -2.7918 H   0  0  0  0  0
    3.2412   -9.5860    0.1097 H   0  0  0  0  0
    1.2669  -10.3195   -1.1619 H   0  0  0  0  0
    1.6527   -9.0451   -2.4138 H   0  0  0  0  0
    4.8822   -8.0847   -0.9253 H   0  0  0  0  0
    3.7871   -7.8238   -2.3051 H   0  0  0  0  0
    3.3249   -7.2561   -0.6818 H   0  0  0  0  0
    0.9116   -8.5729    0.4725 H   0  0  0  0  0
    1.2875   -7.3312   -0.7472 H   0  0  0  0  0
   -0.1573   -8.3550   -0.9349 H   0  0  0  0  0
    5.6355  -11.8702   -2.8565 H   0  0  0  0  0
    8.0301  -10.7240   -1.7965 H   0  0  0  0  0
    7.4619  -13.4016   -0.5578 H   0  0  0  0  0
    7.0746  -11.8366    0.2807 H   0  0  0  0  0
   10.2674  -12.2411    1.7348 H   0  0  0  0  0
    8.5220  -12.3788    1.9711 H   0  0  0  0  0
    6.5040  -13.8708   -2.5015 H   0  0  0  0  0
    8.2154  -14.0906   -4.9328 H   0  0  0  0  0
    7.5763  -16.3521   -3.0309 H   0  0  0  0  0
    9.1834  -15.5052   -3.1945 H   0  0  0  0  0
    9.3389  -16.2956   -5.4788 H   0  0  0  0  0
    7.7708  -17.1622   -5.2832 H   0  0  0  0  0
    9.7061  -18.6515   -5.0463 H   0  0  0  0  0
    8.7397  -18.5225   -3.5250 H   0  0  0  0  0
   10.6738  -16.6592   -3.1465 H   0  0  0  0  0
   12.3893  -20.3140   -3.4791 H   0  0  0  0  0
   10.7995  -20.0336   -4.1969 H   0  0  0  0  0
   12.6970  -17.0307   -2.2213 H   0  0  0  0  0
    5.1122  -14.5404   -6.5325 H   0  0  0  0  0
    6.6229  -13.6347   -6.3954 H   0  0  0  0  0
  -13.4903  -18.8859   -4.5859 H   0  0  0  0  0
  -13.6913  -18.6344   -2.8111 H   0  0  0  0  0
  -11.6095  -19.3735   -2.3346 H   0  0  0  0  0
   -9.5534  -19.0179   -0.9156 H   0  0  0  0  0
   -7.0695  -19.0254   -1.0503 H   0  0  0  0  0
   -7.2878  -18.2372   -5.2569 H   0  0  0  0  0
   -3.0555  -19.3606   -0.5718 H   0  0  0  0  0
   -3.9740  -18.4878   -4.6649 H   0  0  0  0  0
   -0.6268  -19.3358   -1.1139 H   0  0  0  0  0
    0.6642  -19.0233   -4.4587 H   0  0  0  0  0
    2.3785  -16.8833   -1.8038 H   0  0  0  0  0
    2.6189  -17.2457   -3.5386 H   0  0  0  0  0
   -8.4225  -18.6410   -6.9376 H   0  0  0  0  0
   -1.3983  -16.3204   -5.6367 H   0  0  0  0  0
  1  2  2  0  0  0
  1  3  1  0  0  0
  1  4  1  0  0  0
  4  5  1  0  0  0
  5  6  1  0  0  0
  6  7  2  0  0  0
  6  8  1  0  0  0
  8  9  1  0  0  0
  9 10  1  0  0  0
  9 12  1  0  0  0
 10 11  2  0  0  0
 10 14  1  0  0  0
 12 13  1  0  0  0
 13116  1  0  0  0
 14 15  1  0  0  0
 15 16  1  0  0  0
 15 18  1  0  0  0
 16 17  2  0  0  0
 16 21  1  0  0  0
 18 19  1  0  0  0
 18 20  1  0  0  0
 21 22  1  0  0  0
 22 23  1  0  0  0
 23 24  2  0  0  0
 23 25  1  0  0  0
 25 26  1  0  0  0
 26 27  1  0  0  0
 26 29  1  0  0  0
 27 28  2  0  0  0
 27 36  1  0  0  0
 29 30  1  0  0  0
 30 31  1  0  0  0
 31 32  1  0  0  0
 32 33  1  0  0  0
 33 34  1  0  0  0
 33 35  2  0  0  0
 36 37  1  0  0  0
 37 38  1  0  0  0
 37 40  1  0  0  0
 38 39  2  0  0  0
 38 41  1  0  0  0
 41 42  1  0  0  0
 42 43  1  0  0  0
 42 45  1  0  0  0
 43 44  2  0  0  0
 43 49  1  0  0  0
 45 46  1  0  0  0
 46 47  1  0  0  0
 46 48  1  0  0  0
 49 50  1  0  0  0
 50 51  1  0  0  0
 50 53  1  0  0  0
 51 52  2  0  0  0
 51 54  1  0  0  0
 54 55  1  0  0  0
 55 56  1  0  0  0
 55 58  1  0  0  0
 56 57  2  0  0  0
 56 59  1  0  0  0
 59 60  1  0  0  0
 60 61  1  0  0  0
 60 63  1  0  0  0
 61 62  2  0  0  0
 61 70  1  0  0  0
 63 64  1  0  0  0
 64 65  4  0  0  0
 64 66  4  0  0  0
 65 67  4  0  0  0
 66 68  4  0  0  0
 67 69  4  0  0  0
 68 69  4  0  0  0
 70 71  1  0  0  0
 71 72  1  0  0  0
 72 73  2  0  0  0
 72 74  1  0  0  0
 74 75  1  0  0  0
 75 76  1  0  0  0
 75 78  1  0  0  0
 76 77  2  0  0  0
 76 82  1  0  0  0
 78 79  1  0  0  0
 79 80  2  0  0  0
 79 81  1  0  0  0
 82 83  1  0  0  0
 83 84  1  0  0  0
 83 86  1  0  0  0
 84 85  2  0  0  0
 84 88  1  0  0  0
 86 87  1  0  0  0
 87139  1  0  0  0
 88 89  1  0  0  0
 89 90  1  0  0  0
 89 92  1  0  0  0
 90 91  2  0  0  0
 90 96  1  0  0  0
 92 93  1  0  0  0
 92 94  1  0  0  0
 93 95  1  0  0  0
 96 97  1  0  0  0
 97 98  1  0  0  0
 97100  1  0  0  0
 98 99  2  0  0  0
 98104  1  0  0  0
100101  1  0  0  0
101102  2  0  0  0
101103  1  0  0  0
104105  1  0  0  0
105106  1  0  0  0
105108  1  0  0  0
106107  2  0  0  0
106115  1  0  0  0
108109  1  0  0  0
109110  1  0  0  0
110111  1  0  0  0
111112  1  0  0  0
112113  1  0  0  0
112114  2  0  0  0
116117  1  0  0  0
117118  2  0  0  0
117119  1  0  0  0
119120  1  0  0  0
120121  4  0  0  0
120122  4  0  0  0
121124  4  0  0  0
122123  1  0  0  0
122125  4  0  0  0
123140  1  0  0  0
123141  2  0  0  0
123142  2  0  0  0
124126  4  0  0  0
125126  4  0  0  0
126127  1  0  0  0
127128  2  0  0  0
128129  1  0  0  0
129130  4  0  0  0
129131  4  0  0  0
130132  4  0  0  0
131133  4  0  0  0
132134  4  0  0  0
133134  4  0  0  0
133135  1  0  0  0
134136  1  0  0  0
135143  2  0  0  0
135144  1  0  0  0
135145  2  0  0  0
136137  1  0  0  0
137138  2  0  0  0
137139  1  0  0  0
  3146  1  0  0  0
  3147  1  0  0  0
  3148  1  0  0  0
  4149  1  0  0  0
  5150  1  0  0  0
  5151  1  0  0  0
  8152  1  0  0  0
  9153  1  0  0  0
 12154  1  0  0  0
 12155  1  0  0  0
 14156  1  0  0  0
 15157  1  0  0  0
 18158  1  0  0  0
 19159  1  0  0  0
 19160  1  0  0  0
 19161  1  0  0  0
 20162  1  0  0  0
 20163  1  0  0  0
 20164  1  0  0  0
 21165  1  0  0  0
 22166  1  0  0  0
 22167  1  0  0  0
 25168  1  0  0  0
 26169  1  0  0  0
 29170  1  0  0  0
 29171  1  0  0  0
 30172  1  0  0  0
 30173  1  0  0  0
 31174  1  0  0  0
 31175  1  0  0  0
 32176  1  0  0  0
 34177  1  0  0  0
 34178  1  0  0  0
 35179  1  0  0  0
 36180  1  0  0  0
 37181  1  0  0  0
 40182  1  0  0  0
 40183  1  0  0  0
 40184  1  0  0  0
 41185  1  0  0  0
 42186  1  0  0  0
 45187  1  0  0  0
 45188  1  0  0  0
 46189  1  0  0  0
 47190  1  0  0  0
 47191  1  0  0  0
 47192  1  0  0  0
 48193  1  0  0  0
 48194  1  0  0  0
 48195  1  0  0  0
 49196  1  0  0  0
 50197  1  0  0  0
 53198  1  0  0  0
 53199  1  0  0  0
 53200  1  0  0  0
 54201  1  0  0  0
 55202  1  0  0  0
 58203  1  0  0  0
 58204  1  0  0  0
 58205  1  0  0  0
 59206  1  0  0  0
 60207  1  0  0  0
 63208  1  0  0  0
 63209  1  0  0  0
 65210  1  0  0  0
 66211  1  0  0  0
 67212  1  0  0  0
 68213  1  0  0  0
 69214  1  0  0  0
 70215  1  0  0  0
 71216  1  0  0  0
 71217  1  0  0  0
 74218  1  0  0  0
 75219  1  0  0  0
 78220  1  0  0  0
 78221  1  0  0  0
 81222  1  0  0  0
 82223  1  0  0  0
 83224  1  0  0  0
 86225  1  0  0  0
 86226  1  0  0  0
 88227  1  0  0  0
 89228  1  0  0  0
 92229  1  0  0  0
 93230  1  0  0  0
 93231  1  0  0  0
 94232  1  0  0  0
 94233  1  0  0  0
 94234  1  0  0  0
 95235  1  0  0  0
 95236  1  0  0  0
 95237  1  0  0  0
 96238  1  0  0  0
 97239  1  0  0  0
100240  1  0  0  0
100241  1  0  0  0
103242  1  0  0  0
103243  1  0  0  0
104244  1  0  0  0
105245  1  0  0  0
108246  1  0  0  0
108247  1  0  0  0
109248  1  0  0  0
109249  1  0  0  0
110250  1  0  0  0
110251  1  0  0  0
111252  1  0  0  0
113253  1  0  0  0
113254  1  0  0  0
114255  1  0  0  0
115256  1  0  0  0
115257  1  0  0  0
116258  1  0  0  0
116259  1  0  0  0
119260  1  0  0  0
121261  1  0  0  0
124262  1  0  0  0
125263  1  0  0  0
130264  1  0  0  0
131265  1  0  0  0
132266  1  0  0  0
136267  1  0  0  0
139268  1  0  0  0
139269  1  0  0  0
140270  1  0  0  0
144271  1  0  0  0
M  END
$$$$
