### 
### Created by X-TOOL on Mon Sep 10 21:13:12 2018
### 

@<TRIPOS>MOLECULE
2lp8_ligand
  270   273     1     0     0
SMALL
GAST_HUCK


@<TRIPOS>ATOM
      1 C         -19.3230  -15.3190   -1.1520 C.2       1 ACE         0.1749
      2 O         -19.5220  -16.1640   -2.0290 O.2       1 ACE        -0.3972
      3 CH3       -20.3840  -14.2720   -0.8720 C.3       1 ACE         0.0258
      4 N         -18.2020  -15.2940   -0.4460 N.am      1 GLY        -0.2685
      5 CA        -17.1640  -16.2780   -0.6610 C.3       1 GLY         0.1200
      6 C         -15.8810  -15.6490   -1.1620 C.2       1 GLY         0.2008
      7 O         -15.8900  -14.5040   -1.6160 O.2       1 GLY        -0.3947
      8 N         -14.7810  -16.3950   -1.0700 N.am      1 CYS        -0.2631
      9 CA        -13.4770  -15.9300   -1.5440 C.3       1 CYS         0.1400
     10 C         -13.0000  -14.7430   -0.7320 C.2       1 CYS         0.2047
     11 O         -13.1650  -14.7250    0.4840 O.2       1 CYS        -0.3944
     12 CB        -13.5460  -15.5300   -3.0110 C.3       1 CYS         0.0364
     13 SG        -14.3890  -16.7340   -4.0760 S.3       1 CYS        -0.1338
     14 N         -12.3920  -13.7750   -1.4400 N.am      1 VAL        -0.2634
     15 CA        -11.9350  -12.4930   -0.9040 C.3       1 VAL         0.1332
     16 C         -11.2810  -12.5810    0.4660 C.2       1 VAL         0.2039
     17 O         -10.0600  -12.5270    0.5290 O.2       1 VAL        -0.3944
     18 CB        -13.0130  -11.4160   -0.9730 C.3       1 VAL        -0.0063
     19 CG1       -13.0950  -10.8770   -2.3830 C.3       1 VAL        -0.0584
     20 CG2       -14.3290  -11.9820   -0.5870 C.3       1 VAL        -0.0584
     21 N         -12.0450  -12.6770    1.5540 N.am      1 GLY        -0.2664
     22 CA        -11.4340  -13.0020    2.8110 C.3       1 GLY         0.1201
     23 C         -10.4210  -14.1230    2.6310 C.2       1 GLY         0.2007
     24 O          -9.2260  -13.9110    2.7950 O.2       1 GLY        -0.3947
     25 N         -10.8970  -15.2870    2.2010 N.am      1 ARG        -0.2640
     26 CA        -10.0300  -16.4370    1.9360 C.3       1 ARG         0.1311
     27 C          -9.0050  -16.1390    0.8430 C.2       1 ARG         0.2039
     28 O          -7.8380  -16.5040    0.9600 O.2       1 ARG        -0.3944
     29 CB        -10.8690  -17.6410    1.5060 C.3       1 ARG        -0.0092
     30 CG        -11.0030  -18.7180    2.5650 C.3       1 ARG        -0.0156
     31 CD        -11.5260  -18.1590    3.8730 C.3       1 ARG         0.0627
     32 NE        -11.9690  -19.2200    4.7770 N.pl3     1 ARG        -0.2723
     33 CZ        -12.0720  -19.0990    6.1030 C.cat     1 ARG         0.2882
     34 NH1       -11.6650  -17.9990    6.7230 N.pl3     1 ARG        -0.2849
     35 NH2       -12.5580  -20.1040    6.8180 N.pl3     1 ARG        -0.2849
     36 N          -9.4470  -15.4690   -0.2130 N.am      1 ALA        -0.2640
     37 CA         -8.6190  -15.2800   -1.3980 C.3       1 ALA         0.1282
     38 C          -7.4670  -14.3100   -1.1520 C.2       1 ALA         0.2036
     39 O          -6.3240  -14.6210   -1.4670 O.2       1 ALA        -0.3944
     40 CB         -9.4670  -14.8180   -2.5690 C.3       1 ALA        -0.0244
     41 N          -7.7600  -13.1480   -0.5860 N.am      1 LEU        -0.2637
     42 CA         -6.7270  -12.1460   -0.3460 C.3       1 LEU         0.1312
     43 C          -5.8390  -12.5660    0.8200 C.2       1 LEU         0.2039
     44 O          -4.6420  -12.2880    0.8250 O.2       1 LEU        -0.3944
     45 CB         -7.3310  -10.7590   -0.0870 C.3       1 LEU        -0.0101
     46 CG         -7.9750  -10.0640   -1.3000 C.3       1 LEU        -0.0425
     47 CD1        -7.1510  -10.3130   -2.5430 C.3       1 LEU        -0.0625
     48 CD2        -9.4120  -10.5160   -1.5210 C.3       1 LEU        -0.0625
     49 N          -6.4410  -13.2210    1.8110 N.am      1 ALA        -0.2640
     50 CA         -5.6890  -13.8930    2.8680 C.3       1 ALA         0.1282
     51 C          -4.5650  -14.7350    2.2680 C.2       1 ALA         0.2036
     52 O          -3.4150  -14.7020    2.7130 O.2       1 ALA        -0.3944
     53 CB         -6.5870  -14.8240    3.6450 C.3       1 ALA        -0.0244
     54 N          -4.9470  -15.5020    1.2490 N.am      1 ALA        -0.2640
     55 CA         -4.0750  -16.4710    0.6040 C.3       1 ALA         0.1282
     56 C          -3.1250  -15.8090   -0.3870 C.2       1 ALA         0.2037
     57 O          -1.9050  -15.9190   -0.2600 O.2       1 ALA        -0.3944
     58 CB         -4.9280  -17.5030   -0.1100 C.3       1 ALA        -0.0244
     59 N          -3.6930  -15.1210   -1.3730 N.am      1 PHE        -0.2619
     60 CA         -2.9070  -14.4600   -2.4120 C.3       1 PHE         0.1404
     61 C          -1.9950  -13.3940   -1.8170 C.2       1 PHE         0.2058
     62 O          -1.0140  -12.9810   -2.4390 O.2       1 PHE        -0.3942
     63 CB         -3.8250  -13.8240   -3.4620 C.3       1 PHE         0.0214
     64 CG         -4.3530  -14.7860   -4.4910 C.ar      1 PHE        -0.0386
     65 CD1        -3.5590  -15.1650   -5.5600 C.ar      1 PHE        -0.0601
     66 CD2        -5.6420  -15.2960   -4.4090 C.ar      1 PHE        -0.0601
     67 CE1        -4.0340  -16.0350   -6.5200 C.ar      1 PHE        -0.0686
     68 CE2        -6.1220  -16.1600   -5.3660 C.ar      1 PHE        -0.0686
     69 CZ         -5.3180  -16.5330   -6.4240 C.ar      1 PHE        -0.0687
     70 N          -2.3200  -12.9630   -0.6080 N.am      1 GLY        -0.2663
     71 CA         -1.5490  -11.9370    0.0470 C.3       1 GLY         0.1201
     72 C          -0.2160  -12.4310    0.5550 C.2       1 GLY         0.2008
     73 O           0.7280  -11.6530    0.6870 O.2       1 GLY        -0.3947
     74 N          -0.1210  -13.7250    0.8180 N.am      1 ASP        -0.2624
     75 CA          1.1260  -14.3080    1.2990 C.3       1 ASP         0.1423
     76 C           2.1220  -14.4720    0.1460 C.2       1 ASP         0.2056
     77 O           3.2120  -15.0240    0.3120 O.2       1 ASP        -0.3943
     78 CB          0.8580  -15.6560    1.9800 C.3       1 ASP         0.0406
     79 CG          2.0560  -16.1610    2.7620 C.2       1 ASP         0.0393
     80 OD1         2.4950  -15.4690    3.7060 O.co2     1 ASP        -0.5688
     81 OD2         2.5630  -17.2590    2.4420 O.co2     1 ASP        -0.5688
     82 N           1.7490  -13.9640   -1.0230 N.am      1 CYS        -0.2628
     83 CA          2.5880  -14.0750   -2.2080 C.3       1 CYS         0.1400
     84 C           3.3310  -12.7680   -2.4800 C.2       1 CYS         0.2047
     85 O           4.0270  -12.6430   -3.4880 O.2       1 CYS        -0.3944
     86 CB          1.7420  -14.4480   -3.4230 C.3       1 CYS         0.0364
     87 SG          0.6710  -15.8990   -3.1680 S.3       1 CYS        -0.1338
     88 N           3.1880  -11.7950   -1.5820 N.am      1 ILE        -0.2634
     89 CA          3.8750  -10.5170   -1.7350 C.3       1 ILE         0.1335
     90 C           5.3270  -10.6460   -1.2820 C.2       1 ILE         0.2043
     91 O           5.7400  -10.1030   -0.2540 O.2       1 ILE        -0.3944
     92 CB          3.1670   -9.3850   -0.9590 C.3       1 ILE        -0.0037
     93 CG1         1.6910   -9.3360   -1.3640 C.3       1 ILE        -0.0491
     94 CG2         3.8390   -8.0400   -1.2380 C.3       1 ILE        -0.0582
     95 CD1         0.8760   -8.3280   -0.5890 C.3       1 ILE        -0.0648
     96 N           6.0740  -11.4220   -2.0520 N.am      1 ASN        -0.2616
     97 CA          7.4870  -11.6690   -1.8110 C.3       1 ASN         0.1476
     98 C           7.9950  -12.5670   -2.9270 C.2       1 ASN         0.2062
     99 O           8.9800  -12.2590   -3.6010 O.2       1 ASN        -0.3942
    100 CB          7.7060  -12.3450   -0.4480 C.3       1 ASN         0.0773
    101 CG          9.1440  -12.2490    0.0370 C.2       1 ASN         0.1780
    102 OD1        10.0810  -12.1460   -0.7550 O.2       1 ASN        -0.3970
    103 ND2         9.3250  -12.2930    1.3480 N.am      1 ASN        -0.3007
    104 N           7.2800  -13.6660   -3.1310 N.am      1 ARG        -0.2636
    105 CA          7.5610  -14.5880   -4.2170 C.3       1 ARG         0.1308
    106 C           6.2640  -14.9830   -4.9170 C.2       1 ARG         0.1992
    107 O           5.5210  -15.8390   -4.4370 O.2       1 ARG        -0.3947
    108 CB          8.2710  -15.8340   -3.6920 C.3       1 ARG        -0.0092
    109 CG          8.6740  -16.8100   -4.7850 C.3       1 ARG        -0.0156
    110 CD          9.4080  -18.0100   -4.2170 C.3       1 ARG         0.0627
    111 NE         10.6110  -17.6190   -3.4860 N.pl3     1 ARG        -0.2723
    112 CZ         11.6290  -18.4370   -3.2360 C.cat     1 ARG         0.2882
    113 NH1        11.6040  -19.6920   -3.6710 N.pl3     1 ARG        -0.2849
    114 NH2        12.6750  -17.9950   -2.5530 N.pl3     1 ARG        -0.2849
    115 N           5.9780  -14.3370   -6.0330 N.am      1 NH2        -0.2990
    116 C1        -13.3700  -18.1920   -3.7540 C.3       1 33B         0.0901
    117 C2        -11.8840  -17.8300   -3.6370 C.2       1 33B         0.2167
    118 O2        -11.4330  -16.8040   -4.1440 O.2       1 33B        -0.3822
    119 N3        -11.1550  -18.6890   -2.9390 N.am      1 33B        -0.2269
    120 C4         -9.8230  -18.6550   -3.0300 C.ar      1 33B         0.0955
    121 C5         -9.0590  -18.8590   -1.8740 C.ar      1 33B        -0.0314
    122 C6         -9.1740  -18.4320   -4.2600 C.ar      1 33B         0.0793
    123 S6        -10.0470  -18.2400   -5.7770 S.o2      1 33B        -0.1660
    124 C7         -7.6650  -18.8590   -1.9480 C.ar      1 33B        -0.0457
    125 C8         -7.7910  -18.4230   -4.3080 C.ar      1 33B        -0.0240
    126 C9         -7.0390  -18.6460   -3.1710 C.ar      1 33B         0.0596
    127 N10        -5.7150  -18.6920   -3.2930 N.2       1 33B        -0.1992
    128 N11        -4.9630  -18.9110   -2.3480 N.2       1 33B        -0.1992
    129 C12        -3.6580  -18.9190   -2.5960 C.ar      1 33B         0.0596
    130 C13        -2.7240  -19.1620   -1.5910 C.ar      1 33B        -0.0457
    131 C14        -3.2380  -18.6750   -3.8830 C.ar      1 33B        -0.0240
    132 C15        -1.3640  -19.1500   -1.8950 C.ar      1 33B        -0.0314
    133 C16        -1.8900  -18.6650   -4.1940 C.ar      1 33B         0.0793
    134 C17        -0.9500  -18.8990   -3.2040 C.ar      1 33B         0.0955
    135 S17        -1.3700  -18.3460   -5.8310 S.o2      1 33B        -0.1660
    136 N18         0.3410  -18.8340   -3.5100 N.am      1 33B        -0.2269
    137 C19         1.2000  -18.5160   -2.5480 C.2       1 33B         0.2167
    138 O19         1.4450  -19.2280   -1.5750 O.2       1 33B        -0.3822
    139 C20         1.8870  -17.1650   -2.7350 C.3       1 33B         0.0901
    140 O61        -9.3150  -18.9860   -6.8600 O.co2     1 33B        -0.4816
    141 O62       -11.4340  -18.8060   -5.6860 O.co2     1 33B        -0.4816
    142 O63       -10.1200  -16.7880   -6.1460 O.co2     1 33B        -0.4816
    143 O71        -0.3650  -19.3780   -6.2560 O.co2     1 33B        -0.4816
    144 O72        -0.7530  -16.9770   -5.9090 O.co2     1 33B        -0.4816
    145 O73        -2.5480  -18.4100   -6.7550 O.co2     1 33B        -0.4816
    146 H         -20.5629  -13.6875   -1.7745 H         1 ACE         0.0467
    147 H         -21.3074  -14.7647   -0.5676 H         1 ACE         0.0467
    148 H         -20.0415  -13.6140   -0.0734 H         1 ACE         0.0467
    149 H         -18.0691  -14.5698    0.2599 H         1 GLY         0.1880
    150 H         -17.5142  -16.9839   -1.4141 H         1 GLY         0.0763
    151 H         -16.9551  -16.7665    0.2907 H         1 GLY         0.0763
    152 H         -14.8503  -17.3238   -0.6542 H         1 CYS         0.1884
    153 H         -12.7736  -16.7543   -1.4264 H         1 CYS         0.0808
    154 H         -12.5198  -15.4485   -3.3694 H         1 CYS         0.0426
    155 H         -14.1153  -14.6020   -3.0635 H         1 CYS         0.0426
    156 H         -12.2366  -13.9490   -2.4330 H         1 VAL         0.1883
    157 H         -11.1314  -12.1816   -1.5714 H         1 VAL         0.0802
    158 H         -12.7551  -10.6123   -0.2833 H         1 VAL         0.0343
    159 H         -12.1329  -10.4482   -2.6632 H         1 VAL         0.0234
    160 H         -13.3457  -11.6881   -3.0667 H         1 VAL         0.0234
    161 H         -13.8653  -10.1074   -2.4322 H         1 VAL         0.0234
    162 H         -14.5889  -12.7917   -1.2688 H         1 VAL         0.0234
    163 H         -14.2731  -12.3666    0.4313 H         1 VAL         0.0234
    164 H         -15.0885  -11.2020   -0.6409 H         1 VAL         0.0234
    165 H         -13.0513  -12.5214    1.4938 H         1 GLY         0.1881
    166 H         -12.2058  -13.3281    3.5083 H         1 GLY         0.0763
    167 H         -10.9238  -12.1197    3.1975 H         1 GLY         0.0763
    168 H         -11.9013  -15.3826    2.0503 H         1 ARG         0.1883
    169 H          -9.4971  -16.6560    2.8613 H         1 ARG         0.0800
    170 H         -10.3669  -18.0929    0.6506 H         1 ARG         0.0313
    171 H         -11.8728  -17.2731    1.2937 H         1 ARG         0.0313
    172 H         -10.0169  -19.1460    2.7452 H         1 ARG         0.0301
    173 H         -11.7093  -19.4662    2.2053 H         1 ARG         0.0301
    174 H         -12.3786  -17.5159    3.6548 H         1 ARG         0.0689
    175 H         -10.7194  -17.6094    4.3582 H         1 ARG         0.0689
    176 H         -12.2177  -20.1189    4.3641 H         1 ARG         0.2642
    177 H         -11.2660  -17.2289    6.1861 H         1 ARG         0.2615
    178 H         -11.7511  -17.9233    7.7365 H         1 ARG         0.2615
    179 H         -12.8511  -20.9643    6.3551 H         1 ARG         0.2615
    180 H         -12.6388  -20.0169    7.8311 H         1 ARG         0.2615
    181 H         -10.3884  -15.0768   -0.1956 H         1 ALA         0.1883
    182 H          -8.1759  -16.2462   -1.6394 H         1 ALA         0.0797
    183 H         -10.2279  -15.5684   -2.7833 H         1 ALA         0.0277
    184 H          -9.9478  -13.8728   -2.3172 H         1 ALA         0.0277
    185 H          -8.8321  -14.6822   -3.4445 H         1 ALA         0.0277
    186 H          -8.7231  -12.9510   -0.3138 H         1 LEU         0.1883
    187 H          -6.1184  -12.0773   -1.2476 H         1 LEU         0.0800
    188 H          -6.5057  -10.1205    0.2281 H         1 LEU         0.0315
    189 H          -8.1292  -10.9046    0.6408 H         1 LEU         0.0315
    190 H          -7.9979   -8.9946   -1.0901 H         1 LEU         0.0298
    191 H          -6.1460   -9.9173   -2.3964 H         1 LEU         0.0232
    192 H          -7.0967  -11.3850   -2.7326 H         1 LEU         0.0232
    193 H          -7.6184   -9.8156   -3.3929 H         1 LEU         0.0232
    194 H          -9.4304  -11.5918   -1.6954 H         1 LEU         0.0232
    195 H         -10.0058  -10.2795   -0.6380 H         1 LEU         0.0232
    196 H          -9.8250   -9.9991   -2.3872 H         1 LEU         0.0232
    197 H          -7.4602  -13.2546    1.8328 H         1 ALA         0.1883
    198 H          -5.2821  -13.1222    3.5225 H         1 ALA         0.0797
    199 H          -7.3984  -14.2523    4.0954 H         1 ALA         0.0277
    200 H          -7.0001  -15.5747    2.9712 H         1 ALA         0.0277
    201 H          -6.0089  -15.3152    4.4277 H         1 ALA         0.0277
    202 H          -5.9014  -15.4049    0.9024 H         1 ALA         0.1883
    203 H          -3.4650  -16.9474    1.3714 H         1 ALA         0.0797
    204 H          -5.5678  -18.0075    0.6141 H         1 ALA         0.0277
    205 H          -5.5454  -17.0069   -0.8588 H         1 ALA         0.0277
    206 H          -4.2813  -18.2334   -0.5963 H         1 ALA         0.0277
    207 H          -4.7102  -15.0526   -1.4049 H         1 PHE         0.1885
    208 H          -2.2890  -15.2199   -2.8903 H         1 PHE         0.0823
    209 H          -3.2337  -13.0791   -3.9945 H         1 PHE         0.0474
    210 H          -4.6865  -13.4197   -2.9306 H         1 PHE         0.0474
    211 H          -2.5461  -14.7713   -5.6443 H         1 PHE         0.0557
    212 H          -6.2821  -15.0079   -3.5751 H         1 PHE         0.0557
    213 H          -3.3959  -16.3288   -7.3535 H         1 PHE         0.0599
    214 H          -7.1370  -16.5498   -5.2887 H         1 PHE         0.0599
    215 H          -5.6959  -17.2191   -7.1820 H         1 PHE         0.0559
    216 H          -3.1288  -13.3635   -0.1329 H         1 GLY         0.1881
    217 H          -2.1226  -11.5894    0.9062 H         1 GLY         0.0763
    218 H          -1.3546  -11.1517   -0.6835 H         1 GLY         0.0763
    219 H          -0.9346  -14.3249    0.6817 H         1 ASP         0.1884
    220 H           1.5637  -13.6329    2.0343 H         1 ASP         0.0819
    221 H           0.6320  -16.3861    1.2028 H         1 ASP         0.0478
    222 H           0.0329  -15.5210    2.6793 H         1 ASP         0.0478
    223 H           0.8518  -13.4838   -1.0926 H         1 CYS         0.1884
    224 H           3.3227  -14.8592   -2.0254 H         1 CYS         0.0808
    225 H           2.4304  -14.6939   -4.2316 H         1 CYS         0.0426
    226 H           1.0906  -13.6000   -3.6345 H         1 CYS         0.0426
    227 H           2.5868  -11.9461   -0.7720 H         1 ILE         0.1883
    228 H           3.8494  -10.2512   -2.7918 H         1 ILE         0.0803
    229 H           3.2412   -9.5860    0.1097 H         1 ILE         0.0345
    230 H           1.2669  -10.3195   -1.1619 H         1 ILE         0.0267
    231 H           1.6527   -9.0451   -2.4138 H         1 ILE         0.0267
    232 H           4.8822   -8.0847   -0.9253 H         1 ILE         0.0235
    233 H           3.7871   -7.8238   -2.3051 H         1 ILE         0.0235
    234 H           3.3249   -7.2561   -0.6818 H         1 ILE         0.0235
    235 H           0.9116   -8.5729    0.4725 H         1 ILE         0.0230
    236 H           1.2875   -7.3312   -0.7472 H         1 ILE         0.0230
    237 H          -0.1573   -8.3550   -0.9349 H         1 ILE         0.0230
    238 H           5.6355  -11.8702   -2.8565 H         1 ASN         0.1885
    239 H           8.0301  -10.7240   -1.7965 H         1 ASN         0.0826
    240 H           7.4619  -13.4016   -0.5578 H         1 ASN         0.0551
    241 H           7.0746  -11.8366    0.2807 H         1 ASN         0.0551
    242 H          10.2674  -12.2411    1.7348 H         1 ASN         0.1814
    243 H           8.5220  -12.3788    1.9711 H         1 ASN         0.1814
    244 H           6.5040  -13.8708   -2.5015 H         1 ARG         0.1883
    245 H           8.2154  -14.0906   -4.9328 H         1 ARG         0.0800
    246 H           7.5763  -16.3521   -3.0309 H         1 ARG         0.0313
    247 H           9.1834  -15.5052   -3.1945 H         1 ARG         0.0313
    248 H           9.3389  -16.2956   -5.4788 H         1 ARG         0.0301
    249 H           7.7708  -17.1622   -5.2832 H         1 ARG         0.0301
    250 H           9.7061  -18.6515   -5.0463 H         1 ARG         0.0689
    251 H           8.7397  -18.5225   -3.5250 H         1 ARG         0.0689
    252 H          10.6738  -16.6592   -3.1465 H         1 ARG         0.2642
    253 H          10.8010  -20.0326   -4.1998 H         1 ARG         0.2615
    254 H          12.3878  -20.3150   -3.4762 H         1 ARG         0.2615
    255 H          12.6970  -17.0307   -2.2213 H         1 ARG         0.2615
    256 H          13.4581  -18.6191   -2.3590 H         1 ARG         0.2615
    257 H           5.1122  -14.5404   -6.5325 H         1 NH2         0.1815
    258 H           6.6229  -13.6347   -6.3954 H         1 NH2         0.1815
    259 H         -13.4903  -18.8859   -4.5859 H         1 CYS         0.0622
    260 H         -13.6913  -18.6344   -2.8111 H         1 CYS         0.0622
    261 H         -11.6095  -19.3735   -2.3346 H         1 CYS         0.2299
    262 H          -9.5534  -19.0179   -0.9156 H         1 CYS         0.0526
    263 H          -7.0695  -19.0254   -1.0503 H         1 CYS         0.0630
    264 H          -7.2878  -18.2372   -5.2569 H         1 CYS         0.0648
    265 H          -3.0555  -19.3606   -0.5718 H         1 CYS         0.0630
    266 H          -3.9740  -18.4878   -4.6649 H         1 CYS         0.0648
    267 H          -0.6268  -19.3358   -1.1139 H         1 CYS         0.0526
    268 H           0.6642  -19.0233   -4.4587 H         1 CYS         0.2299
    269 H           2.3785  -16.8833   -1.8038 H         1 CYS         0.0622
    270 H           2.6189  -17.2457   -3.5386 H         1 CYS         0.0622
@<TRIPOS>BOND
     1    1    2 2  
     2    1    3 1  
     3    1    4 am 
     4    4    5 1  
     5    5    6 1  
     6    6    7 2  
     7    6    8 am 
     8    8    9 1  
     9    9   10 1  
    10    9   12 1  
    11   10   11 2  
    12   10   14 am 
    13   12   13 1  
    14   13  116 1  
    15   14   15 1  
    16   15   16 1  
    17   15   18 1  
    18   16   17 2  
    19   16   21 am 
    20   18   19 1  
    21   18   20 1  
    22   21   22 1  
    23   22   23 1  
    24   23   24 2  
    25   23   25 am 
    26   25   26 1  
    27   26   27 1  
    28   26   29 1  
    29   27   28 2  
    30   27   36 am 
    31   29   30 1  
    32   30   31 1  
    33   31   32 1  
    34   32   33 ar 
    35   33   34 ar 
    36   33   35 ar 
    37   36   37 1  
    38   37   38 1  
    39   37   40 1  
    40   38   39 2  
    41   38   41 am 
    42   41   42 1  
    43   42   43 1  
    44   42   45 1  
    45   43   44 2  
    46   43   49 am 
    47   45   46 1  
    48   46   47 1  
    49   46   48 1  
    50   49   50 1  
    51   50   51 1  
    52   50   53 1  
    53   51   52 2  
    54   51   54 am 
    55   54   55 1  
    56   55   56 1  
    57   55   58 1  
    58   56   57 2  
    59   56   59 am 
    60   59   60 1  
    61   60   61 1  
    62   60   63 1  
    63   61   62 2  
    64   61   70 am 
    65   63   64 1  
    66   64   65 ar 
    67   64   66 ar 
    68   65   67 ar 
    69   66   68 ar 
    70   67   69 ar 
    71   68   69 ar 
    72   70   71 1  
    73   71   72 1  
    74   72   73 2  
    75   72   74 am 
    76   74   75 1  
    77   75   76 1  
    78   75   78 1  
    79   76   77 2  
    80   76   82 am 
    81   78   79 1  
    82   79   80 ar 
    83   79   81 ar 
    84   82   83 1  
    85   83   84 1  
    86   83   86 1  
    87   84   85 2  
    88   84   88 am 
    89   86   87 1  
    90   87  139 1  
    91   88   89 1  
    92   89   90 1  
    93   89   92 1  
    94   90   91 2  
    95   90   96 am 
    96   92   93 1  
    97   92   94 1  
    98   93   95 1  
    99   96   97 1  
   100   97   98 1  
   101   97  100 1  
   102   98   99 2  
   103   98  104 am 
   104  100  101 1  
   105  101  102 2  
   106  101  103 am 
   107  104  105 1  
   108  105  106 1  
   109  105  108 1  
   110  106  107 2  
   111  106  115 am 
   112  108  109 1  
   113  109  110 1  
   114  110  111 1  
   115  111  112 ar 
   116  112  113 ar 
   117  112  114 ar 
   118  116  117 1  
   119  117  118 2  
   120  117  119 am 
   121  119  120 1  
   122  120  121 ar 
   123  120  122 ar 
   124  121  124 ar 
   125  122  123 1  
   126  122  125 ar 
   127  123  140 ar 
   128  123  141 ar 
   129  123  142 ar 
   130  124  126 ar 
   131  125  126 ar 
   132  126  127 1  
   133  127  128 2  
   134  128  129 1  
   135  129  130 ar 
   136  129  131 ar 
   137  130  132 ar 
   138  131  133 ar 
   139  132  134 ar 
   140  133  134 ar 
   141  133  135 1  
   142  134  136 1  
   143  135  143 ar 
   144  135  144 ar 
   145  135  145 ar 
   146  136  137 am 
   147  137  138 2  
   148  137  139 1  
   149    3  146 1  
   150    3  147 1  
   151    3  148 1  
   152    4  149 1  
   153    5  150 1  
   154    5  151 1  
   155    8  152 1  
   156    9  153 1  
   157   12  154 1  
   158   12  155 1  
   159   14  156 1  
   160   15  157 1  
   161   18  158 1  
   162   19  159 1  
   163   19  160 1  
   164   19  161 1  
   165   20  162 1  
   166   20  163 1  
   167   20  164 1  
   168   21  165 1  
   169   22  166 1  
   170   22  167 1  
   171   25  168 1  
   172   26  169 1  
   173   29  170 1  
   174   29  171 1  
   175   30  172 1  
   176   30  173 1  
   177   31  174 1  
   178   31  175 1  
   179   32  176 1  
   180   34  177 1  
   181   34  178 1  
   182   35  179 1  
   183   35  180 1  
   184   36  181 1  
   185   37  182 1  
   186   40  183 1  
   187   40  184 1  
   188   40  185 1  
   189   41  186 1  
   190   42  187 1  
   191   45  188 1  
   192   45  189 1  
   193   46  190 1  
   194   47  191 1  
   195   47  192 1  
   196   47  193 1  
   197   48  194 1  
   198   48  195 1  
   199   48  196 1  
   200   49  197 1  
   201   50  198 1  
   202   53  199 1  
   203   53  200 1  
   204   53  201 1  
   205   54  202 1  
   206   55  203 1  
   207   58  204 1  
   208   58  205 1  
   209   58  206 1  
   210   59  207 1  
   211   60  208 1  
   212   63  209 1  
   213   63  210 1  
   214   65  211 1  
   215   66  212 1  
   216   67  213 1  
   217   68  214 1  
   218   69  215 1  
   219   70  216 1  
   220   71  217 1  
   221   71  218 1  
   222   74  219 1  
   223   75  220 1  
   224   78  221 1  
   225   78  222 1  
   226   82  223 1  
   227   83  224 1  
   228   86  225 1  
   229   86  226 1  
   230   88  227 1  
   231   89  228 1  
   232   92  229 1  
   233   93  230 1  
   234   93  231 1  
   235   94  232 1  
   236   94  233 1  
   237   94  234 1  
   238   95  235 1  
   239   95  236 1  
   240   95  237 1  
   241   96  238 1  
   242   97  239 1  
   243  100  240 1  
   244  100  241 1  
   245  103  242 1  
   246  103  243 1  
   247  104  244 1  
   248  105  245 1  
   249  108  246 1  
   250  108  247 1  
   251  109  248 1  
   252  109  249 1  
   253  110  250 1  
   254  110  251 1  
   255  111  252 1  
   256  113  253 1  
   257  113  254 1  
   258  114  255 1  
   259  114  256 1  
   260  115  257 1  
   261  115  258 1  
   262  116  259 1  
   263  116  260 1  
   264  119  261 1  
   265  121  262 1  
   266  124  263 1  
   267  125  264 1  
   268  130  265 1  
   269  131  266 1  
   270  132  267 1  
   271  136  268 1  
   272  139  269 1  
   273  139  270 1  
@<TRIPOS>SUBSTRUCTURE
     1 ACE         1

