5isl_ligand
  -I-interpret- 

 48 48  0  0  0  0  0  0  0  0999 V2000
  -22.8010   18.8000    8.5010 O   0  0  0  0  0
  -23.5420   19.3660    7.6540 C   0  0  0  0  0
  -24.2460   20.3580    7.9720 O   0  0  0  0  0
  -23.5820   18.8320    6.2280 C   0  0  0  0  0
  -23.7580   19.6900    5.1490 C   0  0  0  0  0
  -23.4320   17.4720    6.0090 C   0  0  0  0  0
  -23.4730   17.0160    4.7070 C   0  0  0  0  0
  -23.6460   17.8380    3.6480 N   0  0  0  0  0
  -23.7880   19.1630    3.8640 C   0  0  0  0  0
  -23.9810   20.0770    2.6570 C   0  0  0  0  0
  -23.3350   19.5430    1.4730 N   0  3  0  0  0
  -21.9330   19.9070    1.4070 C   0  0  0  0  0
  -21.8190   21.1870    0.5860 C   0  0  0  0  0
  -22.7510   21.5900   -0.0250 O   0  0  0  0  0
  -20.6400   21.8440    0.5670 N   0  0  0  0  0
  -19.4730   21.3920    1.3040 C   0  0  0  0  0
  -18.5190   20.6620    0.3620 C   0  0  0  0  0
  -20.4750   23.0670   -0.2010 C   0  0  0  0  0
  -21.2870   24.2240    0.3770 C   0  0  0  0  0
  -21.1710   25.4700   -0.3540 N   0  3  0  0  0
  -21.3930   26.5760    0.5600 C   0  0  0  0  0
  -22.1840   25.4980   -1.3940 C   0  0  0  0  0
  -22.3414   18.0676    8.0838 H   0  0  0  0  0
  -23.8710   20.7623    5.3089 H   0  0  0  0  0
  -23.2859   16.7826    6.8406 H   0  0  0  0  0
  -23.3611   15.9472    4.5249 H   0  0  0  0  0
  -23.5361   21.0457    2.8844 H   0  0  0  0  0
  -25.0492   20.1623    2.4573 H   0  0  0  0  0
  -23.8033   19.9289    0.6531 H   0  0  0  0  0
  -23.3987   18.5256    1.5068 H   0  0  0  0  0
  -21.3570   19.1074    0.9413 H   0  0  0  0  0
  -21.5366   20.0653    2.4099 H   0  0  0  0  0
  -19.7874   20.7130    2.0966 H   0  0  0  0  0
  -18.9639   22.2530    1.7371 H   0  0  0  0  0
  -19.0275   19.8016   -0.0729 H   0  0  0  0  0
  -18.2051   21.3397   -0.4319 H   0  0  0  0  0
  -17.6456   20.3254    0.9206 H   0  0  0  0  0
  -20.8253   22.8802   -1.2161 H   0  0  0  0  0
  -19.4214   23.3451   -0.1743 H   0  0  0  0  0
  -20.9056   24.4087    1.3813 H   0  0  0  0  0
  -22.3352   23.9280    0.3351 H   0  0  0  0  0
  -20.2432   25.5485   -0.7705 H   0  0  0  0  0
  -22.3903   26.4939    0.9922 H   0  0  0  0  0
  -20.6475   26.5443    1.3546 H   0  0  0  0  0
  -21.3073   27.5172    0.0170 H   0  0  0  0  0
  -22.0320   24.6567   -2.0702 H   0  0  0  0  0
  -23.1720   25.4264   -0.9391 H   0  0  0  0  0
  -22.1057   26.4319   -1.9506 H   0  0  0  0  0
  1  2  1  0  0  0
  2  3  2  0  0  0
  2  4  1  0  0  0
  4  5  4  0  0  0
  4  6  4  0  0  0
  5  9  4  0  0  0
  6  7  4  0  0  0
  7  8  4  0  0  0
  8  9  4  0  0  0
  9 10  1  0  0  0
 10 11  1  0  0  0
 11 12  1  0  0  0
 12 13  1  0  0  0
 13 14  2  0  0  0
 13 15  1  0  0  0
 15 16  1  0  0  0
 15 18  1  0  0  0
 16 17  1  0  0  0
 18 19  1  0  0  0
 19 20  1  0  0  0
 20 21  1  0  0  0
 20 22  1  0  0  0
  1 23  1  0  0  0
  5 24  1  0  0  0
  6 25  1  0  0  0
  7 26  1  0  0  0
 10 27  1  0  0  0
 10 28  1  0  0  0
 11 29  1  0  0  0
 11 30  1  0  0  0
 12 31  1  0  0  0
 12 32  1  0  0  0
 16 33  1  0  0  0
 16 34  1  0  0  0
 17 35  1  0  0  0
 17 36  1  0  0  0
 17 37  1  0  0  0
 18 38  1  0  0  0
 18 39  1  0  0  0
 19 40  1  0  0  0
 19 41  1  0  0  0
 20 42  1  0  0  0
 21 43  1  0  0  0
 21 44  1  0  0  0
 21 45  1  0  0  0
 22 46  1  0  0  0
 22 47  1  0  0  0
 22 48  1  0  0  0
M  END
$$$$
