#	Name:			4u0x_ligand
#	Creating user name:	wangrx
#	Creation time:		Thu Aug  5 16:48:30 2021

#	Modifying user name:	wangrx
#	Modification time:	Thu Aug  5 16:49:02 2021

@<TRIPOS>MOLECULE
4u0x_ligand
   36    37     1     0     0
SMALL
GAST_HUCK


@<TRIPOS>ATOM
      1 B1         -6.1440  -12.2450   -9.1060 B         1 ZXM         3.0000 
      2 O1         -6.1200  -13.2120   -7.8560 O.3       1 ZXM        -0.4105 
      3 O2         -6.5310  -10.8400   -8.6980 O.3       1 ZXM        -0.4105 
      4 N4         -2.8690  -11.4190   -8.5630 N.pl3     1 ZXM        -0.1955 
      5 N5         -3.6300  -10.5760   -7.7600 N.2       1 ZXM        -0.0935 
      6 N6         -2.6890   -9.6460   -7.2780 N.2       1 ZXM        -0.2132 
      7 C7         -4.7860  -12.0490   -9.9670 C.3       1 ZXM        -0.1934 
      8 C8         -3.5720  -12.4910   -9.1850 C.3       1 ZXM        -0.0231 
      9 N10        -4.6180  -10.7170  -10.5170 N.am      1 ZXM        -0.4337 
     10 C11        -3.8360  -10.4800  -11.6000 C.2       1 ZXM         0.1614 
     11 C12        -3.9160   -9.1070  -12.1810 C.3       1 ZXM         0.0793 
     12 C13        -2.6610   -8.3670  -11.7760 C.2       1 ZXM         0.0306 
     13 C14        -1.4730   -8.2180  -12.4480 C.2       1 ZXM        -0.0791 
     14 C15        -0.5740   -7.4450  -11.7240 C.2       1 ZXM        -0.0924 
     15 C16        -1.0380   -7.0050  -10.4890 C.2       1 ZXM        -0.0189 
     16 O18        -3.0700  -11.2780  -12.1680 O.2       1 ZXM        -0.3962 
     17 C19        -1.4720   -9.9710   -7.8140 C.2       1 ZXM         0.0941 
     18 C20        -1.5940  -11.0830   -8.6250 C.2       1 ZXM         0.0881 
     19 C21        -0.1790   -9.2730   -7.5900 C.2       1 ZXM         0.0602 
     20 O22         0.7440   -9.4230   -8.4520 O.co2     1 ZXM        -0.5671 
     21 O23        -0.0960   -8.5940   -6.5310 O.co2     1 ZXM        -0.5671 
     22 S24        -2.6240   -7.5800  -10.2090 S.3       1 ZXM        -0.0419 
     23 H1         -5.8750  -14.0856   -8.1375 H         1 ZXM         0.2052 
     24 H2         -5.8750  -14.0856   -8.1375 H         1 ZXM         0.2052 
     25 H3         -5.9010  -10.5093   -8.0686 H         1 ZXM         0.2052 
     26 H4         -5.9009  -10.5093   -8.0686 H         1 ZXM         0.2052 
     27 H6         -4.9545  -12.7562  -10.7925 H         1 ZXM        -0.1795 
     28 H7         -3.8992  -13.1917   -8.4028 H         1 ZXM         0.0317 
     29 H8         -2.8841  -13.0045   -9.8728 H         1 ZXM         0.0317 
     30 H9         -5.0930   -9.9505  -10.0848 H         1 ZXM         0.1461 
     31 H10        -4.8020   -8.5851  -11.7904 H         1 ZXM         0.0684 
     32 H11        -3.9793   -9.1665  -13.2776 H         1 ZXM         0.0684 
     33 H12        -1.2622   -8.6509  -13.4248 H         1 ZXM         0.0284 
     34 H13         0.4202   -7.2017  -12.0959 H         1 ZXM         0.0373 
     35 H14        -0.4715   -6.3824   -9.7980 H         1 ZXM         0.0603 
     36 H15        -0.8070  -11.5764   -9.1934 H         1 ZXM         0.1088 
@<TRIPOS>BOND
     1    1    2 1    
     2    1    3 1    
     3    7    1 1    
     4    4    5 1    
     5    8    4 1    
     6    4   18 1    
     7    5    6 2    
     8    6   17 1    
     9    7    8 1    
    10    7    9 1    
    11    9   10 am   
    12   10   11 1    
    13   10   16 2    
    14   11   12 1    
    15   12   13 2    
    16   12   22 1    
    17   13   14 1    
    18   14   15 2    
    19   15   22 1    
    20   17   18 2    
    21   17   19 1    
    22   19   20 ar   
    23   19   21 ar   
    24    2   23 1    
    25    2   24 1    
    26    3   25 1    
    27    3   26 1    
    28    7   27 1    
    29    8   28 1    
    30    8   29 1    
    31    9   30 1    
    32   11   31 1    
    33   11   32 1    
    34   13   33 1    
    35   14   34 1    
    36   15   35 1    
    37   18   36 1    
@<TRIPOS>SUBSTRUCTURE
     1 ZXM         1 PERM              0 ****  ****    0 ROOT 
