4u0x_ligand

Created by X-TOOL on Fri Nov 18 17:50:32 2016
 37 38  0  0  0  0  0  0  0  0999 V2000
   -6.1440  -12.2450   -9.1060  B 0  0  0  1  0  3
   -6.1200  -13.2120   -7.8560  O 0  0  0  3  0  3
   -6.5310  -10.8400   -8.6980  O 0  0  0  3  0  3
   -2.8690  -11.4190   -8.5630  N 0  0  0  1  0  3
   -3.6300  -10.5760   -7.7600  N 0  0  0  1  0  2
   -2.6890   -9.6460   -7.2780  N 0  0  0  1  0  2
   -4.7860  -12.0490   -9.9670  C 0  0  0  3  0  5
   -3.5720  -12.4910   -9.1850  C 0  0  0  3  0  4
   -4.6180  -10.7170  -10.5170  N 0  0  0  2  0  3
   -3.8360  -10.4800  -11.6000  C 0  0  0  1  0  3
   -3.9160   -9.1070  -12.1810  C 0  0  0  3  0  4
   -2.6610   -8.3670  -11.7760  C 0  0  0  1  0  3
   -1.4730   -8.2180  -12.4480  C 0  0  0  2  0  3
   -0.5740   -7.4450  -11.7240  C 0  0  0  2  0  3
   -1.0380   -7.0050  -10.4890  C 0  0  0  2  0  3
   -3.0700  -11.2780  -12.1680  O 0  0  0  1  0  1
   -1.4720   -9.9710   -7.8140  C 0  0  0  1  0  3
   -1.5940  -11.0830   -8.6250  C 0  0  0  2  0  3
   -0.1790   -9.2730   -7.5900  C 0  5  0  1  0  3
    0.7440   -9.4230   -8.4520  O 0  0  0  1  0  1
   -0.0960   -8.5940   -6.5310  O 0  0  0  1  0  1
   -2.6240   -7.5800  -10.2090  S 0  0  0  1  0  2
   -5.8750  -14.0856   -8.1375  H 0  0  0  1  0  1
   -5.8750  -14.0856   -8.1375  H 0  0  0  1  0  1
   -5.9010  -10.5093   -8.0686  H 0  0  0  1  0  1
   -5.9009  -10.5093   -8.0686  H 0  0  0  1  0  1
   -5.6597  -12.0505   -9.2988  H 0  0  0  1  0  1
   -4.9545  -12.7562  -10.7925  H 0  0  0  1  0  1
   -3.8992  -13.1917   -8.4028  H 0  0  0  1  0  1
   -2.8841  -13.0045   -9.8728  H 0  0  0  1  0  1
   -5.0930   -9.9505  -10.0848  H 0  0  0  1  0  1
   -4.8020   -8.5851  -11.7904  H 0  0  0  1  0  1
   -3.9793   -9.1665  -13.2776  H 0  0  0  1  0  1
   -1.2622   -8.6509  -13.4248  H 0  0  0  1  0  1
    0.4202   -7.2017  -12.0959  H 0  0  0  1  0  1
   -0.4715   -6.3824   -9.7980  H 0  0  0  1  0  1
   -0.8070  -11.5764   -9.1934  H 0  0  0  1  0  1
  1  2  1  0  0  2
  1  3  1  0  0  2
  7  1  1  0  0  2
  4  5  1  0  0  1
  8  4  1  0  0  2
  4 18  1  0  0  1
  5  6  2  0  0  1
  6 17  1  0  0  1
  7  8  1  0  0  2
  7  9  1  0  0  2
  9 10  1  0  0  2
 10 11  1  0  0  2
 10 16  2  0  0  2
 11 12  1  0  0  2
 12 13  2  0  0  1
 12 22  1  0  0  1
 13 14  1  0  0  1
 14 15  2  0  0  1
 15 22  1  0  0  1
 17 18  2  0  0  1
 17 19  1  0  0  2
 19 20  2  0  0  2
 19 21  2  0  0  2
  2 23  1  0  0  2
  2 24  1  0  0  2
  3 25  1  0  0  2
  3 26  1  0  0  2
  7 27  1  0  0  2
  7 28  1  0  0  2
  8 29  1  0  0  2
  8 30  1  0  0  2
  9 31  1  0  0  2
 11 32  1  0  0  2
 11 33  1  0  0  2
 13 34  1  0  0  2
 14 35  1  0  0  2
 15 36  1  0  0  2
 18 37  1  0  0  2
M  END
> <MOLECULAR_FORMULA>
C11H15N4O5SB

> <MOLECULAR_WEIGHT>
326.0

> <NUM_HB_ATOMS>
9  

> <NUM_ROTOR>
6  

> <XLOGP2>
-1.40

$$$$
