4ph4_ligand
  -I-interpret- 

 41 44  0  0  0  0  0  0  0  0999 V2000
    2.2840    6.5480  -13.6430 C   0  0  0  0  0
    1.2660    5.6310  -13.3650 C   0  0  0  0  0
    0.8130    4.7170  -14.4500 C   0  0  0  0  0
   -1.1500   -0.5540  -13.5680 C   0  0  0  0  0
    0.6990    5.7340  -12.0710 C   0  0  0  0  0
   -0.2390    4.7190  -11.4580 C   0  0  0  0  0
   -1.6710    5.1860  -11.1720 C   0  0  0  0  0
   -2.1770    4.9440   -9.7920 C   0  0  0  0  0
   -1.9040    6.3390  -10.2440 C   0  0  0  0  0
    2.3340    8.5840  -10.8150 N   0  0  0  0  0
    2.0370    7.5710  -11.6340 C   0  0  0  0  0
    1.0760    6.7120  -11.2270 N   0  0  0  0  0
    2.6850    7.5190  -12.8180 N   0  0  0  0  0
    0.3640    3.5030  -14.0780 N   0  0  0  0  0
    0.0640    2.6450  -15.0710 C   0  0  0  0  0
    0.1580    2.8890  -16.3880 N   0  0  0  0  0
    0.5970    4.1110  -16.7150 C   0  0  0  0  0
    0.9350    5.0680  -15.7880 C   0  0  0  0  0
   -0.3610    1.3920  -14.7520 N   0  0  0  0  0
   -0.5820    0.7160  -13.5360 C   0  0  0  0  0
   -1.3680   -1.2040  -12.3630 C   0  0  0  0  0
   -1.0530   -0.6880  -11.1710 N   0  0  0  0  0
   -0.4950    0.5280  -11.1620 C   0  0  0  0  0
   -0.2480    1.2720  -12.3040 C   0  0  0  0  0
    2.7885    6.4643  -14.6056 H   0  0  0  0  0
   -1.4162   -1.0247  -14.5144 H   0  0  0  0  0
    0.1906    4.4606  -10.4901 H   0  0  0  0  0
   -0.3267    3.9137  -12.1873 H   0  0  0  0  0
   -1.9986    4.9602  -12.1868 H   0  0  0  0  0
   -1.9467    4.3038   -8.9404 H   0  0  0  0  0
   -2.9770    4.3878   -9.3035 H   0  0  0  0  0
   -2.3997    7.3097  -10.2515 H   0  0  0  0  0
   -1.3783    7.2265   -9.8916 H   0  0  0  0  0
    1.8424    8.6826   -9.9267 H   0  0  0  0  0
    3.0523    9.2587  -11.0780 H   0  0  0  0  0
    0.6913    4.3600  -17.7720 H   0  0  0  0  0
    1.2826    6.0563  -16.0891 H   0  0  0  0  0
   -0.5633    0.8182  -15.5707 H   0  0  0  0  0
   -1.8231   -2.1941  -12.3893 H   0  0  0  0  0
   -0.2185    0.9585  -10.1995 H   0  0  0  0  0
    0.1957    2.2655  -12.2399 H   0  0  0  0  0
  2  1  4  0  0  0
  1 13  4  0  0  0
  3  2  1  0  0  0
  2  5  4  0  0  0
 14  3  4  0  0  0
  3 18  4  0  0  0
 20  4  4  0  0  0
  4 21  4  0  0  0
  5  6  1  0  0  0
  5 12  4  0  0  0
  6  7  1  0  0  0
  7  8  1  0  0  0
  7  9  1  0  0  0
  9  8  1  0  0  0
 11 10  1  0  0  0
 12 11  4  0  0  0
 13 11  4  0  0  0
 15 14  4  0  0  0
 15 16  4  0  0  0
 19 15  1  0  0  0
 16 17  4  0  0  0
 17 18  4  0  0  0
 19 20  1  0  0  0
 20 24  4  0  0  0
 21 22  4  0  0  0
 22 23  4  0  0  0
 23 24  4  0  0  0
  1 25  1  0  0  0
  4 26  1  0  0  0
  6 27  1  0  0  0
  6 28  1  0  0  0
  7 29  1  0  0  0
  8 30  1  0  0  0
  8 31  1  0  0  0
  9 32  1  0  0  0
  9 33  1  0  0  0
 10 34  1  0  0  0
 10 35  1  0  0  0
 17 36  1  0  0  0
 18 37  1  0  0  0
 19 38  1  0  0  0
 21 39  1  0  0  0
 23 40  1  0  0  0
 24 41  1  0  0  0
M  END
$$$$
