3iqj_ligand
  -I-interpret- 

115115  0  0  0  0  0  0  0  0999 V2000
   -9.7640   -7.0550   17.8350 N   0  3  0  0  0
  -10.3000   -7.4540   16.4870 C   0  0  0  0  0
  -11.4680   -8.4110   16.7180 C   0  0  0  0  0
  -11.4770   -9.1230   17.7280 O   0  0  0  0  0
   -9.2270   -8.1280   15.6240 C   0  0  0  0  0
   -8.1160   -7.2460   15.2510 C   0  0  0  0  0
   -6.9580   -7.9490   14.5260 C   0  0  0  0  0
   -6.5840   -9.0800   14.8510 O   0  0  0  0  0
   -6.3700   -7.2490   13.5260 N   0  0  0  0  0
  -12.5090   -8.3460   15.8680 N   0  0  0  0  0
  -13.4880   -9.4240   15.7640 C   0  0  0  0  0
  -12.9180  -10.6340   14.9400 C   0  0  0  0  0
  -12.0660  -10.5660   14.0250 O   0  0  0  0  0
  -14.8780   -8.9440   15.2460 C   0  0  0  0  0
  -13.4370  -11.7410   15.3450 N   0  0  0  0  0
  -13.1140  -12.9950   14.7480 C   0  0  0  0  0
  -13.6060  -12.9990   13.2940 C   0  0  0  0  0
  -14.6000  -12.3410   12.9060 O   0  0  0  0  0
  -13.8540  -14.0350   15.5530 C   0  0  0  0  0
  -13.4700  -13.9650   16.8950 O   0  0  0  0  0
  -12.9390  -13.7680   12.4520 N   0  0  0  0  0
  -13.2090  -13.8830   11.0360 C   0  0  0  0  0
  -14.1670  -15.0910   10.8360 C   0  0  0  0  0
  -13.8770  -16.1670   11.2680 O   0  0  0  0  0
  -11.9680  -14.0820   10.2110 C   0  0  0  0  0
  -11.0130  -13.0750   10.5010 O   0  0  0  0  0
  -12.3230  -14.2670    8.7550 C   0  0  0  0  0
  -15.2550  -14.8740   10.1720 N   0  0  0  0  0
  -16.1560  -15.9830    9.7510 C   0  0  0  0  0
  -17.5700  -15.6930   10.1130 C   0  0  0  0  0
  -17.9840  -14.4400    9.4850 O   0  0  0  0  0
  -15.9020  -16.2320    8.2610 C   0  0  0  0  0
  -15.0720  -15.5830    7.6030 O   0  0  0  0  0
  -19.4080  -13.8520    9.8750 P   0  0  0  0  0
  -19.3720  -13.4770   11.3730 O   0  0  0  0  0
  -20.4700  -14.8850    9.5230 O   0  0  0  0  0
  -19.5030  -12.6020    9.0100 O   0  0  0  0  0
  -16.6040  -17.2130    7.7040 N   0  0  0  0  0
  -16.2850  -17.6560    6.3640 C   0  0  0  0  0
  -16.6740  -16.5920    5.4170 C   0  0  0  0  0
  -17.7700  -16.0490    5.4840 O   0  0  0  0  0
  -17.2540  -18.7950    5.9570 C   0  0  0  0  0
  -17.0280  -19.8470    6.8180 O   0  0  0  0  0
  -16.9920  -19.3200    4.5510 C   0  0  0  0  0
  -15.8080  -16.2830    4.4450 N   0  0  0  0  0
  -16.1460  -15.2460    3.4780 C   0  0  0  0  0
  -16.9760  -15.8090    2.3190 C   0  0  0  0  0
  -17.1510  -17.0950    2.1790 O   0  0  0  0  0
  -14.7550  -14.7910    3.0030 C   0  0  0  0  0
  -13.9540  -16.2160    2.9550 C   0  0  0  0  0
  -14.4190  -16.7920    4.2610 C   0  0  0  0  0
  -17.4950  -14.9310    1.4680 N   0  0  0  0  0
  -18.0810  -15.3500    0.1730 C   0  0  0  0  0
  -17.0820  -16.1560   -0.7180 C   0  0  0  0  0
  -15.9290  -15.7990   -0.6420 O   0  0  0  0  0
  -18.5560  -14.0930   -0.5590 C   0  0  0  0  0
  -19.7810  -13.4270    0.0850 C   0  0  0  0  0
  -20.6330  -14.0370    0.7730 O   0  0  0  0  0
  -19.8240  -12.1310   -0.1200 N   0  0  0  0  0
  -10.5058   -6.6117   18.3769 H   0  0  0  0  0
   -9.4316   -7.8846   18.3265 H   0  0  0  0  0
   -8.9925   -6.3991   17.7123 H   0  0  0  0  0
  -10.6242   -6.5634   15.9485 H   0  0  0  0  0
   -9.7098   -8.4463   14.7000 H   0  0  0  0  0
   -8.8069   -8.9443   16.2116 H   0  0  0  0  0
   -7.7105   -6.8361   16.1760 H   0  0  0  0  0
   -8.5174   -6.5018   14.5631 H   0  0  0  0  0
   -5.5883   -7.6542   13.0110 H   0  0  0  0  0
   -6.7090   -6.3169   13.2882 H   0  0  0  0  0
  -12.6172   -7.5200   15.2795 H   0  0  0  0  0
  -13.6711   -9.7802   16.7777 H   0  0  0  0  0
  -15.2812   -8.1973   15.9301 H   0  0  0  0  0
  -14.7633   -8.5059   14.2545 H   0  0  0  0  0
  -15.5578   -9.7943   15.1925 H   0  0  0  0  0
  -14.1013  -11.7200   16.1187 H   0  0  0  0  0
  -12.0414  -13.1890   14.7429 H   0  0  0  0  0
  -13.6164  -15.0250   15.1637 H   0  0  0  0  0
  -14.9256  -13.8508   15.4771 H   0  0  0  0  0
  -13.9459  -14.6299   17.3980 H   0  0  0  0  0
  -12.1728  -14.3248   12.8307 H   0  0  0  0  0
  -13.6550  -12.9483   10.6961 H   0  0  0  0  0
  -11.4684  -15.0117   10.4833 H   0  0  0  0  0
  -10.2281  -13.2165    9.9667 H   0  0  0  0  0
  -12.9641  -15.1419    8.6470 H   0  0  0  0  0
  -12.8492  -13.3827    8.3955 H   0  0  0  0  0
  -11.4110  -14.4094    8.1753 H   0  0  0  0  0
  -15.5037  -13.9150    9.9293 H   0  0  0  0  0
  -15.9419  -16.9095   10.2839 H   0  0  0  0  0
  -17.6579  -15.6041   11.1958 H   0  0  0  0  0
  -18.2091  -16.5040    9.7637 H   0  0  0  0  0
  -18.6832  -12.8251   11.5221 H   0  0  0  0  0
  -18.8162  -11.9828    9.2679 H   0  0  0  0  0
  -17.3661  -17.6528    8.2199 H   0  0  0  0  0
  -15.2311  -17.9333    6.3430 H   0  0  0  0  0
  -18.2696  -18.4009    5.9945 H   0  0  0  0  0
  -17.6139  -20.5738    6.5941 H   0  0  0  0  0
  -17.1116  -18.5084    3.8333 H   0  0  0  0  0
  -15.9760  -19.7105    4.4938 H   0  0  0  0  0
  -17.7017  -20.1154    4.3235 H   0  0  0  0  0
  -16.7561  -14.4422    3.8901 H   0  0  0  0  0
  -14.2908  -14.0479    3.6514 H   0  0  0  0  0
  -14.7677  -14.2620    2.0501 H   0  0  0  0  0
  -12.8724  -16.1317    2.8492 H   0  0  0  0  0
  -14.1641  -16.8318    2.0805 H   0  0  0  0  0
  -14.3896  -17.8816    4.2514 H   0  0  0  0  0
  -13.7704  -16.4928    5.0843 H   0  0  0  0  0
  -17.4900  -13.9408    1.7127 H   0  0  0  0  0
  -18.9126  -16.0255    0.3736 H   0  0  0  0  0
  -17.3909  -16.0064   -1.7526 H   0  0  0  0  0
  -17.1154  -17.1896   -0.3735 H   0  0  0  0  0
  -15.3878  -16.3441   -1.2178 H   0  0  0  0  0
  -18.8411  -14.3922   -1.5676 H   0  0  0  0  0
  -17.7399  -13.3711   -0.5288 H   0  0  0  0  0
  -20.5749  -11.5746    0.2887 H   0  0  0  0  0
  -19.1065  -11.6804   -0.6880 H   0  0  0  0  0
  1  2  1  0  0  0
  2  3  1  0  0  0
  2  5  1  0  0  0
  3  4  2  0  0  0
  3 10  1  0  0  0
  5  6  1  0  0  0
  6  7  1  0  0  0
  7  8  2  0  0  0
  7  9  1  0  0  0
 10 11  1  0  0  0
 11 12  1  0  0  0
 11 14  1  0  0  0
 12 13  2  0  0  0
 12 15  1  0  0  0
 15 16  1  0  0  0
 16 17  1  0  0  0
 16 19  1  0  0  0
 17 18  2  0  0  0
 17 21  1  0  0  0
 19 20  1  0  0  0
 21 22  1  0  0  0
 22 23  1  0  0  0
 22 25  1  0  0  0
 23 24  2  0  0  0
 23 28  1  0  0  0
 25 26  1  0  0  0
 25 27  1  0  0  0
 28 29  1  0  0  0
 29 30  1  0  0  0
 29 32  1  0  0  0
 30 31  1  0  0  0
 31 34  1  0  0  0
 32 33  2  0  0  0
 32 38  1  0  0  0
 34 35  1  0  0  0
 34 36  2  0  0  0
 34 37  1  0  0  0
 38 39  1  0  0  0
 39 40  1  0  0  0
 39 42  1  0  0  0
 40 41  2  0  0  0
 40 45  1  0  0  0
 42 43  1  0  0  0
 42 44  1  0  0  0
 45 46  1  0  0  0
 45 51  1  0  0  0
 46 47  1  0  0  0
 46 49  1  0  0  0
 47 48  2  0  0  0
 47 52  1  0  0  0
 49 50  1  0  0  0
 50 51  1  0  0  0
 52 53  1  0  0  0
 53 54  1  0  0  0
 53 56  1  0  0  0
 54 55  1  0  0  0
 56 57  1  0  0  0
 57 58  2  0  0  0
 57 59  1  0  0  0
  1 60  1  0  0  0
  1 61  1  0  0  0
  1 62  1  0  0  0
  2 63  1  0  0  0
  5 64  1  0  0  0
  5 65  1  0  0  0
  6 66  1  0  0  0
  6 67  1  0  0  0
  9 68  1  0  0  0
  9 69  1  0  0  0
 10 70  1  0  0  0
 11 71  1  0  0  0
 14 72  1  0  0  0
 14 73  1  0  0  0
 14 74  1  0  0  0
 15 75  1  0  0  0
 16 76  1  0  0  0
 19 77  1  0  0  0
 19 78  1  0  0  0
 20 79  1  0  0  0
 21 80  1  0  0  0
 22 81  1  0  0  0
 25 82  1  0  0  0
 26 83  1  0  0  0
 27 84  1  0  0  0
 27 85  1  0  0  0
 27 86  1  0  0  0
 28 87  1  0  0  0
 29 88  1  0  0  0
 30 89  1  0  0  0
 30 90  1  0  0  0
 35 91  1  0  0  0
 37 92  1  0  0  0
 38 93  1  0  0  0
 39 94  1  0  0  0
 42 95  1  0  0  0
 43 96  1  0  0  0
 44 97  1  0  0  0
 44 98  1  0  0  0
 44 99  1  0  0  0
 46100  1  0  0  0
 49101  1  0  0  0
 49102  1  0  0  0
 50103  1  0  0  0
 50104  1  0  0  0
 51105  1  0  0  0
 51106  1  0  0  0
 52107  1  0  0  0
 53108  1  0  0  0
 54109  1  0  0  0
 54110  1  0  0  0
 55111  1  0  0  0
 56112  1  0  0  0
 56113  1  0  0  0
 59114  1  0  0  0
 59115  1  0  0  0
M  END
$$$$
