### 
### Created by X-TOOL on Mon Sep 10 21:13:02 2018
### 

@<TRIPOS>MOLECULE
3iqj_ligand
  113   113     1     0     0
SMALL
GAST_HUCK


@<TRIPOS>ATOM
      1 N          -9.7640   -7.0550   17.8350 N.4       1 GLN         0.2380
      2 CA        -10.3000   -7.4540   16.4870 C.3       1 GLN         0.0671
      3 C         -11.4680   -8.4110   16.7180 C.2       1 GLN         0.2268
      4 O         -11.4770   -9.1230   17.7280 O.2       1 GLN        -0.3907
      5 CB         -9.2270   -8.1280   15.6240 C.3       1 GLN         0.0247
      6 CG         -8.1160   -7.2460   15.2510 C.3       1 GLN         0.0443
      7 CD         -6.9580   -7.9490   14.5260 C.2       1 GLN         0.1738
      8 OE1        -6.5840   -9.0800   14.8510 O.2       1 GLN        -0.3973
      9 NE2        -6.3700   -7.2490   13.5260 N.am      1 GLN        -0.3009
     10 N         -12.5090   -8.3460   15.8680 N.am      1 ARG        -0.2613
     11 CA        -13.4880   -9.4240   15.7640 C.3       1 ARG         0.1283
     12 C         -12.9180  -10.6340   14.9400 C.2       1 ARG         0.2037
     13 O         -12.0660  -10.5660   14.0250 O.2       1 ARG        -0.3944
     14 CB        -14.8780   -8.9440   15.2460 C.3       1 ARG        -0.0244
     15 N         -13.4370  -11.7410   15.3450 N.am      1 SER        -0.2616
     16 CA        -13.1140  -12.9950   14.7480 C.3       1 SER         0.1539
     17 C         -13.6060  -12.9990   13.2940 C.2       1 SER         0.2063
     18 O         -14.6000  -12.3410   12.9060 O.2       1 SER        -0.3943
     19 CB        -13.8540  -14.0350   15.5530 C.3       1 SER         0.0843
     20 OG        -13.4700  -13.9650   16.8950 O.3       1 SER        -0.3903
     21 N         -12.9390  -13.7680   12.4520 N.am      1 THR        -0.2613
     22 CA        -13.2090  -13.8830   11.0360 C.3       1 THR         0.1565
     23 C         -14.1670  -15.0910   10.8360 C.2       1 THR         0.2065
     24 O         -13.8770  -16.1670   11.2680 O.2       1 THR        -0.3943
     25 CB        -11.9680  -14.0820   10.2110 C.3       1 THR         0.0924
     26 OG1       -11.0130  -13.0750   10.5010 O.3       1 THR        -0.3874
     27 CG2       -12.3230  -14.2670    8.7550 C.3       1 THR        -0.0346
     28 N         -15.2550  -14.8740   10.1720 N.am      1 SEP        -0.2612
     29 CA        -16.1560  -15.9830    9.7510 C.3       1 SEP         0.1586
     30 CB        -17.5700  -15.6930   10.1130 C.3       1 SEP         0.1184
     31 OG        -17.9840  -14.4400    9.4850 O.3       1 SEP        -0.2714
     32 C         -15.9020  -16.2320    8.2610 C.2       1 SEP         0.2066
     33 O         -15.0720  -15.5830    7.6030 O.2       1 SEP        -0.3943
     34 P         -19.4080  -13.8520    9.8750 P.3       1 SEP         0.2010
     35 O1P       -19.3720  -13.4770   11.3730 O.co2     1 SEP        -0.5537
     36 O2P       -20.4700  -14.8850    9.5230 O.co2     1 SEP        -0.5537
     37 O3P       -19.5030  -12.6020    9.0100 O.co2     1 SEP        -0.5537
     38 N         -16.6040  -17.2130    7.7040 N.am      1 THR        -0.2613
     39 CA        -16.2850  -17.6560    6.3640 C.3       1 THR         0.1567
     40 C         -16.6740  -16.5920    5.4170 C.2       1 THR         0.2090
     41 O         -17.7700  -16.0490    5.4840 O.2       1 THR        -0.3941
     42 CB        -17.2540  -18.7950    5.9570 C.3       1 THR         0.0924
     43 OG1       -17.0280  -19.8470    6.8180 O.3       1 THR        -0.3874
     44 CG2       -16.9920  -19.3200    4.5510 C.3       1 THR        -0.0346
     45 N         -15.8080  -16.2830    4.4450 N.am      1 PRO        -0.2498
     46 CA        -16.1460  -15.2460    3.4780 C.3       1 PRO         0.1336
     47 C         -16.9760  -15.8090    2.3190 C.2       1 PRO         0.2023
     48 O         -17.1510  -17.0950    2.1790 O.2       1 PRO        -0.3945
     49 CB        -14.7550  -14.7910    3.0030 C.3       1 PRO        -0.0104
     50 CG        -13.9540  -16.2160    2.9550 C.3       1 PRO        -0.0281
     51 CD        -14.4190  -16.7920    4.2610 C.3       1 PRO         0.0369
     52 N         -17.4950  -14.9310    1.4680 N.am      1 ASN        -0.2775
     53 CA        -18.0810  -15.3500    0.1730 C.3       1 ASN         0.0817
     54 C         -17.0820  -16.1560   -0.7180 C.3       1 ASN         0.0692
     55 O         -15.9290  -15.7990   -0.6420 O.3       1 ASN        -0.3926
     56 CB        -18.5560  -14.0930   -0.5590 C.3       1 ASN         0.0621
     57 CG        -19.7810  -13.4270    0.0850 C.2       1 ASN         0.1758
     58 OD1       -20.6330  -14.0370    0.7730 O.2       1 ASN        -0.3972
     59 ND2       -19.8240  -12.1310   -0.1200 N.am      1 ASN        -0.3008
     60 H1         -8.9895   -6.4213   17.7144 H         1 GLN         0.2015
     61 H2         -9.4523   -7.8764   18.3292 H         1 GLN         0.2015
     62 H3        -10.4911   -6.6000   18.3645 H         1 GLN         0.2015
     63 H4        -10.6600   -6.5567   15.9624 H         1 GLN         0.1100
     64 H5         -9.7038   -8.4915   14.7018 H         1 GLN         0.0370
     65 H6         -8.8174   -8.9805   16.1857 H         1 GLN         0.0370
     66 H7         -7.7186   -6.7876   16.1686 H         1 GLN         0.0506
     67 H8         -8.5088   -6.4603   14.5890 H         1 GLN         0.0506
     68 H9         -5.6102   -7.6503   13.0144 H         1 GLN         0.1814
     69 H10        -6.6958   -6.3311   13.2995 H         1 GLN         0.1814
     70 H11       -12.6151   -7.5362   15.2910 H         1 ARG         0.1884
     71 H12       -13.6539   -9.7929   16.7869 H         1 ARG         0.0797
     72 H13       -15.5650   -9.8013   15.1916 H         1 ARG         0.0277
     73 H14       -14.7637   -8.5017   14.2454 H         1 ARG         0.0277
     74 H15       -15.2861   -8.1904   15.9356 H         1 ARG         0.0277
     75 H16       -14.0883  -11.7204   16.1035 H         1 SER         0.1884
     76 H17       -12.0298  -13.1780   14.7796 H         1 SER         0.0823
     77 H18       -13.6196  -15.0349   15.1591 H         1 SER         0.0606
     78 H19       -14.9362  -13.8542   15.4742 H         1 SER         0.0606
     79 H20       -13.6732  -13.1022   17.2368 H         1 SER         0.2097
     80 H21       -12.1879  -14.3139   12.8233 H         1 THR         0.1884
     81 H22       -13.7057  -12.9623   10.6961 H         1 THR         0.0826
     82 H23       -11.5143  -15.0306   10.5338 H         1 THR         0.0639
     83 H24       -10.2363  -13.2151    9.9723 H         1 THR         0.2101
     84 H25       -11.4034  -14.4109    8.1688 H         1 THR         0.0257
     85 H26       -12.8541  -13.3752    8.3909 H         1 THR         0.0257
     86 H27       -12.9700  -15.1497    8.6446 H         1 THR         0.0257
     87 H28       -15.4988  -13.9338    9.9340 H         1 SEP         0.1884
     88 H29       -15.8665  -16.8937   10.2958 H         1 SEP         0.0827
     89 H30       -17.6581  -15.6026   11.2057 H         1 SEP         0.0662
     90 H31       -18.2147  -16.5112    9.7596 H         1 SEP         0.0662
     91 H32       -17.3512  -17.6442    8.2098 H         1 THR         0.1884
     92 H33       -15.2270  -17.9440    6.2770 H         1 THR         0.0826
     93 H34       -18.2928  -18.4414    6.0337 H         1 THR         0.0639
     94 H35       -16.1248  -20.1310    6.7391 H         1 THR         0.2101
     95 H36       -17.7076  -20.1229    4.3202 H         1 THR         0.0257
     96 H37       -15.9669  -19.7145    4.4920 H         1 THR         0.0257
     97 H38       -17.1124  -18.5018    3.8257 H         1 THR         0.0257
     98 H39       -16.6955  -14.4203    3.9537 H         1 PRO         0.0802
     99 H40       -14.2935  -14.0931    3.7171 H         1 PRO         0.0313
    100 H41       -14.8020  -14.3213    2.0094 H         1 PRO         0.0313
    101 H42       -12.8633  -16.0753    2.9315 H         1 PRO         0.0287
    102 H43       -14.2626  -16.8338    2.0988 H         1 PRO         0.0287
    103 H44       -14.4140  -17.8912    4.2205 H         1 PRO         0.0524
    104 H45       -13.7724  -16.4524    5.0835 H         1 PRO         0.0524
    105 H46       -17.4901  -13.9602    1.7079 H         1 ASN         0.1857
    106 H47       -18.9491  -15.9942    0.3765 H         1 ASN         0.0604
    107 H48       -17.4020  -16.0566   -1.7657 H         1 ASN         0.0582
    108 H49       -17.1327  -17.2130   -0.4178 H         1 ASN         0.0582
    109 H50       -15.3934  -16.3385   -1.2118 H         1 ASN         0.2095
    110 H51       -18.8145  -14.3697   -1.5917 H         1 ASN         0.0526
    111 H52       -17.7312  -13.3653   -0.5699 H         1 ASN         0.0526
    112 H53       -20.5781  -11.5905    0.2531 H         1 ASN         0.1814
    113 H54       -19.1026  -11.6843   -0.6493 H         1 ASN         0.1814
@<TRIPOS>BOND
     1    1    2 1  
     2    2    3 1  
     3    2    5 1  
     4    3    4 2  
     5    3   10 am 
     6    5    6 1  
     7    6    7 1  
     8    7    8 2  
     9    7    9 am 
    10   10   11 1  
    11   11   12 1  
    12   11   14 1  
    13   12   13 2  
    14   12   15 am 
    15   15   16 1  
    16   16   17 1  
    17   16   19 1  
    18   17   18 2  
    19   17   21 am 
    20   19   20 1  
    21   21   22 1  
    22   22   23 1  
    23   22   25 1  
    24   23   24 2  
    25   23   28 am 
    26   25   26 1  
    27   25   27 1  
    28   28   29 1  
    29   29   30 1  
    30   29   32 1  
    31   30   31 1  
    32   31   34 1  
    33   32   33 2  
    34   32   38 am 
    35   34   35 ar 
    36   34   36 ar 
    37   34   37 ar 
    38   38   39 1  
    39   39   40 1  
    40   39   42 1  
    41   40   41 2  
    42   40   45 am 
    43   42   43 1  
    44   42   44 1  
    45   45   46 1  
    46   45   51 1  
    47   46   47 1  
    48   46   49 1  
    49   47   48 2  
    50   47   52 am 
    51   49   50 1  
    52   50   51 1  
    53   52   53 1  
    54   53   54 1  
    55   53   56 1  
    56   54   55 1  
    57   56   57 1  
    58   57   58 2  
    59   57   59 am 
    60    1   60 1  
    61    1   61 1  
    62    1   62 1  
    63    2   63 1  
    64    5   64 1  
    65    5   65 1  
    66    6   66 1  
    67    6   67 1  
    68    9   68 1  
    69    9   69 1  
    70   10   70 1  
    71   11   71 1  
    72   14   72 1  
    73   14   73 1  
    74   14   74 1  
    75   15   75 1  
    76   16   76 1  
    77   19   77 1  
    78   19   78 1  
    79   20   79 1  
    80   21   80 1  
    81   22   81 1  
    82   25   82 1  
    83   26   83 1  
    84   27   84 1  
    85   27   85 1  
    86   27   86 1  
    87   28   87 1  
    88   29   88 1  
    89   30   89 1  
    90   30   90 1  
    91   38   91 1  
    92   39   92 1  
    93   42   93 1  
    94   43   94 1  
    95   44   95 1  
    96   44   96 1  
    97   44   97 1  
    98   46   98 1  
    99   49   99 1  
   100   49  100 1  
   101   50  101 1  
   102   50  102 1  
   103   51  103 1  
   104   51  104 1  
   105   52  105 1  
   106   53  106 1  
   107   54  107 1  
   108   54  108 1  
   109   55  109 1  
   110   56  110 1  
   111   56  111 1  
   112   59  112 1  
   113   59  113 1  
@<TRIPOS>SUBSTRUCTURE
     1 GLN         1

