2tsr_ligand
  -I-interpret- 

 54 56  0  0  0  0  0  0  0  0999 V2000
   39.1340   30.1890    2.6130 N   0  0  0  0  0
   39.5290   30.4630    3.9750 C   0  0  0  0  0
   40.8200   29.9260    4.5360 C   0  0  0  0  0
   38.6750   31.2590    4.7930 N   0  0  0  0  0
   37.4440   31.8000    4.3280 C   0  0  0  0  0
   36.7240   32.4780    5.0320 O   0  0  0  0  0
   37.0770   31.4820    2.8850 C   0  0  0  0  0
   35.8940   31.9540    2.2970 C   0  0  0  0  0
   35.5130   31.6780    0.9370 C   0  0  0  0  0
   36.4190   30.8610    0.1560 C   0  0  0  0  0
   37.6370   30.3590    0.7200 C   0  0  0  0  0
   37.9400   30.6790    2.0670 C   0  0  0  0  0
   34.1590   32.2570    0.3350 C   0  0  0  0  0
   33.6280   33.6170    0.9020 N   0  0  0  0  0
   35.8940   36.7480    0.0950 C   0  0  0  0  0
   35.7710   35.0630   -0.2660 S   0  0  0  0  0
   34.3880   34.8430    0.7490 C   0  0  0  0  0
   34.1040   36.0420    1.3380 C   0  0  0  0  0
   34.9270   37.1180    0.9620 C   0  0  0  0  0
   37.0250   37.5270   -0.5970 C   0  0  0  0  0
   37.7030   36.9240   -1.4480 O   0  0  0  0  0
   37.1470   38.8790   -0.3550 N   0  0  0  0  0
   38.1930   39.6160   -1.1010 C   0  0  0  0  0
   37.9850   39.6300   -2.6910 C   0  0  0  0  0
   38.8180   38.6710   -3.6730 C   0  0  0  0  0
   38.7030   39.0220   -5.2190 C   0  0  0  0  0
   38.9720   38.0970   -6.0100 O   0  0  0  0  0
   38.3600   40.1840   -5.5030 O   0  0  0  0  0
   38.4560   41.0000   -0.3760 C   0  0  0  0  0
   38.0770   41.0790    0.8130 O   0  0  0  0  0
   39.0140   41.8760   -1.0640 O   0  0  0  0  0
   32.2070   33.6530    1.2850 C   0  0  0  0  0
   40.8092   28.8370    4.4907 H   0  0  0  0  0
   41.6559   30.3071    3.9494 H   0  0  0  0  0
   40.9256   30.2468    5.5724 H   0  0  0  0  0
   38.9590   31.4491    5.7541 H   0  0  0  0  0
   35.2257   32.5642    2.9045 H   0  0  0  0  0
   36.1701   30.6240   -0.8784 H   0  0  0  0  0
   38.3148   29.7452    0.1267 H   0  0  0  0  0
   33.3937   31.5211    0.5818 H   0  0  0  0  0
   34.3662   32.4431   -0.7188 H   0  0  0  0  0
   33.2906   36.1574    2.0544 H   0  0  0  0  0
   34.7990   38.1363    1.3290 H   0  0  0  0  0
   36.5396   39.3538    0.3128 H   0  0  0  0  0
   39.1375   39.0736   -1.0583 H   0  0  0  0  0
   38.3062   40.6306   -2.9804 H   0  0  0  0  0
   36.9569   39.2900   -2.8157 H   0  0  0  0  0
   38.4121   37.6670   -3.5488 H   0  0  0  0  0
   39.8682   38.7832   -3.4037 H   0  0  0  0  0
   39.2056   37.3099   -5.5126 H   0  0  0  0  0
   37.6801   40.2458    1.0772 H   0  0  0  0  0
   31.5914   33.4297    0.4136 H   0  0  0  0  0
   32.0225   32.9109    2.0617 H   0  0  0  0  0
   31.9587   34.6450    1.6622 H   0  0  0  0  0
  1  2  2  0  0  0
 12  1  1  0  0  0
  2  3  1  0  0  0
  4  2  1  0  0  0
  5  4  1  0  0  0
  5  6  2  0  0  0
  7  5  1  0  0  0
  8  7  4  0  0  0
  7 12  4  0  0  0
  9  8  4  0  0  0
  9 10  4  0  0  0
 13  9  1  0  0  0
 10 11  4  0  0  0
 11 12  4  0  0  0
 14 13  1  0  0  0
 17 14  1  0  0  0
 14 32  1  0  0  0
 16 15  4  0  0  0
 15 19  4  0  0  0
 15 20  1  0  0  0
 16 17  4  0  0  0
 17 18  4  0  0  0
 18 19  4  0  0  0
 20 21  2  0  0  0
 20 22  1  0  0  0
 22 23  1  0  0  0
 23 24  1  0  0  0
 23 29  1  0  0  0
 24 25  1  0  0  0
 25 26  1  0  0  0
 26 27  1  0  0  0
 26 28  2  0  0  0
 29 30  1  0  0  0
 29 31  2  0  0  0
  3 33  1  0  0  0
  3 34  1  0  0  0
  3 35  1  0  0  0
  4 36  1  0  0  0
  8 37  1  0  0  0
 10 38  1  0  0  0
 11 39  1  0  0  0
 13 40  1  0  0  0
 13 41  1  0  0  0
 18 42  1  0  0  0
 19 43  1  0  0  0
 22 44  1  0  0  0
 23 45  1  0  0  0
 24 46  1  0  0  0
 24 47  1  0  0  0
 25 48  1  0  0  0
 25 49  1  0  0  0
 27 50  1  0  0  0
 30 51  1  0  0  0
 32 52  1  0  0  0
 32 53  1  0  0  0
 32 54  1  0  0  0
M  END
$$$$
