4azb_ligand
  -I-interpret- 

 44 45  0  0  0  0  0  0  0  0999 V2000
   36.2290   15.4990  -16.9760 C   0  0  0  0  0
   36.0890   15.6870  -18.4950 C   0  0  0  0  0
   35.1340   15.2160  -19.1050 O   0  0  0  0  0
   37.0720   16.3670  -19.0730 N   0  0  0  0  0
   37.0880   16.6630  -20.5130 C   0  0  0  0  0
   36.1550   17.8340  -20.7770 C   0  0  0  0  0
   36.8930   19.0390  -20.6260 O   0  0  0  0  0
   35.6090   17.7210  -22.1930 C   0  0  0  0  0
   34.8660   18.8830  -22.5290 O   0  0  0  0  0
   34.6940   16.5080  -22.2470 C   0  0  0  0  0
   34.0150   16.3380  -23.6270 C   0  0  0  0  0
   35.0190   16.1560  -24.6290 O   0  0  0  0  0
   35.4530   15.3260  -21.9630 O   0  0  0  0  0
   36.6650   15.4490  -21.3560 C   0  0  0  0  0
   37.4820   14.4230  -21.5400 N   0  0  0  0  0
   36.9510   13.4310  -22.3060 O   0  0  0  0  0
   37.8850   12.6740  -22.9320 C   0  0  0  0  0
   39.0950   12.8000  -22.7140 O   0  0  0  0  0
   37.3980   11.7680  -23.7760 N   0  0  0  0  0
   36.0780   11.6710  -24.0140 C   0  0  0  0  0
   35.3040   10.7230  -23.3580 C   0  0  0  0  0
   33.9460   10.6240  -23.6230 C   0  0  0  0  0
   33.3400   11.4800  -24.5410 C   0  0  0  0  0
   34.1070   12.4290  -25.2010 C   0  0  0  0  0
   35.4720   12.5180  -24.9380 C   0  0  0  0  0
   35.3661   15.9387  -16.4757 H   0  0  0  0  0
   36.2806   14.4348  -16.7461 H   0  0  0  0  0
   37.1392   15.9907  -16.6327 H   0  0  0  0  0
   37.8457   16.6967  -18.4959 H   0  0  0  0  0
   38.1079   16.9133  -20.8049 H   0  0  0  0  0
   35.3205   17.8303  -20.0758 H   0  0  0  0  0
   37.2305   19.0960  -19.7291 H   0  0  0  0  0
   36.4323   17.6190  -22.9001 H   0  0  0  0  0
   35.4418   19.6504  -22.4956 H   0  0  0  0  0
   33.9118   16.6625  -21.5037 H   0  0  0  0  0
   33.4276   17.2271  -23.8565 H   0  0  0  0  0
   33.3588   15.4679  -23.6059 H   0  0  0  0  0
   34.5990   16.0504  -25.4858 H   0  0  0  0  0
   38.0392   11.1338  -24.2524 H   0  0  0  0  0
   35.7654   10.0538  -22.6318 H   0  0  0  0  0
   33.3482    9.8710  -23.1094 H   0  0  0  0  0
   32.2708   11.4043  -24.7390 H   0  0  0  0  0
   33.6435   13.1021  -25.9223 H   0  0  0  0  0
   36.0735   13.2604  -25.4624 H   0  0  0  0  0
  1  2  1  0  0  0
  2  3  2  0  0  0
  2  4  1  0  0  0
  4  5  1  0  0  0
  5  6  1  0  0  0
  5 14  1  0  0  0
  6  7  1  0  0  0
  6  8  1  0  0  0
  8  9  1  0  0  0
  8 10  1  0  0  0
 10 11  1  0  0  0
 10 13  1  0  0  0
 11 12  1  0  0  0
 13 14  1  0  0  0
 14 15  2  0  0  0
 15 16  1  0  0  0
 16 17  1  0  0  0
 17 18  2  0  0  0
 17 19  1  0  0  0
 19 20  1  0  0  0
 20 21  4  0  0  0
 20 25  4  0  0  0
 21 22  4  0  0  0
 22 23  4  0  0  0
 23 24  4  0  0  0
 24 25  4  0  0  0
  1 26  1  0  0  0
  1 27  1  0  0  0
  1 28  1  0  0  0
  4 29  1  0  0  0
  5 30  1  0  0  0
  6 31  1  0  0  0
  7 32  1  0  0  0
  8 33  1  0  0  0
  9 34  1  0  0  0
 10 35  1  0  0  0
 11 36  1  0  0  0
 11 37  1  0  0  0
 12 38  1  0  0  0
 19 39  1  0  0  0
 21 40  1  0  0  0
 22 41  1  0  0  0
 23 42  1  0  0  0
 24 43  1  0  0  0
 25 44  1  0  0  0
M  END
$$$$
