1lox_ligand
  -I-interpret- 

 39 39  0  0  0  0  0  0  0  0999 V2000
  -28.2720  148.8510   55.7670 C   0  0  0  0  0
  -27.0700  149.1660   55.6110 O   0  0  0  0  0
  -28.6420  147.6640   55.6810 O   0  0  0  0  0
  -29.2890  149.8560   56.0700 C   0  0  0  0  0
  -29.0240  151.2110   56.2310 C   0  0  0  0  0
  -30.0100  152.0900   56.6730 C   0  0  0  0  0
  -31.3490  151.7020   56.5830 C   0  0  0  0  0
  -32.3620  152.4400   57.2150 C   0  0  0  0  0
  -32.0480  153.5860   57.9550 C   0  0  0  0  0
  -30.7210  154.0030   58.0660 C   0  0  0  0  0
  -29.7040  153.2740   57.4400 C   0  0  0  0  0
  -28.3750  153.6140   57.7750 C   0  0  0  0  0
  -27.0220  153.8520   58.0880 C   0  0  0  0  0
  -25.5530  153.9750   58.4200 C   0  0  0  0  0
  -25.0390  152.6490   58.9670 C   0  0  0  0  0
  -24.9570  151.5670   57.9010 C   0  0  0  0  0
  -23.8630  151.8470   56.8870 C   0  0  0  0  0
  -23.9060  150.8290   55.7600 C   0  0  0  0  0
  -22.7690  151.0690   54.8000 C   0  0  0  0  0
  -26.9735  150.1158   55.7121 H   0  0  0  0  0
  -30.3210  149.5217   56.1765 H   0  0  0  0  0
  -28.0276  151.5922   56.0075 H   0  0  0  0  0
  -31.6115  150.8112   56.0124 H   0  0  0  0  0
  -33.4000  152.1186   57.1290 H   0  0  0  0  0
  -32.8401  154.1526   58.4445 H   0  0  0  0  0
  -30.4767  154.8966   58.6404 H   0  0  0  0  0
  -25.4155  154.7536   59.1703 H   0  0  0  0  0
  -24.9985  154.2336   57.5179 H   0  0  0  0  0
  -25.7353  152.3109   59.7344 H   0  0  0  0  0
  -24.0337  152.8139   59.3548 H   0  0  0  0  0
  -25.9102  151.5365   57.3733 H   0  0  0  0  0
  -24.7307  150.6211   58.3931 H   0  0  0  0  0
  -22.8953  151.7828   57.3844 H   0  0  0  0  0
  -24.0142  152.8426   56.4699 H   0  0  0  0  0
  -24.8512  150.9268   55.2260 H   0  0  0  0  0
  -23.8139  149.8273   56.1797 H   0  0  0  0  0
  -22.8549  152.0713   54.3804 H   0  0  0  0  0
  -21.8214  150.9758   55.3305 H   0  0  0  0  0
  -22.8114  150.3328   53.9973 H   0  0  0  0  0
  1  4  1  0  0  0
  1  3  2  0  0  0
  1  2  1  0  0  0
  4  5  2  0  0  0
  5  6  1  0  0  0
  6 11  4  0  0  0
  6  7  4  0  0  0
  7  8  4  0  0  0
  8  9  4  0  0  0
  9 10  4  0  0  0
 10 11  4  0  0  0
 11 12  1  0  0  0
 12 13  3  0  0  0
 13 14  1  0  0  0
 14 15  1  0  0  0
 15 16  1  0  0  0
 16 17  1  0  0  0
 17 18  1  0  0  0
 18 19  1  0  0  0
  2 20  1  0  0  0
  4 21  1  0  0  0
  5 22  1  0  0  0
  7 23  1  0  0  0
  8 24  1  0  0  0
  9 25  1  0  0  0
 10 26  1  0  0  0
 14 27  1  0  0  0
 14 28  1  0  0  0
 15 29  1  0  0  0
 15 30  1  0  0  0
 16 31  1  0  0  0
 16 32  1  0  0  0
 17 33  1  0  0  0
 17 34  1  0  0  0
 18 35  1  0  0  0
 18 36  1  0  0  0
 19 37  1  0  0  0
 19 38  1  0  0  0
 19 39  1  0  0  0
M  END
$$$$
