2vr4_ligand
  -I-interpret- 

 39 39  0  0  0  0  0  0  0  0999 V2000
   29.5950   46.6310   -6.3240 C   0  0  0  0  0
   27.4400   45.8710   -0.5910 C   0  0  0  0  0
   27.8810   47.1310    0.2300 C   0  0  0  0  0
   27.5730   48.4660   -0.5100 C   0  0  0  0  0
   26.4470   48.2670   -1.5740 C   0  0  0  0  0
   26.0000   49.5260   -2.3360 C   0  0  0  0  0
   28.0900   44.6220   -0.3750 O   0  0  0  0  0
   29.2770   47.0030    0.4690 O   0  0  0  0  0
   27.2360   49.5130    0.4040 O   0  0  0  0  0
   26.8710   47.2740   -2.5080 N   0  0  0  0  0
   27.0450   49.9150   -3.2470 O   0  0  0  0  0
   31.8730   46.8640   -7.3280 N   0  3  0  0  0
   30.7030   47.5930   -6.8020 C   0  0  0  0  0
   28.3310   45.5570   -4.3910 C   0  0  0  0  0
   29.5140   46.4600   -4.8000 C   0  0  0  0  0
   28.1720   45.3870   -2.9500 N   0  0  0  0  0
   27.5150   46.1980   -2.1250 C   0  0  0  0  0
   29.8209   45.6506   -6.7435 H   0  0  0  0  0
   28.6440   47.0533   -6.6486 H   0  0  0  0  0
   26.4353   45.6978   -0.2055 H   0  0  0  0  0
   27.3174   47.1721    1.1621 H   0  0  0  0  0
   28.4824   48.7688   -1.0291 H   0  0  0  0  0
   25.5668   47.9639   -1.0070 H   0  0  0  0  0
   25.8060   50.3342   -1.6308 H   0  0  0  0  0
   25.0861   49.3156   -2.8916 H   0  0  0  0  0
   28.0558   44.4020    0.5588 H   0  0  0  0  0
   29.4479   46.1757    0.9251 H   0  0  0  0  0
   27.9422   49.6152    1.0462 H   0  0  0  0  0
   26.7735   50.7009   -3.7269 H   0  0  0  0  0
   32.5802   47.5330   -7.6324 H   0  0  0  0  0
   32.2592   46.2691   -6.5949 H   0  0  0  0  0
   31.5856   46.2877   -8.1190 H   0  0  0  0  0
   31.0270   48.1920   -5.9509 H   0  0  0  0  0
   30.2972   48.2121   -7.6021 H   0  0  0  0  0
   28.5227   44.5693   -4.8103 H   0  0  0  0  0
   27.4225   46.0339   -4.7589 H   0  0  0  0  0
   29.3685   47.4424   -4.3507 H   0  0  0  0  0
   30.4375   45.9940   -4.4564 H   0  0  0  0  0
   28.6082   44.5642   -2.5340 H   0  0  0  0  0
  1 13  1  0  0  0
 15  1  1  0  0  0
  2  3  1  0  0  0
  2  7  1  0  0  0
 17  2  1  0  0  0
  3  4  1  0  0  0
  3  8  1  0  0  0
  5  4  1  0  0  0
  4  9  1  0  0  0
  5  6  1  0  0  0
 10  5  1  0  0  0
  6 11  1  0  0  0
 17 10  2  0  0  0
 13 12  1  0  0  0
 14 15  1  0  0  0
 16 14  1  0  0  0
 16 17  1  0  0  0
  1 18  1  0  0  0
  1 19  1  0  0  0
  2 20  1  0  0  0
  3 21  1  0  0  0
  4 22  1  0  0  0
  5 23  1  0  0  0
  6 24  1  0  0  0
  6 25  1  0  0  0
  7 26  1  0  0  0
  8 27  1  0  0  0
  9 28  1  0  0  0
 11 29  1  0  0  0
 12 30  1  0  0  0
 12 31  1  0  0  0
 12 32  1  0  0  0
 13 33  1  0  0  0
 13 34  1  0  0  0
 14 35  1  0  0  0
 14 36  1  0  0  0
 15 37  1  0  0  0
 15 38  1  0  0  0
 16 39  1  0  0  0
M  END
$$$$
