3s78_ligand
  -I-interpret- 

 14 14  0  0  0  0  0  0  0  0999 V2000
   15.1890    1.0860   16.7460 S   0  0  0  0  0
   13.7220    1.2040   16.7090 O   0  0  0  0  0
   14.7410    3.7540   15.5160 S   0  0  0  0  0
   15.7350    2.4350   15.9070 C   0  0  0  0  0
   15.7090    1.1490   18.1090 O   0  0  0  0  0
   17.0180    2.7150   15.4410 C   0  0  0  0  0
   17.1310    3.9740   14.7950 C   0  0  0  0  0
   15.9370    4.7100   14.7420 C   0  0  0  0  0
   15.6570   -0.2200   16.0090 N   0  0  0  0  0
   17.8576    2.0304   15.5614 H   0  0  0  0  0
   18.0680    4.3392   14.3746 H   0  0  0  0  0
   15.7972    5.6950   14.2967 H   0  0  0  0  0
   14.9675   -0.8443   15.5903 H   0  0  0  0  0
   16.6504   -0.4437   15.9492 H   0  0  0  0  0
  1  2  2  0  0  0
  1  4  1  0  0  0
  1  5  2  0  0  0
  1  9  1  0  0  0
  4  3  4  0  0  0
  3  8  4  0  0  0
  4  6  4  0  0  0
  6  7  4  0  0  0
  7  8  4  0  0  0
  6 10  1  0  0  0
  7 11  1  0  0  0
  8 12  1  0  0  0
  9 13  1  0  0  0
  9 14  1  0  0  0
M  END
$$$$
