2r6n_ligand
  -I-interpret- 

 64 68  0  0  0  0  0  0  0  0999 V2000
   33.9090    6.1450    4.3440 C   0  0  0  0  0
   32.9670    5.2600    3.5470 C   0  0  0  0  0
   31.5300    5.7630    3.6800 C   0  0  0  0  0
   30.9080    6.5130    2.6310 C   0  0  0  0  0
   29.5670    6.9870    2.7730 C   0  0  0  0  0
   28.7880    6.7290    3.9740 C   0  0  0  0  0
   26.4370    6.4620    4.9320 C   0  0  0  0  0
   25.7600    5.2740    4.2010 C   0  0  0  0  0
   26.7800    7.5600    2.7650 C   0  0  0  0  0
   34.1100    9.5590    2.6960 C   0  0  0  0  0
   35.0440    9.7910    0.3380 C   0  0  0  0  0
   24.4700    4.5800    2.2630 C   0  0  0  0  0
   36.6600    8.4150    7.2380 N   0  0  0  0  0
   35.9060    7.2490    7.1470 C   0  0  0  0  0
   35.2010    6.9700    6.0050 C   0  0  0  0  0
   35.2680    7.8490    4.9920 C   0  0  0  0  0
   35.9930    8.9950    5.0400 N   0  0  0  0  0
   36.6810    9.2720    6.1670 C   0  0  0  0  0
   34.3440    5.8550    5.6460 C   0  0  0  0  0
   34.4810    7.3710    3.9320 N   0  0  0  0  0
   38.1180   10.8050    7.3000 N   0  0  0  0  0
   29.4380    5.9720    5.0160 C   0  0  0  0  0
   30.7770    5.5020    4.8700 C   0  0  0  0  0
   27.4050    7.2390    4.1020 N   0  0  0  0  0
   25.1030    5.7290    2.9480 N   0  3  0  0  0
   26.1150    6.3520    2.0600 C   0  0  0  0  0
   34.2620    8.0060    2.6060 C   0  0  0  0  0
   35.4370    7.6380    1.6550 C   0  0  0  0  0
   35.2450    8.2620    0.2500 C   0  0  0  0  0
   33.8800   10.1490    1.2870 C   0  0  0  0  0
   37.4580   10.5120    6.2390 C   0  0  0  0  0
   33.0251    4.2413    3.9303 H   0  0  0  0  0
   33.2576    5.2847    2.4968 H   0  0  0  0  0
   31.4618    6.7243    1.7163 H   0  0  0  0  0
   29.1164    7.5566    1.9602 H   0  0  0  0  0
   27.0008    6.0412    5.7646 H   0  0  0  0  0
   25.6425    7.1508    5.2192 H   0  0  0  0  0
   25.0039    4.8429    4.8572 H   0  0  0  0  0
   26.5220    4.5362    3.9499 H   0  0  0  0  0
   27.5817    7.9077    2.1135 H   0  0  0  0  0
   25.9953    8.2941    2.9478 H   0  0  0  0  0
   35.0198    9.9847    3.1193 H   0  0  0  0  0
   33.2565    9.8000    3.3297 H   0  0  0  0  0
   34.8093   10.1683   -0.6573 H   0  0  0  0  0
   35.9586   10.2399    0.7254 H   0  0  0  0  0
   25.2314    3.8386    2.0208 H   0  0  0  0  0
   23.7226    4.1342    2.9193 H   0  0  0  0  0
   23.9914    4.9240    1.3461 H   0  0  0  0  0
   35.8759    6.5549    7.9869 H   0  0  0  0  0
   34.0938    4.9851    6.2533 H   0  0  0  0  0
   38.1038   10.1728    8.1003 H   0  0  0  0  0
   28.8940    5.7544    5.9351 H   0  0  0  0  0
   31.2356    4.9337    5.6792 H   0  0  0  0  0
   24.3823    6.4146    3.1739 H   0  0  0  0  0
   26.8809    5.6140    1.8215 H   0  0  0  0  0
   25.6246    6.6975    1.1499 H   0  0  0  0  0
   33.3219    7.6209    2.2110 H   0  0  0  0  0
   35.4704    6.5536    1.5501 H   0  0  0  0  0
   36.3619    8.0256    2.0821 H   0  0  0  0  0
   36.1375    8.0628   -0.3432 H   0  0  0  0  0
   34.3592    7.8212   -0.2074 H   0  0  0  0  0
   33.8179   11.2341    1.3690 H   0  0  0  0  0
   32.9581    9.7329    0.8808 H   0  0  0  0  0
   37.4757   11.1902    5.3858 H   0  0  0  0  0
  1  2  1  0  0  0
  1 19  4  0  0  0
 20  1  4  0  0  0
  2  3  1  0  0  0
  3  4  4  0  0  0
  3 23  4  0  0  0
  4  5  4  0  0  0
  5  6  4  0  0  0
  6 22  4  0  0  0
  6 24  1  0  0  0
  7  8  1  0  0  0
 24  7  1  0  0  0
  8 25  1  0  0  0
 24  9  1  0  0  0
  9 26  1  0  0  0
 27 10  1  0  0  0
 10 30  1  0  0  0
 11 29  1  0  0  0
 30 11  1  0  0  0
 25 12  1  0  0  0
 14 13  4  0  0  0
 18 13  4  0  0  0
 15 14  4  0  0  0
 16 15  4  0  0  0
 15 19  4  0  0  0
 16 17  4  0  0  0
 20 16  4  0  0  0
 17 18  4  0  0  0
 18 31  1  0  0  0
 20 27  1  0  0  0
 31 21  2  0  0  0
 22 23  4  0  0  0
 25 26  1  0  0  0
 27 28  1  0  0  0
 28 29  1  0  0  0
  2 32  1  0  0  0
  2 33  1  0  0  0
  4 34  1  0  0  0
  5 35  1  0  0  0
  7 36  1  0  0  0
  7 37  1  0  0  0
  8 38  1  0  0  0
  8 39  1  0  0  0
  9 40  1  0  0  0
  9 41  1  0  0  0
 10 42  1  0  0  0
 10 43  1  0  0  0
 11 44  1  0  0  0
 11 45  1  0  0  0
 12 46  1  0  0  0
 12 47  1  0  0  0
 12 48  1  0  0  0
 14 49  1  0  0  0
 19 50  1  0  0  0
 21 51  1  0  0  0
 22 52  1  0  0  0
 23 53  1  0  0  0
 25 54  1  0  0  0
 26 55  1  0  0  0
 26 56  1  0  0  0
 27 57  1  0  0  0
 28 58  1  0  0  0
 28 59  1  0  0  0
 29 60  1  0  0  0
 29 61  1  0  0  0
 30 62  1  0  0  0
 30 63  1  0  0  0
 31 64  1  0  0  0
M  END
$$$$
