### 
### Created by X-TOOL on Mon Sep 10 21:12:55 2018
### 

@<TRIPOS>MOLECULE
2r6n_ligand
   64    68     1     0     0
SMALL
GAST_HUCK


@<TRIPOS>ATOM
      1 C11        33.9090    6.1450    4.3440 C.2       1 CKE         0.0691
      2 C12        32.9670    5.2600    3.5470 C.3       1 CKE         0.0385
      3 C13        31.5300    5.7630    3.6800 C.ar      1 CKE        -0.0389
      4 C14        30.9080    6.5130    2.6310 C.ar      1 CKE        -0.0689
      5 C15        29.5670    6.9870    2.7730 C.ar      1 CKE        -0.0500
      6 C16        28.7880    6.7290    3.9740 C.ar      1 CKE         0.0343
      7 C20        26.4370    6.4620    4.9320 C.3       1 CKE         0.0657
      8 C21        25.7600    5.2740    4.2010 C.3       1 CKE        -0.0122
      9 C24        26.7800    7.5600    2.7650 C.3       1 CKE         0.0657
     10 C27        34.1100    9.5590    2.6960 C.3       1 CKE        -0.0230
     11 C30        35.0440    9.7910    0.3380 C.3       1 CKE        -0.0529
     12 C31        24.4700    4.5800    2.2630 C.3       1 CKE        -0.0430
     13 N01        36.6600    8.4150    7.2380 N.ar      1 CKE        -0.2741
     14 C02        35.9060    7.2490    7.1470 C.ar      1 CKE         0.0152
     15 C03        35.2010    6.9700    6.0050 C.ar      1 CKE         0.0211
     16 C04        35.2680    7.8490    4.9920 C.ar      1 CKE         0.1575
     17 N05        35.9930    8.9950    5.0400 N.ar      1 CKE        -0.2417
     18 C06        36.6810    9.2720    6.1670 C.ar      1 CKE         0.1354
     19 C07        34.3440    5.8550    5.6460 C.2       1 CKE        -0.0432
     20 N08        34.4810    7.3710    3.9320 N.pl3     1 CKE        -0.2289
     21 N10        38.1180   10.8050    7.3000 N.2       1 CKE        -0.3411
     22 C17        29.4380    5.9720    5.0160 C.ar      1 CKE        -0.0500
     23 C18        30.7770    5.5020    4.8700 C.ar      1 CKE        -0.0689
     24 N19        27.4050    7.2390    4.1020 N.pl3     1 CKE        -0.3020
     25 N22        25.1030    5.7290    2.9480 N.4       1 CKE         0.2358
     26 C23        26.1150    6.3520    2.0600 C.3       1 CKE        -0.0122
     27 C25        34.2620    8.0060    2.6060 C.3       1 CKE         0.0686
     28 C26        35.4370    7.6380    1.6550 C.3       1 CKE        -0.0230
     29 C28        35.2450    8.2620    0.2500 C.3       1 CKE        -0.0503
     30 C29        33.8800   10.1490    1.2870 C.3       1 CKE        -0.0503
     31 C09        37.4580   10.5120    6.2390 C.2       1 CKE         0.0459
     32 H1         33.0278    4.2296    3.9273 H         1 CKE         0.0627
     33 H2         33.2614    5.2778    2.4873 H         1 CKE         0.0627
     34 H3         31.4587    6.7232    1.7213 H         1 CKE         0.0531
     35 H4         29.1189    7.5535    1.9647 H         1 CKE         0.0500
     36 H5         26.9765    6.0644    5.8043 H         1 CKE         0.0564
     37 H6         25.6481    7.1496    5.2709 H         1 CKE         0.0564
     38 H7         25.0034    4.8274    4.8629 H         1 CKE         0.0834
     39 H8         26.5226    4.5205    3.9549 H         1 CKE         0.0834
     40 H9         27.5662    7.9534    2.1038 H         1 CKE         0.0564
     41 H10        26.0121    8.3319    2.9212 H         1 CKE         0.0564
     42 H11        35.0256    9.9905    3.1267 H         1 CKE         0.0294
     43 H12        33.2515    9.8045    3.3384 H         1 CKE         0.0294
     44 H13        34.8212   10.1817   -0.6658 H         1 CKE         0.0265
     45 H14        35.9685   10.2531    0.7145 H         1 CKE         0.0265
     46 H15        23.9866    4.9259    1.3374 H         1 CKE         0.0778
     47 H16        23.7154    4.1291    2.9243 H         1 CKE         0.0778
     48 H17        25.2374    3.8310    2.0180 H         1 CKE         0.0778
     49 H18        35.8760    6.5588    7.9823 H         1 CKE         0.0864
     50 H19        34.0940    4.9859    6.2527 H         1 CKE         0.0236
     51 H20        38.6504   11.6599    7.3424 H         1 CKE         0.1300
     52 H21        28.8970    5.7556    5.9301 H         1 CKE         0.0500
     53 H22        31.2330    4.9368    5.6748 H         1 CKE         0.0531
     54 H23        24.3947    6.4100    3.1731 H         1 CKE         0.2032
     55 H24        26.8860    5.6080    1.8110 H         1 CKE         0.0834
     56 H25        25.6251    6.6955    1.1370 H         1 CKE         0.0834
     57 H26        33.3308    7.5997    2.1844 H         1 CKE         0.0643
     58 H27        35.4881    6.5436    1.5564 H         1 CKE         0.0294
     59 H28        36.3772    8.0116    2.0868 H         1 CKE         0.0294
     60 H29        36.1359    8.0522   -0.3601 H         1 CKE         0.0266
     61 H30        34.3611    7.8110   -0.2246 H         1 CKE         0.0266
     62 H31        33.8029   11.2436    1.3640 H         1 CKE         0.0266
     63 H32        32.9437    9.7434    0.8761 H         1 CKE         0.0266
     64 H33        37.4756   11.1895    5.3866 H         1 CKE         0.1127
@<TRIPOS>BOND
     1    1    2 1  
     2    1   19 2  
     3   20    1 1  
     4    2    3 1  
     5    3    4 ar 
     6    3   23 ar 
     7    4    5 ar 
     8    5    6 ar 
     9    6   22 ar 
    10    6   24 1  
    11    7    8 1  
    12   24    7 1  
    13    8   25 1  
    14   24    9 1  
    15    9   26 1  
    16   27   10 1  
    17   10   30 1  
    18   11   29 1  
    19   30   11 1  
    20   25   12 1  
    21   14   13 ar 
    22   18   13 ar 
    23   15   14 ar 
    24   16   15 ar 
    25   15   19 1  
    26   16   17 ar 
    27   20   16 1  
    28   17   18 ar 
    29   18   31 1  
    30   20   27 1  
    31   31   21 2  
    32   22   23 ar 
    33   25   26 1  
    34   27   28 1  
    35   28   29 1  
    36    2   32 1  
    37    2   33 1  
    38    4   34 1  
    39    5   35 1  
    40    7   36 1  
    41    7   37 1  
    42    8   38 1  
    43    8   39 1  
    44    9   40 1  
    45    9   41 1  
    46   10   42 1  
    47   10   43 1  
    48   11   44 1  
    49   11   45 1  
    50   12   46 1  
    51   12   47 1  
    52   12   48 1  
    53   14   49 1  
    54   19   50 1  
    55   21   51 1  
    56   22   52 1  
    57   23   53 1  
    58   25   54 1  
    59   26   55 1  
    60   26   56 1  
    61   27   57 1  
    62   28   58 1  
    63   28   59 1  
    64   29   60 1  
    65   29   61 1  
    66   30   62 1  
    67   30   63 1  
    68   31   64 1  
@<TRIPOS>SUBSTRUCTURE
     1 CKE         1

