### 
### Created by X-TOOL on Mon Sep 10 21:12:57 2018
### 

@<TRIPOS>MOLECULE
2oz2_ligand
   81    84     1     0     0
SMALL
GAST_HUCK


@<TRIPOS>ATOM
      1 C39         5.5680  -11.2350  -24.7960 C.3       1 D1R         0.0157
      2 C40         4.9960  -12.3190  -25.7230 C.3       1 D1R        -0.0927
      3 N4          4.0320  -11.6350  -26.5900 N.4       1 D1R         0.4034
      4 C33         3.7760  -12.3750  -27.8370 C.3       1 D1R        -0.1255
      5 C49         2.7810  -11.4750  -25.8460 C.3       1 D1R        -0.0927
      6 C48         3.0190  -10.7370  -24.5200 C.3       1 D1R         0.0157
      7 N3          4.4570  -10.4410  -24.2060 N.am      1 D1R        -0.2633
      8 C8          4.7220   -9.4370  -23.3410 C.2       1 D1R         0.2622
      9 O2          3.7660   -8.8160  -22.8660 O.2       1 D1R        -0.4005
     10 N1          5.9800   -9.1140  -23.0030 N.am      1 D1R        -0.2499
     11 C9          6.1980   -8.0040  -22.0600 C.3       1 D1R         0.1406
     12 C10         7.6870   -7.7480  -21.7090 C.3       1 D1R         0.0212
     13 C11         8.5560   -8.9770  -21.4250 C.ar      1 D1R        -0.0386
     14 C12         9.8790   -8.9750  -21.8790 C.ar      1 D1R        -0.0601
     15 C13        10.7050  -10.0800  -21.6410 C.ar      1 D1R        -0.0686
     16 C14        10.2290  -11.1850  -20.9220 C.ar      1 D1R        -0.0687
     17 C15         8.9110  -11.1880  -20.4600 C.ar      1 D1R        -0.0686
     18 C16         8.0770  -10.0860  -20.7070 C.ar      1 D1R        -0.0601
     19 C17         5.6650   -6.7560  -22.7420 C.2       1 D1R         0.2037
     20 O3          5.9390   -6.5180  -23.9200 O.2       1 D1R        -0.3944
     21 N2          4.9170   -5.9660  -21.9910 N.am      1 D1R        -0.2817
     22 C18         4.3730   -4.7260  -22.5570 C.3       1 D1R         0.0453
     23 C19         2.8220   -4.7290  -22.4220 C.3       1 D1R        -0.0201
     24 C20         2.2040   -5.7100  -23.4480 C.3       1 D1R        -0.0171
     25 C21         0.6640   -5.7730  -23.4400 C.ar      1 D1R        -0.0429
     26 C22        -0.1060   -4.6670  -23.7950 C.ar      1 D1R        -0.0603
     27 C23        -1.5050   -4.7610  -23.7900 C.ar      1 D1R        -0.0686
     28 C24        -2.1410   -5.9590  -23.4310 C.ar      1 D1R        -0.0687
     29 C25        -1.3770   -7.0730  -23.0840 C.ar      1 D1R        -0.0686
     30 C26         0.0240   -6.9700  -23.0980 C.ar      1 D1R        -0.0603
     31 C27         5.0740   -3.5290  -21.8820 C.3       1 D1R        -0.0099
     32 C28         4.6780   -3.5000  -20.3970 C.3       1 D1R         0.0730
     33 S1          3.6830   -2.0540  -19.9030 S.o2      1 D1R        -0.0030
     34 O4          2.5390   -1.8930  -20.8510 O.2       1 D1R        -0.1694
     35 O5          4.5550   -0.8600  -19.9500 O.2       1 D1R        -0.1694
     36 CAB         3.0360   -2.3380  -18.2850 C.ar      1 D1R         0.0882
     37 CAA         1.8460   -1.7280  -17.8940 C.ar      1 D1R        -0.0369
     38 CAC         1.3330   -1.9630  -16.6140 C.ar      1 D1R        -0.0600
     39 CAE         2.0050   -2.8080  -15.7310 C.ar      1 D1R        -0.0616
     40 CAF         3.1890   -3.4280  -16.1220 C.ar      1 D1R        -0.0600
     41 CAD         3.7010   -3.1870  -17.3990 C.ar      1 D1R        -0.0369
     42 H           6.2179  -10.5749  -25.3705 H         1 D1R         0.0499
     43 H           6.1379  -11.7080  -23.9963 H         1 D1R         0.0499
     44 H           4.5202  -13.1173  -25.1533 H         1 D1R         0.0036
     45 H           5.7829  -12.7982  -26.3055 H         1 D1R         0.0036
     46 H           3.3686  -13.3573  -27.5979 H         1 D1R        -0.0019
     47 H           3.0607  -11.8220  -28.4458 H         1 D1R        -0.0019
     48 H           4.7098  -12.4915  -28.3871 H         1 D1R        -0.0019
     49 H           2.3751  -12.4629  -25.6282 H         1 D1R         0.0036
     50 H           2.0868  -10.8917  -26.4509 H         1 D1R         0.0036
     51 H           2.6522  -11.3891  -23.7273 H         1 D1R         0.0499
     52 H           2.5107   -9.7761  -24.5997 H         1 D1R         0.0499
     53 H           6.7706   -9.6278  -23.3921 H         1 D1R         0.1879
     54 H           5.6984   -8.2565  -21.1247 H         1 D1R         0.0820
     55 H           7.6797   -7.1690  -20.7855 H         1 D1R         0.0473
     56 H           8.1223   -7.2725  -22.5879 H         1 D1R         0.0473
     57 H          10.2676   -8.1116  -22.4190 H         1 D1R         0.0557
     58 H          11.7276  -10.0810  -22.0183 H         1 D1R         0.0599
     59 H          10.8822  -12.0351  -20.7250 H         1 D1R         0.0559
     60 H           8.5296  -12.0466  -19.9073 H         1 D1R         0.0599
     61 H           7.0509  -10.0906  -20.3393 H         1 D1R         0.0557
     62 H           4.7188   -6.2171  -21.0225 H         1 D1R         0.1855
     63 H           4.5739   -4.6428  -23.6251 H         1 D1R         0.0558
     64 H           2.4432   -3.7248  -22.6124 H         1 D1R         0.0309
     65 H           2.5500   -5.0446  -21.4148 H         1 D1R         0.0309
     66 H           2.5618   -6.7060  -23.1871 H         1 D1R         0.0427
     67 H           2.5002   -5.3601  -24.4369 H         1 D1R         0.0427
     68 H           0.3779   -3.7315  -24.0758 H         1 D1R         0.0557
     69 H          -2.1047   -3.8943  -24.0679 H         1 D1R         0.0599
     70 H          -3.2293   -6.0189  -23.4233 H         1 D1R         0.0559
     71 H          -1.8598   -8.0098  -22.8060 H         1 D1R         0.0599
     72 H           0.6255   -7.8407  -22.8370 H         1 D1R         0.0557
     73 H           4.7690   -2.6006  -22.3649 H         1 D1R         0.0303
     74 H           6.1551   -3.6322  -21.9752 H         1 D1R         0.0303
     75 H           5.6033   -3.4601  -19.8223 H         1 D1R         0.0505
     76 H           4.0667   -4.3837  -20.2140 H         1 D1R         0.0505
     77 H           1.3166   -1.0700  -18.5831 H         1 D1R         0.0636
     78 H           0.4040   -1.4836  -16.3053 H         1 D1R         0.0618
     79 H           1.6027   -2.9834  -14.7332 H         1 D1R         0.0618
     80 H           3.7118   -4.0958  -15.4373 H         1 D1R         0.0618
     81 H           4.6299   -3.6671  -17.7069 H         1 D1R         0.0636
@<TRIPOS>BOND
     1    1    2 1  
     2    1    7 1  
     3    2    3 1  
     4    3    4 1  
     5    3    5 1  
     6    5    6 1  
     7    6    7 1  
     8    7    8 am 
     9    8    9 2  
    10    8   10 am 
    11   10   11 1  
    12   11   12 1  
    13   11   19 1  
    14   12   13 1  
    15   13   14 ar 
    16   13   18 ar 
    17   14   15 ar 
    18   15   16 ar 
    19   16   17 ar 
    20   17   18 ar 
    21   19   20 2  
    22   19   21 am 
    23   21   22 1  
    24   22   23 1  
    25   22   31 1  
    26   23   24 1  
    27   24   25 1  
    28   25   26 ar 
    29   25   30 ar 
    30   26   27 ar 
    31   27   28 ar 
    32   28   29 ar 
    33   29   30 ar 
    34   31   32 1  
    35   32   33 1  
    36   33   34 2  
    37   33   35 2  
    38   33   36 1  
    39   36   37 ar 
    40   36   41 ar 
    41   37   38 ar 
    42   38   39 ar 
    43   39   40 ar 
    44   40   41 ar 
    45    1   42 1  
    46    1   43 1  
    47    2   44 1  
    48    2   45 1  
    49    4   46 1  
    50    4   47 1  
    51    4   48 1  
    52    5   49 1  
    53    5   50 1  
    54    6   51 1  
    55    6   52 1  
    56   10   53 1  
    57   11   54 1  
    58   12   55 1  
    59   12   56 1  
    60   14   57 1  
    61   15   58 1  
    62   16   59 1  
    63   17   60 1  
    64   18   61 1  
    65   21   62 1  
    66   22   63 1  
    67   23   64 1  
    68   23   65 1  
    69   24   66 1  
    70   24   67 1  
    71   26   68 1  
    72   27   69 1  
    73   28   70 1  
    74   29   71 1  
    75   30   72 1  
    76   31   73 1  
    77   31   74 1  
    78   32   75 1  
    79   32   76 1  
    80   37   77 1  
    81   38   78 1  
    82   39   79 1  
    83   40   80 1  
    84   41   81 1  
@<TRIPOS>SUBSTRUCTURE
     1 D1R         1

