2oz2_ligand
  -I-interpret- 

 82 85  0  0  0  0  0  0  0  0999 V2000
    5.5680  -11.2350  -24.7960 C   0  0  0  0  0
    4.9960  -12.3190  -25.7230 C   0  0  0  0  0
    4.0320  -11.6350  -26.5900 N   0  3  0  0  0
    3.7760  -12.3750  -27.8370 C   0  0  0  0  0
    2.7810  -11.4750  -25.8460 C   0  0  0  0  0
    3.0190  -10.7370  -24.5200 C   0  0  0  0  0
    4.4570  -10.4410  -24.2060 N   0  0  0  0  0
    4.7220   -9.4370  -23.3410 C   0  0  0  0  0
    3.7660   -8.8160  -22.8660 O   0  0  0  0  0
    5.9800   -9.1140  -23.0030 N   0  0  0  0  0
    6.1980   -8.0040  -22.0600 C   0  0  0  0  0
    7.6870   -7.7480  -21.7090 C   0  0  0  0  0
    8.5560   -8.9770  -21.4250 C   0  0  0  0  0
    9.8790   -8.9750  -21.8790 C   0  0  0  0  0
   10.7050  -10.0800  -21.6410 C   0  0  0  0  0
   10.2290  -11.1850  -20.9220 C   0  0  0  0  0
    8.9110  -11.1880  -20.4600 C   0  0  0  0  0
    8.0770  -10.0860  -20.7070 C   0  0  0  0  0
    5.6650   -6.7560  -22.7420 C   0  0  0  0  0
    5.9390   -6.5180  -23.9200 O   0  0  0  0  0
    4.9170   -5.9660  -21.9910 N   0  0  0  0  0
    4.3730   -4.7260  -22.5570 C   0  0  0  0  0
    2.8220   -4.7290  -22.4220 C   0  0  0  0  0
    2.2040   -5.7100  -23.4480 C   0  0  0  0  0
    0.6640   -5.7730  -23.4400 C   0  0  0  0  0
   -0.1060   -4.6670  -23.7950 C   0  0  0  0  0
   -1.5050   -4.7610  -23.7900 C   0  0  0  0  0
   -2.1410   -5.9590  -23.4310 C   0  0  0  0  0
   -1.3770   -7.0730  -23.0840 C   0  0  0  0  0
    0.0240   -6.9700  -23.0980 C   0  0  0  0  0
    5.0740   -3.5290  -21.8820 C   0  0  0  0  0
    4.6780   -3.5000  -20.3970 C   0  0  0  0  0
    3.6830   -2.0540  -19.9030 S   0  0  0  0  0
    2.5390   -1.8930  -20.8510 O   0  0  0  0  0
    4.5550   -0.8600  -19.9500 O   0  0  0  0  0
    3.0360   -2.3380  -18.2850 C   0  0  0  0  0
    1.8460   -1.7280  -17.8940 C   0  0  0  0  0
    1.3330   -1.9630  -16.6140 C   0  0  0  0  0
    2.0050   -2.8080  -15.7310 C   0  0  0  0  0
    3.1890   -3.4280  -16.1220 C   0  0  0  0  0
    3.7010   -3.1870  -17.3990 C   0  0  0  0  0
    6.2179  -10.5749  -25.3705 H   0  0  0  0  0
    6.1379  -11.7080  -23.9963 H   0  0  0  0  0
    4.5202  -13.1173  -25.1533 H   0  0  0  0  0
    5.7829  -12.7982  -26.3055 H   0  0  0  0  0
    4.4217  -10.7306  -26.8557 H   0  0  0  0  0
    3.3686  -13.3573  -27.5979 H   0  0  0  0  0
    3.0607  -11.8220  -28.4458 H   0  0  0  0  0
    4.7098  -12.4915  -28.3871 H   0  0  0  0  0
    2.3751  -12.4629  -25.6282 H   0  0  0  0  0
    2.0868  -10.8917  -26.4509 H   0  0  0  0  0
    2.6522  -11.3891  -23.7273 H   0  0  0  0  0
    2.5107   -9.7761  -24.5997 H   0  0  0  0  0
    6.7706   -9.6278  -23.3921 H   0  0  0  0  0
    5.6984   -8.2565  -21.1247 H   0  0  0  0  0
    7.6797   -7.1690  -20.7855 H   0  0  0  0  0
    8.1223   -7.2725  -22.5879 H   0  0  0  0  0
   10.2676   -8.1116  -22.4190 H   0  0  0  0  0
   11.7276  -10.0810  -22.0183 H   0  0  0  0  0
   10.8822  -12.0351  -20.7250 H   0  0  0  0  0
    8.5296  -12.0466  -19.9073 H   0  0  0  0  0
    7.0509  -10.0906  -20.3393 H   0  0  0  0  0
    4.7188   -6.2171  -21.0225 H   0  0  0  0  0
    4.5739   -4.6428  -23.6251 H   0  0  0  0  0
    2.4432   -3.7248  -22.6124 H   0  0  0  0  0
    2.5500   -5.0446  -21.4148 H   0  0  0  0  0
    2.5618   -6.7060  -23.1871 H   0  0  0  0  0
    2.5002   -5.3601  -24.4369 H   0  0  0  0  0
    0.3779   -3.7315  -24.0758 H   0  0  0  0  0
   -2.1047   -3.8943  -24.0679 H   0  0  0  0  0
   -3.2293   -6.0189  -23.4233 H   0  0  0  0  0
   -1.8598   -8.0098  -22.8060 H   0  0  0  0  0
    0.6255   -7.8407  -22.8370 H   0  0  0  0  0
    4.7690   -2.6006  -22.3649 H   0  0  0  0  0
    6.1551   -3.6322  -21.9752 H   0  0  0  0  0
    5.6033   -3.4601  -19.8223 H   0  0  0  0  0
    4.0667   -4.3837  -20.2140 H   0  0  0  0  0
    1.3166   -1.0700  -18.5831 H   0  0  0  0  0
    0.4040   -1.4836  -16.3053 H   0  0  0  0  0
    1.6027   -2.9834  -14.7332 H   0  0  0  0  0
    3.7118   -4.0958  -15.4373 H   0  0  0  0  0
    4.6299   -3.6671  -17.7069 H   0  0  0  0  0
  1  2  1  0  0  0
  1  7  1  0  0  0
  2  3  1  0  0  0
  3  4  1  0  0  0
  3  5  1  0  0  0
  5  6  1  0  0  0
  6  7  1  0  0  0
  7  8  1  0  0  0
  8  9  2  0  0  0
  8 10  1  0  0  0
 10 11  1  0  0  0
 11 12  1  0  0  0
 11 19  1  0  0  0
 12 13  1  0  0  0
 13 14  4  0  0  0
 13 18  4  0  0  0
 14 15  4  0  0  0
 15 16  4  0  0  0
 16 17  4  0  0  0
 17 18  4  0  0  0
 19 20  2  0  0  0
 19 21  1  0  0  0
 21 22  1  0  0  0
 22 23  1  0  0  0
 22 31  1  0  0  0
 23 24  1  0  0  0
 24 25  1  0  0  0
 25 26  4  0  0  0
 25 30  4  0  0  0
 26 27  4  0  0  0
 27 28  4  0  0  0
 28 29  4  0  0  0
 29 30  4  0  0  0
 31 32  1  0  0  0
 32 33  1  0  0  0
 33 34  2  0  0  0
 33 35  2  0  0  0
 33 36  1  0  0  0
 36 37  4  0  0  0
 36 41  4  0  0  0
 37 38  4  0  0  0
 38 39  4  0  0  0
 39 40  4  0  0  0
 40 41  4  0  0  0
  1 42  1  0  0  0
  1 43  1  0  0  0
  2 44  1  0  0  0
  2 45  1  0  0  0
  3 46  1  0  0  0
  4 47  1  0  0  0
  4 48  1  0  0  0
  4 49  1  0  0  0
  5 50  1  0  0  0
  5 51  1  0  0  0
  6 52  1  0  0  0
  6 53  1  0  0  0
 10 54  1  0  0  0
 11 55  1  0  0  0
 12 56  1  0  0  0
 12 57  1  0  0  0
 14 58  1  0  0  0
 15 59  1  0  0  0
 16 60  1  0  0  0
 17 61  1  0  0  0
 18 62  1  0  0  0
 21 63  1  0  0  0
 22 64  1  0  0  0
 23 65  1  0  0  0
 23 66  1  0  0  0
 24 67  1  0  0  0
 24 68  1  0  0  0
 26 69  1  0  0  0
 27 70  1  0  0  0
 28 71  1  0  0  0
 29 72  1  0  0  0
 30 73  1  0  0  0
 31 74  1  0  0  0
 31 75  1  0  0  0
 32 76  1  0  0  0
 32 77  1  0  0  0
 37 78  1  0  0  0
 38 79  1  0  0  0
 39 80  1  0  0  0
 40 81  1  0  0  0
 41 82  1  0  0  0
M  END
$$$$
