### 
### Created by X-TOOL on Mon Sep 10 21:13:14 2018
### 

@<TRIPOS>MOLECULE
4axm_ligand
   56    59     1     0     0
SMALL
GAST_HUCK


@<TRIPOS>ATOM
      1 C1        -19.6990    8.2410  -30.4930 C.2       1 V65         0.0629
      2 N2        -20.6110    7.6650  -31.2570 N.2       1 V65        -0.3220
      3 C4        -19.1890    7.6100  -29.2500 C.ar      1 V65         0.1398
      4 N5        -18.2450    8.2700  -28.5650 N.ar      1 V65        -0.2284
      5 C6        -17.7800    7.7640  -27.4250 C.ar      1 V65         0.1969
      6 N10       -16.8100    8.5400  -26.7820 N.pl3     1 V65        -0.2573
      7 C14       -16.3470    9.8020  -27.3860 C.3       1 V65         0.0491
      8 C15       -15.6690   10.6790  -26.3370 C.3       1 V65        -0.0288
      9 C16       -14.9110   11.7970  -27.0690 C.3       1 V65        -0.0509
     10 C17       -15.9150   12.6540  -27.8320 C.3       1 V65        -0.0529
     11 C18       -16.7540   11.7620  -28.7510 C.3       1 V65        -0.0509
     12 C19       -17.4570   10.6590  -27.9620 C.3       1 V65        -0.0288
     13 C12       -16.1520    8.1310  -25.5230 C.3       1 V65         0.0698
     14 C22       -14.8780    7.4890  -25.9840 C.ar      1 V65        -0.0197
     15 C23       -13.7760    8.2700  -26.3070 C.ar      1 V65        -0.0577
     16 C24       -12.6170    7.6640  -26.7590 C.ar      1 V65        -0.0545
     17 C25       -12.5680    6.2720  -26.8940 C.ar      1 V65         0.0330
     18 CL        -11.1080    5.4900  -27.4820 Cl        1 V65        -0.0771
     19 C26       -13.6730    5.4860  -26.5730 C.ar      1 V65        -0.0545
     20 C27       -14.8270    6.1050  -26.1220 C.ar      1 V65        -0.0577
     21 N7        -18.2240    6.6040  -26.9280 N.ar      1 V65        -0.2116
     22 C8        -19.1690    5.9710  -27.6390 C.ar      1 V65         0.1949
     23 N29       -19.6780    4.7480  -27.1870 N.pl3     1 V65        -0.2673
     24 C30       -20.7260    4.0510  -27.9710 C.3       1 V65         0.0592
     25 C31       -20.5380    2.5270  -27.9190 C.3       1 V65         0.0687
     26 O32       -20.4180    2.0840  -26.5630 O.3       1 V65        -0.3756
     27 C33       -19.2460    2.5990  -25.9290 C.3       1 V65         0.0687
     28 C34       -19.1950    4.1380  -25.9250 C.3       1 V65         0.0592
     29 N9        -19.6660    6.4470  -28.7930 N.ar      1 V65        -0.2285
     30 H1        -19.3075    9.2140  -30.7862 H         1 V65         0.1182
     31 H2        -20.9317    8.1263  -32.0939 H         1 V65         0.1465
     32 H3        -15.6322    9.5553  -28.1848 H         1 V65         0.0569
     33 H4        -14.9644   10.0760  -25.7455 H         1 V65         0.0288
     34 H5        -16.4267   11.1166  -25.6703 H         1 V65         0.0288
     35 H6        -14.1911   11.3554  -27.7738 H         1 V65         0.0266
     36 H7        -14.3740   12.4194  -26.3381 H         1 V65         0.0266
     37 H8        -15.3766   13.3991  -28.4361 H         1 V65         0.0265
     38 H9        -16.5751   13.1684  -27.1181 H         1 V65         0.0265
     39 H10       -16.0956   11.3014  -29.5022 H         1 V65         0.0266
     40 H11       -17.5112   12.3795  -29.2563 H         1 V65         0.0266
     41 H12       -18.0662   11.0923  -27.1551 H         1 V65         0.0288
     42 H13       -18.0991   10.0613  -28.6257 H         1 V65         0.0288
     43 H14       -16.7753    7.4136  -24.9690 H         1 V65         0.0696
     44 H15       -15.9441    9.0039  -24.8868 H         1 V65         0.0696
     45 H16       -13.8235    9.3482  -26.2056 H         1 V65         0.0558
     46 H17       -11.7501    8.2654  -27.0076 H         1 V65         0.0606
     47 H18       -13.6301    4.4076  -26.6746 H         1 V65         0.0606
     48 H19       -15.6968    5.5072  -25.8747 H         1 V65         0.0558
     49 H20       -20.6715    4.3836  -29.0181 H         1 V65         0.0554
     50 H21       -21.7127    4.3050  -27.5564 H         1 V65         0.0554
     51 H22       -19.6260    2.2554  -28.4708 H         1 V65         0.0581
     52 H23       -21.4071    2.0387  -28.3840 H         1 V65         0.0581
     53 H24       -18.3624    2.2198  -26.4632 H         1 V65         0.0581
     54 H25       -19.2253    2.2443  -24.8880 H         1 V65         0.0581
     55 H26       -19.8213    4.5051  -25.0986 H         1 V65         0.0554
     56 H27       -18.1532    4.4516  -25.7629 H         1 V65         0.0554
@<TRIPOS>BOND
     1    1    2 2  
     2    1    3 1  
     3    3    4 ar 
     4    3   29 ar 
     5    4    5 ar 
     6    5    6 1  
     7    5   21 ar 
     8    6    7 1  
     9    6   13 1  
    10    7    8 1  
    11    7   12 1  
    12    8    9 1  
    13    9   10 1  
    14   10   11 1  
    15   11   12 1  
    16   13   14 1  
    17   14   15 ar 
    18   14   20 ar 
    19   15   16 ar 
    20   16   17 ar 
    21   17   18 1  
    22   17   19 ar 
    23   19   20 ar 
    24   21   22 ar 
    25   22   23 1  
    26   22   29 ar 
    27   23   24 1  
    28   23   28 1  
    29   24   25 1  
    30   25   26 1  
    31   26   27 1  
    32   27   28 1  
    33    1   30 1  
    34    2   31 1  
    35    7   32 1  
    36    8   33 1  
    37    8   34 1  
    38    9   35 1  
    39    9   36 1  
    40   10   37 1  
    41   10   38 1  
    42   11   39 1  
    43   11   40 1  
    44   12   41 1  
    45   12   42 1  
    46   13   43 1  
    47   13   44 1  
    48   15   45 1  
    49   16   46 1  
    50   19   47 1  
    51   20   48 1  
    52   24   49 1  
    53   24   50 1  
    54   25   51 1  
    55   25   52 1  
    56   27   53 1  
    57   27   54 1  
    58   28   55 1  
    59   28   56 1  
@<TRIPOS>SUBSTRUCTURE
     1 V65         1

