4axm_ligand
  -I-interpret- 

 56 59  0  0  0  0  0  0  0  0999 V2000
  -19.6990    8.2410  -30.4930 C   0  0  0  0  0
  -20.6110    7.6650  -31.2570 N   0  0  0  0  0
  -19.1890    7.6100  -29.2500 C   0  0  0  0  0
  -18.2450    8.2700  -28.5650 N   0  0  0  0  0
  -17.7800    7.7640  -27.4250 C   0  0  0  0  0
  -16.8100    8.5400  -26.7820 N   0  0  0  0  0
  -16.3470    9.8020  -27.3860 C   0  0  0  0  0
  -15.6690   10.6790  -26.3370 C   0  0  0  0  0
  -14.9110   11.7970  -27.0690 C   0  0  0  0  0
  -15.9150   12.6540  -27.8320 C   0  0  0  0  0
  -16.7540   11.7620  -28.7510 C   0  0  0  0  0
  -17.4570   10.6590  -27.9620 C   0  0  0  0  0
  -16.1520    8.1310  -25.5230 C   0  0  0  0  0
  -14.8780    7.4890  -25.9840 C   0  0  0  0  0
  -13.7760    8.2700  -26.3070 C   0  0  0  0  0
  -12.6170    7.6640  -26.7590 C   0  0  0  0  0
  -12.5680    6.2720  -26.8940 C   0  0  0  0  0
  -11.1080    5.4900  -27.4820 Cl  0  0  0  0  0
  -13.6730    5.4860  -26.5730 C   0  0  0  0  0
  -14.8270    6.1050  -26.1220 C   0  0  0  0  0
  -18.2240    6.6040  -26.9280 N   0  0  0  0  0
  -19.1690    5.9710  -27.6390 C   0  0  0  0  0
  -19.6780    4.7480  -27.1870 N   0  0  0  0  0
  -20.7260    4.0510  -27.9710 C   0  0  0  0  0
  -20.5380    2.5270  -27.9190 C   0  0  0  0  0
  -20.4180    2.0840  -26.5630 O   0  0  0  0  0
  -19.2460    2.5990  -25.9290 C   0  0  0  0  0
  -19.1950    4.1380  -25.9250 C   0  0  0  0  0
  -19.6660    6.4470  -28.7930 N   0  0  0  0  0
  -19.3072    9.2149  -30.7865 H   0  0  0  0  0
  -20.9902    6.7537  -30.9997 H   0  0  0  0  0
  -15.6763    9.4861  -28.1850 H   0  0  0  0  0
  -14.9777   10.0846  -25.7396 H   0  0  0  0  0
  -16.4139   11.1066  -25.6658 H   0  0  0  0  0
  -14.1930   11.3622  -27.7644 H   0  0  0  0  0
  -14.3735   12.4123  -26.3475 H   0  0  0  0  0
  -15.3813   13.3921  -28.4307 H   0  0  0  0  0
  -16.5691   13.1636  -27.1245 H   0  0  0  0  0
  -16.0928   11.2980  -29.4828 H   0  0  0  0  0
  -17.5109   12.3781  -29.2365 H   0  0  0  0  0
  -18.0910   11.0716  -27.1772 H   0  0  0  0  0
  -18.1227   10.0755  -28.5980 H   0  0  0  0  0
  -16.7688    7.4553  -24.9305 H   0  0  0  0  0
  -15.9762    8.9719  -24.8521 H   0  0  0  0  0
  -13.8238    9.3542  -26.2050 H   0  0  0  0  0
  -11.7453    8.2688  -27.0090 H   0  0  0  0  0
  -13.6298    4.4017  -26.6752 H   0  0  0  0  0
  -15.7016    5.5039  -25.8733 H   0  0  0  0  0
  -20.6565    4.3748  -29.0095 H   0  0  0  0  0
  -21.6992    4.2961  -27.5457 H   0  0  0  0  0
  -19.6293    2.2631  -28.4600 H   0  0  0  0  0
  -21.4047    2.0470  -28.3735 H   0  0  0  0  0
  -18.3806    2.2384  -26.4850 H   0  0  0  0  0
  -19.2532    2.2632  -24.8921 H   0  0  0  0  0
  -19.8457    4.4856  -25.1226 H   0  0  0  0  0
  -18.1531    4.4313  -25.7967 H   0  0  0  0  0
  1  2  2  0  0  0
  1  3  1  0  0  0
  3  4  4  0  0  0
  3 29  4  0  0  0
  4  5  4  0  0  0
  5  6  1  0  0  0
  5 21  4  0  0  0
  6  7  1  0  0  0
  6 13  1  0  0  0
  7  8  1  0  0  0
  7 12  1  0  0  0
  8  9  1  0  0  0
  9 10  1  0  0  0
 10 11  1  0  0  0
 11 12  1  0  0  0
 13 14  1  0  0  0
 14 15  4  0  0  0
 14 20  4  0  0  0
 15 16  4  0  0  0
 16 17  4  0  0  0
 17 18  1  0  0  0
 17 19  4  0  0  0
 19 20  4  0  0  0
 21 22  4  0  0  0
 22 23  1  0  0  0
 22 29  4  0  0  0
 23 24  1  0  0  0
 23 28  1  0  0  0
 24 25  1  0  0  0
 25 26  1  0  0  0
 26 27  1  0  0  0
 27 28  1  0  0  0
  1 30  1  0  0  0
  2 31  1  0  0  0
  7 32  1  0  0  0
  8 33  1  0  0  0
  8 34  1  0  0  0
  9 35  1  0  0  0
  9 36  1  0  0  0
 10 37  1  0  0  0
 10 38  1  0  0  0
 11 39  1  0  0  0
 11 40  1  0  0  0
 12 41  1  0  0  0
 12 42  1  0  0  0
 13 43  1  0  0  0
 13 44  1  0  0  0
 15 45  1  0  0  0
 16 46  1  0  0  0
 19 47  1  0  0  0
 20 48  1  0  0  0
 24 49  1  0  0  0
 24 50  1  0  0  0
 25 51  1  0  0  0
 25 52  1  0  0  0
 27 53  1  0  0  0
 27 54  1  0  0  0
 28 55  1  0  0  0
 28 56  1  0  0  0
M  END
$$$$
