2nsl_ligand
  -I-interpret- 

 36 37  0  0  0  0  0  0  0  0999 V2000
   15.5900  -11.6380   -9.4290 P   0  0  0  0  0
   16.4120  -12.9650   -9.0360 O   0  0  0  0  0
   14.5510  -11.3900   -8.2250 O   0  0  0  0  0
   16.4640  -10.4730   -9.6880 O   0  0  0  0  0
   14.6290  -13.9900  -15.0020 N   0  0  0  0  0
   14.5190  -14.3090  -16.2870 C   0  0  0  0  0
   15.5330  -15.2080  -16.5790 C   0  0  0  0  0
   16.2440  -15.3900  -15.4710 N   0  0  0  0  0
   15.6860  -14.6420  -14.5190 C   0  0  0  0  0
   13.6380  -13.8050  -17.1480 N   0  0  0  0  0
   15.7230  -15.9450  -17.9060 C   0  0  0  0  0
   14.9970  -15.6090  -18.8670 O   0  0  0  0  0
   16.5850  -16.8500  -17.9530 O   0  0  0  0  0
   14.6990  -12.0440  -10.7070 O   0  0  0  0  0
   13.1420  -14.0120  -13.0640 C   0  0  0  0  0
   12.1960  -14.9550  -13.5740 O   0  0  0  0  0
   12.4230  -12.9180  -12.2750 C   0  0  0  0  0
   11.0870  -12.7740  -12.7640 O   0  0  0  0  0
   13.8620  -11.0750  -11.3420 C   0  0  0  0  0
   13.2410  -11.6660  -12.6090 C   0  0  0  0  0
   14.2830  -12.0960  -13.5020 O   0  0  0  0  0
   13.6720  -13.1730  -14.2240 C   0  0  0  0  0
   15.7977  -13.6860   -8.8797 H   0  0  0  0  0
   14.0122  -12.1750   -8.1020 H   0  0  0  0  0
   16.0435  -14.5735  -13.4916 H   0  0  0  0  0
   12.9642  -13.1051  -16.8372 H   0  0  0  0  0
   13.6367  -14.1186  -18.1186 H   0  0  0  0  0
   17.0142  -16.9263  -17.0977 H   0  0  0  0  0
   13.8801  -14.5817  -12.4994 H   0  0  0  0  0
   12.6590  -15.6363  -14.0670 H   0  0  0  0  0
   12.3535  -13.1187  -11.2059 H   0  0  0  0  0
   10.6378  -12.0865  -12.2669 H   0  0  0  0  0
   14.4616  -10.2051  -11.6099 H   0  0  0  0  0
   13.0665  -10.7848  -10.6556 H   0  0  0  0  0
   12.6120  -10.8968  -13.0572 H   0  0  0  0  0
   12.9478  -12.8234  -14.9599 H   0  0  0  0  0
  1  2  1  0  0  0
  1  3  1  0  0  0
  1  4  2  0  0  0
 14  1  1  0  0  0
  5  6  4  0  0  0
  5  9  4  0  0  0
 22  5  1  0  0  0
  6  7  4  0  0  0
  6 10  1  0  0  0
  8  7  4  0  0  0
  7 11  1  0  0  0
  9  8  4  0  0  0
 11 12  2  0  0  0
 11 13  1  0  0  0
 19 14  1  0  0  0
 15 16  1  0  0  0
 17 15  1  0  0  0
 15 22  1  0  0  0
 17 18  1  0  0  0
 20 17  1  0  0  0
 19 20  1  0  0  0
 20 21  1  0  0  0
 21 22  1  0  0  0
  2 23  1  0  0  0
  3 24  1  0  0  0
  9 25  1  0  0  0
 10 26  1  0  0  0
 10 27  1  0  0  0
 13 28  1  0  0  0
 15 29  1  0  0  0
 16 30  1  0  0  0
 17 31  1  0  0  0
 18 32  1  0  0  0
 19 33  1  0  0  0
 19 34  1  0  0  0
 20 35  1  0  0  0
 22 36  1  0  0  0
M  END
$$$$
